AV-unprocessed.smi:3188|AV-procd|sdf|12185|dock10
  -GOLD-   2272018 23D 1   1.00000     0.00000
 Structure written by MMmdl.
 40 41  0  0  0  0  0  0  0  0  2 V2000
  153.9890  140.7055  160.9322 C   0  0  0  0  0  0  0  0  0  0  0  0
  153.1492  141.9509  160.6962 C   0  0  0  0  0  0  0  0  0  0  0  0
  152.9161  142.7988  161.7163 C   0  0  0  0  0  0  0  0  0  0  0  0
  152.1616  144.1016  161.5875 C   0  0  0  0  0  0  0  0  0  0  0  0
  152.1377  144.5807  160.1344 C   0  0  0  0  0  0  0  0  0  0  0  0
  151.6924  143.4599  159.1812 C   0  0  1  0  0  0  0  0  0  0  0  0
  151.5895  144.0186  157.7487 C   0  0  0  0  0  0  0  0  0  0  0  0
  152.6147  142.2044  159.2702 C   0  0  2  0  0  0  0  0  0  0  0  0
  151.8904  140.9704  158.6693 C   0  0  0  0  0  0  0  0  0  0  0  0
  151.7073  141.0706  157.2077 N   0  3  0  0  0  0  0  0  0  0  0  0
  150.3440  141.4503  156.7867 C   0  0  0  0  0  0  0  0  0  0  0  0
  150.1531  141.2684  155.2727 C   0  0  0  0  0  0  0  0  0  0  0  0
  148.7490  141.2669  154.9032 N   0  0  0  0  0  0  0  0  0  0  0  0
  148.1873  141.0505  153.6622 C   0  0  0  0  0  0  0  0  0  0  0  0
  146.8485  141.1943  153.8908 C   0  0  0  0  0  0  0  0  0  0  0  0
  146.6548  141.4893  155.2391 N   0  0  0  0  0  0  0  0  0  0  0  0
  147.8029  141.5242  155.8380 N   0  0  0  0  0  0  0  0  0  0  0  0
  154.7831  140.6314  160.1889 H   0  0  0  0  0  0  0  0  0  0  0  0
  153.3756  139.8058  160.8883 H   0  0  0  0  0  0  0  0  0  0  0  0
  154.4613  140.7254  161.9150 H   0  0  0  0  0  0  0  0  0  0  0  0
  153.2919  142.5709  162.7035 H   0  0  0  0  0  0  0  0  0  0  0  0
  151.1495  143.9587  161.9672 H   0  0  0  0  0  0  0  0  0  0  0  0
  152.6374  144.8547  162.2161 H   0  0  0  0  0  0  0  0  0  0  0  0
  151.4737  145.4420  160.0496 H   0  0  0  0  0  0  0  0  0  0  0  0
  153.1318  144.9286  159.8489 H   0  0  0  0  0  0  0  0  0  0  0  0
  150.6891  143.1640  159.4924 H   0  0  0  0  0  0  0  0  0  0  0  0
  152.5671  144.3195  157.3708 H   0  0  0  0  0  0  0  0  0  0  0  0
  150.9435  144.8967  157.7191 H   0  0  0  0  0  0  0  0  0  0  0  0
  151.1715  143.2976  157.0483 H   0  0  0  0  0  0  0  0  0  0  0  0
  153.4980  142.4103  158.6634 H   0  0  0  0  0  0  0  0  0  0  0  0
  152.4521  140.0663  158.9087 H   0  0  0  0  0  0  0  0  0  0  0  0
  150.9004  140.8401  159.1031 H   0  0  0  0  0  0  0  0  0  0  0  0
  152.3653  141.7422  156.8388 H   0  0  0  0  0  0  0  0  0  0  0  0
  149.6124  140.8453  157.3243 H   0  0  0  0  0  0  0  0  0  0  0  0
  150.1646  142.4899  157.0632 H   0  0  0  0  0  0  0  0  0  0  0  0
  150.6439  142.0810  154.7358 H   0  0  0  0  0  0  0  0  0  0  0  0
  150.6191  140.3420  154.9324 H   0  0  0  0  0  0  0  0  0  0  0  0
  148.7581  140.8290  152.7723 H   0  0  0  0  0  0  0  0  0  0  0  0
  146.0175  141.1138  153.2054 H   0  0  0  0  0  0  0  0  0  0  0  0
  151.9150  140.1656  156.8090 H   0  0  0  0  0  0  0  0  0  0  0  0
  1  2  1  0  0  0  0
  1 18  1  0  0  0  0
  1 19  1  0  0  0  0
  1 20  1  0  0  0  0
  2  8  1  0  0  0  0
  2  3  2  0  0  0  0
  3  4  1  0  0  0  0
  3 21  1  0  0  0  0
  4  5  1  0  0  0  0
  4 22  1  0  0  0  0
  4 23  1  0  0  0  0
  5  6  1  0  0  0  0
  5 24  1  0  0  0  0
  5 25  1  0  0  0  0
  6  7  1  0  0  0  0
  6  8  1  0  0  0  0
  6 26  1  0  0  0  0
  7 27  1  0  0  0  0
  7 28  1  0  0  0  0
  7 29  1  0  0  0  0
  8  9  1  0  0  0  0
  8 30  1  0  0  0  0
  9 10  1  0  0  0  0
  9 31  1  0  0  0  0
  9 32  1  0  0  0  0
 10 11  1  0  0  0  0
 10 33  1  0  0  0  0
 10 40  1  0  0  0  0
 11 12  1  0  0  0  0
 11 34  1  0  0  0  0
 11 35  1  0  0  0  0
 12 13  1  0  0  0  0
 12 36  1  0  0  0  0
 12 37  1  0  0  0  0
 13 17  1  0  0  0  0
 13 14  1  0  0  0  0
 14 15  2  0  0  0  0
 14 38  1  0  0  0  0
 15 16  1  0  0  0  0
 15 39  1  0  0  0  0
 16 17  2  0  0  0  0
M  CHG  1  10   1
M  END
> <s_m_source_file>
AV-unprocessed.smi

> <i_m_source_file_index>
3188

> <i_lp_mmshare_version>
43012

> <i_f3d_flags>
0

> <s_epik_input>
W0NIM11DMT1bQ0hdW0NIMl1bQ0gyXVtDQEBIXShbQ0gzXSlbQ0BIXTFbQ0gyXVtOSF1bQ0gyXVtDSDJdbjJbY0hdW2NIXW5uMg==

> <s_epik_cmdline>
J2VwaWtfcHl0aG9uJywgJy1waCcsICc3LjAnLCAnLXRuJywgJzgnLCAnLW1hJywgJzIwMCcsICctbWV0YWxfYmluZGluZycsICctaW1hZScsICc8aW5maWxlLm1hZT4nLCAnLW9tYWUnLCAnPG91dGZpbGUubWFlPic=

> <r_lp_tautomer_probability>
1

> <r_epik_Ionization_Penalty>
0.007268

> <r_epik_Ionization_Penalty_Charging>
0.00726786

> <r_epik_Ionization_Penalty_Neutral>
1.34882e-07

> <r_epik_State_Penalty>
0.00542069

> <r_epik_Charging_Adjusted_Penalty>
0.0126886

> <i_epik_Tot_Q>
1

> <i_epik_Tot_abs_Q>
1

> <r_epik_Metal_State_Penalty>
-0

> <b_epik_Metal_Only>
0

> <s_lp_Force_Field>
OPLS_2005

> <r_lp_Energy>
14.3192

> <b_lp_Chiralities_Consistent>
1

> <s_lp_Variant>
AV-unprocessed.smi:3188-3

> <Gold.Version>
5.8.1

> <Gold.Id.Protein>
6NUR|6NUR_protein|mol2

> <Gold.PLP.Fitness>
49.3021

> <Gold.PLP.PLP>
-44.2314

> <Gold.PLP.part.hbond>
0.0000

> <Gold.PLP.part.metal>
0.0000

> <Gold.PLP.part.buried>
-4.9153

> <Gold.PLP.part.nonpolar>
-39.8565

> <Gold.PLP.part.repulsive>
0.3182

> <Gold.PLP.ligand.clash>
0.0122

> <Gold.PLP.ligand.torsion>
0.4950

> <Gold.PLP.Chemscore.Hbond>
0.0000

> <Gold.PLP.Chemscore.CHOScore>
2.0000

> <Gold.PLP.Chemscore.Metal>
0.0000

> <Gold.Chemscore.Hbonds>
donor molecule, donor type, donor heavy atom, donor atom, acceptor molecule, acceptor atom, score
      L1  C    14    38       P1  7957  0.87
      L1  C    15    39       P1 10175  1.00

> <Gold.PLP.Chemscore.Internal.Correction>
0.0728

> <Gold.Rescore>
     Score         DG    S(hbond)    S(metal)    S(lipo)     H(rot)  DE(clash)    DE(int)     intcor
     14.32     -15.85       0.00        0.00     127.58       1.78       0.16       1.36       ----

> <Gold.Chemscore.Fitness>
14.3237

> <Gold.Chemscore.DG>
-15.8475

> <Gold.Chemscore.ZeroCoef>
-5.4800

> <Gold.Chemscore.Hbond>
0.0000

> <Gold.Chemscore.Metal>
0.0000

> <Gold.Chemscore.Lipo>
127.5767

> <Gold.Chemscore.Internal_Hbond>
0.0000

> <Gold.Chemscore.DEClash>
0.1604

> <Gold.Chemscore.DEInternal>
1.3634

> <Gold.Chemscore.Rot>
1.7809

> <Gold.Chemscore.Internal.Correction>
   9.000000E+99

> <Gold.Chemscore.Hbond.Weighted>
-0.0000

> <Gold.Chemscore.Metal.Weighted>
-0.0000

> <Gold.Chemscore.Lipo.Weighted>
-14.9265

> <Gold.Chemscore.Internal_Hbond.Weighted>
0.0000

> <Gold.Chemscore.DEClash.Weighted>
0.1604

> <Gold.Chemscore.DEInternal.Weighted>
1.3634

> <Gold.Chemscore.Rot.Weighted>
4.5590

> <Gold.Chemscore.Internal.Correction.Weighted>
   9.000000E+99

> <Gold.Protein.RotatedTorsions>
[ 6907 6896 6895 6894 ] final  137.09 input  -60.11 | X-H torsion
[ 7974 7965 7964 7962 ] final  166.01 input  175.53 | X-H torsion
[ 8008 7997 7996 7995 ] final -132.80 input   59.86 | X-H torsion
[ 10167 10162 10161 10158 ] final -140.17 input  -65.29 | X-H torsion
[ 10718 10713 10712 10709 ] final  120.23 input   66.30 | X-H torsion
[ 10763 10752 10751 10750 ] final -158.11 input  -60.55 | X-H torsion
[ 11005 11000 10999 10996 ] final  -63.95 input  -57.11 | X-H torsion

> <Gold.Protein.ActiveResidues>
 VAL166  LYS551  ARG553  GLY616  TRP617  ASP618  TYR619  PRO620  LYS621  CYS622 
 ASP623  PHE694  ASN695  SER759  ASP760  ASP761  ALA762  ILE779  LEU786  VAL792 
 PHE793  MET794  SER795  GLU796  ALA797  LYS798  CYS799  TRP800  GLU811  SER814 

> <Gold.Protein.RotatedAtoms>
  152.2820  133.5479  159.5503 H   0  0  0  0  0  0  0  0  0  0  0  0  # atno 6907 bound_to 6896
  150.7200  134.0550  159.3820 H   0  0  0  0  0  0  0  0  0  0  0  0  # atno 6908 bound_to 6896
  151.8460  135.0574  160.0504 H   0  0  0  0  0  0  0  0  0  0  0  0  # atno 6909 bound_to 6896
  144.7479  139.8552  143.6376 H   0  0  0  0  0  0  0  0  0  0  0  0  # atno 7974 bound_to 7965
  155.3350  140.0469  157.3043 H   0  0  0  0  0  0  0  0  0  0  0  0  # atno 8008 bound_to 7997
  154.5308  140.2256  155.8774 H   0  0  0  0  0  0  0  0  0  0  0  0  # atno 8009 bound_to 7997
  156.1786  140.3079  155.9112 H   0  0  0  0  0  0  0  0  0  0  0  0  # atno 8010 bound_to 7997
  139.8308  143.7450  152.2666 H   0  0  0  0  0  0  0  0  0  0  0  0  # atno 10167 bound_to 10162
  157.5905  131.1065  150.8006 H   0  0  0  0  0  0  0  0  0  0  0  0  # atno 10718 bound_to 10713
  154.7583  135.3111  154.8427 H   0  0  0  0  0  0  0  0  0  0  0  0  # atno 10763 bound_to 10752
  153.9195  135.6797  153.4752 H   0  0  0  0  0  0  0  0  0  0  0  0  # atno 10764 bound_to 10752
  153.1182  135.4835  154.9081 H   0  0  0  0  0  0  0  0  0  0  0  0  # atno 10765 bound_to 10752
  141.1409  133.6659  156.5759 H   0  0  0  0  0  0  0  0  0  0  0  0  # atno 11005 bound_to 11000
  146.1387  139.4439  143.0122 LP  0  0  0  0  0  0  0  0  0  0  0  0  # atno 17320 bound_to 7965
  145.7051  141.0124  143.1483 LP  0  0  0  0  0  0  0  0  0  0  0  0  # atno 17321 bound_to 7965
  139.7656  144.7493  151.0299 LP  0  0  0  0  0  0  0  0  0  0  0  0  # atno 17342 bound_to 10162
  140.7807  143.4701  151.0158 LP  0  0  0  0  0  0  0  0  0  0  0  0  # atno 17343 bound_to 10162
  156.8430  130.5054  149.5319 LP  0  0  0  0  0  0  0  0  0  0  0  0  # atno 17370 bound_to 10713
  156.0960  130.5932  150.9814 LP  0  0  0  0  0  0  0  0  0  0  0  0  # atno 17371 bound_to 10713
  140.3876  134.7469  157.4701 LP  0  0  0  0  0  0  0  0  0  0  0  0  # atno 17394 bound_to 11000
  140.0590  134.6022  155.8771 LP  0  0  0  0  0  0  0  0  0  0  0  0  # atno 17395 bound_to 11000

$$$$
