AV-unprocessed.smi:1047|AV-procd|sdf|4582|dock1
  -GOLD-   22720 3 53D 1   1.00000     0.00000
 Structure written by MMmdl.
 58 60  0  0  0  0  0  0  0  0  4 V2000
  147.1358  131.4339  154.9154 C   0  0  0  0  0  0  0  0  0  0  0  0
  147.5019  131.1364  153.4544 C   0  0  0  0  0  0  0  0  0  0  0  0
  147.9239  132.3556  152.7147 N   0  3  1  0  0  0  0  0  0  0  0  0
  146.8300  133.3381  152.5197 C   0  0  0  0  0  0  0  0  0  0  0  0
  146.5720  134.1450  153.8043 C   0  0  0  0  0  0  0  0  0  0  0  0
  147.7766  134.7835  154.2108 O   0  0  0  0  0  0  0  0  0  0  0  0
  148.8131  133.8584  154.5221 C   0  0  2  0  0  0  0  0  0  0  0  0
  150.0209  134.6713  155.0185 C   0  0  0  0  0  0  0  0  0  0  0  0
  149.8767  136.1111  154.7197 N   0  3  0  0  0  0  0  0  0  0  0  0
  151.0168  136.9363  155.1689 C   0  0  0  0  0  0  0  0  0  0  0  0
  150.6600  138.4327  155.1731 C   0  0  2  0  0  0  0  0  0  0  0  0
  150.9622  138.9713  153.9006 O   0  0  0  0  0  0  0  0  0  0  0  0
  151.4332  139.2055  156.2606 C   0  0  0  0  0  0  0  0  0  0  0  0
  151.0226  140.6139  156.3652 N   0  0  0  0  0  0  0  0  0  0  0  0
  150.1712  141.3303  155.5809 C   0  0  0  0  0  0  0  0  0  0  0  0
  150.1110  142.5933  156.0853 N   0  3  0  0  0  0  0  0  0  0  0  0
  150.9331  142.6863  157.2100 C   0  0  0  0  0  0  0  0  0  0  0  0
  151.2015  143.7573  158.0538 C   0  0  0  0  0  0  0  0  0  0  0  0
  152.0947  143.5270  159.1241 C   0  0  0  0  0  0  0  0  0  0  0  0
  152.4126  144.6779  160.0637 C   0  0  0  0  0  0  0  0  0  0  0  0
  152.6846  142.2517  159.3208 C   0  0  0  0  0  0  0  0  0  0  0  0
  153.6392  142.0141  160.4785 C   0  0  0  0  0  0  0  0  0  0  0  0
  152.4007  141.1755  158.4497 C   0  0  0  0  0  0  0  0  0  0  0  0
  151.5190  141.4189  157.3987 C   0  0  0  0  0  0  0  0  0  0  0  0
  149.1339  133.0274  153.2565 C   0  0  0  0  0  0  0  0  0  0  0  0
  146.9245  130.5086  155.4522 H   0  0  0  0  0  0  0  0  0  0  0  0
  146.2501  132.0628  154.9989 H   0  0  0  0  0  0  0  0  0  0  0  0
  147.9548  131.9339  155.4331 H   0  0  0  0  0  0  0  0  0  0  0  0
  148.3271  130.4235  153.4623 H   0  0  0  0  0  0  0  0  0  0  0  0
  146.6749  130.6386  152.9491 H   0  0  0  0  0  0  0  0  0  0  0  0
  147.1198  134.0197  151.7189 H   0  0  0  0  0  0  0  0  0  0  0  0
  145.9191  132.8423  152.1822 H   0  0  0  0  0  0  0  0  0  0  0  0
  145.8156  134.9079  153.6203 H   0  0  0  0  0  0  0  0  0  0  0  0
  146.1903  133.5087  154.6042 H   0  0  0  0  0  0  0  0  0  0  0  0
  148.4728  133.2111  155.3318 H   0  0  0  0  0  0  0  0  0  0  0  0
  150.1620  134.5267  156.0905 H   0  0  0  0  0  0  0  0  0  0  0  0
  150.9260  134.3103  154.5279 H   0  0  0  0  0  0  0  0  0  0  0  0
  149.7829  136.2268  153.7201 H   0  0  0  0  0  0  0  0  0  0  0  0
  151.2940  136.6209  156.1758 H   0  0  0  0  0  0  0  0  0  0  0  0
  151.8809  136.7531  154.5282 H   0  0  0  0  0  0  0  0  0  0  0  0
  149.5898  138.5513  155.3487 H   0  0  0  0  0  0  0  0  0  0  0  0
  150.8584  138.2897  153.2532 H   0  0  0  0  0  0  0  0  0  0  0  0
  151.2554  138.7492  157.2354 H   0  0  0  0  0  0  0  0  0  0  0  0
  152.5097  139.1546  156.0954 H   0  0  0  0  0  0  0  0  0  0  0  0
  149.6379  140.9642  154.7154 H   0  0  0  0  0  0  0  0  0  0  0  0
  150.7478  144.7253  157.8989 H   0  0  0  0  0  0  0  0  0  0  0  0
  152.0984  144.4407  161.0803 H   0  0  0  0  0  0  0  0  0  0  0  0
  151.9021  145.5927  159.7614 H   0  0  0  0  0  0  0  0  0  0  0  0
  153.4833  144.8823  160.0703 H   0  0  0  0  0  0  0  0  0  0  0  0
  153.9907  140.9821  160.5017 H   0  0  0  0  0  0  0  0  0  0  0  0
  153.1458  142.2183  161.4293 H   0  0  0  0  0  0  0  0  0  0  0  0
  154.5124  142.6615  160.3945 H   0  0  0  0  0  0  0  0  0  0  0  0
  152.8555  140.2077  158.5997 H   0  0  0  0  0  0  0  0  0  0  0  0
  149.9232  132.3034  153.4552 H   0  0  0  0  0  0  0  0  0  0  0  0
  149.5222  133.6893  152.4810 H   0  0  0  0  0  0  0  0  0  0  0  0
  149.0384  136.4555  155.1654 H   0  0  0  0  0  0  0  0  0  0  0  0
  148.1647  132.0284  151.7894 H   0  0  0  0  0  0  0  0  0  0  0  0
  149.5476  143.3356  155.6902 H   0  0  0  0  0  0  0  0  0  0  0  0
  1  2  1  0  0  0  0
  1 26  1  0  0  0  0
  1 27  1  0  0  0  0
  1 28  1  0  0  0  0
  2  3  1  0  0  0  0
  2 29  1  0  0  0  0
  2 30  1  0  0  0  0
  3 25  1  0  0  0  0
  3  4  1  0  0  0  0
  3 57  1  0  0  0  0
  4  5  1  0  0  0  0
  4 31  1  0  0  0  0
  4 32  1  0  0  0  0
  5  6  1  0  0  0  0
  5 33  1  0  0  0  0
  5 34  1  0  0  0  0
  6  7  1  0  0  0  0
  7  8  1  0  0  0  0
  7 25  1  0  0  0  0
  7 35  1  0  0  0  0
  8  9  1  0  0  0  0
  8 36  1  0  0  0  0
  8 37  1  0  0  0  0
  9 10  1  0  0  0  0
  9 38  1  0  0  0  0
  9 56  1  0  0  0  0
 10 11  1  0  0  0  0
 10 39  1  0  0  0  0
 10 40  1  0  0  0  0
 11 12  1  0  0  0  0
 11 13  1  0  0  0  0
 11 41  1  0  0  0  0
 12 42  1  0  0  0  0
 13 14  1  0  0  0  0
 13 43  1  0  0  0  0
 13 44  1  0  0  0  0
 14 24  1  0  0  0  0
 14 15  1  0  0  0  0
 15 16  2  0  0  0  0
 15 45  1  0  0  0  0
 16 17  1  0  0  0  0
 16 58  1  0  0  0  0
 17 24  2  0  0  0  0
 17 18  1  0  0  0  0
 18 19  2  0  0  0  0
 18 46  1  0  0  0  0
 19 20  1  0  0  0  0
 19 21  1  0  0  0  0
 20 47  1  0  0  0  0
 20 48  1  0  0  0  0
 20 49  1  0  0  0  0
 21 22  1  0  0  0  0
 21 23  2  0  0  0  0
 22 50  1  0  0  0  0
 22 51  1  0  0  0  0
 22 52  1  0  0  0  0
 23 24  1  0  0  0  0
 23 53  1  0  0  0  0
 25 54  1  0  0  0  0
 25 55  1  0  0  0  0
M  CHG  1   3   1
M  CHG  1   9   1
M  CHG  1  16   1
M  END
> <s_m_source_file>
AV-unprocessed.smi

> <i_m_source_file_index>
1047

> <i_lp_mmshare_version>
43012

> <i_f3d_flags>
0

> <s_epik_input>
W0NIM11bQ0gyXU4xW0NIMl1bQ0gyXU9bQ0BIXShbQ0gyXTEpW0NIMl1bTkhdW0NIMl1bQ0BIXShbT0hdKVtDSDJdbihbY0hdbjIpYyhjMjMpW2NIXWMoW0NIM10pYyhbY0hdMylbQ0gzXQ==

> <s_epik_cmdline>
J2VwaWtfcHl0aG9uJywgJy1waCcsICc3LjAnLCAnLXRuJywgJzgnLCAnLW1hJywgJzIwMCcsICctbWV0YWxfYmluZGluZycsICctaW1hZScsICc8aW5maWxlLm1hZT4nLCAnLW9tYWUnLCAnPG91dGZpbGUubWFlPic=

> <r_epik_Ionization_Penalty>
1.6114

> <r_epik_Ionization_Penalty_Charging>
1.61139

> <r_epik_Ionization_Penalty_Neutral>
5.04732e-06

> <r_epik_State_Penalty>
1.63724

> <r_epik_Charging_Adjusted_Penalty>
3.24864

> <i_epik_Tot_Q>
3

> <i_epik_Tot_abs_Q>
3

> <r_epik_Metal_State_Penalty>
5.64594

> <b_epik_Metal_Only>
0

> <s_lp_Force_Field>
OPLS_2005

> <r_lp_Energy>
42.8961

> <b_lp_Chiralities_Consistent>
1

> <s_lp_Variant>
AV-unprocessed.smi:1047-23

> <Gold.Version>
5.8.1

> <Gold.Id.Protein>
6NUR|6NUR_protein|mol2

> <Gold.PLP.Fitness>
62.8691

> <Gold.PLP.PLP>
-48.4223

> <Gold.PLP.part.hbond>
-4.1759

> <Gold.PLP.part.metal>
0.0000

> <Gold.PLP.part.buried>
-5.5413

> <Gold.PLP.part.nonpolar>
-40.5456

> <Gold.PLP.part.repulsive>
1.7686

> <Gold.PLP.ligand.clash>
1.3965

> <Gold.PLP.ligand.torsion>
1.1517

> <Gold.PLP.Chemscore.Hbond>
6.0000

> <Gold.PLP.Chemscore.CHOScore>
0.0000

> <Gold.PLP.Chemscore.Metal>
0.0000

> <Gold.Chemscore.Hbonds>
donor molecule, donor type, donor heavy atom, donor atom, acceptor molecule, acceptor atom, score
      L1  H     3    57       P1 10747  0.89
      L1  H     9    38       P1  7948  2.00
      L1  H    16    58       P1  8028  2.00
      P1  H  7989  7998       L1    12  0.99

> <Gold.PLP.Chemscore.Internal.Correction>
0.1466

> <Gold.Rescore>
     Score         DG    S(hbond)    S(metal)    S(lipo)     H(rot)  DE(clash)    DE(int)     intcor
     19.14     -22.74       2.90        0.00     125.74       2.78       0.34       3.26       ----

> <Gold.Chemscore.Fitness>
19.1369

> <Gold.Chemscore.DG>
-22.7360

> <Gold.Chemscore.ZeroCoef>
-5.4800

> <Gold.Chemscore.Hbond>
2.8963

> <Gold.Chemscore.Metal>
0.0000

> <Gold.Chemscore.Lipo>
125.7395

> <Gold.Chemscore.Internal_Hbond>
0.0000

> <Gold.Chemscore.DEClash>
0.3404

> <Gold.Chemscore.DEInternal>
3.2586

> <Gold.Chemscore.Rot>
2.7848

> <Gold.Chemscore.Internal.Correction>
   9.000000E+99

> <Gold.Chemscore.Hbonds>
donor molecule, donor type, donor heavy atom, donor atom, acceptor molecule, acceptor atom, score
      L1  H     3    57       P1 10747  0.87
      L1  H     9    38       P1  7948  0.29
      L1  H    16    58       P1  8028  0.92
      P1  H  7989  7998       L1    12  0.87

> <Gold.Chemscore.Hbond.Weighted>
-9.6736

> <Gold.Chemscore.Metal.Weighted>
-0.0000

> <Gold.Chemscore.Lipo.Weighted>
-14.7115

> <Gold.Chemscore.Internal_Hbond.Weighted>
0.0000

> <Gold.Chemscore.DEClash.Weighted>
0.3404

> <Gold.Chemscore.DEInternal.Weighted>
3.2586

> <Gold.Chemscore.Rot.Weighted>
7.1291

> <Gold.Chemscore.Internal.Correction.Weighted>
   9.000000E+99

> <Gold.Protein.RotatedTorsions>
[ 6907 6896 6895 6894 ] final  126.43 input  -60.11 | X-H torsion
[ 7974 7965 7964 7962 ] final   37.39 input  175.53 | X-H torsion
[ 8008 7997 7996 7995 ] final  113.60 input   59.86 | X-H torsion
[ 10167 10162 10161 10158 ] final  -22.10 input  -65.29 | X-H torsion
[ 10718 10713 10712 10709 ] final -159.70 input   66.30 | X-H torsion
[ 10763 10752 10751 10750 ] final  129.96 input  -60.55 | X-H torsion
[ 11005 11000 10999 10996 ] final   41.92 input  -57.11 | X-H torsion

> <Gold.Protein.ActiveResidues>
 VAL166  LYS551  ARG553  GLY616  TRP617  ASP618  TYR619  PRO620  LYS621  CYS622 
 ASP623  PHE694  ASN695  SER759  ASP760  ASP761  ALA762  ILE779  LEU786  VAL792 
 PHE793  MET794  SER795  GLU796  ALA797  LYS798  CYS799  TRP800  GLU811  SER814 

> <Gold.Protein.RotatedAtoms>
  152.3904  133.6671  159.6232 H   0  0  0  0  0  0  0  0  0  0  0  0  # atno 6907 bound_to 6896
  150.7814  133.8964  159.3337 H   0  0  0  0  0  0  0  0  0  0  0  0  # atno 6908 bound_to 6896
  151.6751  135.0971  160.0257 H   0  0  0  0  0  0  0  0  0  0  0  0  # atno 6909 bound_to 6896
  146.1141  139.5900  142.9333 H   0  0  0  0  0  0  0  0  0  0  0  0  # atno 7974 bound_to 7965
  156.2268  140.2976  156.0088 H   0  0  0  0  0  0  0  0  0  0  0  0  # atno 8008 bound_to 7997
  155.2334  140.0420  157.2982 H   0  0  0  0  0  0  0  0  0  0  0  0  # atno 8009 bound_to 7997
  154.5929  140.2406  155.7904 H   0  0  0  0  0  0  0  0  0  0  0  0  # atno 8010 bound_to 7997
  140.7285  143.4566  151.0440 H   0  0  0  0  0  0  0  0  0  0  0  0  # atno 10167 bound_to 10162
  156.5718  130.8691  151.2840 H   0  0  0  0  0  0  0  0  0  0  0  0  # atno 10718 bound_to 10713
  153.7503  135.3211  155.3320 H   0  0  0  0  0  0  0  0  0  0  0  0  # atno 10763 bound_to 10752
  154.8265  135.4566  154.0938 H   0  0  0  0  0  0  0  0  0  0  0  0  # atno 10764 bound_to 10752
  153.2139  135.6939  153.8163 H   0  0  0  0  0  0  0  0  0  0  0  0  # atno 10765 bound_to 10752
  140.1788  134.4130  155.8212 H   0  0  0  0  0  0  0  0  0  0  0  0  # atno 11005 bound_to 11000
  145.5603  141.0405  143.2230 LP  0  0  0  0  0  0  0  0  0  0  0  0  # atno 17320 bound_to 7965
  144.7537  139.7128  143.7262 LP  0  0  0  0  0  0  0  0  0  0  0  0  # atno 17321 bound_to 7965
  139.8246  143.7773  152.3178 LP  0  0  0  0  0  0  0  0  0  0  0  0  # atno 17342 bound_to 10162
  139.7867  144.7425  151.0011 LP  0  0  0  0  0  0  0  0  0  0  0  0  # atno 17343 bound_to 10162
  157.7346  130.9749  150.2040 LP  0  0  0  0  0  0  0  0  0  0  0  0  # atno 17370 bound_to 10713
  156.2708  130.3721  149.8033 LP  0  0  0  0  0  0  0  0  0  0  0  0  # atno 17371 bound_to 10713
  141.2222  133.6990  156.7894 LP  0  0  0  0  0  0  0  0  0  0  0  0  # atno 17394 bound_to 11000
  140.2291  134.8699  157.3458 LP  0  0  0  0  0  0  0  0  0  0  0  0  # atno 17395 bound_to 11000

$$$$
