#       Name:                AV-unprocessed.smi:2967
#       Creating user name   scv26
#       Creation time:       Fri Mar 27 16:23:27 2020


#       File generated by GOLD software.
#

@<TRIPOS>MOLECULE
AV-unprocessed.smi:2967
    44    45     1
SMALL
NO_CHARGES


@<TRIPOS>ATOM
      1 ****         0.2224   1.6058   0.6644 O.2            1 S1                 0.0000
      2 ****         0.9122   0.6016   0.4811 C.2            1 S1                 0.0000
      3 ****         2.4453   0.6893   0.4671 C.3            1 S1                 0.0000
      4 ****         2.9484   2.0635   0.3226 N.am           1 S1                 0.0000
      5 ****         3.3438   2.7846   1.4404 C.2            1 S1                 0.0000
      6 ****         3.8099   4.0545   1.3821 C.2            1 S1                 0.0000
      7 ****         3.9200   4.7428   0.1004 C.2            1 S1                 0.0000
      8 ****         4.3330   5.8897  -0.0553 O.2            1 S1                 0.0000
      9 ****         3.5087   3.9860  -1.0000 N.am           1 S1                 0.0000
     10 ****         3.0253   2.6776  -0.9467 C.2            1 S1                 0.0000
     11 ****         2.6844   2.1018  -1.9795 O.2            1 S1                 0.0000
     12 ****         0.3946  -0.6230   0.2970 N.am           1 S1                 0.0000
     13 ****        -1.0288  -0.9518   0.2699 C.3            1 S1                 0.0000
     14 ****        -1.2183  -2.3764   0.8316 C.3            1 S1                 0.0000
     15 ****        -2.6824  -2.7065   1.1684 C.3            1 S1                 0.0000
     16 ****        -3.5229  -3.2683   0.0081 C.3            1 S1                 0.0000
     17 ****        -3.2962  -2.6340  -1.3752 C.3            1 S1                 0.0000
     18 ****        -3.0444  -1.1179  -1.3692 C.3            1 S1                 0.0000
     19 ****        -1.5619  -0.7611  -1.1651 C.3            1 S1                 0.0000
     20 ****         3.5632   4.4227  -1.9087 H              1 S1                 0.0000
     21 ****         2.8190   0.2466   1.3915 H              1 S1                 0.0000
     22 ****         2.8392   0.0594  -0.3332 H              1 S1                 0.0000
     23 ****         3.2756   2.3161   2.4121 H              1 S1                 0.0000
     24 ****         4.1020   4.5642   2.2887 H              1 S1                 0.0000
     25 ****         1.0376  -1.3890   0.1580 H              1 S1                 0.0000
     26 ****        -1.5549  -0.2599   0.9306 H              1 S1                 0.0000
     27 ****        -0.7957  -3.1253   0.1607 H              1 S1                 0.0000
     28 ****        -0.6474  -2.4524   1.7584 H              1 S1                 0.0000
     29 ****        -2.7012  -3.4390   1.9760 H              1 S1                 0.0000
     30 ****        -3.1693  -1.8206   1.5781 H              1 S1                 0.0000
     31 ****        -3.3447  -4.3410  -0.0770 H              1 S1                 0.0000
     32 ****        -4.5753  -3.1686   0.2766 H              1 S1                 0.0000
     33 ****        -2.4686  -3.1371  -1.8768 H              1 S1                 0.0000
     34 ****        -4.1725  -2.8464  -1.9888 H              1 S1                 0.0000
     35 ****        -3.3460  -0.7253  -2.3410 H              1 S1                 0.0000
     36 ****        -3.6770  -0.6151  -0.6368 H              1 S1                 0.0000
     37 ****        -1.4266   0.2844  -1.4455 H              1 S1                 0.0000
     38 ****        -0.9519  -1.3324  -1.8664 H              1 S1                 0.0000
     39 ****         0.6599   2.4937   0.8068 LP             1 S1                 0.0000
     40 ****        -0.7749   1.5330   0.6709 LP             1 S1                 0.0000
     41 ****         4.6266   6.4271   0.7353 LP             1 S1                 0.0000
     42 ****         4.3755   6.2856  -0.9726 LP             1 S1                 0.0000
     43 ****         2.3378   1.1647  -1.9384 LP             1 S1                 0.0000
     44 ****         2.7540   2.5710  -2.8598 LP             1 S1                 0.0000
@<TRIPOS>BOND
    1    1    2 2     
    2    2    3 1     
    3    2   12 am    
    4    3    4 1     
    5    3   21 1     
    6    3   22 1     
    7    4   10 1     
    8    4    5 1     
    9    5    6 2     
   10    5   23 1     
   11    6    7 1     
   12    6   24 1     
   13    7    8 2     
   14    7    9 1     
   15    9   20 1     
   16    9   10 1     
   17   10   11 2     
   18   12   13 1     
   19   12   25 1     
   20   13   19 1     
   21   13   14 1     
   22   13   26 1     
   23   14   15 1     
   24   14   27 1     
   25   14   28 1     
   26   15   16 1     
   27   15   29 1     
   28   15   30 1     
   29   16   17 1     
   30   16   31 1     
   31   16   32 1     
   32   17   18 1     
   33   17   33 1     
   34   17   34 1     
   35   18   19 1     
   36   18   35 1     
   37   18   36 1     
   38   19   37 1     
   39   19   38 1     
   40    1   39 1     
   41    1   40 1     
   42    8   41 1     
   43    8   42 1     
   44   11   43 1     
   45   11   44 1     
@<TRIPOS>SUBSTRUCTURE
      1 S1             1
@<TRIPOS>SET
LONE_PAIRS      STATIC     ATOMS    <user>   **** ""
6 39 40 41 42 43 44
DONOR_HYDROGENS      STATIC     ATOMS    <user>   **** ""
2 20 25
ATOM$BLUE        STATIC     ATOMS    COLORGROUP SYSTEM
6 39 40 41 42 43 44
ATOM$RED        STATIC     ATOMS    COLORGROUP SYSTEM
2 20 25
