AV-unprocessed.smi:625|AV-procd|sdf|3108|dock6
  -GOLD-   22720 0 33D 1   1.00000     0.00000
 Structure written by MMmdl.
 49 51  0  0  0  0  0  0  0  0  1 V2000
  146.8068  128.1539  151.4999 C   0  0  0  0  0  0  0  0  0  0  0  0
  147.5372  129.0638  152.3694 N   0  0  0  0  0  0  0  0  0  0  0  0
  148.6315  128.7308  153.0736 C   0  0  0  0  0  0  0  0  0  0  0  0
  149.1084  127.5956  153.0295 O   0  0  0  0  0  0  0  0  0  0  0  0
  149.1775  129.8298  153.8739 C   0  0  0  0  0  0  0  0  0  0  0  0
  149.9710  129.6210  155.0761 C   0  0  0  0  0  0  0  0  0  0  0  0
  150.4344  130.6705  155.7828 C   0  0  0  0  0  0  0  0  0  0  0  0
  150.1652  132.0527  155.3780 C   0  0  0  0  0  0  0  0  0  0  0  0
  150.5714  133.0147  156.0299 O   0  0  0  0  0  0  0  0  0  0  0  0
  149.4272  132.2050  154.2364 N   0  0  0  0  0  0  0  0  0  0  0  0
  149.0786  133.5493  153.7393 C   0  0  0  0  0  0  0  0  0  0  0  0
  147.5693  133.7925  153.5670 C   0  0  0  0  0  0  0  0  0  0  0  0
  146.7804  133.2495  154.3394 O   0  0  0  0  0  0  0  0  0  0  0  0
  147.1743  134.5844  152.5558 N   0  0  0  0  0  0  0  0  0  0  0  0
  145.7963  134.8662  152.1673 C   0  0  1  0  0  0  0  0  0  0  0  0
  145.5606  136.3861  152.1250 C   0  0  0  0  0  0  0  0  0  0  0  0
  145.5196  134.1910  150.8035 C   0  0  1  0  0  0  0  0  0  0  0  0
  146.2595  132.8520  150.5753 C   0  0  0  0  0  0  0  0  0  0  0  0
  145.1402  131.9195  150.0767 C   0  0  1  0  0  0  0  0  0  0  0  0
  144.2410  131.5371  151.2660 C   0  0  0  0  0  0  0  0  0  0  0  0
  143.4677  132.8405  151.5368 C   0  0  0  0  0  0  0  0  0  0  0  0
  144.0515  133.8110  150.4889 C   0  0  2  0  0  0  0  0  0  0  0  0
  144.2426  132.8756  149.2988 C   0  0  0  0  0  0  0  0  0  0  0  0
  148.9410  131.1040  153.5042 C   0  0  0  0  0  0  0  0  0  0  0  0
  145.9539  128.6678  151.0571 H   0  0  0  0  0  0  0  0  0  0  0  0
  146.4340  127.2955  152.0601 H   0  0  0  0  0  0  0  0  0  0  0  0
  147.4446  127.7930  150.6921 H   0  0  0  0  0  0  0  0  0  0  0  0
  147.1898  130.0090  152.4431 H   0  0  0  0  0  0  0  0  0  0  0  0
  150.2064  128.6280  155.4296 H   0  0  0  0  0  0  0  0  0  0  0  0
  151.0204  130.4903  156.6720 H   0  0  0  0  0  0  0  0  0  0  0  0
  149.4824  134.3140  154.4051 H   0  0  0  0  0  0  0  0  0  0  0  0
  149.5596  133.7331  152.7778 H   0  0  0  0  0  0  0  0  0  0  0  0
  147.8938  134.9952  151.9787 H   0  0  0  0  0  0  0  0  0  0  0  0
  145.1431  134.4295  152.9232 H   0  0  0  0  0  0  0  0  0  0  0  0
  144.5249  136.6186  151.8780 H   0  0  0  0  0  0  0  0  0  0  0  0
  146.1968  136.8659  151.3805 H   0  0  0  0  0  0  0  0  0  0  0  0
  145.7720  136.8476  153.0898 H   0  0  0  0  0  0  0  0  0  0  0  0
  145.8461  134.8846  150.0259 H   0  0  0  0  0  0  0  0  0  0  0  0
  147.0392  132.9703  149.8218 H   0  0  0  0  0  0  0  0  0  0  0  0
  146.7324  132.4640  151.4787 H   0  0  0  0  0  0  0  0  0  0  0  0
  145.5046  131.0619  149.5105 H   0  0  0  0  0  0  0  0  0  0  0  0
  143.5551  130.7337  150.9944 H   0  0  0  0  0  0  0  0  0  0  0  0
  144.8168  131.2069  152.1314 H   0  0  0  0  0  0  0  0  0  0  0  0
  142.4024  132.6880  151.3586 H   0  0  0  0  0  0  0  0  0  0  0  0
  143.5732  133.1908  152.5625 H   0  0  0  0  0  0  0  0  0  0  0  0
  143.4114  134.6700  150.2856 H   0  0  0  0  0  0  0  0  0  0  0  0
  144.7429  133.3461  148.4504 H   0  0  0  0  0  0  0  0  0  0  0  0
  143.3143  132.4152  148.9549 H   0  0  0  0  0  0  0  0  0  0  0  0
  148.3577  131.3720  152.6342 H   0  0  0  0  0  0  0  0  0  0  0  0
  1  2  1  0  0  0  0
  1 25  1  0  0  0  0
  1 26  1  0  0  0  0
  1 27  1  0  0  0  0
  2  3  1  0  0  0  0
  2 28  1  0  0  0  0
  3  4  2  0  0  0  0
  3  5  1  0  0  0  0
  5 24  2  0  0  0  0
  5  6  1  0  0  0  0
  6  7  2  0  0  0  0
  6 29  1  0  0  0  0
  7  8  1  0  0  0  0
  7 30  1  0  0  0  0
  8  9  2  0  0  0  0
  8 10  1  0  0  0  0
 10 11  1  0  0  0  0
 10 24  1  0  0  0  0
 11 12  1  0  0  0  0
 11 31  1  0  0  0  0
 11 32  1  0  0  0  0
 12 13  2  0  0  0  0
 12 14  1  0  0  0  0
 14 15  1  0  0  0  0
 14 33  1  0  0  0  0
 15 16  1  0  0  0  0
 15 17  1  0  0  0  0
 15 34  1  0  0  0  0
 16 35  1  0  0  0  0
 16 36  1  0  0  0  0
 16 37  1  0  0  0  0
 17 22  1  0  0  0  0
 17 18  1  0  0  0  0
 17 38  1  0  0  0  0
 18 19  1  0  0  0  0
 18 39  1  0  0  0  0
 18 40  1  0  0  0  0
 19 23  1  0  0  0  0
 19 20  1  0  0  0  0
 19 41  1  0  0  0  0
 20 21  1  0  0  0  0
 20 42  1  0  0  0  0
 20 43  1  0  0  0  0
 21 22  1  0  0  0  0
 21 44  1  0  0  0  0
 21 45  1  0  0  0  0
 22 23  1  0  0  0  0
 22 46  1  0  0  0  0
 23 47  1  0  0  0  0
 23 48  1  0  0  0  0
 24 49  1  0  0  0  0
M  END
> <s_m_source_file>
AV-unprocessed.smi

> <i_m_source_file_index>
625

> <i_lp_mmshare_version>
43012

> <i_f3d_flags>
0

> <s_epik_input>
W0NIM11bTkhdQyg9TyljMVtjSF1bY0hdYyg9TyluKFtjSF0xKVtDSDJdQyg9TylbTkhdW0NASF0oW0NIM10pW0NASF0oW0NIMl1bQ0BIXTIzKVtDQEhdKFtDSDJdMylbQ0gyXVtDSDJdMg==

> <s_epik_cmdline>
J2VwaWtfcHl0aG9uJywgJy1waCcsICc3LjAnLCAnLXRuJywgJzgnLCAnLW1hJywgJzIwMCcsICctbWV0YWxfYmluZGluZycsICctaW1hZScsICc8aW5maWxlLm1hZT4nLCAnLW9tYWUnLCAnPG91dGZpbGUubWFlPic=

> <r_lp_tautomer_probability>
1

> <r_epik_Ionization_Penalty>
3.7129e-07

> <r_epik_Ionization_Penalty_Charging>
5.04114e-08

> <r_epik_Ionization_Penalty_Neutral>
3.20879e-07

> <r_epik_State_Penalty>
-0

> <r_epik_Charging_Adjusted_Penalty>
5.04114e-08

> <i_epik_Tot_Q>
0

> <i_epik_Tot_abs_Q>
0

> <r_epik_Metal_State_Penalty>
-0

> <b_epik_Metal_Only>
0

> <s_lp_Force_Field>
OPLS_2005

> <r_lp_Energy>
63.411

> <b_lp_Chiralities_Consistent>
1

> <s_lp_Variant>
AV-unprocessed.smi:625-8

> <Gold.Version>
5.8.1

> <Gold.Id.Protein>
6NUR|6NUR_protein|mol2

> <Gold.PLP.Fitness>
48.7520

> <Gold.PLP.PLP>
-46.3194

> <Gold.PLP.part.hbond>
-1.9453

> <Gold.PLP.part.metal>
0.0000

> <Gold.PLP.part.buried>
-3.9657

> <Gold.PLP.part.nonpolar>
-41.0112

> <Gold.PLP.part.repulsive>
1.2938

> <Gold.PLP.ligand.clash>
0.9362

> <Gold.PLP.ligand.torsion>
1.2755

> <Gold.PLP.Chemscore.Hbond>
1.0000

> <Gold.PLP.Chemscore.CHOScore>
0.9410

> <Gold.PLP.Chemscore.Metal>
0.0000

> <Gold.Chemscore.Hbonds>
donor molecule, donor type, donor heavy atom, donor atom, acceptor molecule, acceptor atom, score
      L1  H    14    33       P1  7948  0.93
      L1  C    24    49       P1 10747  0.88

> <Gold.PLP.Chemscore.Internal.Correction>
0.0966

> <Gold.Rescore>
     Score         DG    S(hbond)    S(metal)    S(lipo)     H(rot)  DE(clash)    DE(int)     intcor
     13.37     -16.53       0.98        0.00     103.08       1.67       2.13       1.03       ----

> <Gold.Chemscore.Fitness>
13.3670

> <Gold.Chemscore.DG>
-16.5256

> <Gold.Chemscore.ZeroCoef>
-5.4800

> <Gold.Chemscore.Hbond>
0.9769

> <Gold.Chemscore.Metal>
0.0000

> <Gold.Chemscore.Lipo>
103.0784

> <Gold.Chemscore.Internal_Hbond>
0.0000

> <Gold.Chemscore.DEClash>
2.1277

> <Gold.Chemscore.DEInternal>
1.0309

> <Gold.Chemscore.Rot>
1.6709

> <Gold.Chemscore.Internal.Correction>
   9.000000E+99

> <Gold.Chemscore.Hbonds>
donor molecule, donor type, donor heavy atom, donor atom, acceptor molecule, acceptor atom, score
      L1  H    14    33       P1  7948  0.54

> <Gold.Chemscore.Hbond.Weighted>
-3.2628

> <Gold.Chemscore.Metal.Weighted>
-0.0000

> <Gold.Chemscore.Lipo.Weighted>
-12.0602

> <Gold.Chemscore.Internal_Hbond.Weighted>
0.0000

> <Gold.Chemscore.DEClash.Weighted>
2.1277

> <Gold.Chemscore.DEInternal.Weighted>
1.0309

> <Gold.Chemscore.Rot.Weighted>
4.2774

> <Gold.Chemscore.Internal.Correction.Weighted>
   9.000000E+99

> <Gold.Protein.RotatedTorsions>
[ 6907 6896 6895 6894 ] final  -59.07 input  -60.11 | X-H torsion
[ 7974 7965 7964 7962 ] final -161.31 input  175.53 | X-H torsion
[ 8008 7997 7996 7995 ] final   78.24 input   59.86 | X-H torsion
[ 10167 10162 10161 10158 ] final  -53.16 input  -65.29 | X-H torsion
[ 10718 10713 10712 10709 ] final  -37.48 input   66.30 | X-H torsion
[ 10763 10752 10751 10750 ] final   78.83 input  -60.55 | X-H torsion
[ 11005 11000 10999 10996 ] final  140.14 input  -57.11 | X-H torsion

> <Gold.Protein.ActiveResidues>
 VAL166  LYS551  ARG553  GLY616  TRP617  ASP618  TYR619  PRO620  LYS621  CYS622 
 ASP623  PHE694  ASN695  SER759  ASP760  ASP761  ALA762  ILE779  LEU786  VAL792 
 PHE793  MET794  SER795  GLU796  ALA797  LYS798  CYS799  TRP800  GLU811  SER814 

> <Gold.Protein.RotatedAtoms>
  150.7958  134.7016  159.6552 H   0  0  0  0  0  0  0  0  0  0  0  0  # atno 6907 bound_to 6896
  152.4070  134.6187  160.0055 H   0  0  0  0  0  0  0  0  0  0  0  0  # atno 6908 bound_to 6896
  151.6441  133.3287  159.3173 H   0  0  0  0  0  0  0  0  0  0  0  0  # atno 6909 bound_to 6896
  144.7395  140.3415  143.6133 H   0  0  0  0  0  0  0  0  0  0  0  0  # atno 7974 bound_to 7965
  155.8530  140.3457  155.5706 H   0  0  0  0  0  0  0  0  0  0  0  0  # atno 8008 bound_to 7997
  155.8017  140.0886  157.1973 H   0  0  0  0  0  0  0  0  0  0  0  0  # atno 8009 bound_to 7997
  154.4008  140.1464  156.3269 H   0  0  0  0  0  0  0  0  0  0  0  0  # atno 8010 bound_to 7997
  140.6499  143.2559  151.4752 H   0  0  0  0  0  0  0  0  0  0  0  0  # atno 10167 bound_to 10162
  156.3148  130.4257  149.8016 H   0  0  0  0  0  0  0  0  0  0  0  0  # atno 10718 bound_to 10713
  153.0905  135.4862  154.8680 H   0  0  0  0  0  0  0  0  0  0  0  0  # atno 10763 bound_to 10752
  154.7263  135.3050  154.8968 H   0  0  0  0  0  0  0  0  0  0  0  0  # atno 10764 bound_to 10752
  153.9617  135.6811  153.4798 H   0  0  0  0  0  0  0  0  0  0  0  0  # atno 10765 bound_to 10752
  140.0306  134.9354  157.0654 H   0  0  0  0  0  0  0  0  0  0  0  0  # atno 11005 bound_to 11000
  145.7369  139.1752  143.2398 LP  0  0  0  0  0  0  0  0  0  0  0  0  # atno 17320 bound_to 7965
  146.1164  140.7365  142.9479 LP  0  0  0  0  0  0  0  0  0  0  0  0  # atno 17321 bound_to 7965
  139.5713  144.1921  152.1841 LP  0  0  0  0  0  0  0  0  0  0  0  0  # atno 17342 bound_to 10162
  140.1218  144.5366  150.6858 LP  0  0  0  0  0  0  0  0  0  0  0  0  # atno 17343 bound_to 10162
  156.5346  130.8273  151.3249 LP  0  0  0  0  0  0  0  0  0  0  0  0  # atno 17370 bound_to 10713
  157.7399  130.9840  150.2343 LP  0  0  0  0  0  0  0  0  0  0  0  0  # atno 17371 bound_to 10713
  140.4233  134.1858  155.7165 LP  0  0  0  0  0  0  0  0  0  0  0  0  # atno 17394 bound_to 11000
  141.1828  133.8377  157.1195 LP  0  0  0  0  0  0  0  0  0  0  0  0  # atno 17395 bound_to 11000

$$$$
