AV-unprocessed.smi:1187|AV-procd|sdf|4976|dock6
  -GOLD-   22720 3573D 1   1.00000     0.00000
 Structure written by MMmdl.
 38 39  0  0  0  0  0  0  0  0  1 V2000
  151.3171  141.5527  158.0607 C   0  0  0  0  0  0  0  0  0  0  0  0
  151.3069  141.4460  156.6413 O   0  0  0  0  0  0  0  0  0  0  0  0
  150.6428  140.3801  156.0695 C   0  0  0  0  0  0  0  0  0  0  0  0
  149.7454  139.6390  156.8639 C   0  0  0  0  0  0  0  0  0  0  0  0
  149.0660  138.5478  156.2887 C   0  0  0  0  0  0  0  0  0  0  0  0
  149.3138  138.2267  154.9327 C   0  0  0  0  0  0  0  0  0  0  0  0
  148.6838  137.1630  154.2320 N   0  0  0  0  0  0  0  0  0  0  0  0
  147.6748  136.3729  154.6371 C   0  0  0  0  0  0  0  0  0  0  0  0
  147.1042  136.4443  155.7253 O   0  0  0  0  0  0  0  0  0  0  0  0
  147.3670  135.4639  153.7001 N   0  0  0  0  0  0  0  0  0  0  0  0
  146.3173  134.4535  153.8186 C   0  0  0  0  0  0  0  0  0  0  0  0
  145.2016  134.6031  152.7676 C   0  0  0  0  0  0  0  0  0  0  0  0
  144.4329  135.5651  152.8186 O   0  0  0  0  0  0  0  0  0  0  0  0
  145.1112  133.6667  151.8006 N   0  0  0  0  0  0  0  0  0  0  0  0
  145.9903  132.5077  151.6490 C   0  0  0  0  0  0  0  0  0  0  0  0
  145.6535  131.9094  150.2829 C   0  0  0  0  0  0  0  0  0  0  0  0
  144.2169  132.3442  150.0289 C   0  0  0  0  0  0  0  0  0  0  0  0
  144.1030  133.6917  150.7425 C   0  0  0  0  0  0  0  0  0  0  0  0
  150.2185  139.0407  154.2204 C   0  0  0  0  0  0  0  0  0  0  0  0
  150.8733  140.0870  154.7659 N   0  0  0  0  0  0  0  0  0  0  0  0
  151.8789  142.4400  158.3523 H   0  0  0  0  0  0  0  0  0  0  0  0
  151.7987  140.6901  158.5234 H   0  0  0  0  0  0  0  0  0  0  0  0
  150.3067  141.6555  158.4592 H   0  0  0  0  0  0  0  0  0  0  0  0
  149.5786  139.9049  157.8973 H   0  0  0  0  0  0  0  0  0  0  0  0
  148.3649  137.9930  156.8925 H   0  0  0  0  0  0  0  0  0  0  0  0
  149.0940  136.9332  153.3388 H   0  0  0  0  0  0  0  0  0  0  0  0
  147.8862  135.4779  152.8349 H   0  0  0  0  0  0  0  0  0  0  0  0
  146.7809  133.4742  153.6991 H   0  0  0  0  0  0  0  0  0  0  0  0
  145.8929  134.4818  154.8234 H   0  0  0  0  0  0  0  0  0  0  0  0
  147.0460  132.7759  151.7078 H   0  0  0  0  0  0  0  0  0  0  0  0
  145.7744  131.7904  152.4423 H   0  0  0  0  0  0  0  0  0  0  0  0
  146.3047  132.3447  149.5237 H   0  0  0  0  0  0  0  0  0  0  0  0
  145.7806  130.8269  150.2514 H   0  0  0  0  0  0  0  0  0  0  0  0
  143.9749  132.4060  148.9676 H   0  0  0  0  0  0  0  0  0  0  0  0
  143.5328  131.6289  150.4873 H   0  0  0  0  0  0  0  0  0  0  0  0
  143.0972  133.8487  151.1357 H   0  0  0  0  0  0  0  0  0  0  0  0
  144.3307  134.5084  150.0558 H   0  0  0  0  0  0  0  0  0  0  0  0
  150.4301  138.8445  153.1792 H   0  0  0  0  0  0  0  0  0  0  0  0
  1  2  1  0  0  0  0
  1 21  1  0  0  0  0
  1 22  1  0  0  0  0
  1 23  1  0  0  0  0
  2  3  1  0  0  0  0
  3 20  1  0  0  0  0
  3  4  2  0  0  0  0
  4  5  1  0  0  0  0
  4 24  1  0  0  0  0
  5  6  2  0  0  0  0
  5 25  1  0  0  0  0
  6  7  1  0  0  0  0
  6 19  1  0  0  0  0
  7  8  1  0  0  0  0
  7 26  1  0  0  0  0
  8  9  2  0  0  0  0
  8 10  1  0  0  0  0
 10 11  1  0  0  0  0
 10 27  1  0  0  0  0
 11 12  1  0  0  0  0
 11 28  1  0  0  0  0
 11 29  1  0  0  0  0
 12 13  2  0  0  0  0
 12 14  1  0  0  0  0
 14 18  1  0  0  0  0
 14 15  1  0  0  0  0
 15 16  1  0  0  0  0
 15 30  1  0  0  0  0
 15 31  1  0  0  0  0
 16 17  1  0  0  0  0
 16 32  1  0  0  0  0
 16 33  1  0  0  0  0
 17 18  1  0  0  0  0
 17 34  1  0  0  0  0
 17 35  1  0  0  0  0
 18 36  1  0  0  0  0
 18 37  1  0  0  0  0
 19 20  2  0  0  0  0
 19 38  1  0  0  0  0
M  END
> <s_m_source_file>
AV-unprocessed.smi

> <i_m_source_file_index>
1187

> <i_lp_mmshare_version>
43012

> <i_f3d_flags>
0

> <s_epik_input>
W0NIM11PYzFbY0hdW2NIXWMoW2NIXW4xKVtOSF1DKD1PKVtOSF1bQ0gyXUMoPU8pTjJbQ0gyXVtDSDJdW0NIMl1bQ0gyXTI=

> <s_epik_cmdline>
J2VwaWtfcHl0aG9uJywgJy1waCcsICc3LjAnLCAnLXRuJywgJzgnLCAnLW1hJywgJzIwMCcsICctbWV0YWxfYmluZGluZycsICctaW1hZScsICc8aW5maWxlLm1hZT4nLCAnLW9tYWUnLCAnPG91dGZpbGUubWFlPic=

> <r_lp_tautomer_probability>
1

> <r_epik_Ionization_Penalty>
0.000141675

> <r_epik_Ionization_Penalty_Charging>
0

> <r_epik_Ionization_Penalty_Neutral>
0.000141675

> <r_epik_State_Penalty>
-0

> <r_epik_Charging_Adjusted_Penalty>
0

> <i_epik_Tot_Q>
0

> <i_epik_Tot_abs_Q>
0

> <r_epik_Metal_State_Penalty>
-0

> <b_epik_Metal_Only>
0

> <s_lp_Force_Field>
OPLS_2005

> <r_lp_Energy>
27.0256

> <b_lp_Chiralities_Consistent>
1

> <s_lp_Variant>
AV-unprocessed.smi:1187-1

> <Gold.Version>
5.8.1

> <Gold.Id.Protein>
6NUR|6NUR_protein|mol2

> <Gold.PLP.Fitness>
38.2120

> <Gold.PLP.PLP>
-26.7895

> <Gold.PLP.part.hbond>
-3.0000

> <Gold.PLP.part.metal>
0.0000

> <Gold.PLP.part.buried>
-3.9209

> <Gold.PLP.part.nonpolar>
-19.9547

> <Gold.PLP.part.repulsive>
0.2196

> <Gold.PLP.ligand.clash>
0.0000

> <Gold.PLP.ligand.torsion>
0.2925

> <Gold.PLP.Chemscore.Hbond>
3.0000

> <Gold.PLP.Chemscore.CHOScore>
1.0000

> <Gold.PLP.Chemscore.Metal>
0.0000

> <Gold.Chemscore.Hbonds>
donor molecule, donor type, donor heavy atom, donor atom, acceptor molecule, acceptor atom, score
      L1  H     7    26       P1  7948  1.00
      L1  H    10    27       P1  7948  1.00
      P1  H  7989  7998       L1    20  1.00
      L1  C    19    38       P1  7957  1.00

> <Gold.PLP.Chemscore.Internal.Correction>
0.0074

> <Gold.Rescore>
     Score         DG    S(hbond)    S(metal)    S(lipo)     H(rot)  DE(clash)    DE(int)     intcor
     15.78     -17.22       2.71        0.00      57.62       1.58       0.00       1.44       ----

> <Gold.Chemscore.Fitness>
15.7794

> <Gold.Chemscore.DG>
-17.2226

> <Gold.Chemscore.ZeroCoef>
-5.4800

> <Gold.Chemscore.Hbond>
2.7087

> <Gold.Chemscore.Metal>
0.0000

> <Gold.Chemscore.Lipo>
57.6201

> <Gold.Chemscore.Internal_Hbond>
0.0000

> <Gold.Chemscore.DEClash>
0.0000

> <Gold.Chemscore.DEInternal>
1.4431

> <Gold.Chemscore.Rot>
1.5804

> <Gold.Chemscore.Internal.Correction>
   9.000000E+99

> <Gold.Chemscore.Hbonds>
donor molecule, donor type, donor heavy atom, donor atom, acceptor molecule, acceptor atom, score
      L1  H     7    26       P1  7948  0.94
      L1  H    10    27       P1  7948  0.93
      P1  H  7989  7998       L1    20  0.55

> <Gold.Chemscore.Hbond.Weighted>
-9.0469

> <Gold.Chemscore.Metal.Weighted>
-0.0000

> <Gold.Chemscore.Lipo.Weighted>
-6.7416

> <Gold.Chemscore.Internal_Hbond.Weighted>
0.0000

> <Gold.Chemscore.DEClash.Weighted>
0.0000

> <Gold.Chemscore.DEInternal.Weighted>
1.4431

> <Gold.Chemscore.Rot.Weighted>
4.0459

> <Gold.Chemscore.Internal.Correction.Weighted>
   9.000000E+99

> <Gold.Protein.RotatedTorsions>
[ 6907 6896 6895 6894 ] final   36.92 input  -60.11 | X-H torsion
[ 7974 7965 7964 7962 ] final   16.62 input  175.53 | X-H torsion
[ 8008 7997 7996 7995 ] final   86.58 input   59.86 | X-H torsion
[ 10167 10162 10161 10158 ] final -176.38 input  -65.29 | X-H torsion
[ 10718 10713 10712 10709 ] final   57.86 input   66.30 | X-H torsion
[ 10763 10752 10751 10750 ] final -177.27 input  -60.55 | X-H torsion
[ 11005 11000 10999 10996 ] final -102.11 input  -57.11 | X-H torsion

> <Gold.Protein.ActiveResidues>
 VAL166  LYS551  ARG553  GLY616  TRP617  ASP618  TYR619  PRO620  LYS621  CYS622 
 ASP623  PHE694  ASN695  SER759  ASP760  ASP761  ALA762  ILE779  LEU786  VAL792 
 PHE793  MET794  SER795  GLU796  ALA797  LYS798  CYS799  TRP800  GLU811  SER814 

> <Gold.Protein.RotatedAtoms>
  152.1362  134.9097  160.0555 H   0  0  0  0  0  0  0  0  0  0  0  0  # atno 6907 bound_to 6896
  152.0183  133.3883  159.4256 H   0  0  0  0  0  0  0  0  0  0  0  0  # atno 6908 bound_to 6896
  150.6861  134.3576  159.4980 H   0  0  0  0  0  0  0  0  0  0  0  0  # atno 6909 bound_to 6896
  146.2244  139.8721  142.8585 H   0  0  0  0  0  0  0  0  0  0  0  0  # atno 7974 bound_to 7965
  155.9646  140.3390  155.6520 H   0  0  0  0  0  0  0  0  0  0  0  0  # atno 8008 bound_to 7997
  155.6754  140.0731  157.2523 H   0  0  0  0  0  0  0  0  0  0  0  0  # atno 8009 bound_to 7997
  154.4151  140.1684  156.1912 H   0  0  0  0  0  0  0  0  0  0  0  0  # atno 8010 bound_to 7997
  139.5532  144.2055  152.1114 H   0  0  0  0  0  0  0  0  0  0  0  0  # atno 10167 bound_to 10162
  157.5549  130.8793  149.9020 H   0  0  0  0  0  0  0  0  0  0  0  0  # atno 10718 bound_to 10713
  154.5621  135.2821  155.0909 H   0  0  0  0  0  0  0  0  0  0  0  0  # atno 10763 bound_to 10752
  154.2313  135.6373  153.5180 H   0  0  0  0  0  0  0  0  0  0  0  0  # atno 10764 bound_to 10752
  153.0032  135.5538  154.6219 H   0  0  0  0  0  0  0  0  0  0  0  0  # atno 10765 bound_to 10752
  141.1203  133.8532  157.1318 H   0  0  0  0  0  0  0  0  0  0  0  0  # atno 11005 bound_to 11000
  145.2597  141.0073  143.3833 LP  0  0  0  0  0  0  0  0  0  0  0  0  # atno 17320 bound_to 7965
  144.9308  139.4301  143.6496 LP  0  0  0  0  0  0  0  0  0  0  0  0  # atno 17321 bound_to 7965
  140.1554  144.5075  150.6663 LP  0  0  0  0  0  0  0  0  0  0  0  0  # atno 17342 bound_to 10162
  140.6800  143.2322  151.5409 LP  0  0  0  0  0  0  0  0  0  0  0  0  # atno 17343 bound_to 10162
  156.0609  130.3700  150.0983 LP  0  0  0  0  0  0  0  0  0  0  0  0  # atno 17370 bound_to 10713
  156.9153  130.9665  151.3557 LP  0  0  0  0  0  0  0  0  0  0  0  0  # atno 17371 bound_to 10713
  140.0155  134.9969  157.0484 LP  0  0  0  0  0  0  0  0  0  0  0  0  # atno 17394 bound_to 11000
  140.4527  134.1566  155.7183 LP  0  0  0  0  0  0  0  0  0  0  0  0  # atno 17395 bound_to 11000

$$$$
