#       Name:                AV-unprocessed.smi:3292
#       Creating user name   scv26
#       Creation time:       Fri Mar 27 18:55:47 2020


#       File generated by GOLD software.
#

@<TRIPOS>MOLECULE
AV-unprocessed.smi:3292
    43    44     1
SMALL
NO_CHARGES


@<TRIPOS>ATOM
      1 ****        -2.7332  -2.3814   2.6442 C.3            1 S1                 0.0000
      2 ****        -2.2733  -1.3214   1.6345 C.3            1 S1                 0.0000
      3 ****        -2.6820  -1.7049   0.1942 C.3            1 S1                 0.0000
      4 ****        -2.3859  -0.6533  -0.7863 N.pl3          1 S1                 0.0000
      5 ****        -3.0439   0.5385  -0.9514 C.2            1 S1                 0.0000
      6 ****        -2.3992   1.2041  -1.9621 C.2            1 S1                 0.0000
      7 ****        -1.3811   0.3881  -2.3770 N.pl3          1 S1                 1.0000
      8 ****        -1.3802  -0.7444  -1.6668 C.2            1 S1                 0.0000
      9 ****        -0.8234  -1.1588   1.7421 N.am           1 S1                 0.0000
     10 ****        -0.1602  -0.0036   1.5865 C.2            1 S1                 0.0000
     11 ****        -0.7043   1.0857   1.4035 O.2            1 S1                 0.0000
     12 ****         1.1670  -0.1854   1.5903 N.am           1 S1                 0.0000
     13 ****         2.1466   0.8493   1.2753 C.3            1 S1                 0.0000
     14 ****         2.1617   1.1891  -0.2296 C.3            1 S1                 0.0000
     15 ****         3.2127   2.2139  -0.6292 C.3            1 S1                 0.0000
     16 ****         3.6094   1.8055  -2.0529 C.3            1 S1                 0.0000
     17 ****         2.8233   0.6613  -2.3653 O.3            1 S1                 0.0000
     18 ****         2.4926   0.0159  -1.1483 C.3            1 S1                 0.0000
     19 ****        -3.8160  -2.5065   2.6151 H              1 S1                 0.0000
     20 ****        -2.4633  -2.0984   3.6621 H              1 S1                 0.0000
     21 ****        -2.2811  -3.3521   2.4364 H              1 S1                 0.0000
     22 ****        -2.7672  -0.3855   1.9029 H              1 S1                 0.0000
     23 ****        -2.1842  -2.6242  -0.1191 H              1 S1                 0.0000
     24 ****        -3.7549  -1.8952   0.1441 H              1 S1                 0.0000
     25 ****        -3.8916   0.8223  -0.3447 H              1 S1                 0.0000
     26 ****        -2.5821   2.1727  -2.4037 H              1 S1                 0.0000
     27 ****        -0.6910  -1.5630  -1.7730 H              1 S1                 0.0000
     28 ****        -0.2832  -1.9981   1.8949 H              1 S1                 0.0000
     29 ****         1.5234  -1.1149   1.7590 H              1 S1                 0.0000
     30 ****         1.9409   1.7447   1.8644 H              1 S1                 0.0000
     31 ****         3.1274   0.4908   1.5889 H              1 S1                 0.0000
     32 ****         1.1874   1.5815  -0.5255 H              1 S1                 0.0000
     33 ****         2.8198   3.2303  -0.5851 H              1 S1                 0.0000
     34 ****         4.0836   2.1646   0.0257 H              1 S1                 0.0000
     35 ****         3.4273   2.5998  -2.7772 H              1 S1                 0.0000
     36 ****         4.6673   1.5432  -2.0958 H              1 S1                 0.0000
     37 ****         3.3537  -0.5462  -0.7827 H              1 S1                 0.0000
     38 ****         1.6573  -0.6726  -1.2755 H              1 S1                 0.0000
     39 ****        -0.7219   0.6082  -3.1134 H              1 S1                 0.0000
     40 ****        -1.7016   1.1460   1.3634 LP             1 S1                 0.0000
     41 ****        -0.1488   1.9101   1.2950 LP             1 S1                 0.0000
     42 ****         3.3453   0.0393  -2.9490 LP             1 S1                 0.0000
     43 ****         1.9886   0.9415  -2.8392 LP             1 S1                 0.0000
@<TRIPOS>BOND
    1    1    2 1     
    2    1   19 1     
    3    1   20 1     
    4    1   21 1     
    5    2    3 1     
    6    2    9 1     
    7    2   22 1     
    8    3    4 1     
    9    3   23 1     
   10    3   24 1     
   11    4    8 1     
   12    4    5 1     
   13    5    6 2     
   14    5   25 1     
   15    6    7 1     
   16    6   26 1     
   17    7    8 2     
   18    7   39 1     
   19    8   27 1     
   20    9   10 am    
   21    9   28 1     
   22   10   11 2     
   23   10   12 am    
   24   12   13 1     
   25   12   29 1     
   26   13   14 1     
   27   13   30 1     
   28   13   31 1     
   29   14   18 1     
   30   14   15 1     
   31   14   32 1     
   32   15   16 1     
   33   15   33 1     
   34   15   34 1     
   35   16   17 1     
   36   16   35 1     
   37   16   36 1     
   38   17   18 1     
   39   18   37 1     
   40   18   38 1     
   41   11   40 1     
   42   11   41 1     
   43   17   42 1     
   44   17   43 1     
@<TRIPOS>SUBSTRUCTURE
      1 S1             1
@<TRIPOS>SET
LONE_PAIRS      STATIC     ATOMS    <user>   **** ""
4 40 41 42 43
DONOR_HYDROGENS      STATIC     ATOMS    <user>   **** ""
3 39 28 29
ATOM$BLUE        STATIC     ATOMS    COLORGROUP SYSTEM
4 40 41 42 43
ATOM$RED        STATIC     ATOMS    COLORGROUP SYSTEM
3 39 28 29
