AV-unprocessed.smi:3149|AV-procd|sdf|12006|dock5
  -GOLD-   2272017413D 1   1.00000     0.00000
 Structure written by MMmdl.
 37 38  0  0  0  0  0  0  0  0  1 V2000
  148.9184  140.7251  157.4049 C   0  0  0  0  0  0  0  0  0  0  0  0
  149.9626  141.3319  156.4462 C   0  0  1  0  0  0  0  0  0  0  0  0
  151.3079  141.1496  156.9858 N   0  0  0  0  0  0  0  0  0  0  0  0
  151.4729  141.6532  158.3537 C   0  0  0  0  0  0  0  0  0  0  0  0
  152.7998  141.1840  158.9548 C   0  0  0  0  0  0  0  0  0  0  0  0
  153.3849  140.2133  158.4750 O   0  0  0  0  0  0  0  0  0  0  0  0
  153.3588  141.9459  159.9847 N   0  0  0  0  0  0  0  0  0  0  0  0
  152.5202  142.7270  160.8808 C   0  0  0  0  0  0  0  0  0  0  0  0
  153.6213  142.5077  161.9239 C   0  0  0  0  0  0  0  0  0  0  0  0
  154.1219  141.3410  161.0666 C   0  0  0  0  0  0  0  0  0  0  0  0
  149.8806  140.7243  155.0189 C   0  0  1  0  0  0  0  0  0  0  0  0
  150.4195  139.2817  154.9422 C   0  0  0  0  0  0  0  0  0  0  0  0
  148.5591  140.8519  154.4074 N   0  0  0  0  0  0  0  0  0  0  0  0
  147.7913  141.9915  154.2766 C   0  0  0  0  0  0  0  0  0  0  0  0
  146.6223  141.6335  153.6688 C   0  0  0  0  0  0  0  0  0  0  0  0
  146.7624  140.2328  153.4674 C   0  0  0  0  0  0  0  0  0  0  0  0
  147.9172  139.7679  153.9135 N   0  0  0  0  0  0  0  0  0  0  0  0
  147.9214  140.7625  156.9653 H   0  0  0  0  0  0  0  0  0  0  0  0
  148.8683  141.2699  158.3472 H   0  0  0  0  0  0  0  0  0  0  0  0
  149.1386  139.6825  157.6363 H   0  0  0  0  0  0  0  0  0  0  0  0
  149.7671  142.4013  156.3527 H   0  0  0  0  0  0  0  0  0  0  0  0
  151.5834  140.1812  156.9017 H   0  0  0  0  0  0  0  0  0  0  0  0
  151.4254  142.7429  158.3662 H   0  0  0  0  0  0  0  0  0  0  0  0
  150.6631  141.2905  158.9865 H   0  0  0  0  0  0  0  0  0  0  0  0
  152.3849  143.7636  160.5712 H   0  0  0  0  0  0  0  0  0  0  0  0
  151.5794  142.2357  161.1379 H   0  0  0  0  0  0  0  0  0  0  0  0
  154.3302  143.3352  161.9852 H   0  0  0  0  0  0  0  0  0  0  0  0
  153.2539  142.2146  162.9078 H   0  0  0  0  0  0  0  0  0  0  0  0
  153.7340  140.3753  161.3955 H   0  0  0  0  0  0  0  0  0  0  0  0
  155.1994  141.3289  160.8991 H   0  0  0  0  0  0  0  0  0  0  0  0
  150.5516  141.3190  154.3970 H   0  0  0  0  0  0  0  0  0  0  0  0
  151.4419  139.2269  155.3173 H   0  0  0  0  0  0  0  0  0  0  0  0
  150.4278  138.9229  153.9128 H   0  0  0  0  0  0  0  0  0  0  0  0
  149.8173  138.5869  155.5283 H   0  0  0  0  0  0  0  0  0  0  0  0
  148.1368  142.9535  154.6257 H   0  0  0  0  0  0  0  0  0  0  0  0
  145.7921  142.2739  153.4105 H   0  0  0  0  0  0  0  0  0  0  0  0
  146.0631  139.5442  153.0165 H   0  0  0  0  0  0  0  0  0  0  0  0
  1  2  1  0  0  0  0
  1 18  1  0  0  0  0
  1 19  1  0  0  0  0
  1 20  1  0  0  0  0
  2  3  1  0  0  0  0
  2 11  1  0  0  0  0
  2 21  1  0  0  0  0
  3  4  1  0  0  0  0
  3 22  1  0  0  0  0
  4  5  1  0  0  0  0
  4 23  1  0  0  0  0
  4 24  1  0  0  0  0
  5  6  2  0  0  0  0
  5  7  1  0  0  0  0
  7 10  1  0  0  0  0
  7  8  1  0  0  0  0
  8  9  1  0  0  0  0
  8 25  1  0  0  0  0
  8 26  1  0  0  0  0
  9 10  1  0  0  0  0
  9 27  1  0  0  0  0
  9 28  1  0  0  0  0
 10 29  1  0  0  0  0
 10 30  1  0  0  0  0
 11 12  1  0  0  0  0
 11 13  1  0  0  0  0
 11 31  1  0  0  0  0
 12 32  1  0  0  0  0
 12 33  1  0  0  0  0
 12 34  1  0  0  0  0
 13 17  1  0  0  0  0
 13 14  1  0  0  0  0
 14 15  2  0  0  0  0
 14 35  1  0  0  0  0
 15 16  1  0  0  0  0
 15 36  1  0  0  0  0
 16 17  2  0  0  0  0
 16 37  1  0  0  0  0
M  END
> <s_m_source_file>
AV-unprocessed.smi

> <i_m_source_file_index>
3149

> <i_lp_mmshare_version>
43012

> <i_f3d_flags>
0

> <s_epik_input>
bjFbY0hdW2NIXVtjSF1uMVtDQEBIXShbQ0gzXSlbQ0BIXShbQ0gzXSlbTkhdW0NIMl1DKD1PKU4yW0NIMl1bQ0gyXVtDSDJdMg==

> <s_epik_cmdline>
J2VwaWtfcHl0aG9uJywgJy1waCcsICc3LjAnLCAnLXRuJywgJzgnLCAnLW1hJywgJzIwMCcsICctbWV0YWxfYmluZGluZycsICctaW1hZScsICc8aW5maWxlLm1hZT4nLCAnLW9tYWUnLCAnPG91dGZpbGUubWFlPic=

> <r_lp_tautomer_probability>
1

> <r_epik_Ionization_Penalty>
0.918674

> <r_epik_Ionization_Penalty_Charging>
0

> <r_epik_Ionization_Penalty_Neutral>
0.918674

> <r_epik_State_Penalty>
0.958258

> <r_epik_Charging_Adjusted_Penalty>
0.958258

> <i_epik_Tot_Q>
0

> <i_epik_Tot_abs_Q>
0

> <r_epik_Metal_State_Penalty>
0.956881

> <b_epik_Metal_Only>
0

> <s_lp_Force_Field>
OPLS_2005

> <r_lp_Energy>
24.8849

> <b_lp_Chiralities_Consistent>
1

> <s_lp_Variant>
AV-unprocessed.smi:3149-8

> <Gold.Version>
5.8.1

> <Gold.Id.Protein>
6NUR|6NUR_protein|mol2

> <Gold.PLP.Fitness>
44.9265

> <Gold.PLP.PLP>
-37.2869

> <Gold.PLP.part.hbond>
-1.0000

> <Gold.PLP.part.metal>
0.0000

> <Gold.PLP.part.buried>
-2.3167

> <Gold.PLP.part.nonpolar>
-33.7666

> <Gold.PLP.part.repulsive>
0.1596

> <Gold.PLP.ligand.clash>
0.0000

> <Gold.PLP.ligand.torsion>
0.8912

> <Gold.PLP.Chemscore.Hbond>
1.0000

> <Gold.PLP.Chemscore.CHOScore>
1.8072

> <Gold.PLP.Chemscore.Metal>
0.0000

> <Gold.Chemscore.Hbonds>
donor molecule, donor type, donor heavy atom, donor atom, acceptor molecule, acceptor atom, score
      P1  H  7997  8009       L1     6  0.93
      L1  C    14    35       P1  8028  1.00
      L1  C    16    37       P1 10175  0.59

> <Gold.PLP.Chemscore.Internal.Correction>
1.0005

> <Gold.Rescore>
     Score         DG    S(hbond)    S(metal)    S(lipo)     H(rot)  DE(clash)    DE(int)     intcor
     12.90     -13.82       0.98        0.00      82.27       1.79       0.03       0.89       ----

> <Gold.Chemscore.Fitness>
12.8967

> <Gold.Chemscore.DG>
-13.8161

> <Gold.Chemscore.ZeroCoef>
-5.4800

> <Gold.Chemscore.Hbond>
0.9840

> <Gold.Chemscore.Metal>
0.0000

> <Gold.Chemscore.Lipo>
82.2677

> <Gold.Chemscore.Internal_Hbond>
0.0000

> <Gold.Chemscore.DEClash>
0.0300

> <Gold.Chemscore.DEInternal>
0.8894

> <Gold.Chemscore.Rot>
1.7874

> <Gold.Chemscore.Internal.Correction>
   9.000000E+99

> <Gold.Chemscore.Hbonds>
donor molecule, donor type, donor heavy atom, donor atom, acceptor molecule, acceptor atom, score
      P1  H  7997  8009       L1     6  0.91

> <Gold.Chemscore.Hbond.Weighted>
-3.2866

> <Gold.Chemscore.Metal.Weighted>
-0.0000

> <Gold.Chemscore.Lipo.Weighted>
-9.6253

> <Gold.Chemscore.Internal_Hbond.Weighted>
0.0000

> <Gold.Chemscore.DEClash.Weighted>
0.0300

> <Gold.Chemscore.DEInternal.Weighted>
0.8894

> <Gold.Chemscore.Rot.Weighted>
4.5758

> <Gold.Chemscore.Internal.Correction.Weighted>
   9.000000E+99

> <Gold.Protein.RotatedTorsions>
[ 6907 6896 6895 6894 ] final   28.87 input  -60.11 | X-H torsion
[ 7974 7965 7964 7962 ] final   74.70 input  175.53 | X-H torsion
[ 8008 7997 7996 7995 ] final  154.00 input   59.86 | X-H torsion
[ 10167 10162 10161 10158 ] final  -24.79 input  -65.29 | X-H torsion
[ 10718 10713 10712 10709 ] final  141.85 input   66.30 | X-H torsion
[ 10763 10752 10751 10750 ] final   55.93 input  -60.55 | X-H torsion
[ 11005 11000 10999 10996 ] final   92.29 input  -57.11 | X-H torsion

> <Gold.Protein.ActiveResidues>
 VAL166  LYS551  ARG553  GLY616  TRP617  ASP618  TYR619  PRO620  LYS621  CYS622 
 ASP623  PHE694  ASN695  SER759  ASP760  ASP761  ALA762  ILE779  LEU786  VAL792 
 PHE793  MET794  SER795  GLU796  ALA797  LYS798  CYS799  TRP800  GLU811  SER814 

> <Gold.Protein.RotatedAtoms>
  152.0233  134.9810  160.0570 H   0  0  0  0  0  0  0  0  0  0  0  0  # atno 6907 bound_to 6896
  152.1316  133.4406  159.4732 H   0  0  0  0  0  0  0  0  0  0  0  0  # atno 6908 bound_to 6896
  150.6857  134.2332  159.4486 H   0  0  0  0  0  0  0  0  0  0  0  0  # atno 6909 bound_to 6896
  145.7249  139.2662  143.1574 H   0  0  0  0  0  0  0  0  0  0  0  0  # atno 7974 bound_to 7965
  156.2553  140.1978  156.6578 H   0  0  0  0  0  0  0  0  0  0  0  0  # atno 8008 bound_to 7997
  154.6487  140.0574  156.9956 H   0  0  0  0  0  0  0  0  0  0  0  0  # atno 8009 bound_to 7997
  155.1451  140.3246  155.4446 H   0  0  0  0  0  0  0  0  0  0  0  0  # atno 8010 bound_to 7997
  140.7287  143.4322  151.0785 H   0  0  0  0  0  0  0  0  0  0  0  0  # atno 10167 bound_to 10162
  157.3873  131.1000  151.0681 H   0  0  0  0  0  0  0  0  0  0  0  0  # atno 10718 bound_to 10713
  152.9824  135.5694  154.5147 H   0  0  0  0  0  0  0  0  0  0  0  0  # atno 10763 bound_to 10752
  154.4645  135.2782  155.1691 H   0  0  0  0  0  0  0  0  0  0  0  0  # atno 10764 bound_to 10752
  154.3265  135.6258  153.5585 H   0  0  0  0  0  0  0  0  0  0  0  0  # atno 10765 bound_to 10752
  139.8825  134.8724  156.3551 H   0  0  0  0  0  0  0  0  0  0  0  0  # atno 11005 bound_to 11000
  146.0591  140.7989  142.9743 LP  0  0  0  0  0  0  0  0  0  0  0  0  # atno 17320 bound_to 7965
  144.6907  140.3169  143.7239 LP  0  0  0  0  0  0  0  0  0  0  0  0  # atno 17321 bound_to 7965
  139.7980  143.8124  152.3160 LP  0  0  0  0  0  0  0  0  0  0  0  0  # atno 17342 bound_to 10162
  139.8131  144.7327  150.9671 LP  0  0  0  0  0  0  0  0  0  0  0  0  # atno 17343 bound_to 10162
  157.1728  130.6275  149.5646 LP  0  0  0  0  0  0  0  0  0  0  0  0  # atno 17370 bound_to 10713
  155.9790  130.4779  150.6687 LP  0  0  0  0  0  0  0  0  0  0  0  0  # atno 17371 bound_to 10713
  140.9567  133.7415  156.0345 LP  0  0  0  0  0  0  0  0  0  0  0  0  # atno 17394 bound_to 11000
  140.8039  134.3477  157.5431 LP  0  0  0  0  0  0  0  0  0  0  0  0  # atno 17395 bound_to 11000

$$$$
