AV-unprocessed.smi:1022|AV-procd|sdf|4461|dock9
  -GOLD-   22720 2433D 1   1.00000     0.00000
 Structure written by MMmdl.
 32 33  0  0  0  0  0  0  0  0  2 V2000
  149.3676  141.1863  154.7699 C   0  0  0  0  0  0  0  0  0  0  0  0
  150.5198  140.3651  154.8314 O   0  0  0  0  0  0  0  0  0  0  0  0
  150.2231  138.9937  154.6167 C   0  0  0  0  0  0  0  0  0  0  0  0
  151.4197  138.1203  155.0368 C   0  0  1  0  0  0  0  0  0  0  0  0
  152.6862  138.4389  154.2294 C   0  0  0  0  0  0  0  0  0  0  0  0
  151.6926  138.2613  156.4656 N   0  0  0  0  0  0  0  0  0  0  0  0
  152.7239  137.7220  157.1319 C   0  0  0  0  0  0  0  0  0  0  0  0
  153.5548  137.0362  156.5313 O   0  0  0  0  0  0  0  0  0  0  0  0
  152.7267  138.0069  158.4541 N   0  5  0  0  0  0  0  0  0  0  0  0
  153.1125  139.2217  158.8778 C   0  0  0  0  0  0  0  0  0  0  0  0
  154.4027  139.5681  158.9888 N   0  0  0  0  0  0  0  0  0  0  0  0
  154.5805  140.8671  159.4421 N   0  0  0  0  0  0  0  0  0  0  0  0
  153.4188  141.4877  159.6609 C   0  0  0  0  0  0  0  0  0  0  0  0
  153.3447  142.8931  160.1566 C   0  0  0  0  0  0  0  0  0  0  0  0
  152.7237  143.2066  161.4986 C   0  0  0  0  0  0  0  0  0  0  0  0
  152.0302  143.6392  160.2318 C   0  0  0  0  0  0  0  0  0  0  0  0
  151.9973  140.5159  159.3141 S   0  0  0  0  0  0  0  0  0  0  0  0
  149.6496  142.2258  154.9365 H   0  0  0  0  0  0  0  0  0  0  0  0
  148.6439  140.9071  155.5368 H   0  0  0  0  0  0  0  0  0  0  0  0
  148.8871  141.1195  153.7930 H   0  0  0  0  0  0  0  0  0  0  0  0
  149.3343  138.7115  155.1835 H   0  0  0  0  0  0  0  0  0  0  0  0
  149.9949  138.8269  153.5629 H   0  0  0  0  0  0  0  0  0  0  0  0
  151.1652  137.0784  154.8351 H   0  0  0  0  0  0  0  0  0  0  0  0
  152.5111  138.3125  153.1609 H   0  0  0  0  0  0  0  0  0  0  0  0
  153.5056  137.7763  154.5098 H   0  0  0  0  0  0  0  0  0  0  0  0
  153.0176  139.4648  154.3938 H   0  0  0  0  0  0  0  0  0  0  0  0
  151.0355  138.8100  157.0004 H   0  0  0  0  0  0  0  0  0  0  0  0
  154.2306  143.4520  159.8607 H   0  0  0  0  0  0  0  0  0  0  0  0
  152.2824  142.3824  162.0558 H   0  0  0  0  0  0  0  0  0  0  0  0
  153.1970  143.9779  162.1028 H   0  0  0  0  0  0  0  0  0  0  0  0
  152.0420  144.6997  159.9895 H   0  0  0  0  0  0  0  0  0  0  0  0
  151.1203  143.1090  159.9579 H   0  0  0  0  0  0  0  0  0  0  0  0
  1  2  1  0  0  0  0
  1 18  1  0  0  0  0
  1 19  1  0  0  0  0
  1 20  1  0  0  0  0
  2  3  1  0  0  0  0
  3  4  1  0  0  0  0
  3 21  1  0  0  0  0
  3 22  1  0  0  0  0
  4  5  1  0  0  0  0
  4  6  1  0  0  0  0
  4 23  1  0  0  0  0
  5 24  1  0  0  0  0
  5 25  1  0  0  0  0
  5 26  1  0  0  0  0
  6  7  1  0  0  0  0
  6 27  1  0  0  0  0
  7  8  2  0  0  0  0
  7  9  1  0  0  0  0
  9 10  1  0  0  0  0
 10 17  1  0  0  0  0
 10 11  2  0  0  0  0
 11 12  1  0  0  0  0
 12 13  2  0  0  0  0
 13 14  1  0  0  0  0
 13 17  1  0  0  0  0
 14 16  1  0  0  0  0
 14 15  1  0  0  0  0
 14 28  1  0  0  0  0
 15 16  1  0  0  0  0
 15 29  1  0  0  0  0
 15 30  1  0  0  0  0
 16 31  1  0  0  0  0
 16 32  1  0  0  0  0
M  CHG  1   9  -1
M  END
> <s_m_source_file>
AV-unprocessed.smi

> <i_m_source_file_index>
1022

> <i_lp_mmshare_version>
43012

> <i_f3d_flags>
0

> <s_epik_input>
W0NIM11PW0NIMl1bQ0BIXShbQ0gzXSlbTkhdQyg9TylbTkhdYzFubmMoczEpW0NIXTJbQ0gyXVtDSDJdMg==

> <s_epik_cmdline>
J2VwaWtfcHl0aG9uJywgJy1waCcsICc3LjAnLCAnLXRuJywgJzgnLCAnLW1hJywgJzIwMCcsICctbWV0YWxfYmluZGluZycsICctaW1hZScsICc8aW5maWxlLm1hZT4nLCAnLW9tYWUnLCAnPG91dGZpbGUubWFlPic=

> <r_lp_tautomer_probability>
1

> <r_epik_Ionization_Penalty>
3.79487

> <r_epik_Ionization_Penalty_Charging>
3.64217

> <r_epik_Ionization_Penalty_Neutral>
0.152695

> <r_epik_State_Penalty>
3.6409

> <r_epik_Charging_Adjusted_Penalty>
7.28307

> <i_epik_Tot_Q>
-1

> <i_epik_Tot_abs_Q>
1

> <r_epik_Metal_State_Penalty>
0.534129

> <b_epik_Metal_Only>
1

> <s_lp_Force_Field>
OPLS_2005

> <r_lp_Energy>
0.506403

> <b_lp_Chiralities_Consistent>
1

> <s_lp_Variant>
AV-unprocessed.smi:1022-4

> <Gold.Version>
5.8.1

> <Gold.Id.Protein>
6NUR|6NUR_protein|mol2

> <Gold.PLP.Fitness>
37.2931

> <Gold.PLP.PLP>
-33.1224

> <Gold.PLP.part.hbond>
-3.4975

> <Gold.PLP.part.metal>
0.0000

> <Gold.PLP.part.buried>
-4.0010

> <Gold.PLP.part.nonpolar>
-25.3259

> <Gold.PLP.part.repulsive>
0.1545

> <Gold.PLP.ligand.clash>
0.0000

> <Gold.PLP.ligand.torsion>
1.6230

> <Gold.PLP.Chemscore.Hbond>
2.3988

> <Gold.PLP.Chemscore.CHOScore>
0.0000

> <Gold.PLP.Chemscore.Metal>
0.0000

> <Gold.Chemscore.Hbonds>
donor molecule, donor type, donor heavy atom, donor atom, acceptor molecule, acceptor atom, score
      P1  H  7989  7998       L1     2  1.00
      P1  H  7997  8009       L1    11  0.65
      P1  H 10752 10765       L1     8  0.70

> <Gold.PLP.Chemscore.Internal.Correction>
0.2204

> <Gold.Rescore>
     Score         DG    S(hbond)    S(metal)    S(lipo)     H(rot)  DE(clash)    DE(int)     intcor
     13.05     -15.97       1.58        0.00      81.70       1.69       0.06       2.86       ----

> <Gold.Chemscore.Fitness>
13.0480

> <Gold.Chemscore.DG>
-15.9697

> <Gold.Chemscore.ZeroCoef>
-5.4800

> <Gold.Chemscore.Hbond>
1.5756

> <Gold.Chemscore.Metal>
0.0000

> <Gold.Chemscore.Lipo>
81.6989

> <Gold.Chemscore.Internal_Hbond>
0.0000

> <Gold.Chemscore.DEClash>
0.0580

> <Gold.Chemscore.DEInternal>
2.8637

> <Gold.Chemscore.Rot>
1.6921

> <Gold.Chemscore.Internal.Correction>
   9.000000E+99

> <Gold.Chemscore.Hbonds>
donor molecule, donor type, donor heavy atom, donor atom, acceptor molecule, acceptor atom, score
      P1  H  7989  7998       L1     2  0.36
      P1  H  7997  8009       L1    11  0.01
      P1  H 10752 10765       L1     8  0.65

> <Gold.Chemscore.Hbond.Weighted>
-5.2627

> <Gold.Chemscore.Metal.Weighted>
-0.0000

> <Gold.Chemscore.Lipo.Weighted>
-9.5588

> <Gold.Chemscore.Internal_Hbond.Weighted>
0.0000

> <Gold.Chemscore.DEClash.Weighted>
0.0580

> <Gold.Chemscore.DEInternal.Weighted>
2.8637

> <Gold.Chemscore.Rot.Weighted>
4.3317

> <Gold.Chemscore.Internal.Correction.Weighted>
   9.000000E+99

> <Gold.Protein.RotatedTorsions>
[ 6907 6896 6895 6894 ] final  -36.66 input  -60.11 | X-H torsion
[ 7974 7965 7964 7962 ] final  164.03 input  175.53 | X-H torsion
[ 8008 7997 7996 7995 ] final  143.38 input   59.86 | X-H torsion
[ 10167 10162 10161 10158 ] final  172.67 input  -65.29 | X-H torsion
[ 10718 10713 10712 10709 ] final  -66.23 input   66.30 | X-H torsion
[ 10763 10752 10751 10750 ] final -122.98 input  -60.55 | X-H torsion
[ 11005 11000 10999 10996 ] final -176.06 input  -57.11 | X-H torsion

> <Gold.Protein.ActiveResidues>
 VAL166  LYS551  ARG553  GLY616  TRP617  ASP618  TYR619  PRO620  LYS621  CYS622 
 ASP623  PHE694  ASN695  SER759  ASP760  ASP761  ALA762  ILE779  LEU786  VAL792 
 PHE793  MET794  SER795  GLU796  ALA797  LYS798  CYS799  TRP800  GLU811  SER814 

> <Gold.Protein.RotatedAtoms>
  151.0244  134.9493  159.8076 H   0  0  0  0  0  0  0  0  0  0  0  0  # atno 6907 bound_to 6896
  152.5332  134.2862  159.9036 H   0  0  0  0  0  0  0  0  0  0  0  0  # atno 6908 bound_to 6896
  151.2870  133.4141  159.2664 H   0  0  0  0  0  0  0  0  0  0  0  0  # atno 6909 bound_to 6896
  144.7563  139.8267  143.6348 H   0  0  0  0  0  0  0  0  0  0  0  0  # atno 7974 bound_to 7965
  156.2931  140.2264  156.4882 H   0  0  0  0  0  0  0  0  0  0  0  0  # atno 8008 bound_to 7997
  154.7794  140.0461  157.1136 H   0  0  0  0  0  0  0  0  0  0  0  0  # atno 8009 bound_to 7997
  154.9777  140.3074  155.4963 H   0  0  0  0  0  0  0  0  0  0  0  0  # atno 8010 bound_to 7997
  139.5084  144.3348  152.0076 H   0  0  0  0  0  0  0  0  0  0  0  0  # atno 10167 bound_to 10162
  156.0624  130.4259  150.1678 H   0  0  0  0  0  0  0  0  0  0  0  0  # atno 10718 bound_to 10713
  154.8699  135.4114  154.2869 H   0  0  0  0  0  0  0  0  0  0  0  0  # atno 10763 bound_to 10752
  153.3752  135.7009  153.6613 H   0  0  0  0  0  0  0  0  0  0  0  0  # atno 10764 bound_to 10752
  153.5458  135.3639  155.2710 H   0  0  0  0  0  0  0  0  0  0  0  0  # atno 10765 bound_to 10752
  140.4564  134.6296  157.4823 H   0  0  0  0  0  0  0  0  0  0  0  0  # atno 11005 bound_to 11000
  146.1577  139.4680  143.0008 LP  0  0  0  0  0  0  0  0  0  0  0  0  # atno 17320 bound_to 7965
  145.6768  141.0202  143.1628 LP  0  0  0  0  0  0  0  0  0  0  0  0  # atno 17321 bound_to 7965
  140.2787  144.3884  150.6126 LP  0  0  0  0  0  0  0  0  0  0  0  0  # atno 17342 bound_to 10162
  140.6035  143.2167  151.7027 LP  0  0  0  0  0  0  0  0  0  0  0  0  # atno 17343 bound_to 10162
  156.9744  130.9844  151.3451 LP  0  0  0  0  0  0  0  0  0  0  0  0  # atno 17370 bound_to 10713
  157.5643  130.8267  149.8306 LP  0  0  0  0  0  0  0  0  0  0  0  0  # atno 17371 bound_to 10713
  139.9974  134.6890  155.9587 LP  0  0  0  0  0  0  0  0  0  0  0  0  # atno 17394 bound_to 11000
  141.1641  133.6537  156.4419 LP  0  0  0  0  0  0  0  0  0  0  0  0  # atno 17395 bound_to 11000

$$$$
