AV-unprocessed.smi:1554|AV-procd|sdf|6263|dock8
  -GOLD-   22720 6453D 1   1.00000     0.00000
 Structure written by MMmdl.
 49 51  0  0  0  0  0  0  0  0  3 V2000
  152.3303  143.2905  160.5719 C   0  0  0  0  0  0  0  0  0  0  0  0
  151.9677  142.4962  159.3284 C   0  0  0  0  0  0  0  0  0  0  0  0
  151.0608  143.0647  158.4056 C   0  0  0  0  0  0  0  0  0  0  0  0
  150.7519  142.3156  157.2764 C   0  0  0  0  0  0  0  0  0  0  0  0
  149.9094  142.5909  156.1969 N   0  3  0  0  0  0  0  0  0  0  0  0
  149.9321  141.5454  155.3244 C   0  0  0  0  0  0  0  0  0  0  0  0
  150.7747  140.6053  155.8330 N   0  0  0  0  0  0  0  0  0  0  0  0
  151.1581  139.2921  155.2972 C   0  0  0  0  0  0  0  0  0  0  0  0
  149.9441  138.4148  154.9314 C   0  0  1  0  0  0  0  0  0  0  0  0
  149.6834  138.5505  153.5466 O   0  0  0  0  0  0  0  0  0  0  0  0
  150.2033  136.9291  155.2568 C   0  0  0  0  0  0  0  0  0  0  0  0
  149.2059  136.0104  154.6491 N   0  3  2  0  0  0  0  0  0  0  0  0
  147.8222  136.2166  155.1449 C   0  0  0  0  0  0  0  0  0  0  0  0
  146.8515  135.2512  154.4447 C   0  0  0  0  0  0  0  0  0  0  0  0
  147.2817  133.9111  154.6471 O   0  0  0  0  0  0  0  0  0  0  0  0
  148.5706  133.6692  154.0940 C   0  0  2  0  0  0  0  0  0  0  0  0
  148.9007  132.1842  154.2817 C   0  0  0  0  0  0  0  0  0  0  0  0
  149.5958  134.5866  154.7888 C   0  0  0  0  0  0  0  0  0  0  0  0
  151.3100  141.0426  157.0490 C   0  0  0  0  0  0  0  0  0  0  0  0
  152.2029  140.4662  157.9489 C   0  0  0  0  0  0  0  0  0  0  0  0
  152.5309  141.2133  159.1031 C   0  0  0  0  0  0  0  0  0  0  0  0
  153.5065  140.6138  160.1016 C   0  0  0  0  0  0  0  0  0  0  0  0
  151.8059  144.2461  160.6029 H   0  0  0  0  0  0  0  0  0  0  0  0
  153.4007  143.4969  160.5952 H   0  0  0  0  0  0  0  0  0  0  0  0
  152.0644  142.7359  161.4719 H   0  0  0  0  0  0  0  0  0  0  0  0
  150.6279  144.0407  158.5705 H   0  0  0  0  0  0  0  0  0  0  0  0
  149.3789  141.4737  154.3989 H   0  0  0  0  0  0  0  0  0  0  0  0
  151.7782  139.4681  154.4169 H   0  0  0  0  0  0  0  0  0  0  0  0
  151.7958  138.7941  156.0288 H   0  0  0  0  0  0  0  0  0  0  0  0
  149.0768  138.7815  155.4787 H   0  0  0  0  0  0  0  0  0  0  0  0
  149.4834  137.7002  153.1868 H   0  0  0  0  0  0  0  0  0  0  0  0
  151.2018  136.6678  154.9018 H   0  0  0  0  0  0  0  0  0  0  0  0
  150.2166  136.7737  156.3368 H   0  0  0  0  0  0  0  0  0  0  0  0
  147.7917  136.0547  156.2236 H   0  0  0  0  0  0  0  0  0  0  0  0
  147.4962  137.2404  154.9664 H   0  0  0  0  0  0  0  0  0  0  0  0
  145.8476  135.3654  154.8540 H   0  0  0  0  0  0  0  0  0  0  0  0
  146.7862  135.4690  153.3774 H   0  0  0  0  0  0  0  0  0  0  0  0
  148.5484  133.8864  153.0244 H   0  0  0  0  0  0  0  0  0  0  0  0
  149.8792  131.9433  153.8654 H   0  0  0  0  0  0  0  0  0  0  0  0
  148.1638  131.5552  153.7817 H   0  0  0  0  0  0  0  0  0  0  0  0
  148.9090  131.9113  155.3374 H   0  0  0  0  0  0  0  0  0  0  0  0
  150.5817  134.4314  154.3484 H   0  0  0  0  0  0  0  0  0  0  0  0
  149.6739  134.3331  155.8477 H   0  0  0  0  0  0  0  0  0  0  0  0
  152.6325  139.4906  157.7766 H   0  0  0  0  0  0  0  0  0  0  0  0
  153.8466  139.6270  159.7855 H   0  0  0  0  0  0  0  0  0  0  0  0
  153.0371  140.5065  161.0799 H   0  0  0  0  0  0  0  0  0  0  0  0
  154.3851  141.2507  160.2068 H   0  0  0  0  0  0  0  0  0  0  0  0
  149.2001  136.2025  153.6576 H   0  0  0  0  0  0  0  0  0  0  0  0
  149.3597  143.4299  156.0618 H   0  0  0  0  0  0  0  0  0  0  0  0
  1  2  1  0  0  0  0
  1 23  1  0  0  0  0
  1 24  1  0  0  0  0
  1 25  1  0  0  0  0
  2 21  1  0  0  0  0
  2  3  2  0  0  0  0
  3  4  1  0  0  0  0
  3 26  1  0  0  0  0
  4 19  2  0  0  0  0
  4  5  1  0  0  0  0
  5  6  2  0  0  0  0
  5 49  1  0  0  0  0
  6  7  1  0  0  0  0
  6 27  1  0  0  0  0
  7  8  1  0  0  0  0
  7 19  1  0  0  0  0
  8  9  1  0  0  0  0
  8 28  1  0  0  0  0
  8 29  1  0  0  0  0
  9 10  1  0  0  0  0
  9 11  1  0  0  0  0
  9 30  1  0  0  0  0
 10 31  1  0  0  0  0
 11 12  1  0  0  0  0
 11 32  1  0  0  0  0
 11 33  1  0  0  0  0
 12 18  1  0  0  0  0
 12 13  1  0  0  0  0
 12 48  1  0  0  0  0
 13 14  1  0  0  0  0
 13 34  1  0  0  0  0
 13 35  1  0  0  0  0
 14 15  1  0  0  0  0
 14 36  1  0  0  0  0
 14 37  1  0  0  0  0
 15 16  1  0  0  0  0
 16 17  1  0  0  0  0
 16 18  1  0  0  0  0
 16 38  1  0  0  0  0
 17 39  1  0  0  0  0
 17 40  1  0  0  0  0
 17 41  1  0  0  0  0
 18 42  1  0  0  0  0
 18 43  1  0  0  0  0
 19 20  1  0  0  0  0
 20 21  2  0  0  0  0
 20 44  1  0  0  0  0
 21 22  1  0  0  0  0
 22 45  1  0  0  0  0
 22 46  1  0  0  0  0
 22 47  1  0  0  0  0
M  CHG  1   5   1
M  CHG  1  12   1
M  END
> <s_m_source_file>
AV-unprocessed.smi

> <i_m_source_file_index>
1554

> <i_lp_mmshare_version>
43012

> <i_f3d_flags>
0

> <s_epik_input>
W0NIM11jKFtjSF0xKWMoW0NIM10pW2NIXWMoYzEyKW4oW2NIXW4yKVtDSDJdW0NASF0oW09IXSlbQ0gyXU4zW0NIMl1bQ0gyXU9bQ0BASF0oW0NIM10pW0NIMl0z

> <s_epik_cmdline>
J2VwaWtfcHl0aG9uJywgJy1waCcsICc3LjAnLCAnLXRuJywgJzgnLCAnLW1hJywgJzIwMCcsICctbWV0YWxfYmluZGluZycsICctaW1hZScsICc8aW5maWxlLm1hZT4nLCAnLW9tYWUnLCAnPG91dGZpbGUubWFlPic=

> <r_epik_Ionization_Penalty>
1.8848

> <r_epik_Ionization_Penalty_Charging>
1.88479

> <r_epik_Ionization_Penalty_Neutral>
1.42224e-05

> <r_epik_State_Penalty>
1.94551

> <r_epik_Charging_Adjusted_Penalty>
3.8303

> <i_epik_Tot_Q>
2

> <i_epik_Tot_abs_Q>
2

> <r_epik_Metal_State_Penalty>
5.95849

> <b_epik_Metal_Only>
0

> <s_lp_Force_Field>
OPLS_2005

> <r_lp_Energy>
30.4692

> <b_lp_Chiralities_Consistent>
1

> <s_lp_Variant>
AV-unprocessed.smi:1554-24

> <Gold.Version>
5.8.1

> <Gold.Id.Protein>
6NUR|6NUR_protein|mol2

> <Gold.PLP.Fitness>
58.7129

> <Gold.PLP.PLP>
-45.0279

> <Gold.PLP.part.hbond>
-3.8657

> <Gold.PLP.part.metal>
0.0000

> <Gold.PLP.part.buried>
-4.9193

> <Gold.PLP.part.nonpolar>
-36.3294

> <Gold.PLP.part.repulsive>
0.1948

> <Gold.PLP.ligand.clash>
0.0000

> <Gold.PLP.ligand.torsion>
0.6756

> <Gold.PLP.Chemscore.Hbond>
5.0000

> <Gold.PLP.Chemscore.CHOScore>
0.0000

> <Gold.PLP.Chemscore.Metal>
0.0000

> <Gold.Chemscore.Hbonds>
donor molecule, donor type, donor heavy atom, donor atom, acceptor molecule, acceptor atom, score
      L1  H     5    49       P1  8028  1.50
      L1  H    10    31       P1  7948  1.00
      L1  H    12    48       P1  7948  2.00

> <Gold.PLP.Chemscore.Internal.Correction>
0.0363

> <Gold.Rescore>
     Score         DG    S(hbond)    S(metal)    S(lipo)     H(rot)  DE(clash)    DE(int)     intcor
     21.52     -22.21       2.89        0.00     106.87       2.11       0.02       0.67       ----

> <Gold.Chemscore.Fitness>
21.5233

> <Gold.Chemscore.DG>
-22.2150

> <Gold.Chemscore.ZeroCoef>
-5.4800

> <Gold.Chemscore.Hbond>
2.8857

> <Gold.Chemscore.Metal>
0.0000

> <Gold.Chemscore.Lipo>
106.8717

> <Gold.Chemscore.Internal_Hbond>
0.0000

> <Gold.Chemscore.DEClash>
0.0174

> <Gold.Chemscore.DEInternal>
0.6743

> <Gold.Chemscore.Rot>
2.1122

> <Gold.Chemscore.Internal.Correction>
   9.000000E+99

> <Gold.Chemscore.Hbonds>
donor molecule, donor type, donor heavy atom, donor atom, acceptor molecule, acceptor atom, score
      L1  H     5    49       P1  8028  0.75
      L1  H    10    31       P1  7948  0.86
      L1  H    12    48       P1  7948  0.91

> <Gold.Chemscore.Hbond.Weighted>
-9.6383

> <Gold.Chemscore.Metal.Weighted>
-0.0000

> <Gold.Chemscore.Lipo.Weighted>
-12.5040

> <Gold.Chemscore.Internal_Hbond.Weighted>
0.0000

> <Gold.Chemscore.DEClash.Weighted>
0.0174

> <Gold.Chemscore.DEInternal.Weighted>
0.6743

> <Gold.Chemscore.Rot.Weighted>
5.4073

> <Gold.Chemscore.Internal.Correction.Weighted>
   9.000000E+99

> <Gold.Protein.RotatedTorsions>
[ 6907 6896 6895 6894 ] final   75.81 input  -60.11 | X-H torsion
[ 7974 7965 7964 7962 ] final  -69.85 input  175.53 | X-H torsion
[ 8008 7997 7996 7995 ] final  171.60 input   59.86 | X-H torsion
[ 10167 10162 10161 10158 ] final  -11.45 input  -65.29 | X-H torsion
[ 10718 10713 10712 10709 ] final  -14.64 input   66.30 | X-H torsion
[ 10763 10752 10751 10750 ] final   32.58 input  -60.55 | X-H torsion
[ 11005 11000 10999 10996 ] final -118.44 input  -57.11 | X-H torsion

> <Gold.Protein.ActiveResidues>
 VAL166  LYS551  ARG553  GLY616  TRP617  ASP618  TYR619  PRO620  LYS621  CYS622 
 ASP623  PHE694  ASN695  SER759  ASP760  ASP761  ALA762  ILE779  LEU786  VAL792 
 PHE793  MET794  SER795  GLU796  ALA797  LYS798  CYS799  TRP800  GLU811  SER814 

> <Gold.Protein.RotatedAtoms>
  152.5044  134.4063  159.9433 H   0  0  0  0  0  0  0  0  0  0  0  0  # atno 6907 bound_to 6896
  151.4029  133.3745  159.2742 H   0  0  0  0  0  0  0  0  0  0  0  0  # atno 6908 bound_to 6896
  150.9348  134.8782  159.7633 H   0  0  0  0  0  0  0  0  0  0  0  0  # atno 6909 bound_to 6896
  145.6984  140.9126  143.0744 H   0  0  0  0  0  0  0  0  0  0  0  0  # atno 7974 bound_to 7965
  156.1255  140.1507  156.9142 H   0  0  0  0  0  0  0  0  0  0  0  0  # atno 8008 bound_to 7997
  154.4868  140.0863  156.7546 H   0  0  0  0  0  0  0  0  0  0  0  0  # atno 8009 bound_to 7997
  155.4351  140.3428  155.4286 H   0  0  0  0  0  0  0  0  0  0  0  0  # atno 8010 bound_to 7997
  140.7139  143.5638  150.9166 H   0  0  0  0  0  0  0  0  0  0  0  0  # atno 10167 bound_to 10162
  156.6131  130.4855  149.6193 H   0  0  0  0  0  0  0  0  0  0  0  0  # atno 10718 bound_to 10713
  153.0255  135.6409  154.1378 H   0  0  0  0  0  0  0  0  0  0  0  0  # atno 10763 bound_to 10752
  154.1107  135.2853  155.3233 H   0  0  0  0  0  0  0  0  0  0  0  0  # atno 10764 bound_to 10752
  154.6333  135.5485  153.7768 H   0  0  0  0  0  0  0  0  0  0  0  0  # atno 10765 bound_to 10752
  141.0286  134.0016  157.3178 H   0  0  0  0  0  0  0  0  0  0  0  0  # atno 11005 bound_to 11000
  144.6975  139.8915  143.7453 LP  0  0  0  0  0  0  0  0  0  0  0  0  # atno 17320 bound_to 7965
  146.0819  139.3807  143.0459 LP  0  0  0  0  0  0  0  0  0  0  0  0  # atno 17321 bound_to 7965
  139.9364  143.6433  152.3064 LP  0  0  0  0  0  0  0  0  0  0  0  0  # atno 17342 bound_to 10162
  139.6902  144.7647  151.1452 LP  0  0  0  0  0  0  0  0  0  0  0  0  # atno 17343 bound_to 10162
  156.2373  130.6830  151.1522 LP  0  0  0  0  0  0  0  0  0  0  0  0  # atno 17370 bound_to 10713
  157.7248  131.0657  150.5978 LP  0  0  0  0  0  0  0  0  0  0  0  0  # atno 17371 bound_to 10713
  139.9192  135.0199  156.8000 LP  0  0  0  0  0  0  0  0  0  0  0  0  # atno 17394 bound_to 11000
  140.6448  133.9785  155.7725 LP  0  0  0  0  0  0  0  0  0  0  0  0  # atno 17395 bound_to 11000

$$$$
