AV-unprocessed.smi:1912|AV-procd|sdf|7750|dock6
  -GOLD-   22720 9493D 1   1.00000     0.00000
 Structure written by MMmdl.
 44 46  0  0  0  0  0  0  0  0  2 V2000
  151.4514  145.2718  159.9324 C   0  0  0  0  0  0  0  0  0  0  0  0
  150.6455  144.1075  159.8252 O   0  0  0  0  0  0  0  0  0  0  0  0
  151.2633  142.8795  159.9241 C   0  0  0  0  0  0  0  0  0  0  0  0
  152.6329  142.6990  160.2277 C   0  0  0  0  0  0  0  0  0  0  0  0
  153.1785  141.4054  160.3187 C   0  0  0  0  0  0  0  0  0  0  0  0
  152.3722  140.2597  160.1063 C   0  0  0  0  0  0  0  0  0  0  0  0
  152.8511  138.9689  160.2060 O   0  0  0  0  0  0  0  0  0  0  0  0
  154.2103  138.7772  160.5679 C   0  0  0  0  0  0  0  0  0  0  0  0
  151.0020  140.4375  159.7921 C   0  0  0  0  0  0  0  0  0  0  0  0
  150.0897  139.2291  159.5837 C   0  0  2  0  0  0  0  0  0  0  0  0
  150.7020  138.2111  158.8178 O   0  0  0  0  0  0  0  0  0  0  0  0
  148.7594  139.6042  158.8970 C   0  0  0  0  0  0  0  0  0  0  0  0
  147.6133  138.8552  159.4366 N   0  0  0  0  0  0  0  0  0  0  0  0
  147.3879  137.5110  159.4727 C   0  0  0  0  0  0  0  0  0  0  0  0
  148.2805  136.4431  158.9366 C   0  0  0  0  0  0  0  0  0  0  0  0
  146.1962  137.3171  160.1042 N   0  3  0  0  0  0  0  0  0  0  0  0
  145.6537  138.5475  160.4768 C   0  0  0  0  0  0  0  0  0  0  0  0
  144.4727  138.8563  161.1445 C   0  0  0  0  0  0  0  0  0  0  0  0
  144.2172  140.2233  161.3789 C   0  0  0  0  0  0  0  0  0  0  0  0
  145.1161  141.2216  160.9516 C   0  0  0  0  0  0  0  0  0  0  0  0
  146.3074  140.8966  160.2707 C   0  0  0  0  0  0  0  0  0  0  0  0
  146.5559  139.5423  160.0464 C   0  0  0  0  0  0  0  0  0  0  0  0
  150.4640  141.7412  159.7099 C   0  0  0  0  0  0  0  0  0  0  0  0
  150.8212  146.1553  159.8306 H   0  0  0  0  0  0  0  0  0  0  0  0
  152.2034  145.3103  159.1430 H   0  0  0  0  0  0  0  0  0  0  0  0
  151.9436  145.3284  160.9043 H   0  0  0  0  0  0  0  0  0  0  0  0
  153.2885  143.5390  160.3995 H   0  0  0  0  0  0  0  0  0  0  0  0
  154.2276  141.3208  160.5574 H   0  0  0  0  0  0  0  0  0  0  0  0
  154.4081  137.7095  160.6630 H   0  0  0  0  0  0  0  0  0  0  0  0
  154.4357  139.2400  161.5299 H   0  0  0  0  0  0  0  0  0  0  0  0
  154.8854  139.1714  159.8073 H   0  0  0  0  0  0  0  0  0  0  0  0
  149.8748  138.7706  160.5489 H   0  0  0  0  0  0  0  0  0  0  0  0
  150.6351  137.3970  159.2933 H   0  0  0  0  0  0  0  0  0  0  0  0
  148.5630  140.6748  158.9582 H   0  0  0  0  0  0  0  0  0  0  0  0
  148.8133  139.3684  157.8334 H   0  0  0  0  0  0  0  0  0  0  0  0
  147.8279  135.4607  159.0736 H   0  0  0  0  0  0  0  0  0  0  0  0
  149.2392  136.4585  159.4550 H   0  0  0  0  0  0  0  0  0  0  0  0
  148.4561  136.5975  157.8719 H   0  0  0  0  0  0  0  0  0  0  0  0
  143.7830  138.0929  161.4736 H   0  0  0  0  0  0  0  0  0  0  0  0
  143.3143  140.5116  161.8973 H   0  0  0  0  0  0  0  0  0  0  0  0
  144.8889  142.2588  161.1510 H   0  0  0  0  0  0  0  0  0  0  0  0
  146.9896  141.6714  159.9547 H   0  0  0  0  0  0  0  0  0  0  0  0
  149.4156  141.8778  159.4886 H   0  0  0  0  0  0  0  0  0  0  0  0
  145.7874  136.4067  160.2712 H   0  0  0  0  0  0  0  0  0  0  0  0
  1  2  1  0  0  0  0
  1 24  1  0  0  0  0
  1 25  1  0  0  0  0
  1 26  1  0  0  0  0
  2  3  1  0  0  0  0
  3 23  1  0  0  0  0
  3  4  2  0  0  0  0
  4  5  1  0  0  0  0
  4 27  1  0  0  0  0
  5  6  2  0  0  0  0
  5 28  1  0  0  0  0
  6  7  1  0  0  0  0
  6  9  1  0  0  0  0
  7  8  1  0  0  0  0
  8 29  1  0  0  0  0
  8 30  1  0  0  0  0
  8 31  1  0  0  0  0
  9 10  1  0  0  0  0
  9 23  2  0  0  0  0
 10 11  1  0  0  0  0
 10 12  1  0  0  0  0
 10 32  1  0  0  0  0
 11 33  1  0  0  0  0
 12 13  1  0  0  0  0
 12 34  1  0  0  0  0
 12 35  1  0  0  0  0
 13 22  1  0  0  0  0
 13 14  1  0  0  0  0
 14 15  1  0  0  0  0
 14 16  2  0  0  0  0
 15 36  1  0  0  0  0
 15 37  1  0  0  0  0
 15 38  1  0  0  0  0
 16 17  1  0  0  0  0
 16 44  1  0  0  0  0
 17 22  2  0  0  0  0
 17 18  1  0  0  0  0
 18 19  2  0  0  0  0
 18 39  1  0  0  0  0
 19 20  1  0  0  0  0
 19 40  1  0  0  0  0
 20 21  2  0  0  0  0
 20 41  1  0  0  0  0
 21 22  1  0  0  0  0
 21 42  1  0  0  0  0
 23 43  1  0  0  0  0
M  CHG  1  16   1
M  END
> <s_m_source_file>
AV-unprocessed.smi

> <i_m_source_file_index>
1912

> <i_lp_mmshare_version>
43012

> <i_f3d_flags>
0

> <s_epik_input>
W0NIM11PYzFbY0hdW2NIXWMoT1tDSDNdKWMoW2NIXTEpW0NASF0oW09IXSlbQ0gyXW4oYyhuMilbQ0gzXSljKGMyMylbY0hdW2NIXVtjSF1bY0hdMw==

> <s_epik_cmdline>
J2VwaWtfcHl0aG9uJywgJy1waCcsICc3LjAnLCAnLXRuJywgJzgnLCAnLW1hJywgJzIwMCcsICctbWV0YWxfYmluZGluZycsICctaW1hZScsICc8aW5maWxlLm1hZT4nLCAnLW9tYWUnLCAnPG91dGZpbGUubWFlPic=

> <r_lp_tautomer_probability>
1

> <r_epik_Ionization_Penalty>
0.963869

> <r_epik_Ionization_Penalty_Charging>
0.963868

> <r_epik_Ionization_Penalty_Neutral>
1.34362e-06

> <r_epik_State_Penalty>
1.00924

> <r_epik_Charging_Adjusted_Penalty>
1.9731

> <i_epik_Tot_Q>
1

> <i_epik_Tot_abs_Q>
1

> <r_epik_Metal_State_Penalty>
4.98304

> <b_epik_Metal_Only>
0

> <s_lp_Force_Field>
OPLS_2005

> <r_lp_Energy>
21.5299

> <b_lp_Chiralities_Consistent>
1

> <s_lp_Variant>
AV-unprocessed.smi:1912-3

> <Gold.Version>
5.8.1

> <Gold.Id.Protein>
6NUR|6NUR_protein|mol2

> <Gold.PLP.Fitness>
57.2111

> <Gold.PLP.PLP>
-50.1268

> <Gold.PLP.part.hbond>
-2.4317

> <Gold.PLP.part.metal>
0.0000

> <Gold.PLP.part.buried>
-0.2933

> <Gold.PLP.part.nonpolar>
-47.1023

> <Gold.PLP.part.repulsive>
0.1293

> <Gold.PLP.ligand.clash>
0.0000

> <Gold.PLP.ligand.torsion>
0.9784

> <Gold.PLP.Chemscore.Hbond>
3.0000

> <Gold.PLP.Chemscore.CHOScore>
0.0000

> <Gold.PLP.Chemscore.Metal>
0.0000

> <Gold.PLP.Chemscore.Internal.Correction>
0.0411

> <Gold.Rescore>
     Score         DG    S(hbond)    S(metal)    S(lipo)     H(rot)  DE(clash)    DE(int)     intcor
     15.25     -18.31       0.78        0.00     136.44       2.24       0.74       2.32       ----

> <Gold.Chemscore.Fitness>
15.2511

> <Gold.Chemscore.DG>
-18.3091

> <Gold.Chemscore.ZeroCoef>
-5.4800

> <Gold.Chemscore.Hbond>
0.7820

> <Gold.Chemscore.Metal>
0.0000

> <Gold.Chemscore.Lipo>
136.4431

> <Gold.Chemscore.Internal_Hbond>
0.0000

> <Gold.Chemscore.DEClash>
0.7415

> <Gold.Chemscore.DEInternal>
2.3165

> <Gold.Chemscore.Rot>
2.2448

> <Gold.Chemscore.Internal.Correction>
   9.000000E+99

> <Gold.Chemscore.Hbond.Weighted>
-2.6120

> <Gold.Chemscore.Metal.Weighted>
-0.0000

> <Gold.Chemscore.Lipo.Weighted>
-15.9638

> <Gold.Chemscore.Internal_Hbond.Weighted>
0.0000

> <Gold.Chemscore.DEClash.Weighted>
0.7415

> <Gold.Chemscore.DEInternal.Weighted>
2.3165

> <Gold.Chemscore.Rot.Weighted>
5.7467

> <Gold.Chemscore.Internal.Correction.Weighted>
   9.000000E+99

> <Gold.Protein.RotatedTorsions>
[ 6907 6896 6895 6894 ] final -102.60 input  -60.11 | X-H torsion
[ 7974 7965 7964 7962 ] final -107.42 input  175.53 | X-H torsion
[ 8008 7997 7996 7995 ] final  -48.99 input   59.86 | X-H torsion
[ 10167 10162 10161 10158 ] final   48.53 input  -65.29 | X-H torsion
[ 10718 10713 10712 10709 ] final   16.24 input   66.30 | X-H torsion
[ 10763 10752 10751 10750 ] final -108.58 input  -60.55 | X-H torsion
[ 11005 11000 10999 10996 ] final  -65.53 input  -57.11 | X-H torsion

> <Gold.Protein.ActiveResidues>
 VAL166  LYS551  ARG553  GLY616  TRP617  ASP618  TYR619  PRO620  LYS621  CYS622 
 ASP623  PHE694  ASN695  SER759  ASP760  ASP761  ALA762  ILE779  LEU786  VAL792 
 PHE793  MET794  SER795  GLU796  ALA797  LYS798  CYS799  TRP800  GLU811  SER814 

> <Gold.Protein.RotatedAtoms>
  150.7203  134.0556  159.3813 H   0  0  0  0  0  0  0  0  0  0  0  0  # atno 6907 bound_to 6896
  151.8535  135.0547  160.0471 H   0  0  0  0  0  0  0  0  0  0  0  0  # atno 6908 bound_to 6896
  152.2772  133.5401  159.5512 H   0  0  0  0  0  0  0  0  0  0  0  0  # atno 6909 bound_to 6896
  145.2055  140.9074  143.3344 H   0  0  0  0  0  0  0  0  0  0  0  0  # atno 7974 bound_to 7965
  154.4037  140.1308  156.4429 H   0  0  0  0  0  0  0  0  0  0  0  0  # atno 8008 bound_to 7997
  155.7442  140.3489  155.5099 H   0  0  0  0  0  0  0  0  0  0  0  0  # atno 8009 bound_to 7997
  155.9011  140.1019  157.1339 H   0  0  0  0  0  0  0  0  0  0  0  0  # atno 8010 bound_to 7997
  140.2923  144.3032  150.6238 H   0  0  0  0  0  0  0  0  0  0  0  0  # atno 10167 bound_to 10162
  157.0650  130.6324  149.5794 H   0  0  0  0  0  0  0  0  0  0  0  0  # atno 10718 bound_to 10713
  154.8144  135.4632  154.0602 H   0  0  0  0  0  0  0  0  0  0  0  0  # atno 10763 bound_to 10752
  153.2007  135.6868  153.8241 H   0  0  0  0  0  0  0  0  0  0  0  0  # atno 10764 bound_to 10752
  153.7727  135.3268  155.3331 H   0  0  0  0  0  0  0  0  0  0  0  0  # atno 10765 bound_to 10752
  141.1457  133.6683  156.6001 H   0  0  0  0  0  0  0  0  0  0  0  0  # atno 11005 bound_to 11000
  144.9906  139.3693  143.6217 LP  0  0  0  0  0  0  0  0  0  0  0  0  # atno 17320 bound_to 7965
  146.3409  139.9087  142.8783 LP  0  0  0  0  0  0  0  0  0  0  0  0  # atno 17321 bound_to 7965
  140.5722  143.2180  151.7579 LP  0  0  0  0  0  0  0  0  0  0  0  0  # atno 17342 bound_to 10162
  139.4935  144.4200  151.9987 LP  0  0  0  0  0  0  0  0  0  0  0  0  # atno 17343 bound_to 10162
  155.9967  130.5037  150.7507 LP  0  0  0  0  0  0  0  0  0  0  0  0  # atno 17370 bound_to 10713
  157.4924  131.0912  151.0411 LP  0  0  0  0  0  0  0  0  0  0  0  0  # atno 17371 bound_to 10713
  140.3695  134.7618  157.4589 LP  0  0  0  0  0  0  0  0  0  0  0  0  # atno 17394 bound_to 11000
  140.0721  134.5847  155.8630 LP  0  0  0  0  0  0  0  0  0  0  0  0  # atno 17395 bound_to 11000

$$$$
