#       Name:                AV-unprocessed.smi:200
#       Creating user name   scv26
#       Creation time:       Thu Mar 26 19:45:42 2020


#       File generated by GOLD software.
#

@<TRIPOS>MOLECULE
AV-unprocessed.smi:200
    66    69     1
SMALL
NO_CHARGES


@<TRIPOS>ATOM
      1 ****        -1.7467  -5.4050  -1.2278 C.3            1 S1                 0.0000
      2 ****        -2.2287  -4.1402  -0.8092 O.3            1 S1                 0.0000
      3 ****        -1.4887  -3.0660  -1.3634 C.3            1 S1                 0.0000
      4 ****        -2.0907  -1.7451  -0.8575 C.3            1 S1                 0.0000
      5 ****        -1.4385  -0.5578  -1.4187 N.3            1 S1                 0.0000
      6 ****        -0.1020  -0.4522  -1.2289 C.ar           1 S1                 0.0000
      7 ****         0.6511  -0.1428  -2.3138 N.ar           1 S1                 0.0000
      8 ****         1.9752  -0.0114  -2.1947 C.ar           1 S1                 0.0000
      9 ****         2.7310  -0.1345  -1.1020 N.ar           1 S1                 0.0000
     10 ****         1.9764  -0.4314  -0.0056 C.ar           1 S1                 0.0000
     11 ****         0.5642  -0.6123   0.0201 C.ar           1 S1                 0.0000
     12 ****         0.1500  -0.9017   1.3147 N.2            1 S1                 0.0000
     13 ****         1.2526  -0.8995   2.0116 C.2            1 S1                 0.0000
     14 ****         2.3959  -0.6100   1.3014 N.pl3          1 S1                 0.0000
     15 ****         3.7474  -0.5255   1.8340 C.3            1 S1                 0.0000
     16 ****         4.2258   0.9140   2.1201 C.3            1 S1                 0.0000
     17 ****         3.2088   1.6689   2.9948 C.3            1 S1                 0.0000
     18 ****         3.0216   1.0275   4.2404 O.3            1 S1                 0.0000
     19 ****         5.6868   1.0542   2.5692 C.3            1 S1                 0.0000
     20 ****         5.9548   2.0644   1.5740 O.3            1 S1                 0.0000
     21 ****         4.7261   1.7100   0.9057 C.3            1 S1                 0.0000
     22 ****        -2.1124   0.7429  -1.3537 C.3            1 S1                 0.0000
     23 ****        -2.4770   1.2084   0.0617 C.3            1 S1                 0.0000
     24 ****        -3.5491   2.2650  -0.1875 C.3            1 S1                 0.0000
     25 ****        -4.3863   1.6856  -1.3354 C.3            1 S1                 0.0000
     26 ****        -5.1443   2.7490  -2.1413 C.3            1 S1                 0.0000
     27 ****        -3.4101   0.8418  -2.1770 C.3            1 S1                 0.0000
     28 ****        -2.3447  -6.1938  -0.7716 H              1 S1                 0.0000
     29 ****        -0.7089  -5.5520  -0.9260 H              1 S1                 0.0000
     30 ****        -1.8157  -5.5143  -2.3108 H              1 S1                 0.0000
     31 ****        -0.4411  -3.1550  -1.0724 H              1 S1                 0.0000
     32 ****        -1.5351  -3.1048  -2.4528 H              1 S1                 0.0000
     33 ****        -3.1492  -1.7282  -1.1118 H              1 S1                 0.0000
     34 ****        -2.0513  -1.7174   0.2305 H              1 S1                 0.0000
     35 ****         2.5043   0.2307  -3.1046 H              1 S1                 0.0000
     36 ****         1.2608  -1.0958   3.0739 H              1 S1                 0.0000
     37 ****         3.7925  -1.1281   2.7420 H              1 S1                 0.0000
     38 ****         4.4157  -1.0180   1.1265 H              1 S1                 0.0000
     39 ****         3.5547   2.6842   3.1930 H              1 S1                 0.0000
     40 ****         2.2454   1.7740   2.4956 H              1 S1                 0.0000
     41 ****         2.4219   1.5440   4.7570 H              1 S1                 0.0000
     42 ****         5.8073   1.4254   3.5877 H              1 S1                 0.0000
     43 ****         6.2879   0.1578   2.4081 H              1 S1                 0.0000
     44 ****         4.9176   1.1040   0.0193 H              1 S1                 0.0000
     45 ****         4.1140   2.5781   0.6583 H              1 S1                 0.0000
     46 ****        -1.4400   1.4988  -1.7648 H              1 S1                 0.0000
     47 ****        -2.9057   0.3957   0.6485 H              1 S1                 0.0000
     48 ****        -1.6193   1.6002   0.6092 H              1 S1                 0.0000
     49 ****        -4.1453   2.4732   0.7014 H              1 S1                 0.0000
     50 ****        -3.0757   3.1979  -0.4968 H              1 S1                 0.0000
     51 ****        -5.1159   1.0032  -0.8965 H              1 S1                 0.0000
     52 ****        -4.4590   3.4648  -2.5963 H              1 S1                 0.0000
     53 ****        -5.8324   3.3046  -1.5039 H              1 S1                 0.0000
     54 ****        -5.7278   2.2917  -2.9409 H              1 S1                 0.0000
     55 ****        -3.1977   1.3094  -3.1393 H              1 S1                 0.0000
     56 ****        -3.8527  -0.1293  -2.3964 H              1 S1                 0.0000
     57 ****        -2.1704  -4.0888   0.1878 LP             1 S1                 0.0000
     58 ****        -3.1836  -4.0513  -1.0923 LP             1 S1                 0.0000
     59 ****        -1.5777  -0.8192  -2.3738 LP             1 S1                 0.0000
     60 ****         0.2146  -0.0128  -3.2040 LP             1 S1                 0.0000
     61 ****         3.7247  -0.0231  -1.0887 LP             1 S1                 0.0000
     62 ****        -0.7807  -1.0725   1.6381 LP             1 S1                 0.0000
     63 ****         3.8981   0.9523   4.7161 LP             1 S1                 0.0000
     64 ****         2.6415   0.1140   4.0956 LP             1 S1                 0.0000
     65 ****         6.7791   1.8987   1.0326 LP             1 S1                 0.0000
     66 ****         5.9730   2.9982   1.9316 LP             1 S1                 0.0000
@<TRIPOS>BOND
    1    1    2 1     
    2    1   28 1     
    3    1   29 1     
    4    1   30 1     
    5    2    3 1     
    6    3    4 1     
    7    3   31 1     
    8    3   32 1     
    9    4    5 1     
   10    4   33 1     
   11    4   34 1     
   12    5    6 1     
   13    5   22 1     
   14    6   11 ar    
   15    6    7 ar    
   16    7    8 ar    
   17    8    9 ar    
   18    8   35 1     
   19    9   10 ar    
   20   10   14 1     
   21   10   11 ar    
   22   11   12 1     
   23   12   13 2     
   24   13   14 1     
   25   13   36 1     
   26   14   15 1     
   27   15   16 1     
   28   15   37 1     
   29   15   38 1     
   30   16   21 1     
   31   16   17 1     
   32   16   19 1     
   33   17   18 1     
   34   17   39 1     
   35   17   40 1     
   36   18   41 1     
   37   19   20 1     
   38   19   42 1     
   39   19   43 1     
   40   20   21 1     
   41   21   44 1     
   42   21   45 1     
   43   22   27 1     
   44   22   23 1     
   45   22   46 1     
   46   23   24 1     
   47   23   47 1     
   48   23   48 1     
   49   24   25 1     
   50   24   49 1     
   51   24   50 1     
   52   25   26 1     
   53   25   27 1     
   54   25   51 1     
   55   26   52 1     
   56   26   53 1     
   57   26   54 1     
   58   27   55 1     
   59   27   56 1     
   60    2   57 1     
   61    2   58 1     
   62    5   59 1     
   63    7   60 1     
   64    9   61 1     
   65   12   62 1     
   66   18   63 1     
   67   18   64 1     
   68   20   65 1     
   69   20   66 1     
@<TRIPOS>SUBSTRUCTURE
      1 S1             1
@<TRIPOS>SET
LONE_PAIRS      STATIC     ATOMS    <user>   **** ""
10 57 58 59 60 61 62 63 64 65 66
DONOR_HYDROGENS      STATIC     ATOMS    <user>   **** ""
1 41
ATOM$BLUE        STATIC     ATOMS    COLORGROUP SYSTEM
10 57 58 59 60 61 62 63 64 65 66
ATOM$RED        STATIC     ATOMS    COLORGROUP SYSTEM
1 41
