AV-unprocessed.smi:2655|AV-procd|sdf|10303|dock9
  -GOLD-   2272014323D 1   1.00000     0.00000
 Structure written by MMmdl.
 33 34  0  0  0  0  0  0  0  0  2 V2000
  145.1277  135.4347  151.4457 C   0  0  0  0  0  0  0  0  0  0  0  0
  146.2231  134.4091  151.6416 C   0  0  0  0  0  0  0  0  0  0  0  0
  146.5059  133.4763  150.6861 N   0  0  0  0  0  0  0  0  0  0  0  0
  147.4909  132.6491  151.1634 N   0  0  0  0  0  0  0  0  0  0  0  0
  147.8673  133.0486  152.3892 C   0  0  0  0  0  0  0  0  0  0  0  0
  148.7368  132.5243  153.0819 O   0  0  0  0  0  0  0  0  0  0  0  0
  147.0299  134.2044  152.6915 C   0  0  0  0  0  0  0  0  0  0  0  0
  147.0671  134.9573  154.0080 C   0  0  0  0  0  0  0  0  0  0  0  0
  148.2980  134.5876  154.8516 C   0  0  0  0  0  0  0  0  0  0  0  0
  149.4389  135.4398  154.5360 N   0  0  0  0  0  0  0  0  0  0  0  0
  150.5826  135.5093  155.2324 C   0  0  0  0  0  0  0  0  0  0  0  0
  150.7352  134.8087  156.2358 O   0  0  0  0  0  0  0  0  0  0  0  0
  151.4773  136.3886  154.7246 N   0  5  0  0  0  0  0  0  0  0  0  0
  151.2685  137.7087  154.8443 C   0  0  0  0  0  0  0  0  0  0  0  0
  150.0106  138.3424  155.0385 C   0  0  0  0  0  0  0  0  0  0  0  0
  150.3327  139.6691  155.0829 C   0  0  0  0  0  0  0  0  0  0  0  0
  149.5168  140.9029  155.2666 C   0  0  0  0  0  0  0  0  0  0  0  0
  151.6728  139.8352  154.9180 O   0  0  0  0  0  0  0  0  0  0  0  0
  152.2637  138.5758  154.7600 N   0  0  0  0  0  0  0  0  0  0  0  0
  145.5359  136.4419  151.5326 H   0  0  0  0  0  0  0  0  0  0  0  0
  144.3538  135.3099  152.2031 H   0  0  0  0  0  0  0  0  0  0  0  0
  144.6667  135.3340  150.4627 H   0  0  0  0  0  0  0  0  0  0  0  0
  147.8311  131.8878  150.5941 H   0  0  0  0  0  0  0  0  0  0  0  0
  146.1480  134.7484  154.5569 H   0  0  0  0  0  0  0  0  0  0  0  0
  147.0690  136.0288  153.8061 H   0  0  0  0  0  0  0  0  0  0  0  0
  148.0698  134.6468  155.9173 H   0  0  0  0  0  0  0  0  0  0  0  0
  148.5854  133.5547  154.6533 H   0  0  0  0  0  0  0  0  0  0  0  0
  149.3571  136.0288  153.7203 H   0  0  0  0  0  0  0  0  0  0  0  0
  149.0330  137.8945  155.1345 H   0  0  0  0  0  0  0  0  0  0  0  0
  148.8300  141.0380  154.4312 H   0  0  0  0  0  0  0  0  0  0  0  0
  150.1500  141.7881  155.3301 H   0  0  0  0  0  0  0  0  0  0  0  0
  148.9288  140.8426  156.1825 H   0  0  0  0  0  0  0  0  0  0  0  0
  145.9762  133.2698  149.8513 H   0  0  0  0  0  0  0  0  0  0  0  0
  1 20  1  0  0  0  0
  1 21  1  0  0  0  0
  1 22  1  0  0  0  0
  1  2  1  0  0  0  0
  2  7  2  0  0  0  0
  2  3  1  0  0  0  0
  3  4  1  0  0  0  0
  3 33  1  0  0  0  0
  4 23  1  0  0  0  0
  4  5  1  0  0  0  0
  5  7  1  0  0  0  0
  5  6  2  0  0  0  0
  7  8  1  0  0  0  0
  8  9  1  0  0  0  0
  8 24  1  0  0  0  0
  8 25  1  0  0  0  0
  9 10  1  0  0  0  0
  9 26  1  0  0  0  0
  9 27  1  0  0  0  0
 10 11  1  0  0  0  0
 10 28  1  0  0  0  0
 11 12  2  0  0  0  0
 11 13  1  0  0  0  0
 13 14  1  0  0  0  0
 14 19  2  0  0  0  0
 14 15  1  0  0  0  0
 15 16  2  0  0  0  0
 15 29  1  0  0  0  0
 16 17  1  0  0  0  0
 16 18  1  0  0  0  0
 17 30  1  0  0  0  0
 17 31  1  0  0  0  0
 17 32  1  0  0  0  0
 18 19  1  0  0  0  0
M  CHG  1  13  -1
M  END
> <s_m_source_file>
AV-unprocessed.smi

> <i_m_source_file_index>
2655

> <i_lp_mmshare_version>
43012

> <i_f3d_flags>
0

> <s_epik_input>
W0NIM11DMT1OW05IXUMoPU8pW0NASF0xW0NIMl1bQ0gyXVtOSF1DKD1PKVtOSF1jMltjSF1jKFtDSDNdKW9uMg==

> <s_epik_cmdline>
J2VwaWtfcHl0aG9uJywgJy1waCcsICc3LjAnLCAnLXRuJywgJzgnLCAnLW1hJywgJzIwMCcsICctbWV0YWxfYmluZGluZycsICctaW1hZScsICc8aW5maWxlLm1hZT4nLCAnLW9tYWUnLCAnPG91dGZpbGUubWFlPic=

> <r_lp_tautomer_probability>
0.00220696

> <r_epik_Ionization_Penalty>
6.47655

> <r_epik_Ionization_Penalty_Charging>
6.44485

> <r_epik_Ionization_Penalty_Neutral>
0.0316949

> <r_epik_State_Penalty>
7.07162

> <r_epik_Charging_Adjusted_Penalty>
13.5165

> <i_epik_Tot_Q>
-1

> <i_epik_Tot_abs_Q>
1

> <r_epik_Metal_State_Penalty>
4.39363

> <b_epik_Metal_Only>
1

> <s_lp_Force_Field>
OPLS_2005

> <r_lp_Energy>
11.561

> <b_lp_Chiralities_Consistent>
1

> <s_lp_Variant>
AV-unprocessed.smi:2655-6

> <Gold.Version>
5.8.1

> <Gold.Id.Protein>
6NUR|6NUR_protein|mol2

> <Gold.PLP.Fitness>
40.6500

> <Gold.PLP.PLP>
-27.9302

> <Gold.PLP.part.hbond>
-3.8520

> <Gold.PLP.part.metal>
0.0000

> <Gold.PLP.part.buried>
-4.0202

> <Gold.PLP.part.nonpolar>
-20.5975

> <Gold.PLP.part.repulsive>
0.6294

> <Gold.PLP.ligand.clash>
0.0000

> <Gold.PLP.ligand.torsion>
1.1542

> <Gold.PLP.Chemscore.Hbond>
4.9920

> <Gold.PLP.Chemscore.CHOScore>
0.0000

> <Gold.PLP.Chemscore.Metal>
0.0000

> <Gold.Chemscore.Hbonds>
donor molecule, donor type, donor heavy atom, donor atom, acceptor molecule, acceptor atom, score
      L1  H     4    23       P1 10747  0.98
      L1  H    10    28       P1  7948  0.99
      P1  H  7989  7998       L1    18  0.95
      P1  H 10752 10763       L1    13  2.00

> <Gold.PLP.Chemscore.Internal.Correction>
0.0523

> <Gold.Rescore>
     Score         DG    S(hbond)    S(metal)    S(lipo)     H(rot)  DE(clash)    DE(int)     intcor
     13.54     -16.10       3.36        0.00      35.72       1.86       0.07       2.49       ----

> <Gold.Chemscore.Fitness>
13.5398

> <Gold.Chemscore.DG>
-16.1008

> <Gold.Chemscore.ZeroCoef>
-5.4800

> <Gold.Chemscore.Hbond>
3.3574

> <Gold.Chemscore.Metal>
0.0000

> <Gold.Chemscore.Lipo>
35.7172

> <Gold.Chemscore.Internal_Hbond>
0.0000

> <Gold.Chemscore.DEClash>
0.0699

> <Gold.Chemscore.DEInternal>
2.4911

> <Gold.Chemscore.Rot>
1.8640

> <Gold.Chemscore.Internal.Correction>
   9.000000E+99

> <Gold.Chemscore.Hbonds>
donor molecule, donor type, donor heavy atom, donor atom, acceptor molecule, acceptor atom, score
      L1  H     4    23       P1 10747  0.90
      L1  H    10    28       P1  7948  0.65
      P1  H  7989  7998       L1    18  0.19
      P1  H 10752 10763       L1    13  0.85

> <Gold.Chemscore.Hbond.Weighted>
-11.2137

> <Gold.Chemscore.Metal.Weighted>
-0.0000

> <Gold.Chemscore.Lipo.Weighted>
-4.1789

> <Gold.Chemscore.Internal_Hbond.Weighted>
0.0000

> <Gold.Chemscore.DEClash.Weighted>
0.0699

> <Gold.Chemscore.DEInternal.Weighted>
2.4911

> <Gold.Chemscore.Rot.Weighted>
4.7719

> <Gold.Chemscore.Internal.Correction.Weighted>
   9.000000E+99

> <Gold.Protein.RotatedTorsions>
[ 6907 6896 6895 6894 ] final  155.49 input  -60.11 | X-H torsion
[ 7974 7965 7964 7962 ] final  136.53 input  175.53 | X-H torsion
[ 8008 7997 7996 7995 ] final -117.97 input   59.86 | X-H torsion
[ 10167 10162 10161 10158 ] final  129.56 input  -65.29 | X-H torsion
[ 10718 10713 10712 10709 ] final  -31.12 input   66.30 | X-H torsion
[ 10763 10752 10751 10750 ] final   34.62 input  -60.55 | X-H torsion
[ 11005 11000 10999 10996 ] final   88.27 input  -57.11 | X-H torsion

> <Gold.Protein.ActiveResidues>
 VAL166  LYS551  ARG553  GLY616  TRP617  ASP618  TYR619  PRO620  LYS621  CYS622 
 ASP623  PHE694  ASN695  SER759  ASP760  ASP761  ALA762  ILE779  LEU786  VAL792 
 PHE793  MET794  SER795  GLU796  ALA797  LYS798  CYS799  TRP800  GLU811  SER814 

> <Gold.Protein.RotatedAtoms>
  152.0434  133.3987  159.4346 H   0  0  0  0  0  0  0  0  0  0  0  0  # atno 6907 bound_to 6896
  150.6874  134.3389  159.4869 H   0  0  0  0  0  0  0  0  0  0  0  0  # atno 6908 bound_to 6896
  152.1191  134.9218  160.0614 H   0  0  0  0  0  0  0  0  0  0  0  0  # atno 6909 bound_to 6896
  144.9556  139.4768  143.5504 H   0  0  0  0  0  0  0  0  0  0  0  0  # atno 7974 bound_to 7965
  155.0922  140.0395  157.2672 H   0  0  0  0  0  0  0  0  0  0  0  0  # atno 8008 bound_to 7997
  154.6823  140.2635  155.6871 H   0  0  0  0  0  0  0  0  0  0  0  0  # atno 8009 bound_to 7997
  156.2699  140.2776  156.1371 H   0  0  0  0  0  0  0  0  0  0  0  0  # atno 8010 bound_to 7997
  139.5472  144.6783  151.4437 H   0  0  0  0  0  0  0  0  0  0  0  0  # atno 10167 bound_to 10162
  156.3913  130.4373  149.7392 H   0  0  0  0  0  0  0  0  0  0  0  0  # atno 10718 bound_to 10713
  153.0156  135.6355  154.1697 H   0  0  0  0  0  0  0  0  0  0  0  0  # atno 10763 bound_to 10752
  154.1436  135.2833  155.3156 H   0  0  0  0  0  0  0  0  0  0  0  0  # atno 10764 bound_to 10752
  154.6106  135.5558  153.7530 H   0  0  0  0  0  0  0  0  0  0  0  0  # atno 10765 bound_to 10752
  139.8900  134.8477  156.2977 H   0  0  0  0  0  0  0  0  0  0  0  0  # atno 11005 bound_to 11000
  146.3336  139.8671  142.8846 LP  0  0  0  0  0  0  0  0  0  0  0  0  # atno 17320 bound_to 7965
  145.2777  141.0129  143.3735 LP  0  0  0  0  0  0  0  0  0  0  0  0  # atno 17321 bound_to 7965
  140.6723  143.8266  150.7015 LP  0  0  0  0  0  0  0  0  0  0  0  0  # atno 17342 bound_to 10162
  140.1694  143.4207  152.2011 LP  0  0  0  0  0  0  0  0  0  0  0  0  # atno 17343 bound_to 10162
  156.4445  130.7877  151.2898 LP  0  0  0  0  0  0  0  0  0  0  0  0  # atno 17370 bound_to 10713
  157.7499  131.0114  150.3346 LP  0  0  0  0  0  0  0  0  0  0  0  0  # atno 17371 bound_to 10713
  140.9934  133.7195  156.0849 LP  0  0  0  0  0  0  0  0  0  0  0  0  # atno 17394 bound_to 11000
  140.7594  134.3956  157.5528 LP  0  0  0  0  0  0  0  0  0  0  0  0  # atno 17395 bound_to 11000

$$$$
