AV-unprocessed.smi:340|AV-procd|sdf|2381|dock8
  -GOLD-   2262022303D 1   1.00000     0.00000
 Structure written by MMmdl.
 34 35  0  0  0  0  0  0  0  0  2 V2000
  152.5498  131.0755  156.4318 C   0  0  0  0  0  0  0  0  0  0  0  0
  151.4914  132.5399  156.7642 S   0  0  0  0  0  0  0  0  0  0  0  0
  150.7219  132.2117  157.9752 O   0  0  0  0  0  0  0  0  0  0  0  0
  152.4086  133.6885  156.8410 O   0  0  0  0  0  0  0  0  0  0  0  0
  150.5774  132.5563  155.4263 N   0  5  0  0  0  0  0  0  0  0  0  0
  149.7444  131.4063  155.1244 C   0  0  0  0  0  0  0  0  0  0  0  0
  148.6996  131.7350  154.0679 C   0  0  0  0  0  0  0  0  0  0  0  0
  148.7022  132.9814  153.4026 C   0  0  0  0  0  0  0  0  0  0  0  0
  147.7141  133.2382  152.4317 C   0  0  0  0  0  0  0  0  0  0  0  0
  146.7572  132.2401  152.1555 C   0  0  0  0  0  0  0  0  0  0  0  0
  145.7756  132.4893  151.1862 N   0  0  0  0  0  0  0  0  0  0  0  0
  144.4189  132.4744  151.7191 C   0  0  0  0  0  0  0  0  0  0  0  0
  143.4183  132.8748  150.6212 C   0  0  0  0  0  0  0  0  0  0  0  0
  143.5715  132.0136  149.4961 O   0  0  0  0  0  0  0  0  0  0  0  0
  144.8799  132.0908  148.9370 C   0  0  0  0  0  0  0  0  0  0  0  0
  145.9149  131.6651  149.9920 C   0  0  0  0  0  0  0  0  0  0  0  0
  146.7470  131.0435  152.7894 N   0  0  0  0  0  0  0  0  0  0  0  0
  147.6963  130.8018  153.7197 C   0  0  0  0  0  0  0  0  0  0  0  0
  153.2345  130.9290  157.2665 H   0  0  0  0  0  0  0  0  0  0  0  0
  153.1204  131.2391  155.5181 H   0  0  0  0  0  0  0  0  0  0  0  0
  151.9223  130.1921  156.3171 H   0  0  0  0  0  0  0  0  0  0  0  0
  150.3338  130.5629  154.7632 H   0  0  0  0  0  0  0  0  0  0  0  0
  149.2250  131.0407  156.0109 H   0  0  0  0  0  0  0  0  0  0  0  0
  149.4427  133.7396  153.6187 H   0  0  0  0  0  0  0  0  0  0  0  0
  147.6960  134.1829  151.9080 H   0  0  0  0  0  0  0  0  0  0  0  0
  144.1790  131.4776  152.0921 H   0  0  0  0  0  0  0  0  0  0  0  0
  144.3451  133.1619  152.5627 H   0  0  0  0  0  0  0  0  0  0  0  0
  142.3976  132.7938  150.9947 H   0  0  0  0  0  0  0  0  0  0  0  0
  143.5662  133.9131  150.3200 H   0  0  0  0  0  0  0  0  0  0  0  0
  144.9358  131.4345  148.0686 H   0  0  0  0  0  0  0  0  0  0  0  0
  145.0779  133.1046  148.5850 H   0  0  0  0  0  0  0  0  0  0  0  0
  146.9241  131.7643  149.5902 H   0  0  0  0  0  0  0  0  0  0  0  0
  145.7703  130.6143  150.2471 H   0  0  0  0  0  0  0  0  0  0  0  0
  147.6398  129.8291  154.1889 H   0  0  0  0  0  0  0  0  0  0  0  0
  1  2  1  0  0  0  0
  1 19  1  0  0  0  0
  1 20  1  0  0  0  0
  1 21  1  0  0  0  0
  2  3  2  0  0  0  0
  2  4  2  0  0  0  0
  2  5  1  0  0  0  0
  5  6  1  0  0  0  0
  6  7  1  0  0  0  0
  6 22  1  0  0  0  0
  6 23  1  0  0  0  0
  7 18  1  0  0  0  0
  7  8  2  0  0  0  0
  8  9  1  0  0  0  0
  8 24  1  0  0  0  0
  9 10  2  0  0  0  0
  9 25  1  0  0  0  0
 10 11  1  0  0  0  0
 10 17  1  0  0  0  0
 11 16  1  0  0  0  0
 11 12  1  0  0  0  0
 12 13  1  0  0  0  0
 12 26  1  0  0  0  0
 12 27  1  0  0  0  0
 13 14  1  0  0  0  0
 13 28  1  0  0  0  0
 13 29  1  0  0  0  0
 14 15  1  0  0  0  0
 15 16  1  0  0  0  0
 15 30  1  0  0  0  0
 15 31  1  0  0  0  0
 16 32  1  0  0  0  0
 16 33  1  0  0  0  0
 17 18  2  0  0  0  0
 18 34  1  0  0  0  0
M  CHG  1   5  -1
M  END
> <s_m_source_file>
AV-unprocessed.smi

> <i_m_source_file_index>
340

> <i_lp_mmshare_version>
43012

> <i_f3d_flags>
0

> <s_epik_input>
W0NIM11TKD1PKSg9TylbTkhdW0NIMl1jMVtjSF1bY0hdYyhuW2NIXTEpTjJbQ0gyXVtDSDJdT1tDSDJdW0NIMl0y

> <s_epik_cmdline>
J2VwaWtfcHl0aG9uJywgJy1waCcsICc3LjAnLCAnLXRuJywgJzgnLCAnLW1hJywgJzIwMCcsICctbWV0YWxfYmluZGluZycsICctaW1hZScsICc8aW5maWxlLm1hZT4nLCAnLW9tYWUnLCAnPG91dGZpbGUubWFlPic=

> <r_lp_tautomer_probability>
1

> <r_epik_Ionization_Penalty>
5.97683

> <r_epik_Ionization_Penalty_Charging>
5.90424

> <r_epik_Ionization_Penalty_Neutral>
0.0725937

> <r_epik_State_Penalty>
5.9092

> <r_epik_Charging_Adjusted_Penalty>
11.8134

> <i_epik_Tot_Q>
-1

> <i_epik_Tot_abs_Q>
1

> <r_epik_Metal_State_Penalty>
1.87112

> <b_epik_Metal_Only>
1

> <s_lp_Force_Field>
OPLS_2005

> <r_lp_Energy>
14.5027

> <b_lp_Chiralities_Consistent>
1

> <s_lp_Variant>
AV-unprocessed.smi:340-2

> <Gold.Version>
5.8.1

> <Gold.Id.Protein>
6NUR|6NUR_protein|mol2

> <Gold.PLP.Fitness>
35.6205

> <Gold.PLP.PLP>
-30.2169

> <Gold.PLP.part.hbond>
-3.2201

> <Gold.PLP.part.metal>
0.0000

> <Gold.PLP.part.buried>
0.4734

> <Gold.PLP.part.nonpolar>
-27.7581

> <Gold.PLP.part.repulsive>
0.4899

> <Gold.PLP.ligand.clash>
0.0000

> <Gold.PLP.ligand.torsion>
0.7242

> <Gold.PLP.Chemscore.Hbond>
1.9280

> <Gold.PLP.Chemscore.CHOScore>
0.0000

> <Gold.PLP.Chemscore.Metal>
0.0000

> <Gold.Chemscore.Hbonds>
donor molecule, donor type, donor heavy atom, donor atom, acceptor molecule, acceptor atom, score
      P1  H  6896  6908       L1     3  1.00
      P1  H 10785 10796       L1    14  0.64

> <Gold.PLP.Chemscore.Internal.Correction>
1.0680

> <Gold.Rescore>
     Score         DG    S(hbond)    S(metal)    S(lipo)     H(rot)  DE(clash)    DE(int)     intcor
     14.77     -16.38       1.78        0.00      76.14       1.54       0.93       0.68       ----

> <Gold.Chemscore.Fitness>
14.7697

> <Gold.Chemscore.DG>
-16.3774

> <Gold.Chemscore.ZeroCoef>
-5.4800

> <Gold.Chemscore.Hbond>
1.7797

> <Gold.Chemscore.Metal>
0.0000

> <Gold.Chemscore.Lipo>
76.1352

> <Gold.Chemscore.Internal_Hbond>
0.0000

> <Gold.Chemscore.DEClash>
0.9289

> <Gold.Chemscore.DEInternal>
0.6787

> <Gold.Chemscore.Rot>
1.5448

> <Gold.Chemscore.Internal.Correction>
   9.000000E+99

> <Gold.Chemscore.Hbonds>
donor molecule, donor type, donor heavy atom, donor atom, acceptor molecule, acceptor atom, score
      P1  H  6896  6908       L1     3  0.50
      P1  H 10785 10796       L1    14  0.06

> <Gold.Chemscore.Hbond.Weighted>
-5.9441

> <Gold.Chemscore.Metal.Weighted>
-0.0000

> <Gold.Chemscore.Lipo.Weighted>
-8.9078

> <Gold.Chemscore.Internal_Hbond.Weighted>
0.0000

> <Gold.Chemscore.DEClash.Weighted>
0.9289

> <Gold.Chemscore.DEInternal.Weighted>
0.6787

> <Gold.Chemscore.Rot.Weighted>
3.9546

> <Gold.Chemscore.Internal.Correction.Weighted>
   9.000000E+99

> <Gold.Protein.RotatedTorsions>
[ 6907 6896 6895 6894 ] final   78.50 input  -60.11 | X-H torsion
[ 7974 7965 7964 7962 ] final  -48.93 input  175.53 | X-H torsion
[ 8008 7997 7996 7995 ] final -167.77 input   59.86 | X-H torsion
[ 10167 10162 10161 10158 ] final -105.36 input  -65.29 | X-H torsion
[ 10718 10713 10712 10709 ] final  -70.39 input   66.30 | X-H torsion
[ 10763 10752 10751 10750 ] final  -40.29 input  -60.55 | X-H torsion
[ 11005 11000 10999 10996 ] final  170.14 input  -57.11 | X-H torsion

> <Gold.Protein.ActiveResidues>
 VAL166  LYS551  ARG553  GLY616  TRP617  ASP618  TYR619  PRO620  LYS621  CYS622 
 ASP623  PHE694  ASN695  SER759  ASP760  ASP761  ALA762  ILE779  LEU786  VAL792 
 PHE793  MET794  SER795  GLU796  ALA797  LYS798  CYS799  TRP800  GLU811  SER814 

> <Gold.Protein.RotatedAtoms>
  152.5162  134.3654  159.9299 H   0  0  0  0  0  0  0  0  0  0  0  0  # atno 6907 bound_to 6896
  151.3607  133.3884  159.2697 H   0  0  0  0  0  0  0  0  0  0  0  0  # atno 6908 bound_to 6896
  150.9654  134.9054  159.7814 H   0  0  0  0  0  0  0  0  0  0  0  0  # atno 6909 bound_to 6896
  145.9459  140.7618  142.9528 H   0  0  0  0  0  0  0  0  0  0  0  0  # atno 7974 bound_to 7965
  155.8822  140.1011  157.1477 H   0  0  0  0  0  0  0  0  0  0  0  0  # atno 8008 bound_to 7997
  154.4006  140.1326  156.4275 H   0  0  0  0  0  0  0  0  0  0  0  0  # atno 8009 bound_to 7997
  155.7629  140.3462  155.5209 H   0  0  0  0  0  0  0  0  0  0  0  0  # atno 8010 bound_to 7997
  140.1994  143.3830  152.1142 H   0  0  0  0  0  0  0  0  0  0  0  0  # atno 10167 bound_to 10162
  156.0410  130.4330  150.2288 H   0  0  0  0  0  0  0  0  0  0  0  0  # atno 10718 bound_to 10713
  153.9435  135.6758  153.4744 H   0  0  0  0  0  0  0  0  0  0  0  0  # atno 10763 bound_to 10752
  153.0919  135.4870  154.8704 H   0  0  0  0  0  0  0  0  0  0  0  0  # atno 10764 bound_to 10752
  154.7364  135.3150  154.8762 H   0  0  0  0  0  0  0  0  0  0  0  0  # atno 10765 bound_to 10752
  140.3052  134.7562  157.3948 H   0  0  0  0  0  0  0  0  0  0  0  0  # atno 11005 bound_to 11000
  144.6787  140.2356  143.7350 LP  0  0  0  0  0  0  0  0  0  0  0  0  # atno 17320 bound_to 7965
  145.8236  139.2055  143.1923 LP  0  0  0  0  0  0  0  0  0  0  0  0  # atno 17321 bound_to 7965
  139.5223  144.7057  151.5360 LP  0  0  0  0  0  0  0  0  0  0  0  0  # atno 17342 bound_to 10162
  140.6401  143.8906  150.6683 LP  0  0  0  0  0  0  0  0  0  0  0  0  # atno 17343 bound_to 10162
  157.0383  131.0027  151.3291 LP  0  0  0  0  0  0  0  0  0  0  0  0  # atno 17370 bound_to 10713
  157.5228  130.8009  149.7828 LP  0  0  0  0  0  0  0  0  0  0  0  0  # atno 17371 bound_to 10713
  140.1073  134.5392  155.8297 LP  0  0  0  0  0  0  0  0  0  0  0  0  # atno 17394 bound_to 11000
  141.2120  133.6713  156.6624 LP  0  0  0  0  0  0  0  0  0  0  0  0  # atno 17395 bound_to 11000

$$$$
