AV-unprocessed.smi:741|AV-procd|sdf|3554|dock2
  -GOLD-   22720 0553D 1   1.00000     0.00000
 Structure written by MMmdl.
 42 43  0  0  0  0  0  0  0  0  2 V2000
  146.8950  140.7928  152.8221 C   0  0  0  0  0  0  0  0  0  0  0  0
  146.7381  139.4057  152.1819 C   0  0  0  0  0  0  0  0  0  0  0  0
  146.5582  138.2663  153.2037 C   0  0  2  0  0  0  0  0  0  0  0  0
  147.4147  138.5110  154.4664 C   0  0  0  0  0  0  0  0  0  0  0  0
  148.8571  138.2444  154.2471 N   0  3  0  0  0  0  0  0  0  0  0  0
  149.6765  139.4509  153.9883 C   0  0  0  0  0  0  0  0  0  0  0  0
  151.0300  139.2279  154.6792 C   0  0  0  0  0  0  0  0  0  0  0  0
  151.0106  137.7679  155.1247 C   0  0  0  0  0  0  0  0  0  0  0  0
  149.5261  137.4862  155.3240 C   0  0  0  0  0  0  0  0  0  0  0  0
  146.9040  136.9860  152.5810 N   0  0  0  0  0  0  0  0  0  0  0  0
  146.0601  135.9736  152.3321 C   0  0  0  0  0  0  0  0  0  0  0  0
  144.8705  135.9931  152.6453 O   0  0  0  0  0  0  0  0  0  0  0  0
  146.6934  134.9501  151.7336 N   0  0  0  0  0  0  0  0  0  0  0  0
  146.1673  133.6953  151.3212 C   0  0  0  0  0  0  0  0  0  0  0  0
  144.7651  133.5695  151.2362 C   0  0  0  0  0  0  0  0  0  0  0  0
  144.2161  132.3328  150.8425 C   0  0  0  0  0  0  0  0  0  0  0  0
  144.9647  131.2496  150.5480 N   0  0  0  0  0  0  0  0  0  0  0  0
  146.3058  131.3666  150.6445 C   0  0  0  0  0  0  0  0  0  0  0  0
  146.9562  132.5568  151.0274 C   0  0  0  0  0  0  0  0  0  0  0  0
  147.0671  141.5525  152.0594 H   0  0  0  0  0  0  0  0  0  0  0  0
  147.7418  140.8152  153.5085 H   0  0  0  0  0  0  0  0  0  0  0  0
  146.0037  141.0831  153.3785 H   0  0  0  0  0  0  0  0  0  0  0  0
  145.8939  139.4214  151.4911 H   0  0  0  0  0  0  0  0  0  0  0  0
  147.6213  139.2057  151.5743 H   0  0  0  0  0  0  0  0  0  0  0  0
  145.5052  138.2583  153.4910 H   0  0  0  0  0  0  0  0  0  0  0  0
  147.2925  139.5517  154.7714 H   0  0  0  0  0  0  0  0  0  0  0  0
  147.0578  137.9048  155.3004 H   0  0  0  0  0  0  0  0  0  0  0  0
  149.7926  139.5812  152.9120 H   0  0  0  0  0  0  0  0  0  0  0  0
  149.2001  140.3500  154.3830 H   0  0  0  0  0  0  0  0  0  0  0  0
  151.8751  139.4499  154.0268 H   0  0  0  0  0  0  0  0  0  0  0  0
  151.1069  139.8772  155.5520 H   0  0  0  0  0  0  0  0  0  0  0  0
  151.4038  137.1315  154.3305 H   0  0  0  0  0  0  0  0  0  0  0  0
  151.6017  137.5900  156.0236 H   0  0  0  0  0  0  0  0  0  0  0  0
  149.2086  137.8632  156.2976 H   0  0  0  0  0  0  0  0  0  0  0  0
  149.2967  136.4217  155.2842 H   0  0  0  0  0  0  0  0  0  0  0  0
  147.8653  136.8752  152.2921 H   0  0  0  0  0  0  0  0  0  0  0  0
  147.6888  135.0599  151.6050 H   0  0  0  0  0  0  0  0  0  0  0  0
  144.1166  134.4031  151.4632 H   0  0  0  0  0  0  0  0  0  0  0  0
  143.1458  132.2107  150.7641 H   0  0  0  0  0  0  0  0  0  0  0  0
  146.8803  130.4813  150.4152 H   0  0  0  0  0  0  0  0  0  0  0  0
  148.0327  132.5637  151.0989 H   0  0  0  0  0  0  0  0  0  0  0  0
  148.9333  137.6778  153.4140 H   0  0  0  0  0  0  0  0  0  0  0  0
  1  2  1  0  0  0  0
  1 20  1  0  0  0  0
  1 21  1  0  0  0  0
  1 22  1  0  0  0  0
  2  3  1  0  0  0  0
  2 23  1  0  0  0  0
  2 24  1  0  0  0  0
  3  4  1  0  0  0  0
  3 10  1  0  0  0  0
  3 25  1  0  0  0  0
  4  5  1  0  0  0  0
  4 26  1  0  0  0  0
  4 27  1  0  0  0  0
  5  9  1  0  0  0  0
  5  6  1  0  0  0  0
  5 42  1  0  0  0  0
  6  7  1  0  0  0  0
  6 28  1  0  0  0  0
  6 29  1  0  0  0  0
  7  8  1  0  0  0  0
  7 30  1  0  0  0  0
  7 31  1  0  0  0  0
  8  9  1  0  0  0  0
  8 32  1  0  0  0  0
  8 33  1  0  0  0  0
  9 34  1  0  0  0  0
  9 35  1  0  0  0  0
 10 11  1  0  0  0  0
 10 36  1  0  0  0  0
 11 12  2  0  0  0  0
 11 13  1  0  0  0  0
 13 14  1  0  0  0  0
 13 37  1  0  0  0  0
 14 19  1  0  0  0  0
 14 15  2  0  0  0  0
 15 16  1  0  0  0  0
 15 38  1  0  0  0  0
 16 17  2  0  0  0  0
 16 39  1  0  0  0  0
 17 18  1  0  0  0  0
 18 19  2  0  0  0  0
 18 40  1  0  0  0  0
 19 41  1  0  0  0  0
M  CHG  1   5   1
M  END
> <s_m_source_file>
AV-unprocessed.smi

> <i_m_source_file_index>
741

> <i_lp_mmshare_version>
43012

> <i_f3d_flags>
0

> <s_epik_input>
W0NIMl0xW0NIMl1bQ0gyXVtDSDJdTjFbQ0gyXVtDQEBIXShbQ0gyXVtDSDNdKVtOSF1DKD1PKVtOSF1jMltjSF1bY0hdbltjSF1bY0hdMg==

> <s_epik_cmdline>
J2VwaWtfcHl0aG9uJywgJy1waCcsICc3LjAnLCAnLXRuJywgJzgnLCAnLW1hJywgJzIwMCcsICctbWV0YWxfYmluZGluZycsICctaW1hZScsICc8aW5maWxlLm1hZT4nLCAnLW9tYWUnLCAnPG91dGZpbGUubWFlPic=

> <r_epik_Ionization_Penalty>
0.101421

> <r_epik_Ionization_Penalty_Charging>
0.00180027

> <r_epik_Ionization_Penalty_Neutral>
0.0996204

> <r_epik_State_Penalty>
0.0910414

> <r_epik_Charging_Adjusted_Penalty>
0.0928416

> <i_epik_Tot_Q>
1

> <i_epik_Tot_abs_Q>
1

> <r_epik_Metal_State_Penalty>
0.076772

> <b_epik_Metal_Only>
0

> <s_lp_Force_Field>
OPLS_2005

> <r_lp_Energy>
40.6164

> <b_lp_Chiralities_Consistent>
1

> <s_lp_Variant>
AV-unprocessed.smi:741-1

> <Gold.Version>
5.8.1

> <Gold.Id.Protein>
6NUR|6NUR_protein|mol2

> <Gold.PLP.Fitness>
47.1405

> <Gold.PLP.PLP>
-33.3833

> <Gold.PLP.part.hbond>
-3.3837

> <Gold.PLP.part.metal>
0.0000

> <Gold.PLP.part.buried>
-0.6289

> <Gold.PLP.part.nonpolar>
-29.6005

> <Gold.PLP.part.repulsive>
0.4366

> <Gold.PLP.ligand.clash>
0.0000

> <Gold.PLP.ligand.torsion>
0.9912

> <Gold.PLP.Chemscore.Hbond>
3.7976

> <Gold.PLP.Chemscore.CHOScore>
1.4118

> <Gold.PLP.Chemscore.Metal>
0.0000

> <Gold.Chemscore.Hbonds>
donor molecule, donor type, donor heavy atom, donor atom, acceptor molecule, acceptor atom, score
      L1  H     5    42       P1  7948  1.62
      L1  H    10    36       P1  7948  0.49
      L1  H    13    37       P1  7948  0.85
      L1  C    18    40       P1 10747  0.68

> <Gold.PLP.Chemscore.Internal.Correction>
0.1117

> <Gold.Rescore>
     Score         DG    S(hbond)    S(metal)    S(lipo)     H(rot)  DE(clash)    DE(int)     intcor
     18.63     -21.77       2.91        0.00      90.94       1.59       0.61       2.53       ----

> <Gold.Chemscore.Fitness>
18.6310

> <Gold.Chemscore.DG>
-21.7710

> <Gold.Chemscore.ZeroCoef>
-5.4800

> <Gold.Chemscore.Hbond>
2.9075

> <Gold.Chemscore.Metal>
0.0000

> <Gold.Chemscore.Lipo>
90.9372

> <Gold.Chemscore.Internal_Hbond>
0.0000

> <Gold.Chemscore.DEClash>
0.6085

> <Gold.Chemscore.DEInternal>
2.5315

> <Gold.Chemscore.Rot>
1.5858

> <Gold.Chemscore.Internal.Correction>
   9.000000E+99

> <Gold.Chemscore.Hbonds>
donor molecule, donor type, donor heavy atom, donor atom, acceptor molecule, acceptor atom, score
      L1  H     5    42       P1  7948  0.80
      L1  H    10    36       P1  7948  0.47
      L1  H    13    37       P1  7948  0.46

> <Gold.Chemscore.Hbond.Weighted>
-9.7109

> <Gold.Chemscore.Metal.Weighted>
-0.0000

> <Gold.Chemscore.Lipo.Weighted>
-10.6397

> <Gold.Chemscore.Internal_Hbond.Weighted>
0.0000

> <Gold.Chemscore.DEClash.Weighted>
0.6085

> <Gold.Chemscore.DEInternal.Weighted>
2.5315

> <Gold.Chemscore.Rot.Weighted>
4.0596

> <Gold.Chemscore.Internal.Correction.Weighted>
   9.000000E+99

> <Gold.Protein.RotatedTorsions>
[ 6907 6896 6895 6894 ] final  129.15 input  -60.11 | X-H torsion
[ 7974 7965 7964 7962 ] final    7.04 input  175.53 | X-H torsion
[ 8008 7997 7996 7995 ] final -110.73 input   59.86 | X-H torsion
[ 10167 10162 10161 10158 ] final   72.54 input  -65.29 | X-H torsion
[ 10718 10713 10712 10709 ] final  -40.69 input   66.30 | X-H torsion
[ 10763 10752 10751 10750 ] final  161.08 input  -60.55 | X-H torsion
[ 11005 11000 10999 10996 ] final -164.46 input  -57.11 | X-H torsion

> <Gold.Protein.ActiveResidues>
 VAL166  LYS551  ARG553  GLY616  TRP617  ASP618  TYR619  PRO620  LYS621  CYS622 
 ASP623  PHE694  ASN695  SER759  ASP760  ASP761  ALA762  ILE779  LEU786  VAL792 
 PHE793  MET794  SER795  GLU796  ALA797  LYS798  CYS799  TRP800  GLU811  SER814 

> <Gold.Protein.RotatedAtoms>
  152.3651  133.6347  159.6044 H   0  0  0  0  0  0  0  0  0  0  0  0  # atno 6907 bound_to 6896
  150.7628  133.9360  159.3450 H   0  0  0  0  0  0  0  0  0  0  0  0  # atno 6908 bound_to 6896
  151.7192  135.0898  160.0332 H   0  0  0  0  0  0  0  0  0  0  0  0  # atno 6909 bound_to 6896
  146.2430  140.0142  142.8404 H   0  0  0  0  0  0  0  0  0  0  0  0  # atno 7974 bound_to 7965
  154.9791  140.0396  157.2269 H   0  0  0  0  0  0  0  0  0  0  0  0  # atno 8008 bound_to 7997
  154.7731  140.2805  155.6100 H   0  0  0  0  0  0  0  0  0  0  0  0  # atno 8009 bound_to 7997
  156.2924  140.2606  156.2538 H   0  0  0  0  0  0  0  0  0  0  0  0  # atno 8010 bound_to 7997
  140.0341  144.5442  150.7484 H   0  0  0  0  0  0  0  0  0  0  0  0  # atno 10167 bound_to 10162
  156.2785  130.4214  149.8362 H   0  0  0  0  0  0  0  0  0  0  0  0  # atno 10718 bound_to 10713
  154.2574  135.2769  155.2792 H   0  0  0  0  0  0  0  0  0  0  0  0  # atno 10763 bound_to 10752
  154.5413  135.5702  153.6845 H   0  0  0  0  0  0  0  0  0  0  0  0  # atno 10764 bound_to 10752
  152.9969  135.6252  154.2723 H   0  0  0  0  0  0  0  0  0  0  0  0  # atno 10765 bound_to 10752
  140.5866  134.5087  157.5187 H   0  0  0  0  0  0  0  0  0  0  0  0  # atno 11005 bound_to 11000
  145.1300  140.9512  143.4550 LP  0  0  0  0  0  0  0  0  0  0  0  0  # atno 17320 bound_to 7965
  145.0397  139.3270  143.5983 LP  0  0  0  0  0  0  0  0  0  0  0  0  # atno 17321 bound_to 7965
  140.7289  143.2667  151.4023 LP  0  0  0  0  0  0  0  0  0  0  0  0  # atno 17342 bound_to 10162
  139.6056  144.1203  152.2246 LP  0  0  0  0  0  0  0  0  0  0  0  0  # atno 17343 bound_to 10162
  156.5817  130.8468  151.3385 LP  0  0  0  0  0  0  0  0  0  0  0  0  # atno 17370 bound_to 10713
  157.7307  130.9689  150.1845 LP  0  0  0  0  0  0  0  0  0  0  0  0  # atno 17371 bound_to 10713
  139.9293  134.7995  156.0978 LP  0  0  0  0  0  0  0  0  0  0  0  0  # atno 17394 bound_to 11000
  141.0962  133.6695  156.2650 LP  0  0  0  0  0  0  0  0  0  0  0  0  # atno 17395 bound_to 11000

$$$$
