AV-unprocessed.smi:2429|AV-procd|sdf|9582|dock3
  -GOLD-   2272013213D 1   1.00000     0.00000
 Structure written by MMmdl.
 34 35  0  0  0  0  0  0  0  0  1 V2000
  149.2148  136.8641  157.2273 C   0  0  0  0  0  0  0  0  0  0  0  0
  149.6759  137.2343  155.8011 C   0  0  0  0  0  0  0  0  0  0  0  0
  149.3046  136.1664  154.8602 N   0  0  0  0  0  0  0  0  0  0  0  0
  149.2375  134.8424  155.0798 C   0  0  0  0  0  0  0  0  0  0  0  0
  149.4883  134.3103  156.1604 O   0  0  0  0  0  0  0  0  0  0  0  0
  148.8432  134.1948  153.9703 N   0  0  0  0  0  0  0  0  0  0  0  0
  148.6580  132.7997  153.7694 C   0  0  0  0  0  0  0  0  0  0  0  0
  149.4910  131.7979  154.3241 C   0  0  0  0  0  0  0  0  0  0  0  0
  149.2088  130.4482  154.0325 C   0  0  0  0  0  0  0  0  0  0  0  0
  148.1873  130.0551  153.2422 N   0  0  0  0  0  0  0  0  0  0  0  0
  147.4046  131.0135  152.7033 C   0  0  0  0  0  0  0  0  0  0  0  0
  147.5998  132.3906  152.9306 C   0  0  0  0  0  0  0  0  0  0  0  0
  146.7791  133.3017  152.3538 F   0  0  0  0  0  0  0  0  0  0  0  0
  149.0936  138.6039  155.3739 C   0  0  0  0  0  0  0  0  0  0  0  0
  149.7086  139.1054  154.0551 C   0  0  0  0  0  0  0  0  0  0  0  0
  151.1228  139.1917  154.1843 O   0  0  0  0  0  0  0  0  0  0  0  0
  151.7335  137.9344  154.4495 C   0  0  0  0  0  0  0  0  0  0  0  0
  151.2145  137.3643  155.7833 C   0  0  0  0  0  0  0  0  0  0  0  0
  149.5561  137.6001  157.9559 H   0  0  0  0  0  0  0  0  0  0  0  0
  149.6105  135.8948  157.5328 H   0  0  0  0  0  0  0  0  0  0  0  0
  148.1288  136.8180  157.3084 H   0  0  0  0  0  0  0  0  0  0  0  0
  149.0671  136.4789  153.9301 H   0  0  0  0  0  0  0  0  0  0  0  0
  148.5922  134.7763  153.1840 H   0  0  0  0  0  0  0  0  0  0  0  0
  150.3383  132.0322  154.9497 H   0  0  0  0  0  0  0  0  0  0  0  0
  149.8261  129.6619  154.4411 H   0  0  0  0  0  0  0  0  0  0  0  0
  146.5987  130.6736  152.0697 H   0  0  0  0  0  0  0  0  0  0  0  0
  148.0079  138.5678  155.2886 H   0  0  0  0  0  0  0  0  0  0  0  0
  149.3021  139.3410  156.1508 H   0  0  0  0  0  0  0  0  0  0  0  0
  149.4451  138.4526  153.2216 H   0  0  0  0  0  0  0  0  0  0  0  0
  149.3190  140.0949  153.8157 H   0  0  0  0  0  0  0  0  0  0  0  0
  151.5452  137.2460  153.6244 H   0  0  0  0  0  0  0  0  0  0  0  0
  152.8134  138.0742  154.5004 H   0  0  0  0  0  0  0  0  0  0  0  0
  151.5354  138.0263  156.5890 H   0  0  0  0  0  0  0  0  0  0  0  0
  151.6822  136.3988  155.9813 H   0  0  0  0  0  0  0  0  0  0  0  0
  1  2  1  0  0  0  0
  1 19  1  0  0  0  0
  1 20  1  0  0  0  0
  1 21  1  0  0  0  0
  2 18  1  0  0  0  0
  2  3  1  0  0  0  0
  2 14  1  0  0  0  0
  3  4  1  0  0  0  0
  3 22  1  0  0  0  0
  4  5  2  0  0  0  0
  4  6  1  0  0  0  0
  6  7  1  0  0  0  0
  6 23  1  0  0  0  0
  7 12  1  0  0  0  0
  7  8  2  0  0  0  0
  8  9  1  0  0  0  0
  8 24  1  0  0  0  0
  9 10  2  0  0  0  0
  9 25  1  0  0  0  0
 10 11  1  0  0  0  0
 11 12  2  0  0  0  0
 11 26  1  0  0  0  0
 12 13  1  0  0  0  0
 14 15  1  0  0  0  0
 14 27  1  0  0  0  0
 14 28  1  0  0  0  0
 15 16  1  0  0  0  0
 15 29  1  0  0  0  0
 15 30  1  0  0  0  0
 16 17  1  0  0  0  0
 17 18  1  0  0  0  0
 17 31  1  0  0  0  0
 17 32  1  0  0  0  0
 18 33  1  0  0  0  0
 18 34  1  0  0  0  0
M  END
> <s_m_source_file>
AV-unprocessed.smi

> <i_m_source_file_index>
2429

> <i_lp_mmshare_version>
43012

> <i_f3d_flags>
0

> <s_epik_input>
W0NIMl0xW0NIMl1PW0NIMl1bQ0gyXUMxKFtDSDNdKVtOSF1DKD1PKVtOSF1jMltjSF1bY0hdbltjSF1jMkY=

> <s_epik_cmdline>
J2VwaWtfcHl0aG9uJywgJy1waCcsICc3LjAnLCAnLXRuJywgJzgnLCAnLW1hJywgJzIwMCcsICctbWV0YWxfYmluZGluZycsICctaW1hZScsICc8aW5maWxlLm1hZT4nLCAnLW9tYWUnLCAnPG91dGZpbGUubWFlPic=

> <r_epik_Ionization_Penalty>
0.00367474

> <r_epik_Ionization_Penalty_Charging>
0

> <r_epik_Ionization_Penalty_Neutral>
0.00367474

> <r_epik_State_Penalty>
0.00258877

> <r_epik_Charging_Adjusted_Penalty>
0.00258877

> <i_epik_Tot_Q>
0

> <i_epik_Tot_abs_Q>
0

> <r_epik_Metal_State_Penalty>
-0

> <b_epik_Metal_Only>
0

> <s_lp_Force_Field>
OPLS_2005

> <r_lp_Energy>
14.8008

> <b_lp_Chiralities_Consistent>
1

> <s_lp_Variant>
AV-unprocessed.smi:2429-1

> <Gold.Version>
5.8.1

> <Gold.Id.Protein>
6NUR|6NUR_protein|mol2

> <Gold.PLP.Fitness>
30.7750

> <Gold.PLP.PLP>
-23.4370

> <Gold.PLP.part.hbond>
-3.0000

> <Gold.PLP.part.metal>
0.0000

> <Gold.PLP.part.buried>
1.2315

> <Gold.PLP.part.nonpolar>
-21.7174

> <Gold.PLP.part.repulsive>
0.4573

> <Gold.PLP.ligand.clash>
0.0000

> <Gold.PLP.ligand.torsion>
0.7972

> <Gold.PLP.Chemscore.Hbond>
2.9750

> <Gold.PLP.Chemscore.CHOScore>
0.0000

> <Gold.PLP.Chemscore.Metal>
0.0000

> <Gold.Chemscore.Hbonds>
donor molecule, donor type, donor heavy atom, donor atom, acceptor molecule, acceptor atom, score
      L1  H     3    22       P1  7948  0.91
      L1  H     6    23       P1  7948  1.00
      P1  H  7989  7998       L1    16  1.00

> <Gold.PLP.Chemscore.Internal.Correction>
0.0074

> <Gold.Rescore>
     Score         DG    S(hbond)    S(metal)    S(lipo)     H(rot)  DE(clash)    DE(int)     intcor
     14.99     -17.37       2.43        0.00      54.08       1.00       0.11       2.28       ----

> <Gold.Chemscore.Fitness>
14.9858

> <Gold.Chemscore.DG>
-17.3734

> <Gold.Chemscore.ZeroCoef>
-5.4800

> <Gold.Chemscore.Hbond>
2.4330

> <Gold.Chemscore.Metal>
0.0000

> <Gold.Chemscore.Lipo>
54.0800

> <Gold.Chemscore.Internal_Hbond>
0.0000

> <Gold.Chemscore.DEClash>
0.1112

> <Gold.Chemscore.DEInternal>
2.2765

> <Gold.Chemscore.Rot>
1.0000

> <Gold.Chemscore.Internal.Correction>
   9.000000E+99

> <Gold.Chemscore.Hbonds>
donor molecule, donor type, donor heavy atom, donor atom, acceptor molecule, acceptor atom, score
      L1  H     3    22       P1  7948  0.83
      L1  H     6    23       P1  7948  0.42
      P1  H  7989  7998       L1    16  0.60

> <Gold.Chemscore.Hbond.Weighted>
-8.1261

> <Gold.Chemscore.Metal.Weighted>
-0.0000

> <Gold.Chemscore.Lipo.Weighted>
-6.3274

> <Gold.Chemscore.Internal_Hbond.Weighted>
0.0000

> <Gold.Chemscore.DEClash.Weighted>
0.1112

> <Gold.Chemscore.DEInternal.Weighted>
2.2765

> <Gold.Chemscore.Rot.Weighted>
2.5600

> <Gold.Chemscore.Internal.Correction.Weighted>
   9.000000E+99

> <Gold.Protein.RotatedTorsions>
[ 6907 6896 6895 6894 ] final  145.67 input  -60.11 | X-H torsion
[ 7974 7965 7964 7962 ] final  -63.18 input  175.53 | X-H torsion
[ 8008 7997 7996 7995 ] final   -9.93 input   59.86 | X-H torsion
[ 10167 10162 10161 10158 ] final    2.77 input  -65.29 | X-H torsion
[ 10718 10713 10712 10709 ] final  -60.43 input   66.30 | X-H torsion
[ 10763 10752 10751 10750 ] final  144.79 input  -60.55 | X-H torsion
[ 11005 11000 10999 10996 ] final   -2.16 input  -57.11 | X-H torsion

> <Gold.Protein.ActiveResidues>
 VAL166  LYS551  ARG553  GLY616  TRP617  ASP618  TYR619  PRO620  LYS621  CYS622 
 ASP623  PHE694  ASN695  SER759  ASP760  ASP761  ALA762  ILE779  LEU786  VAL792 
 PHE793  MET794  SER795  GLU796  ALA797  LYS798  CYS799  TRP800  GLU811  SER814 

> <Gold.Protein.RotatedAtoms>
  152.1779  133.4687  159.4942 H   0  0  0  0  0  0  0  0  0  0  0  0  # atno 6907 bound_to 6896
  150.6930  134.1871  159.4280 H   0  0  0  0  0  0  0  0  0  0  0  0  # atno 6908 bound_to 6896
  151.9781  135.0042  160.0607 H   0  0  0  0  0  0  0  0  0  0  0  0  # atno 6909 bound_to 6896
  145.7823  140.8755  143.0324 H   0  0  0  0  0  0  0  0  0  0  0  0  # atno 7974 bound_to 7965
  154.5601  140.2342  155.8348 H   0  0  0  0  0  0  0  0  0  0  0  0  # atno 8008 bound_to 7997
  156.2022  140.3049  155.9510 H   0  0  0  0  0  0  0  0  0  0  0  0  # atno 8009 bound_to 7997
  155.2905  140.0426  157.3013 H   0  0  0  0  0  0  0  0  0  0  0  0  # atno 8010 bound_to 7997
  140.6619  143.7282  150.7754 H   0  0  0  0  0  0  0  0  0  0  0  0  # atno 10167 bound_to 10162
  156.0991  130.4188  150.0853 H   0  0  0  0  0  0  0  0  0  0  0  0  # atno 10718 bound_to 10713
  153.9947  135.2929  155.3408 H   0  0  0  0  0  0  0  0  0  0  0  0  # atno 10763 bound_to 10752
  154.7194  135.5115  153.8792 H   0  0  0  0  0  0  0  0  0  0  0  0  # atno 10764 bound_to 10752
  153.0793  135.6674  154.0195 H   0  0  0  0  0  0  0  0  0  0  0  0  # atno 10765 bound_to 10752
  140.6553  133.9368  155.8404 H   0  0  0  0  0  0  0  0  0  0  0  0  # atno 11005 bound_to 11000
  144.6794  140.0006  143.7484 LP  0  0  0  0  0  0  0  0  0  0  0  0  # atno 17320 bound_to 7965
  146.0062  139.3131  143.0898 LP  0  0  0  0  0  0  0  0  0  0  0  0  # atno 17321 bound_to 7965
  140.0952  143.4840  152.2456 LP  0  0  0  0  0  0  0  0  0  0  0  0  # atno 17342 bound_to 10162
  139.5855  144.7529  151.3531 LP  0  0  0  0  0  0  0  0  0  0  0  0  # atno 17343 bound_to 10162
  156.8845  130.9567  151.3596 LP  0  0  0  0  0  0  0  0  0  0  0  0  # atno 17370 bound_to 10713
  157.6158  130.8617  149.9026 LP  0  0  0  0  0  0  0  0  0  0  0  0  # atno 17371 bound_to 10713
  141.0506  134.0490  157.3788 LP  0  0  0  0  0  0  0  0  0  0  0  0  # atno 17394 bound_to 11000
  139.9031  135.0171  156.7364 LP  0  0  0  0  0  0  0  0  0  0  0  0  # atno 17395 bound_to 11000

$$$$
