AV-unprocessed.smi:1887|AV-procd|sdf|7655|dock1
  -GOLD-   22720 9393D 1   1.00000     0.00000
 Structure written by MMmdl.
 44 46  0  0  0  0  0  0  0  0  1 V2000
  155.0400  136.8190  157.5259 C   0  0  0  0  0  0  0  0  0  0  0  0
  153.8959  136.3446  156.8400 O   0  0  0  0  0  0  0  0  0  0  0  0
  152.7257  137.0823  157.1503 C   0  0  0  0  0  0  0  0  0  0  0  0
  152.9486  138.5634  156.8153 C   0  0  0  0  0  0  0  0  0  0  0  0
  151.6904  139.2730  156.6010 N   0  0  0  0  0  0  0  0  0  0  0  0
  151.1896  140.3314  157.2901 C   0  0  0  0  0  0  0  0  0  0  0  0
  151.8901  140.9092  158.3695 N   0  0  0  0  0  0  0  0  0  0  0  0
  152.8307  140.1974  159.0241 N   0  0  0  0  0  0  0  0  0  0  0  0
  153.2735  141.0083  159.9697 C   0  0  0  0  0  0  0  0  0  0  0  0
  154.3594  140.5278  160.8887 C   0  0  0  0  0  0  0  0  0  0  0  0
  152.6091  142.2696  159.9598 C   0  0  0  0  0  0  0  0  0  0  0  0
  152.8379  143.4322  160.8865 C   0  0  0  0  0  0  0  0  0  0  0  0
  151.7256  142.1678  158.9192 C   0  0  0  0  0  0  0  0  0  0  0  0
  150.7324  143.1557  158.3928 C   0  0  0  0  0  0  0  0  0  0  0  0
  150.0165  140.7903  156.8454 N   0  0  0  0  0  0  0  0  0  0  0  0
  149.7421  139.9457  155.7793 C   0  0  0  0  0  0  0  0  0  0  0  0
  150.7357  139.0354  155.6131 C   0  0  0  0  0  0  0  0  0  0  0  0
  150.7178  138.0335  154.5403 C   0  0  0  0  0  0  0  0  0  0  0  0
  151.6128  137.2086  154.3687 O   0  0  0  0  0  0  0  0  0  0  0  0
  149.6169  138.1173  153.7544 N   0  0  0  0  0  0  0  0  0  0  0  0
  148.5816  139.0048  153.8656 C   0  0  0  0  0  0  0  0  0  0  0  0
  147.6463  138.9615  153.0666 O   0  0  0  0  0  0  0  0  0  0  0  0
  148.6357  139.9238  154.8825 N   0  0  0  0  0  0  0  0  0  0  0  0
  147.5559  140.8989  155.0460 C   0  0  0  0  0  0  0  0  0  0  0  0
  149.5548  137.4514  152.9983 H   0  0  0  0  0  0  0  0  0  0  0  0
  155.9066  136.2194  157.2472 H   0  0  0  0  0  0  0  0  0  0  0  0
  154.9114  136.7432  158.6063 H   0  0  0  0  0  0  0  0  0  0  0  0
  155.2516  137.8577  157.2690 H   0  0  0  0  0  0  0  0  0  0  0  0
  151.8776  136.6930  156.5850 H   0  0  0  0  0  0  0  0  0  0  0  0
  152.4883  136.9753  158.2097 H   0  0  0  0  0  0  0  0  0  0  0  0
  153.5028  139.0565  157.6131 H   0  0  0  0  0  0  0  0  0  0  0  0
  153.5763  138.6499  155.9300 H   0  0  0  0  0  0  0  0  0  0  0  0
  154.5876  141.2643  161.6588 H   0  0  0  0  0  0  0  0  0  0  0  0
  155.2793  140.3319  160.3372 H   0  0  0  0  0  0  0  0  0  0  0  0
  154.0688  139.6049  161.3912 H   0  0  0  0  0  0  0  0  0  0  0  0
  152.0393  144.1713  160.8243 H   0  0  0  0  0  0  0  0  0  0  0  0
  153.7713  143.9475  160.6596 H   0  0  0  0  0  0  0  0  0  0  0  0
  152.8912  143.1132  161.9276 H   0  0  0  0  0  0  0  0  0  0  0  0
  151.0700  144.1777  158.5645 H   0  0  0  0  0  0  0  0  0  0  0  0
  149.7682  143.0303  158.8853 H   0  0  0  0  0  0  0  0  0  0  0  0
  150.5801  143.0389  157.3198 H   0  0  0  0  0  0  0  0  0  0  0  0
  146.5911  140.3960  155.1302 H   0  0  0  0  0  0  0  0  0  0  0  0
  147.5171  141.5695  154.1865 H   0  0  0  0  0  0  0  0  0  0  0  0
  147.6780  141.5141  155.9375 H   0  0  0  0  0  0  0  0  0  0  0  0
  1  2  1  0  0  0  0
  1 26  1  0  0  0  0
  1 27  1  0  0  0  0
  1 28  1  0  0  0  0
  2  3  1  0  0  0  0
  3  4  1  0  0  0  0
  3 29  1  0  0  0  0
  3 30  1  0  0  0  0
  4  5  1  0  0  0  0
  4 31  1  0  0  0  0
  4 32  1  0  0  0  0
  5 17  1  0  0  0  0
  5  6  1  0  0  0  0
  6  7  1  0  0  0  0
  6 15  2  0  0  0  0
  7 13  1  0  0  0  0
  7  8  1  0  0  0  0
  8  9  2  0  0  0  0
  9 10  1  0  0  0  0
  9 11  1  0  0  0  0
 10 33  1  0  0  0  0
 10 34  1  0  0  0  0
 10 35  1  0  0  0  0
 11 12  1  0  0  0  0
 11 13  2  0  0  0  0
 12 36  1  0  0  0  0
 12 37  1  0  0  0  0
 12 38  1  0  0  0  0
 13 14  1  0  0  0  0
 14 39  1  0  0  0  0
 14 40  1  0  0  0  0
 14 41  1  0  0  0  0
 15 16  1  0  0  0  0
 16 23  1  0  0  0  0
 16 17  2  0  0  0  0
 17 18  1  0  0  0  0
 18 19  2  0  0  0  0
 18 20  1  0  0  0  0
 20 25  1  0  0  0  0
 20 21  1  0  0  0  0
 21 22  2  0  0  0  0
 21 23  1  0  0  0  0
 23 24  1  0  0  0  0
 24 42  1  0  0  0  0
 24 43  1  0  0  0  0
 24 44  1  0  0  0  0
M  END
> <s_m_source_file>
AV-unprocessed.smi

> <i_m_source_file_index>
1887

> <i_lp_mmshare_version>
43012

> <i_f3d_flags>
0

> <s_epik_input>
W0NIM11uMWMoPU8pW25IXWMoPU8pYyhjMTIpbihbQ0gyXVtDSDJdT1tDSDNdKWMobjIpLW4zbmMoW0NIM10pYyhbQ0gzXSljM1tDSDNd

> <s_epik_cmdline>
J2VwaWtfcHl0aG9uJywgJy1waCcsICc3LjAnLCAnLXRuJywgJzgnLCAnLW1hJywgJzIwMCcsICctbWV0YWxfYmluZGluZycsICctaW1hZScsICc8aW5maWxlLm1hZT4nLCAnLW9tYWUnLCAnPG91dGZpbGUubWFlPic=

> <r_lp_tautomer_probability>
1

> <r_epik_Ionization_Penalty>
0.00244877

> <r_epik_Ionization_Penalty_Charging>
0.000731299

> <r_epik_Ionization_Penalty_Neutral>
0.00171747

> <r_epik_State_Penalty>
-0

> <r_epik_Charging_Adjusted_Penalty>
0.000731299

> <i_epik_Tot_Q>
0

> <i_epik_Tot_abs_Q>
0

> <r_epik_Metal_State_Penalty>
0.260296

> <b_epik_Metal_Only>
0

> <s_lp_Force_Field>
OPLS_2005

> <r_lp_Energy>
24.2445

> <b_lp_Chiralities_Consistent>
1

> <s_lp_Variant>
AV-unprocessed.smi:1887-1

> <Gold.Version>
5.8.1

> <Gold.Id.Protein>
6NUR|6NUR_protein|mol2

> <Gold.PLP.Fitness>
44.0776

> <Gold.PLP.PLP>
-35.2990

> <Gold.PLP.part.hbond>
-3.4875

> <Gold.PLP.part.metal>
0.0000

> <Gold.PLP.part.buried>
-4.9349

> <Gold.PLP.part.nonpolar>
-29.4903

> <Gold.PLP.part.repulsive>
2.7920

> <Gold.PLP.ligand.clash>
0.0000

> <Gold.PLP.ligand.torsion>
0.2943

> <Gold.PLP.Chemscore.Hbond>
3.0000

> <Gold.PLP.Chemscore.CHOScore>
0.0000

> <Gold.PLP.Chemscore.Metal>
0.0000

> <Gold.Chemscore.Hbonds>
donor molecule, donor type, donor heavy atom, donor atom, acceptor molecule, acceptor atom, score
      L1  H    20    25       P1  7948  1.00
      P1  H 10752 10763       L1     2  0.98
      P1  H 10752 10765       L1    19  0.91

> <Gold.PLP.Chemscore.Internal.Correction>
0.3672

> <Gold.Rescore>
     Score         DG    S(hbond)    S(metal)    S(lipo)     H(rot)  DE(clash)    DE(int)     intcor
     15.38     -19.85       2.52        0.00      83.70       1.50       0.10       4.36       ----

> <Gold.Chemscore.Fitness>
15.3801

> <Gold.Chemscore.DG>
-19.8464

> <Gold.Chemscore.ZeroCoef>
-5.4800

> <Gold.Chemscore.Hbond>
2.5202

> <Gold.Chemscore.Metal>
0.0000

> <Gold.Chemscore.Lipo>
83.6959

> <Gold.Chemscore.Internal_Hbond>
0.0000

> <Gold.Chemscore.DEClash>
0.1022

> <Gold.Chemscore.DEInternal>
4.3641

> <Gold.Chemscore.Rot>
1.5014

> <Gold.Chemscore.Internal.Correction>
   9.000000E+99

> <Gold.Chemscore.Hbonds>
donor molecule, donor type, donor heavy atom, donor atom, acceptor molecule, acceptor atom, score
      L1  H    20    25       P1  7948  0.78
      P1  H 10752 10763       L1     2  0.91
      P1  H 10752 10765       L1    19  0.84

> <Gold.Chemscore.Hbond.Weighted>
-8.4176

> <Gold.Chemscore.Metal.Weighted>
-0.0000

> <Gold.Chemscore.Lipo.Weighted>
-9.7924

> <Gold.Chemscore.Internal_Hbond.Weighted>
0.0000

> <Gold.Chemscore.DEClash.Weighted>
0.1022

> <Gold.Chemscore.DEInternal.Weighted>
4.3641

> <Gold.Chemscore.Rot.Weighted>
3.8437

> <Gold.Chemscore.Internal.Correction.Weighted>
   9.000000E+99

> <Gold.Protein.RotatedTorsions>
[ 6907 6896 6895 6894 ] final  141.65 input  -60.11 | X-H torsion
[ 7974 7965 7964 7962 ] final   -7.97 input  175.53 | X-H torsion
[ 8008 7997 7996 7995 ] final -133.54 input   59.86 | X-H torsion
[ 10167 10162 10161 10158 ] final   10.84 input  -65.29 | X-H torsion
[ 10718 10713 10712 10709 ] final -157.17 input   66.30 | X-H torsion
[ 10763 10752 10751 10750 ] final  148.74 input  -60.55 | X-H torsion
[ 11005 11000 10999 10996 ] final  -27.11 input  -57.11 | X-H torsion

> <Gold.Protein.ActiveResidues>
 VAL166  LYS551  ARG553  GLY616  TRP617  ASP618  TYR619  PRO620  LYS621  CYS622 
 ASP623  PHE694  ASN695  SER759  ASP760  ASP761  ALA762  ILE779  LEU786  VAL792 
 PHE793  MET794  SER795  GLU796  ALA797  LYS798  CYS799  TRP800  GLU811  SER814 

> <Gold.Protein.RotatedAtoms>
  152.2283  133.5038  159.5201 H   0  0  0  0  0  0  0  0  0  0  0  0  # atno 6907 bound_to 6896
  150.7031  134.1250  159.4058 H   0  0  0  0  0  0  0  0  0  0  0  0  # atno 6908 bound_to 6896
  151.9171  135.0314  160.0570 H   0  0  0  0  0  0  0  0  0  0  0  0  # atno 6909 bound_to 6896
  146.2293  140.2399  142.8343 H   0  0  0  0  0  0  0  0  0  0  0  0  # atno 7974 bound_to 7965
  155.3473  140.0475  157.3046 H   0  0  0  0  0  0  0  0  0  0  0  0  # atno 8008 bound_to 7997
  154.5246  140.2236  155.8878 H   0  0  0  0  0  0  0  0  0  0  0  0  # atno 8009 bound_to 7997
  156.1725  140.3092  155.9006 H   0  0  0  0  0  0  0  0  0  0  0  0  # atno 8010 bound_to 7997
  140.6169  143.8288  150.7129 H   0  0  0  0  0  0  0  0  0  0  0  0  # atno 10167 bound_to 10162
  156.5365  130.8544  151.2734 H   0  0  0  0  0  0  0  0  0  0  0  0  # atno 10718 bound_to 10713
  154.0598  135.2875  155.3327 H   0  0  0  0  0  0  0  0  0  0  0  0  # atno 10763 bound_to 10752
  154.6816  135.5261  153.8273 H   0  0  0  0  0  0  0  0  0  0  0  0  # atno 10764 bound_to 10752
  153.0527  135.6583  154.0787 H   0  0  0  0  0  0  0  0  0  0  0  0  # atno 10765 bound_to 10752
  140.9090  133.7473  156.0645 H   0  0  0  0  0  0  0  0  0  0  0  0  # atno 11005 bound_to 11000
  144.9493  140.8161  143.5582 LP  0  0  0  0  0  0  0  0  0  0  0  0  # atno 17320 bound_to 7965
  145.2358  139.2094  143.5019 LP  0  0  0  0  0  0  0  0  0  0  0  0  # atno 17321 bound_to 7965
  140.1870  143.4068  152.1891 LP  0  0  0  0  0  0  0  0  0  0  0  0  # atno 17342 bound_to 10162
  139.5406  144.7253  151.4746 LP  0  0  0  0  0  0  0  0  0  0  0  0  # atno 17343 bound_to 10162
  157.7413  130.9866  150.2434 LP  0  0  0  0  0  0  0  0  0  0  0  0  # atno 17370 bound_to 10713
  156.3011  130.3758  149.7750 LP  0  0  0  0  0  0  0  0  0  0  0  0  # atno 17371 bound_to 10713
  140.8134  134.3373  157.5404 LP  0  0  0  0  0  0  0  0  0  0  0  0  # atno 17394 bound_to 11000
  139.8754  134.9267  156.3408 LP  0  0  0  0  0  0  0  0  0  0  0  0  # atno 17395 bound_to 11000

$$$$
