AV-unprocessed.smi:2639|AV-procd|sdf|10264|dock5
  -GOLD-   2272014273D 1   1.00000     0.00000
 Structure written by MMmdl.
 43 44  0  0  0  0  0  0  0  0  1 V2000
  148.6710  132.0676  154.4861 C   0  0  0  0  0  0  0  0  0  0  0  0
  147.7577  133.2540  154.0844 C   0  0  1  0  0  0  0  0  0  0  0  0
  146.6245  133.3858  155.1448 C   0  0  0  0  0  0  0  0  0  0  0  0
  145.8902  134.5853  155.0018 O   0  0  0  0  0  0  0  0  0  0  0  0
  148.5436  134.4978  154.0533 N   0  0  0  0  0  0  0  0  0  0  0  0
  149.3614  135.0048  154.9916 C   0  0  0  0  0  0  0  0  0  0  0  0
  149.5901  134.4626  156.0721 O   0  0  0  0  0  0  0  0  0  0  0  0
  149.9019  136.1644  154.5782 N   0  0  0  0  0  0  0  0  0  0  0  0
  150.7860  137.0321  155.2757 C   0  0  0  0  0  0  0  0  0  0  0  0
  151.3746  138.0902  154.5525 C   0  0  0  0  0  0  0  0  0  0  0  0
  152.2412  138.9743  155.2260 C   0  0  0  0  0  0  0  0  0  0  0  0
  152.5337  138.8691  156.5393 N   0  0  0  0  0  0  0  0  0  0  0  0
  151.9574  137.8652  157.2337 C   0  0  0  0  0  0  0  0  0  0  0  0
  151.0778  136.9271  156.6571 C   0  0  0  0  0  0  0  0  0  0  0  0
  147.1767  133.0312  152.6424 C   0  0  0  0  0  0  0  0  0  0  0  0
  146.4505  134.2773  152.0658 C   0  0  0  0  0  0  0  0  0  0  0  0
  145.9423  134.0458  150.6336 C   0  0  0  0  0  0  0  0  0  0  0  0
  145.0175  132.8248  150.5594 C   0  0  0  0  0  0  0  0  0  0  0  0
  145.7239  131.5781  151.1051 C   0  0  0  0  0  0  0  0  0  0  0  0
  146.2309  131.8040  152.5385 C   0  0  0  0  0  0  0  0  0  0  0  0
  148.1709  131.1121  154.3250 H   0  0  0  0  0  0  0  0  0  0  0  0
  148.9477  132.1054  155.5398 H   0  0  0  0  0  0  0  0  0  0  0  0
  149.6017  132.0537  153.9197 H   0  0  0  0  0  0  0  0  0  0  0  0
  145.9154  132.5616  155.0685 H   0  0  0  0  0  0  0  0  0  0  0  0
  147.0236  133.3422  156.1582 H   0  0  0  0  0  0  0  0  0  0  0  0
  145.0147  134.4415  155.3270 H   0  0  0  0  0  0  0  0  0  0  0  0
  148.4485  135.0370  153.2054 H   0  0  0  0  0  0  0  0  0  0  0  0
  149.6890  136.4386  153.6303 H   0  0  0  0  0  0  0  0  0  0  0  0
  151.1731  138.2231  153.4995 H   0  0  0  0  0  0  0  0  0  0  0  0
  152.7102  139.7895  154.6952 H   0  0  0  0  0  0  0  0  0  0  0  0
  152.1991  137.8105  158.2850 H   0  0  0  0  0  0  0  0  0  0  0  0
  150.6409  136.1645  157.2830 H   0  0  0  0  0  0  0  0  0  0  0  0
  148.0197  132.8367  151.9779 H   0  0  0  0  0  0  0  0  0  0  0  0
  145.6078  134.5532  152.7003 H   0  0  0  0  0  0  0  0  0  0  0  0
  147.1162  135.1390  152.0471 H   0  0  0  0  0  0  0  0  0  0  0  0
  145.4142  134.9319  150.2803 H   0  0  0  0  0  0  0  0  0  0  0  0
  146.7909  133.9041  149.9631 H   0  0  0  0  0  0  0  0  0  0  0  0
  144.1096  133.0145  151.1333 H   0  0  0  0  0  0  0  0  0  0  0  0
  144.7047  132.6554  149.5287 H   0  0  0  0  0  0  0  0  0  0  0  0
  145.0428  130.7268  151.0828 H   0  0  0  0  0  0  0  0  0  0  0  0
  146.5630  131.3193  150.4577 H   0  0  0  0  0  0  0  0  0  0  0  0
  146.7391  130.8952  152.8575 H   0  0  0  0  0  0  0  0  0  0  0  0
  145.3761  131.9279  153.2040 H   0  0  0  0  0  0  0  0  0  0  0  0
  1  2  1  0  0  0  0
  1 21  1  0  0  0  0
  1 22  1  0  0  0  0
  1 23  1  0  0  0  0
  2  3  1  0  0  0  0
  2  5  1  0  0  0  0
  2 15  1  0  0  0  0
  3  4  1  0  0  0  0
  3 24  1  0  0  0  0
  3 25  1  0  0  0  0
  4 26  1  0  0  0  0
  5  6  1  0  0  0  0
  5 27  1  0  0  0  0
  6  7  2  0  0  0  0
  6  8  1  0  0  0  0
  8  9  1  0  0  0  0
  8 28  1  0  0  0  0
  9 14  1  0  0  0  0
  9 10  2  0  0  0  0
 10 11  1  0  0  0  0
 10 29  1  0  0  0  0
 11 12  2  0  0  0  0
 11 30  1  0  0  0  0
 12 13  1  0  0  0  0
 13 14  2  0  0  0  0
 13 31  1  0  0  0  0
 14 32  1  0  0  0  0
 15 20  1  0  0  0  0
 15 16  1  0  0  0  0
 15 33  1  0  0  0  0
 16 17  1  0  0  0  0
 16 34  1  0  0  0  0
 16 35  1  0  0  0  0
 17 18  1  0  0  0  0
 17 36  1  0  0  0  0
 17 37  1  0  0  0  0
 18 19  1  0  0  0  0
 18 38  1  0  0  0  0
 18 39  1  0  0  0  0
 19 20  1  0  0  0  0
 19 40  1  0  0  0  0
 19 41  1  0  0  0  0
 20 42  1  0  0  0  0
 20 43  1  0  0  0  0
M  END
> <s_m_source_file>
AV-unprocessed.smi

> <i_m_source_file_index>
2639

> <i_lp_mmshare_version>
43012

> <i_f3d_flags>
0

> <s_epik_input>
W0NIMl0xW0NIMl1bQ0gyXVtDSDJdW0NIMl1bQ0hdMVtDQF0oW0NIM10pKFtDSDJdW09IXSlbTkhdQyg9TylbTkhdYzJbY0hdW2NIXW5bY0hdW2NIXTI=

> <s_epik_cmdline>
J2VwaWtfcHl0aG9uJywgJy1waCcsICc3LjAnLCAnLXRuJywgJzgnLCAnLW1hJywgJzIwMCcsICctbWV0YWxfYmluZGluZycsICctaW1hZScsICc8aW5maWxlLm1hZT4nLCAnLW9tYWUnLCAnPG91dGZpbGUubWFlPic=

> <r_epik_Ionization_Penalty>
0.119032

> <r_epik_Ionization_Penalty_Charging>
0

> <r_epik_Ionization_Penalty_Neutral>
0.119032

> <r_epik_State_Penalty>
0.108564

> <r_epik_Charging_Adjusted_Penalty>
0.108564

> <i_epik_Tot_Q>
0

> <i_epik_Tot_abs_Q>
0

> <r_epik_Metal_State_Penalty>
0.0902516

> <b_epik_Metal_Only>
0

> <s_lp_Force_Field>
OPLS_2005

> <r_lp_Energy>
25.5212

> <b_lp_Chiralities_Consistent>
1

> <s_lp_Variant>
AV-unprocessed.smi:2639-1

> <Gold.Version>
5.8.1

> <Gold.Id.Protein>
6NUR|6NUR_protein|mol2

> <Gold.PLP.Fitness>
42.8581

> <Gold.PLP.PLP>
-34.4105

> <Gold.PLP.part.hbond>
-3.9314

> <Gold.PLP.part.metal>
0.0000

> <Gold.PLP.part.buried>
-2.8188

> <Gold.PLP.part.nonpolar>
-27.3272

> <Gold.PLP.part.repulsive>
0.1080

> <Gold.PLP.ligand.clash>
0.0000

> <Gold.PLP.ligand.torsion>
0.2994

> <Gold.PLP.Chemscore.Hbond>
3.0000

> <Gold.PLP.Chemscore.CHOScore>
0.0000

> <Gold.PLP.Chemscore.Metal>
0.0000

> <Gold.Chemscore.Hbonds>
donor molecule, donor type, donor heavy atom, donor atom, acceptor molecule, acceptor atom, score
      L1  H     5    27       P1  7948  1.00
      L1  H     8    28       P1  7948  1.00
      P1  H  7997  8009       L1    12  0.42

> <Gold.PLP.Chemscore.Internal.Correction>
0.0463

> <Gold.Rescore>
     Score         DG    S(hbond)    S(metal)    S(lipo)     H(rot)  DE(clash)    DE(int)     intcor
     15.64     -17.22       2.43        0.00      74.42       1.98       0.02       1.57       ----

> <Gold.Chemscore.Fitness>
15.6357

> <Gold.Chemscore.DG>
-17.2237

> <Gold.Chemscore.ZeroCoef>
-5.4800

> <Gold.Chemscore.Hbond>
2.4267

> <Gold.Chemscore.Metal>
0.0000

> <Gold.Chemscore.Lipo>
74.4169

> <Gold.Chemscore.Internal_Hbond>
0.0000

> <Gold.Chemscore.DEClash>
0.0202

> <Gold.Chemscore.DEInternal>
1.5678

> <Gold.Chemscore.Rot>
1.9798

> <Gold.Chemscore.Internal.Correction>
   9.000000E+99

> <Gold.Chemscore.Hbonds>
donor molecule, donor type, donor heavy atom, donor atom, acceptor molecule, acceptor atom, score
      L1  H     5    27       P1  7948  0.81
      L1  H     8    28       P1  7948  0.44
      P1  H  7997  8009       L1    12  0.04

> <Gold.Chemscore.Hbond.Weighted>
-8.1051

> <Gold.Chemscore.Metal.Weighted>
-0.0000

> <Gold.Chemscore.Lipo.Weighted>
-8.7068

> <Gold.Chemscore.Internal_Hbond.Weighted>
0.0000

> <Gold.Chemscore.DEClash.Weighted>
0.0202

> <Gold.Chemscore.DEInternal.Weighted>
1.5678

> <Gold.Chemscore.Rot.Weighted>
5.0682

> <Gold.Chemscore.Internal.Correction.Weighted>
   9.000000E+99

> <Gold.Protein.RotatedTorsions>
[ 6907 6896 6895 6894 ] final   77.49 input  -60.11 | X-H torsion
[ 7974 7965 7964 7962 ] final -122.35 input  175.53 | X-H torsion
[ 8008 7997 7996 7995 ] final -165.44 input   59.86 | X-H torsion
[ 10167 10162 10161 10158 ] final  -35.24 input  -65.29 | X-H torsion
[ 10718 10713 10712 10709 ] final  148.17 input   66.30 | X-H torsion
[ 10763 10752 10751 10750 ] final -108.99 input  -60.55 | X-H torsion
[ 11005 11000 10999 10996 ] final  -81.77 input  -57.11 | X-H torsion

> <Gold.Protein.ActiveResidues>
 VAL166  LYS551  ARG553  GLY616  TRP617  ASP618  TYR619  PRO620  LYS621  CYS622 
 ASP623  PHE694  ASN695  SER759  ASP760  ASP761  ALA762  ILE779  LEU786  VAL792 
 PHE793  MET794  SER795  GLU796  ALA797  LYS798  CYS799  TRP800  GLU811  SER814 

> <Gold.Protein.RotatedAtoms>
  152.5120  134.3809  159.9350 H   0  0  0  0  0  0  0  0  0  0  0  0  # atno 6907 bound_to 6896
  151.3766  133.3829  159.2713 H   0  0  0  0  0  0  0  0  0  0  0  0  # atno 6908 bound_to 6896
  150.9537  134.8953  159.7746 H   0  0  0  0  0  0  0  0  0  0  0  0  # atno 6909 bound_to 6896
  145.0304  140.8063  143.4327 H   0  0  0  0  0  0  0  0  0  0  0  0  # atno 7974 bound_to 7965
  155.8498  140.0961  157.1682 H   0  0  0  0  0  0  0  0  0  0  0  0  # atno 8008 bound_to 7997
  154.3985  140.1385  156.3892 H   0  0  0  0  0  0  0  0  0  0  0  0  # atno 8009 bound_to 7997
  155.7973  140.3454  155.5385 H   0  0  0  0  0  0  0  0  0  0  0  0  # atno 8010 bound_to 7997
  140.7169  143.3491  151.2193 H   0  0  0  0  0  0  0  0  0  0  0  0  # atno 10167 bound_to 10162
  157.3119  131.0889  151.1309 H   0  0  0  0  0  0  0  0  0  0  0  0  # atno 10718 bound_to 10713
  154.8167  135.4617  154.0664 H   0  0  0  0  0  0  0  0  0  0  0  0  # atno 10763 bound_to 10752
  153.2051  135.6874  153.8190 H   0  0  0  0  0  0  0  0  0  0  0  0  # atno 10764 bound_to 10752
  153.7661  135.3277  155.3322 H   0  0  0  0  0  0  0  0  0  0  0  0  # atno 10765 bound_to 10752
  141.1665  133.7212  156.8471 H   0  0  0  0  0  0  0  0  0  0  0  0  # atno 11005 bound_to 11000
  145.1778  139.2368  143.5308 LP  0  0  0  0  0  0  0  0  0  0  0  0  # atno 17320 bound_to 7965
  146.3498  140.1544  142.8592 LP  0  0  0  0  0  0  0  0  0  0  0  0  # atno 17321 bound_to 7965
  139.7018  143.9521  152.2909 LP  0  0  0  0  0  0  0  0  0  0  0  0  # atno 17342 bound_to 10162
  139.9216  144.6796  150.8455 LP  0  0  0  0  0  0  0  0  0  0  0  0  # atno 17343 bound_to 10162
  157.2628  130.6667  149.5982 LP  0  0  0  0  0  0  0  0  0  0  0  0  # atno 17370 bound_to 10713
  155.9678  130.4503  150.5692 LP  0  0  0  0  0  0  0  0  0  0  0  0  # atno 17371 bound_to 10713
  140.1942  134.8944  157.3095 LP  0  0  0  0  0  0  0  0  0  0  0  0  # atno 17394 bound_to 11000
  140.2257  134.3969  155.7544 LP  0  0  0  0  0  0  0  0  0  0  0  0  # atno 17395 bound_to 11000

$$$$
