AV-unprocessed.smi:2568|AV-procd|sdf|10089|dock3
  -GOLD-   2272014113D 1   1.00000     0.00000
 Structure written by MMmdl.
 25 26  0  0  0  0  0  0  0  0  2 V2000
  153.7605  141.2275  160.8183 C   0  0  0  0  0  0  0  0  0  0  0  0
  152.8946  140.8465  159.6656 C   0  0  0  0  0  0  0  0  0  0  0  0
  153.2055  139.8394  158.8475 N   0  0  0  0  0  0  0  0  0  0  0  0
  152.2474  139.7184  157.9043 N   0  0  0  0  0  0  0  0  0  0  0  0
  151.4131  140.7063  158.2262 C   0  0  0  0  0  0  0  0  0  0  0  0
  150.1498  140.9220  157.4524 C   0  0  1  0  0  0  0  0  0  0  0  0
  149.9490  142.3994  157.0659 C   0  0  0  0  0  0  0  0  0  0  0  0
  148.7429  142.5382  156.2270 N   0  3  0  0  0  0  0  0  0  0  0  0
  148.8015  141.6539  155.0460 C   0  0  0  0  0  0  0  0  0  0  0  0
  149.0568  140.1998  155.4818 C   0  0  0  0  0  0  0  0  0  0  0  0
  150.2419  140.1318  156.2687 O   0  0  0  0  0  0  0  0  0  0  0  0
  151.7528  141.4382  159.3319 N   0  0  0  0  0  0  0  0  0  0  0  0
  154.0135  139.2348  158.8957 H   0  0  0  0  0  0  0  0  0  0  0  0
  153.3396  142.0842  161.3456 H   0  0  0  0  0  0  0  0  0  0  0  0
  154.7583  141.4910  160.4664 H   0  0  0  0  0  0  0  0  0  0  0  0
  153.8426  140.3942  161.5163 H   0  0  0  0  0  0  0  0  0  0  0  0
  149.3078  140.5712  158.0530 H   0  0  0  0  0  0  0  0  0  0  0  0
  149.8446  143.0212  157.9556 H   0  0  0  0  0  0  0  0  0  0  0  0
  150.8128  142.7704  156.5123 H   0  0  0  0  0  0  0  0  0  0  0  0
  147.9346  142.2884  156.7793 H   0  0  0  0  0  0  0  0  0  0  0  0
  147.8668  141.7298  154.4903 H   0  0  0  0  0  0  0  0  0  0  0  0
  149.5985  141.9939  154.3835 H   0  0  0  0  0  0  0  0  0  0  0  0
  148.2100  139.8084  156.0480 H   0  0  0  0  0  0  0  0  0  0  0  0
  149.1760  139.5608  154.6069 H   0  0  0  0  0  0  0  0  0  0  0  0
  148.6517  143.4979  155.9250 H   0  0  0  0  0  0  0  0  0  0  0  0
  1 14  1  0  0  0  0
  1 15  1  0  0  0  0
  1 16  1  0  0  0  0
  1  2  1  0  0  0  0
  2 12  2  0  0  0  0
  2  3  1  0  0  0  0
  3  4  1  0  0  0  0
  3 13  1  0  0  0  0
  4  5  2  0  0  0  0
  5 12  1  0  0  0  0
  5  6  1  0  0  0  0
  6 11  1  0  0  0  0
  6  7  1  0  0  0  0
  6 17  1  0  0  0  0
  7  8  1  0  0  0  0
  7 18  1  0  0  0  0
  7 19  1  0  0  0  0
  8  9  1  0  0  0  0
  8 20  1  0  0  0  0
  8 25  1  0  0  0  0
  9 10  1  0  0  0  0
  9 21  1  0  0  0  0
  9 22  1  0  0  0  0
 10 11  1  0  0  0  0
 10 23  1  0  0  0  0
 10 24  1  0  0  0  0
M  CHG  1   8   1
M  END
> <s_m_source_file>
AV-unprocessed.smi

> <i_m_source_file_index>
2568

> <i_lp_mmshare_version>
43012

> <i_f3d_flags>
0

> <s_epik_input>
W0NIM11jMW5bbkhdYyhuMSlbQ0BASF0yW0NIMl1bTkhdW0NIMl1bQ0gyXU8y

> <s_epik_cmdline>
J2VwaWtfcHl0aG9uJywgJy1waCcsICc3LjAnLCAnLXRuJywgJzgnLCAnLW1hJywgJzIwMCcsICctbWV0YWxfYmluZGluZycsICctaW1hZScsICc8aW5maWxlLm1hZT4nLCAnLW9tYWUnLCAnPG91dGZpbGUubWFlPic=

> <r_lp_tautomer_probability>
0.948284

> <r_epik_Ionization_Penalty>
0.107151

> <r_epik_Ionization_Penalty_Charging>
0.100865

> <r_epik_Ionization_Penalty_Neutral>
0.00628602

> <r_epik_State_Penalty>
0.200426

> <r_epik_Charging_Adjusted_Penalty>
0.30129

> <i_epik_Tot_Q>
1

> <i_epik_Tot_abs_Q>
1

> <r_epik_Metal_State_Penalty>
0.501686

> <b_epik_Metal_Only>
0

> <s_lp_Force_Field>
OPLS_2005

> <r_lp_Energy>
11.0041

> <b_lp_Chiralities_Consistent>
1

> <s_lp_Variant>
AV-unprocessed.smi:2568-2

> <Gold.Version>
5.8.1

> <Gold.Id.Protein>
6NUR|6NUR_protein|mol2

> <Gold.PLP.Fitness>
29.3964

> <Gold.PLP.PLP>
-20.8355

> <Gold.PLP.part.hbond>
-2.0000

> <Gold.PLP.part.metal>
0.0000

> <Gold.PLP.part.buried>
-2.7631

> <Gold.PLP.part.nonpolar>
-16.1428

> <Gold.PLP.part.repulsive>
0.1740

> <Gold.PLP.ligand.clash>
0.0000

> <Gold.PLP.ligand.torsion>
0.2147

> <Gold.PLP.Chemscore.Hbond>
2.9920

> <Gold.PLP.Chemscore.CHOScore>
0.0000

> <Gold.PLP.Chemscore.Metal>
0.0000

> <Gold.Chemscore.Hbonds>
donor molecule, donor type, donor heavy atom, donor atom, acceptor molecule, acceptor atom, score
      L1  H     8    25       P1  8028  0.68

> <Gold.PLP.Chemscore.Internal.Correction>
0.0143

> <Gold.Rescore>
     Score         DG    S(hbond)    S(metal)    S(lipo)     H(rot)  DE(clash)    DE(int)     intcor
     12.11     -12.50       1.58        0.00      36.78       1.00       0.15       0.23       ----

> <Gold.Chemscore.Fitness>
12.1134

> <Gold.Chemscore.DG>
-12.4980

> <Gold.Chemscore.ZeroCoef>
-5.4800

> <Gold.Chemscore.Hbond>
1.5793

> <Gold.Chemscore.Metal>
0.0000

> <Gold.Chemscore.Lipo>
36.7802

> <Gold.Chemscore.Internal_Hbond>
0.0000

> <Gold.Chemscore.DEClash>
0.1523

> <Gold.Chemscore.DEInternal>
0.2322

> <Gold.Chemscore.Rot>
1.0000

> <Gold.Chemscore.Internal.Correction>
   9.000000E+99

> <Gold.Chemscore.Hbonds>
donor molecule, donor type, donor heavy atom, donor atom, acceptor molecule, acceptor atom, score
      L1  H     8    25       P1  8028  0.33

> <Gold.Chemscore.Hbond.Weighted>
-5.2747

> <Gold.Chemscore.Metal.Weighted>
-0.0000

> <Gold.Chemscore.Lipo.Weighted>
-4.3033

> <Gold.Chemscore.Internal_Hbond.Weighted>
0.0000

> <Gold.Chemscore.DEClash.Weighted>
0.1523

> <Gold.Chemscore.DEInternal.Weighted>
0.2322

> <Gold.Chemscore.Rot.Weighted>
2.5600

> <Gold.Chemscore.Internal.Correction.Weighted>
   9.000000E+99

> <Gold.Protein.RotatedTorsions>
[ 6907 6896 6895 6894 ] final -140.34 input  -60.11 | X-H torsion
[ 7974 7965 7964 7962 ] final   -0.96 input  175.53 | X-H torsion
[ 8008 7997 7996 7995 ] final  -71.88 input   59.86 | X-H torsion
[ 10167 10162 10161 10158 ] final  -86.02 input  -65.29 | X-H torsion
[ 10718 10713 10712 10709 ] final    2.11 input   66.30 | X-H torsion
[ 10763 10752 10751 10750 ] final -124.79 input  -60.55 | X-H torsion
[ 11005 11000 10999 10996 ] final  -30.24 input  -57.11 | X-H torsion

> <Gold.Protein.ActiveResidues>
 VAL166  LYS551  ARG553  GLY616  TRP617  ASP618  TYR619  PRO620  LYS621  CYS622 
 ASP623  PHE694  ASN695  SER759  ASP760  ASP761  ALA762  ILE779  LEU786  VAL792 
 PHE793  MET794  SER795  GLU796  ALA797  LYS798  CYS799  TRP800  GLU811  SER814 

> <Gold.Protein.RotatedAtoms>
  151.0595  133.5556  159.2635 H   0  0  0  0  0  0  0  0  0  0  0  0  # atno 6907 bound_to 6896
  151.2537  135.0630  159.9081 H   0  0  0  0  0  0  0  0  0  0  0  0  # atno 6908 bound_to 6896
  152.5395  134.0351  159.8096 H   0  0  0  0  0  0  0  0  0  0  0  0  # atno 6909 bound_to 6896
  146.2422  140.1349  142.8337 H   0  0  0  0  0  0  0  0  0  0  0  0  # atno 7974 bound_to 7965
  154.5122  140.0807  156.8012 H   0  0  0  0  0  0  0  0  0  0  0  0  # atno 8008 bound_to 7997
  155.3760  140.3425  155.4227 H   0  0  0  0  0  0  0  0  0  0  0  0  # atno 8009 bound_to 7997
  156.1586  140.1581  156.8637 H   0  0  0  0  0  0  0  0  0  0  0  0  # atno 8010 bound_to 7997
  140.3981  143.2674  151.9178 H   0  0  0  0  0  0  0  0  0  0  0  0  # atno 10167 bound_to 10162
  156.8581  130.5577  149.5665 H   0  0  0  0  0  0  0  0  0  0  0  0  # atno 10718 bound_to 10713
  154.8728  135.4051  154.3163 H   0  0  0  0  0  0  0  0  0  0  0  0  # atno 10763 bound_to 10752
  153.3999  135.7017  153.6439 H   0  0  0  0  0  0  0  0  0  0  0  0  # atno 10764 bound_to 10752
  153.5186  135.3692  155.2592 H   0  0  0  0  0  0  0  0  0  0  0  0  # atno 10765 bound_to 10752
  140.9366  133.7305  156.1013 H   0  0  0  0  0  0  0  0  0  0  0  0  # atno 11005 bound_to 11000
  145.0295  140.8859  143.5118 LP  0  0  0  0  0  0  0  0  0  0  0  0  # atno 17320 bound_to 7965
  145.1410  139.2572  143.5490 LP  0  0  0  0  0  0  0  0  0  0  0  0  # atno 17321 bound_to 7965
  139.4786  144.5661  151.8163 LP  0  0  0  0  0  0  0  0  0  0  0  0  # atno 17342 bound_to 10162
  140.4769  144.1507  150.5926 LP  0  0  0  0  0  0  0  0  0  0  0  0  # atno 17343 bound_to 10162
  156.0791  130.5806  150.9530 LP  0  0  0  0  0  0  0  0  0  0  0  0  # atno 17370 bound_to 10713
  157.6265  131.0925  150.8523 LP  0  0  0  0  0  0  0  0  0  0  0  0  # atno 17371 bound_to 10713
  140.7791  134.3745  157.5491 LP  0  0  0  0  0  0  0  0  0  0  0  0  # atno 17394 bound_to 11000
  139.8809  134.9070  156.2936 LP  0  0  0  0  0  0  0  0  0  0  0  0  # atno 17395 bound_to 11000

$$$$
