AV-unprocessed.smi:1750|AV-procd|sdf|7052|dock1
  -GOLD-   22720 8263D 1   1.00000     0.00000
 Structure written by MMmdl.
 36 37  0  0  0  0  0  0  0  0  1 V2000
  150.6862  143.0395  158.4989 C   0  0  0  0  0  0  0  0  0  0  0  0
  150.0501  141.9726  157.6014 C   0  0  0  0  0  0  0  0  0  0  0  0
  150.6139  141.9920  156.1738 C   0  0  0  0  0  0  0  0  0  0  0  0
  150.1343  140.8419  155.3527 C   0  0  0  0  0  0  0  0  0  0  0  0
  150.9631  139.9281  154.8314 N   0  0  0  0  0  0  0  0  0  0  0  0
  150.2914  138.9707  154.0828 N   0  0  0  0  0  0  0  0  0  0  0  0
  148.9753  139.1983  154.0469 C   0  0  0  0  0  0  0  0  0  0  0  0
  148.1615  138.2978  153.3150 N   0  0  0  0  0  0  0  0  0  0  0  0
  146.8234  138.1876  153.3406 C   0  0  0  0  0  0  0  0  0  0  0  0
  146.0646  138.8862  154.0122 O   0  0  0  0  0  0  0  0  0  0  0  0
  146.4025  137.2063  152.5299 N   0  0  0  0  0  0  0  0  0  0  0  0
  145.0109  136.8100  152.3453 C   0  0  0  0  0  0  0  0  0  0  0  0
  144.8794  135.2894  152.1567 C   0  0  2  0  0  0  0  0  0  0  0  0
  145.3377  134.7962  150.7860 C   0  0  0  0  0  0  0  0  0  0  0  0
  144.5734  133.4940  150.6025 C   0  0  0  0  0  0  0  0  0  0  0  0
  143.4633  133.5605  151.6558 C   0  0  0  0  0  0  0  0  0  0  0  0
  143.5207  134.8812  152.1759 O   0  0  0  0  0  0  0  0  0  0  0  0
  148.4385  140.6217  154.9391 S   0  0  0  0  0  0  0  0  0  0  0  0
  150.2655  143.0023  159.5040 H   0  0  0  0  0  0  0  0  0  0  0  0
  150.5147  144.0408  158.1028 H   0  0  0  0  0  0  0  0  0  0  0  0
  151.7632  142.8914  158.5836 H   0  0  0  0  0  0  0  0  0  0  0  0
  150.2114  140.9893  158.0448 H   0  0  0  0  0  0  0  0  0  0  0  0
  148.9705  142.1249  157.5708 H   0  0  0  0  0  0  0  0  0  0  0  0
  150.3374  142.9209  155.6732 H   0  0  0  0  0  0  0  0  0  0  0  0
  151.7038  141.9659  156.2018 H   0  0  0  0  0  0  0  0  0  0  0  0
  148.6564  137.6609  152.7082 H   0  0  0  0  0  0  0  0  0  0  0  0
  147.0956  136.6845  152.0139 H   0  0  0  0  0  0  0  0  0  0  0  0
  144.3930  137.1537  153.1768 H   0  0  0  0  0  0  0  0  0  0  0  0
  144.6406  137.3198  151.4556 H   0  0  0  0  0  0  0  0  0  0  0  0
  145.4235  134.7583  152.9405 H   0  0  0  0  0  0  0  0  0  0  0  0
  145.0391  135.5047  150.0119 H   0  0  0  0  0  0  0  0  0  0  0  0
  146.4186  134.6670  150.7246 H   0  0  0  0  0  0  0  0  0  0  0  0
  144.1698  133.4170  149.5924 H   0  0  0  0  0  0  0  0  0  0  0  0
  145.2138  132.6282  150.7753 H   0  0  0  0  0  0  0  0  0  0  0  0
  142.4781  133.3464  151.2411 H   0  0  0  0  0  0  0  0  0  0  0  0
  143.6552  132.8501  152.4612 H   0  0  0  0  0  0  0  0  0  0  0  0
  1  2  1  0  0  0  0
  1 19  1  0  0  0  0
  1 20  1  0  0  0  0
  1 21  1  0  0  0  0
  2  3  1  0  0  0  0
  2 22  1  0  0  0  0
  2 23  1  0  0  0  0
  3  4  1  0  0  0  0
  3 24  1  0  0  0  0
  3 25  1  0  0  0  0
  4 18  1  0  0  0  0
  4  5  2  0  0  0  0
  5  6  1  0  0  0  0
  6  7  2  0  0  0  0
  7  8  1  0  0  0  0
  7 18  1  0  0  0  0
  8  9  1  0  0  0  0
  8 26  1  0  0  0  0
  9 10  2  0  0  0  0
  9 11  1  0  0  0  0
 11 12  1  0  0  0  0
 11 27  1  0  0  0  0
 12 13  1  0  0  0  0
 12 28  1  0  0  0  0
 12 29  1  0  0  0  0
 13 17  1  0  0  0  0
 13 14  1  0  0  0  0
 13 30  1  0  0  0  0
 14 15  1  0  0  0  0
 14 31  1  0  0  0  0
 14 32  1  0  0  0  0
 15 16  1  0  0  0  0
 15 33  1  0  0  0  0
 15 34  1  0  0  0  0
 16 17  1  0  0  0  0
 16 35  1  0  0  0  0
 16 36  1  0  0  0  0
M  END
> <s_m_source_file>
AV-unprocessed.smi

> <i_m_source_file_index>
1750

> <i_lp_mmshare_version>
43012

> <i_f3d_flags>
0

> <s_epik_input>
W0NIM11bQ0gyXVtDSDJdYzFubmMoczEpW05IXUMoPU8pW05IXVtDSDJdW0NAQEhdMltDSDJdW0NIMl1bQ0gyXU8y

> <s_epik_cmdline>
J2VwaWtfcHl0aG9uJywgJy1waCcsICc3LjAnLCAnLXRuJywgJzgnLCAnLW1hJywgJzIwMCcsICctbWV0YWxfYmluZGluZycsICctaW1hZScsICc8aW5maWxlLm1hZT4nLCAnLW9tYWUnLCAnPG91dGZpbGUubWFlPic=

> <r_lp_tautomer_probability>
1

> <r_epik_Ionization_Penalty>
0.000503051

> <r_epik_Ionization_Penalty_Charging>
0

> <r_epik_Ionization_Penalty_Neutral>
0.000503051

> <r_epik_State_Penalty>
-0

> <r_epik_Charging_Adjusted_Penalty>
0

> <i_epik_Tot_Q>
0

> <i_epik_Tot_abs_Q>
0

> <r_epik_Metal_State_Penalty>
0.219912

> <b_epik_Metal_Only>
0

> <s_lp_Force_Field>
OPLS_2005

> <r_lp_Energy>
10.1721

> <b_lp_Chiralities_Consistent>
1

> <s_lp_Variant>
AV-unprocessed.smi:1750-1

> <Gold.Version>
5.8.1

> <Gold.Id.Protein>
6NUR|6NUR_protein|mol2

> <Gold.PLP.Fitness>
36.6484

> <Gold.PLP.PLP>
-28.5452

> <Gold.PLP.part.hbond>
-3.6886

> <Gold.PLP.part.metal>
0.0000

> <Gold.PLP.part.buried>
-4.6043

> <Gold.PLP.part.nonpolar>
-21.8630

> <Gold.PLP.part.repulsive>
0.6550

> <Gold.PLP.ligand.clash>
0.0000

> <Gold.PLP.ligand.torsion>
0.3004

> <Gold.PLP.Chemscore.Hbond>
2.8940

> <Gold.PLP.Chemscore.CHOScore>
0.0000

> <Gold.PLP.Chemscore.Metal>
0.0000

> <Gold.Chemscore.Hbonds>
donor molecule, donor type, donor heavy atom, donor atom, acceptor molecule, acceptor atom, score
      L1  H     8    26       P1  7948  1.00
      L1  H    11    27       P1  7948  0.94
      P1  H  7989  7998       L1     5  0.90

> <Gold.PLP.Chemscore.Internal.Correction>
0.0219

> <Gold.Rescore>
     Score         DG    S(hbond)    S(metal)    S(lipo)     H(rot)  DE(clash)    DE(int)     intcor
     14.91     -15.26       1.95        0.00      63.62       1.63       0.05       0.31       ----

> <Gold.Chemscore.Fitness>
14.9059

> <Gold.Chemscore.DG>
-15.2649

> <Gold.Chemscore.ZeroCoef>
-5.4800

> <Gold.Chemscore.Hbond>
1.9513

> <Gold.Chemscore.Metal>
0.0000

> <Gold.Chemscore.Lipo>
63.6185

> <Gold.Chemscore.Internal_Hbond>
0.0000

> <Gold.Chemscore.DEClash>
0.0500

> <Gold.Chemscore.DEInternal>
0.3090

> <Gold.Chemscore.Rot>
1.6311

> <Gold.Chemscore.Internal.Correction>
   9.000000E+99

> <Gold.Chemscore.Hbonds>
donor molecule, donor type, donor heavy atom, donor atom, acceptor molecule, acceptor atom, score
      L1  H     8    26       P1  7948  0.99
      L1  H    11    27       P1  7948  0.91
      P1  H  7989  7998       L1     5  0.05

> <Gold.Chemscore.Hbond.Weighted>
-6.5172

> <Gold.Chemscore.Metal.Weighted>
-0.0000

> <Gold.Chemscore.Lipo.Weighted>
-7.4434

> <Gold.Chemscore.Internal_Hbond.Weighted>
0.0000

> <Gold.Chemscore.DEClash.Weighted>
0.0500

> <Gold.Chemscore.DEInternal.Weighted>
0.3090

> <Gold.Chemscore.Rot.Weighted>
4.1757

> <Gold.Chemscore.Internal.Correction.Weighted>
   9.000000E+99

> <Gold.Protein.RotatedTorsions>
[ 6907 6896 6895 6894 ] final  -24.14 input  -60.11 | X-H torsion
[ 7974 7965 7964 7962 ] final   47.55 input  175.53 | X-H torsion
[ 8008 7997 7996 7995 ] final  155.44 input   59.86 | X-H torsion
[ 10167 10162 10161 10158 ] final -130.07 input  -65.29 | X-H torsion
[ 10718 10713 10712 10709 ] final  -42.18 input   66.30 | X-H torsion
[ 10763 10752 10751 10750 ] final -159.22 input  -60.55 | X-H torsion
[ 11005 11000 10999 10996 ] final  158.90 input  -57.11 | X-H torsion

> <Gold.Protein.ActiveResidues>
 VAL166  LYS551  ARG553  GLY616  TRP617  ASP618  TYR619  PRO620  LYS621  CYS622 
 ASP623  PHE694  ASN695  SER759  ASP760  ASP761  ALA762  ILE779  LEU786  VAL792 
 PHE793  MET794  SER795  GLU796  ALA797  LYS798  CYS799  TRP800  GLU811  SER814 

> <Gold.Protein.RotatedAtoms>
  151.1938  135.0414  159.8843 H   0  0  0  0  0  0  0  0  0  0  0  0  # atno 6907 bound_to 6896
  152.5437  134.0926  159.8293 H   0  0  0  0  0  0  0  0  0  0  0  0  # atno 6908 bound_to 6896
  151.1058  133.5162  159.2640 H   0  0  0  0  0  0  0  0  0  0  0  0  # atno 6909 bound_to 6896
  146.0287  139.4738  142.9851 H   0  0  0  0  0  0  0  0  0  0  0  0  # atno 7974 bound_to 7965
  156.2478  140.1939  156.6801 H   0  0  0  0  0  0  0  0  0  0  0  0  # atno 8008 bound_to 7997
  154.6328  140.0593  156.9779 H   0  0  0  0  0  0  0  0  0  0  0  0  # atno 8009 bound_to 7997
  155.1684  140.3266  155.4400 H   0  0  0  0  0  0  0  0  0  0  0  0  # atno 8010 bound_to 7997
  139.9332  143.6248  152.2524 H   0  0  0  0  0  0  0  0  0  0  0  0  # atno 10167 bound_to 10162
  156.2623  130.4198  149.8528 H   0  0  0  0  0  0  0  0  0  0  0  0  # atno 10718 bound_to 10713
  154.7492  135.3088  154.8588 H   0  0  0  0  0  0  0  0  0  0  0  0  # atno 10763 bound_to 10752
  153.9380  135.6778  153.4749 H   0  0  0  0  0  0  0  0  0  0  0  0  # atno 10764 bound_to 10752
  153.1088  135.4876  154.8927 H   0  0  0  0  0  0  0  0  0  0  0  0  # atno 10765 bound_to 10752
  140.1910  134.8407  157.2912 H   0  0  0  0  0  0  0  0  0  0  0  0  # atno 11005 bound_to 11000
  145.7075  141.0116  143.1471 LP  0  0  0  0  0  0  0  0  0  0  0  0  # atno 17320 bound_to 7965
  144.7021  139.8718  143.7441 LP  0  0  0  0  0  0  0  0  0  0  0  0  # atno 17321 bound_to 7965
  139.6765  144.7658  151.1686 LP  0  0  0  0  0  0  0  0  0  0  0  0  # atno 17342 bound_to 10162
  140.7632  143.5787  150.8918 LP  0  0  0  0  0  0  0  0  0  0  0  0  # atno 17343 bound_to 10162
  156.6039  130.8558  151.3438 LP  0  0  0  0  0  0  0  0  0  0  0  0  # atno 17370 bound_to 10713
  157.7255  130.9617  150.1617 LP  0  0  0  0  0  0  0  0  0  0  0  0  # atno 17371 bound_to 10713
  140.2160  134.4081  155.7589 LP  0  0  0  0  0  0  0  0  0  0  0  0  # atno 17394 bound_to 11000
  141.2226  133.7142  156.8414 LP  0  0  0  0  0  0  0  0  0  0  0  0  # atno 17395 bound_to 11000

$$$$
