AV-unprocessed.smi:1189|AV-procd|sdf|4978|dock5
  -GOLD-   22720 3573D 1   1.00000     0.00000
 Structure written by MMmdl.
 33 34  0  0  0  0  0  0  0  0  1 V2000
  153.3089  139.2776  156.6062 O   0  0  0  0  0  0  0  0  0  0  0  0
  152.3819  139.3296  157.4163 C   0  0  0  0  0  0  0  0  0  0  0  0
  152.6443  139.5062  158.9174 C   0  0  0  0  0  0  0  0  0  0  0  0
  152.6157  140.8968  159.3413 N   0  0  0  0  0  0  0  0  0  0  0  0
  153.3396  141.5014  160.3467 C   0  0  0  0  0  0  0  0  0  0  0  0
  152.9742  142.8163  160.3749 C   0  0  0  0  0  0  0  0  0  0  0  0
  152.0048  142.9297  159.3361 C   0  0  0  0  0  0  0  0  0  0  0  0
  151.2454  144.1543  158.8971 C   0  0  0  0  0  0  0  0  0  0  0  0
  151.6594  145.2236  159.5770 F   0  0  0  0  0  0  0  0  0  0  0  0
  151.4426  144.3698  157.5966 F   0  0  0  0  0  0  0  0  0  0  0  0
  149.9415  143.9855  159.1174 F   0  0  0  0  0  0  0  0  0  0  0  0
  151.7970  141.7732  158.7204 N   0  0  0  0  0  0  0  0  0  0  0  0
  151.0921  139.2314  157.0605 N   0  0  0  0  0  0  0  0  0  0  0  0
  150.6073  139.0577  155.6954 C   0  0  0  0  0  0  0  0  0  0  0  0
  149.3167  139.8570  155.4335 C   0  0  2  0  0  0  0  0  0  0  0  0
  148.5290  139.4128  154.2164 C   0  0  0  0  0  0  0  0  0  0  0  0
  147.6527  140.6326  153.9551 C   0  0  0  0  0  0  0  0  0  0  0  0
  148.4434  141.7563  154.3287 O   0  0  0  0  0  0  0  0  0  0  0  0
  149.5558  141.3337  155.1136 C   0  0  0  0  0  0  0  0  0  0  0  0
  151.9041  138.9434  159.4886 H   0  0  0  0  0  0  0  0  0  0  0  0
  153.6226  139.0907  159.1614 H   0  0  0  0  0  0  0  0  0  0  0  0
  154.0470  140.9517  160.9500 H   0  0  0  0  0  0  0  0  0  0  0  0
  153.3440  143.5837  161.0386 H   0  0  0  0  0  0  0  0  0  0  0  0
  150.3942  139.2828  157.7887 H   0  0  0  0  0  0  0  0  0  0  0  0
  151.3822  139.3490  154.9844 H   0  0  0  0  0  0  0  0  0  0  0  0
  150.4288  137.9939  155.5354 H   0  0  0  0  0  0  0  0  0  0  0  0
  148.6655  139.7970  156.3076 H   0  0  0  0  0  0  0  0  0  0  0  0
  149.1960  139.2417  153.3700 H   0  0  0  0  0  0  0  0  0  0  0  0
  147.9499  138.5048  154.3869 H   0  0  0  0  0  0  0  0  0  0  0  0
  147.3256  140.7000  152.9173 H   0  0  0  0  0  0  0  0  0  0  0  0
  146.7664  140.6055  154.5902 H   0  0  0  0  0  0  0  0  0  0  0  0
  149.6590  141.9406  156.0135 H   0  0  0  0  0  0  0  0  0  0  0  0
  150.4601  141.4612  154.5170 H   0  0  0  0  0  0  0  0  0  0  0  0
  1  2  2  0  0  0  0
  2  3  1  0  0  0  0
  2 13  1  0  0  0  0
  3  4  1  0  0  0  0
  3 20  1  0  0  0  0
  3 21  1  0  0  0  0
  4 12  1  0  0  0  0
  4  5  1  0  0  0  0
  5  6  2  0  0  0  0
  5 22  1  0  0  0  0
  6  7  1  0  0  0  0
  6 23  1  0  0  0  0
  7  8  1  0  0  0  0
  7 12  2  0  0  0  0
  8  9  1  0  0  0  0
  8 10  1  0  0  0  0
  8 11  1  0  0  0  0
 13 14  1  0  0  0  0
 13 24  1  0  0  0  0
 14 15  1  0  0  0  0
 14 25  1  0  0  0  0
 14 26  1  0  0  0  0
 15 19  1  0  0  0  0
 15 16  1  0  0  0  0
 15 27  1  0  0  0  0
 16 17  1  0  0  0  0
 16 28  1  0  0  0  0
 16 29  1  0  0  0  0
 17 18  1  0  0  0  0
 17 30  1  0  0  0  0
 17 31  1  0  0  0  0
 18 19  1  0  0  0  0
 19 32  1  0  0  0  0
 19 33  1  0  0  0  0
M  END
> <s_m_source_file>
AV-unprocessed.smi

> <i_m_source_file_index>
1189

> <i_lp_mmshare_version>
43012

> <i_f3d_flags>
0

> <s_epik_input>
W0NIMl0xT1tDSDJdW0NIMl1bQ0BIXTFbQ0gyXVtOSF1DKD1PKVtDSDJdbjJbY0hdW2NIXWMobjIpQyhGKShGKUY=

> <s_epik_cmdline>
J2VwaWtfcHl0aG9uJywgJy1waCcsICc3LjAnLCAnLXRuJywgJzgnLCAnLW1hJywgJzIwMCcsICctbWV0YWxfYmluZGluZycsICctaW1hZScsICc8aW5maWxlLm1hZT4nLCAnLW9tYWUnLCAnPG91dGZpbGUubWFlPic=

> <r_lp_tautomer_probability>
1

> <r_epik_Ionization_Penalty>
1.26564e-07

> <r_epik_Ionization_Penalty_Charging>
0

> <r_epik_Ionization_Penalty_Neutral>
1.26564e-07

> <r_epik_State_Penalty>
-0

> <r_epik_Charging_Adjusted_Penalty>
0

> <i_epik_Tot_Q>
0

> <i_epik_Tot_abs_Q>
0

> <r_epik_Metal_State_Penalty>
-0

> <b_epik_Metal_Only>
0

> <s_lp_Force_Field>
OPLS_2005

> <r_lp_Energy>
21.601

> <b_lp_Chiralities_Consistent>
1

> <s_lp_Variant>
AV-unprocessed.smi:1189-1

> <Gold.Version>
5.8.1

> <Gold.Id.Protein>
6NUR|6NUR_protein|mol2

> <Gold.PLP.Fitness>
45.5343

> <Gold.PLP.PLP>
-43.6905

> <Gold.PLP.part.hbond>
-1.8766

> <Gold.PLP.part.metal>
0.0000

> <Gold.PLP.part.buried>
-3.8163

> <Gold.PLP.part.nonpolar>
-37.4013

> <Gold.PLP.part.repulsive>
0.3514

> <Gold.PLP.ligand.clash>
0.0000

> <Gold.PLP.ligand.torsion>
1.1233

> <Gold.PLP.Chemscore.Hbond>
1.3583

> <Gold.PLP.Chemscore.CHOScore>
0.0000

> <Gold.PLP.Chemscore.Metal>
0.0000

> <Gold.Chemscore.Hbonds>
donor molecule, donor type, donor heavy atom, donor atom, acceptor molecule, acceptor atom, score
      P1  H  7997  8009       L1     1  0.50

> <Gold.PLP.Chemscore.Internal.Correction>
0.0156

> <Gold.Rescore>
     Score         DG    S(hbond)    S(metal)    S(lipo)     H(rot)  DE(clash)    DE(int)     intcor
     12.20     -13.48       0.98        0.00      81.70       1.89       0.02       1.26       ----

> <Gold.Chemscore.Fitness>
12.2010

> <Gold.Chemscore.DG>
-13.4753

> <Gold.Chemscore.ZeroCoef>
-5.4800

> <Gold.Chemscore.Hbond>
0.9824

> <Gold.Chemscore.Metal>
0.0000

> <Gold.Chemscore.Lipo>
81.7045

> <Gold.Chemscore.Internal_Hbond>
0.0000

> <Gold.Chemscore.DEClash>
0.0181

> <Gold.Chemscore.DEInternal>
1.2562

> <Gold.Chemscore.Rot>
1.8928

> <Gold.Chemscore.Internal.Correction>
   9.000000E+99

> <Gold.Chemscore.Hbonds>
donor molecule, donor type, donor heavy atom, donor atom, acceptor molecule, acceptor atom, score
      P1  H  7997  8009       L1     1  0.50

> <Gold.Chemscore.Hbond.Weighted>
-3.2813

> <Gold.Chemscore.Metal.Weighted>
-0.0000

> <Gold.Chemscore.Lipo.Weighted>
-9.5594

> <Gold.Chemscore.Internal_Hbond.Weighted>
0.0000

> <Gold.Chemscore.DEClash.Weighted>
0.0181

> <Gold.Chemscore.DEInternal.Weighted>
1.2562

> <Gold.Chemscore.Rot.Weighted>
4.8455

> <Gold.Chemscore.Internal.Correction.Weighted>
   9.000000E+99

> <Gold.Protein.RotatedTorsions>
[ 6907 6896 6895 6894 ] final -137.70 input  -60.11 | X-H torsion
[ 7974 7965 7964 7962 ] final  -78.78 input  175.53 | X-H torsion
[ 8008 7997 7996 7995 ] final -165.93 input   59.86 | X-H torsion
[ 10167 10162 10161 10158 ] final   -0.39 input  -65.29 | X-H torsion
[ 10718 10713 10712 10709 ] final  -58.26 input   66.30 | X-H torsion
[ 10763 10752 10751 10750 ] final  -56.12 input  -60.55 | X-H torsion
[ 11005 11000 10999 10996 ] final  -33.18 input  -57.11 | X-H torsion

> <Gold.Protein.ActiveResidues>
 VAL166  LYS551  ARG553  GLY616  TRP617  ASP618  TYR619  PRO620  LYS621  CYS622 
 ASP623  PHE694  ASN695  SER759  ASP760  ASP761  ALA762  ILE779  LEU786  VAL792 
 PHE793  MET794  SER795  GLU796  ALA797  LYS798  CYS799  TRP800  GLU811  SER814 

> <Gold.Protein.RotatedAtoms>
  151.0258  133.5835  159.2665 H   0  0  0  0  0  0  0  0  0  0  0  0  # atno 6907 bound_to 6896
  151.2935  135.0748  159.9222 H   0  0  0  0  0  0  0  0  0  0  0  0  # atno 6908 bound_to 6896
  152.5333  133.9952  159.7923 H   0  0  0  0  0  0  0  0  0  0  0  0  # atno 6909 bound_to 6896
  145.5819  140.9447  143.1339 H   0  0  0  0  0  0  0  0  0  0  0  0  # atno 7974 bound_to 7965
  155.8567  140.0971  157.1640 H   0  0  0  0  0  0  0  0  0  0  0  0  # atno 8008 bound_to 7997
  154.3988  140.1373  156.3973 H   0  0  0  0  0  0  0  0  0  0  0  0  # atno 8009 bound_to 7997
  155.7901  140.3456  155.5347 H   0  0  0  0  0  0  0  0  0  0  0  0  # atno 8010 bound_to 7997
  140.6765  143.6899  150.8036 H   0  0  0  0  0  0  0  0  0  0  0  0  # atno 10167 bound_to 10162
  156.1148  130.4171  150.0553 H   0  0  0  0  0  0  0  0  0  0  0  0  # atno 10718 bound_to 10713
  154.2016  135.6410  153.5088 H   0  0  0  0  0  0  0  0  0  0  0  0  # atno 10763 bound_to 10752
  153.0011  135.5452  154.6310 H   0  0  0  0  0  0  0  0  0  0  0  0  # atno 10764 bound_to 10752
  154.5724  135.2918  155.0787 H   0  0  0  0  0  0  0  0  0  0  0  0  # atno 10765 bound_to 10752
  140.9614  133.7162  156.1375 H   0  0  0  0  0  0  0  0  0  0  0  0  # atno 11005 bound_to 11000
  144.7390  139.7503  143.7318 LP  0  0  0  0  0  0  0  0  0  0  0  0  # atno 17320 bound_to 7965
  146.1710  139.4861  142.9927 LP  0  0  0  0  0  0  0  0  0  0  0  0  # atno 17321 bound_to 7965
  140.0593  143.5170  152.2635 LP  0  0  0  0  0  0  0  0  0  0  0  0  # atno 17342 bound_to 10162
  139.6061  144.7596  151.3058 LP  0  0  0  0  0  0  0  0  0  0  0  0  # atno 17343 bound_to 10162
  156.8507  130.9458  151.3625 LP  0  0  0  0  0  0  0  0  0  0  0  0  # atno 17370 bound_to 10713
  157.6331  130.8745  149.9310 LP  0  0  0  0  0  0  0  0  0  0  0  0  # atno 17371 bound_to 10713
  140.7462  134.4095  157.5548 LP  0  0  0  0  0  0  0  0  0  0  0  0  # atno 17394 bound_to 11000
  139.8879  134.8870  156.2502 LP  0  0  0  0  0  0  0  0  0  0  0  0  # atno 17395 bound_to 11000

$$$$
