#       Name:                AV-unprocessed.smi:2858
#       Creating user name   scv26
#       Creation time:       Fri Mar 27 15:45:50 2020


#       File generated by GOLD software.
#

@<TRIPOS>MOLECULE
AV-unprocessed.smi:2858
    45    46     1
SMALL
NO_CHARGES


@<TRIPOS>ATOM
      1 ****        -1.5669   6.3236  -2.0752 O.2            1 S1                 0.0000
      2 ****        -1.7158   5.1039  -2.0915 C.2            1 S1                 0.0000
      3 ****        -1.5418   4.2941  -0.7948 C.3            1 S1                 0.0000
      4 ****        -1.4273   2.8258  -0.9729 N.3            1 S1                 0.0000
      5 ****        -1.5084   2.1644   0.3325 C.3            1 S1                 0.0000
      6 ****        -1.0126   0.7046   0.3090 C.3            1 S1                 0.0000
      7 ****         0.4798   0.5750  -0.0452 C.3            1 S1                 0.0000
      8 ****         0.9174  -0.8161  -0.0248 N.am           1 S1                 0.0000
      9 ****         1.2881  -1.4910   1.0732 C.2            1 S1                 0.0000
     10 ****         1.2909  -1.0000   2.2025 O.2            1 S1                 0.0000
     11 ****         1.6457  -2.7521   0.7720 N.am           1 S1                 0.0000
     12 ****         2.1135  -3.7664   1.6500 C.ar           1 S1                 0.0000
     13 ****         2.4134  -5.0016   1.0318 C.ar           1 S1                 0.0000
     14 ****         2.8868  -6.0718   1.8153 C.ar           1 S1                 0.0000
     15 ****         3.0494  -5.8792   3.1987 C.ar           1 S1                 0.0000
     16 ****         2.7276  -4.6188   3.7348 C.ar           1 S1                 0.0000
     17 ****         2.2730  -3.5920   2.9858 N.ar           1 S1                 0.0000
     18 ****        -2.4333   2.3436  -1.9218 C.3            1 S1                 0.0000
     19 ****        -2.1876   2.9962  -3.2948 C.3            1 S1                 0.0000
     20 ****        -2.0576   4.4461  -3.2093 N.am           1 S1                 0.0000
     21 ****        -0.6611   4.6631  -0.2672 H              1 S1                 0.0000
     22 ****        -2.4042   4.5189  -0.1647 H              1 S1                 0.0000
     23 ****        -0.8974   2.7101   1.0535 H              1 S1                 0.0000
     24 ****        -2.5327   2.2077   0.7067 H              1 S1                 0.0000
     25 ****        -1.1743   0.2820   1.3013 H              1 S1                 0.0000
     26 ****        -1.6126   0.0933  -0.3636 H              1 S1                 0.0000
     27 ****         0.6626   0.9660  -1.0461 H              1 S1                 0.0000
     28 ****         1.0890   1.1717   0.6358 H              1 S1                 0.0000
     29 ****         0.9443  -1.2969  -0.9119 H              1 S1                 0.0000
     30 ****         1.5836  -3.0154  -0.2001 H              1 S1                 0.0000
     31 ****         2.2839  -5.1323  -0.0328 H              1 S1                 0.0000
     32 ****         3.1213  -7.0234   1.3616 H              1 S1                 0.0000
     33 ****         3.4109  -6.6757   3.8320 H              1 S1                 0.0000
     34 ****         2.8376  -4.4290   4.7922 H              1 S1                 0.0000
     35 ****        -2.3841   1.2624  -2.0399 H              1 S1                 0.0000
     36 ****        -3.4352   2.5801  -1.5591 H              1 S1                 0.0000
     37 ****        -1.2729   2.5994  -3.7371 H              1 S1                 0.0000
     38 ****        -3.0000   2.7507  -3.9790 H              1 S1                 0.0000
     39 ****        -2.1941   4.9773  -4.0572 H              1 S1                 0.0000
     40 ****        -1.7009   6.8549  -2.9117 LP             1 S1                 0.0000
     41 ****        -1.3116   6.7849  -1.2254 LP             1 S1                 0.0000
     42 ****        -0.5368   2.5985  -1.3672 LP             1 S1                 0.0000
     43 ****         1.0065  -0.0505   2.3356 LP             1 S1                 0.0000
     44 ****         1.5776  -1.5507   2.9864 LP             1 S1                 0.0000
     45 ****         2.0564  -2.7130   3.4106 LP             1 S1                 0.0000
@<TRIPOS>BOND
    1    1    2 2     
    2    2   20 am    
    3    2    3 1     
    4    3    4 1     
    5    3   21 1     
    6    3   22 1     
    7    4    5 1     
    8    4   18 1     
    9    5    6 1     
   10    5   23 1     
   11    5   24 1     
   12    6    7 1     
   13    6   25 1     
   14    6   26 1     
   15    7    8 1     
   16    7   27 1     
   17    7   28 1     
   18    8    9 am    
   19    8   29 1     
   20    9   10 2     
   21    9   11 am    
   22   11   12 1     
   23   11   30 1     
   24   12   17 ar    
   25   12   13 ar    
   26   13   14 ar    
   27   13   31 1     
   28   14   15 ar    
   29   14   32 1     
   30   15   16 ar    
   31   15   33 1     
   32   16   17 ar    
   33   16   34 1     
   34   18   19 1     
   35   18   35 1     
   36   18   36 1     
   37   19   20 1     
   38   19   37 1     
   39   19   38 1     
   40   20   39 1     
   41    1   40 1     
   42    1   41 1     
   43    4   42 1     
   44   10   43 1     
   45   10   44 1     
   46   17   45 1     
@<TRIPOS>SUBSTRUCTURE
      1 S1             1
@<TRIPOS>SET
LONE_PAIRS      STATIC     ATOMS    <user>   **** ""
6 40 41 42 43 44 45
DONOR_HYDROGENS      STATIC     ATOMS    <user>   **** ""
3 29 30 39
ATOM$BLUE        STATIC     ATOMS    COLORGROUP SYSTEM
6 40 41 42 43 44 45
ATOM$RED        STATIC     ATOMS    COLORGROUP SYSTEM
3 29 30 39
