AV-unprocessed.smi:113|AV-procd|sdf|1097|dock7
  -GOLD-   2262018203D 1   1.00000     0.00000
 Structure written by MMmdl.
 52 55  0  0  0  0  0  0  0  0  1 V2000
  151.0018  145.5366  159.7905 C   0  0  0  0  0  0  0  0  0  0  0  0
  151.7657  144.2676  160.1064 C   0  0  0  0  0  0  0  0  0  0  0  0
  151.8668  143.2336  159.1587 C   0  0  0  0  0  0  0  0  0  0  0  0
  152.5871  142.0642  159.4934 C   0  0  0  0  0  0  0  0  0  0  0  0
  152.7305  140.9086  158.4966 C   0  0  0  0  0  0  0  0  0  0  0  0
  151.4990  140.3209  157.9880 N   0  0  0  0  0  0  0  0  0  0  0  0
  150.9777  139.1919  158.6657 C   0  0  0  0  0  0  0  0  0  0  0  0
  151.5455  138.7096  159.6481 O   0  0  0  0  0  0  0  0  0  0  0  0
  149.7204  138.6684  158.1266 C   0  0  0  0  0  0  0  0  0  0  0  0
  149.0979  137.4592  158.8069 C   0  0  0  0  0  0  0  0  0  0  0  0
  149.1455  139.2685  157.0565 C   0  0  0  0  0  0  0  0  0  0  0  0
  149.6791  140.3683  156.4084 N   0  0  0  0  0  0  0  0  0  0  0  0
  148.9209  141.0023  155.2632 C   0  0  2  0  0  0  0  0  0  0  0  0
  147.6924  141.8153  155.7085 C   0  0  0  0  0  0  0  0  0  0  0  0
  146.5828  141.3075  154.7929 C   0  0  2  0  0  0  0  0  0  0  0  0
  145.6398  140.5538  155.5314 O   0  0  0  0  0  0  0  0  0  0  0  0
  147.3252  140.4686  153.7363 C   0  0  2  0  0  0  0  0  0  0  0  0
  146.5519  139.3067  153.0875 C   0  0  0  0  0  0  0  0  0  0  0  0
  147.3958  138.5755  152.2228 O   0  0  0  0  0  0  0  0  0  0  0  0
  148.4747  139.9916  154.4171 O   0  0  0  0  0  0  0  0  0  0  0  0
  150.8753  140.9478  156.8860 C   0  0  0  0  0  0  0  0  0  0  0  0
  151.3399  141.9680  156.3734 O   0  0  0  0  0  0  0  0  0  0  0  0
  153.1788  141.9940  160.7840 C   0  0  0  0  0  0  0  0  0  0  0  0
  153.9200  140.8604  161.1976 C   0  0  0  0  0  0  0  0  0  0  0  0
  154.4962  140.8101  162.4795 C   0  0  0  0  0  0  0  0  0  0  0  0
  154.3384  141.8919  163.3614 C   0  0  0  0  0  0  0  0  0  0  0  0
  153.6041  143.0216  162.9583 C   0  0  0  0  0  0  0  0  0  0  0  0
  153.0174  143.0945  161.6767 C   0  0  0  0  0  0  0  0  0  0  0  0
  152.3221  144.2005  161.3314 N   0  0  0  0  0  0  0  0  0  0  0  0
  150.8684  145.6572  158.7150 H   0  0  0  0  0  0  0  0  0  0  0  0
  151.5345  146.4120  160.1639 H   0  0  0  0  0  0  0  0  0  0  0  0
  150.0167  145.5084  160.2565 H   0  0  0  0  0  0  0  0  0  0  0  0
  151.3954  143.3510  158.1947 H   0  0  0  0  0  0  0  0  0  0  0  0
  153.3197  141.2276  157.6355 H   0  0  0  0  0  0  0  0  0  0  0  0
  153.3148  140.0992  158.9372 H   0  0  0  0  0  0  0  0  0  0  0  0
  148.1782  137.1438  158.3133 H   0  0  0  0  0  0  0  0  0  0  0  0
  148.8575  137.6888  159.8456 H   0  0  0  0  0  0  0  0  0  0  0  0
  149.7891  136.6156  158.7934 H   0  0  0  0  0  0  0  0  0  0  0  0
  148.2148  138.8601  156.6891 H   0  0  0  0  0  0  0  0  0  0  0  0
  149.6378  141.6206  154.7216 H   0  0  0  0  0  0  0  0  0  0  0  0
  147.4697  141.6817  156.7679 H   0  0  0  0  0  0  0  0  0  0  0  0
  147.8967  142.8729  155.5402 H   0  0  0  0  0  0  0  0  0  0  0  0
  146.0494  142.1342  154.3225 H   0  0  0  0  0  0  0  0  0  0  0  0
  145.1390  140.0223  154.9319 H   0  0  0  0  0  0  0  0  0  0  0  0
  147.6852  141.1370  152.9516 H   0  0  0  0  0  0  0  0  0  0  0  0
  146.1913  138.6278  153.8607 H   0  0  0  0  0  0  0  0  0  0  0  0
  145.6744  139.6577  152.5443 H   0  0  0  0  0  0  0  0  0  0  0  0
  148.0136  139.1709  151.8272 H   0  0  0  0  0  0  0  0  0  0  0  0
  154.0616  140.0128  160.5448 H   0  0  0  0  0  0  0  0  0  0  0  0
  155.0596  139.9407  162.7852 H   0  0  0  0  0  0  0  0  0  0  0  0
  154.7804  141.8564  164.3464 H   0  0  0  0  0  0  0  0  0  0  0  0
  153.4898  143.8475  163.6453 H   0  0  0  0  0  0  0  0  0  0  0  0
  1  2  1  0  0  0  0
  1 30  1  0  0  0  0
  1 31  1  0  0  0  0
  1 32  1  0  0  0  0
  2 29  1  0  0  0  0
  2  3  2  0  0  0  0
  3  4  1  0  0  0  0
  3 33  1  0  0  0  0
  4  5  1  0  0  0  0
  4 23  2  0  0  0  0
  5  6  1  0  0  0  0
  5 34  1  0  0  0  0
  5 35  1  0  0  0  0
  6 21  1  0  0  0  0
  6  7  1  0  0  0  0
  7  8  2  0  0  0  0
  7  9  1  0  0  0  0
  9 10  1  0  0  0  0
  9 11  2  0  0  0  0
 10 36  1  0  0  0  0
 10 37  1  0  0  0  0
 10 38  1  0  0  0  0
 11 12  1  0  0  0  0
 11 39  1  0  0  0  0
 12 13  1  0  0  0  0
 12 21  1  0  0  0  0
 13 20  1  0  0  0  0
 13 14  1  0  0  0  0
 13 40  1  0  0  0  0
 14 15  1  0  0  0  0
 14 41  1  0  0  0  0
 14 42  1  0  0  0  0
 15 16  1  0  0  0  0
 15 17  1  0  0  0  0
 15 43  1  0  0  0  0
 16 44  1  0  0  0  0
 17 18  1  0  0  0  0
 17 20  1  0  0  0  0
 17 45  1  0  0  0  0
 18 19  1  0  0  0  0
 18 46  1  0  0  0  0
 18 47  1  0  0  0  0
 19 48  1  0  0  0  0
 21 22  2  0  0  0  0
 23 28  1  0  0  0  0
 23 24  1  0  0  0  0
 24 25  2  0  0  0  0
 24 49  1  0  0  0  0
 25 26  1  0  0  0  0
 25 50  1  0  0  0  0
 26 27  2  0  0  0  0
 26 51  1  0  0  0  0
 27 28  1  0  0  0  0
 27 52  1  0  0  0  0
 28 29  2  0  0  0  0
M  END
> <s_m_source_file>
AV-unprocessed.smi

> <i_m_source_file_index>
113

> <i_lp_mmshare_version>
43012

> <i_f3d_flags>
0

> <s_epik_input>
W2NIXTFbY0hdW2NIXVtjSF1jKGMxMiluYyhbQ0gzXSlbY0hdYzJbQ0gyXW4zYyg9TyljKFtDSDNdKVtjSF1uKGMzPU8pW0NAQEhdNFtDSDJdW0NAQEhdKFtPSF0pW0NASF0oTzQpW0NIMl1bT0hd

> <s_epik_cmdline>
J2VwaWtfcHl0aG9uJywgJy1waCcsICc3LjAnLCAnLXRuJywgJzgnLCAnLW1hJywgJzIwMCcsICctbWV0YWxfYmluZGluZycsICctaW1hZScsICc8aW5maWxlLm1hZT4nLCAnLW9tYWUnLCAnPG91dGZpbGUubWFlPic=

> <r_lp_tautomer_probability>
1

> <r_epik_Ionization_Penalty>
0.214728

> <r_epik_Ionization_Penalty_Charging>
3.04883e-08

> <r_epik_Ionization_Penalty_Neutral>
0.214728

> <r_epik_State_Penalty>
0.204913

> <r_epik_Charging_Adjusted_Penalty>
0.204913

> <i_epik_Tot_Q>
0

> <i_epik_Tot_abs_Q>
0

> <r_epik_Metal_State_Penalty>
0.000244761

> <b_epik_Metal_Only>
0

> <s_epik_Chemistry_Notes>
This compound contains an acetal/aminal-like group ( X-CH(R)-Y where X, Y are N, S, or O) that may be acid/base labile, releasing an aldehyde.

> <s_lp_Force_Field>
OPLS_2005

> <r_lp_Energy>
37.3201

> <b_lp_Chiralities_Consistent>
1

> <s_lp_Variant>
AV-unprocessed.smi:113-7

> <Gold.Version>
5.8.1

> <Gold.Id.Protein>
6NUR|6NUR_protein|mol2

> <Gold.PLP.Fitness>
52.9662

> <Gold.PLP.PLP>
-51.5147

> <Gold.PLP.part.hbond>
-2.2546

> <Gold.PLP.part.metal>
0.0000

> <Gold.PLP.part.buried>
-3.9180

> <Gold.PLP.part.nonpolar>
-44.9895

> <Gold.PLP.part.repulsive>
0.3641

> <Gold.PLP.ligand.clash>
0.0000

> <Gold.PLP.ligand.torsion>
0.7905

> <Gold.PLP.Chemscore.Hbond>
1.0000

> <Gold.PLP.Chemscore.CHOScore>
0.0000

> <Gold.PLP.Chemscore.Metal>
0.0000

> <Gold.Chemscore.Hbonds>
donor molecule, donor type, donor heavy atom, donor atom, acceptor molecule, acceptor atom, score
      L1  H    19    48       P1  7957  1.00

> <Gold.PLP.Chemscore.Internal.Correction>
0.0325

> <Gold.Rescore>
     Score         DG    S(hbond)    S(metal)    S(lipo)     H(rot)  DE(clash)    DE(int)     intcor
     15.76     -17.65       0.98        0.00     140.59       2.95       0.86       1.02       ----

> <Gold.Chemscore.Fitness>
15.7650

> <Gold.Chemscore.DG>
-17.6496

> <Gold.Chemscore.ZeroCoef>
-5.4800

> <Gold.Chemscore.Hbond>
0.9774

> <Gold.Chemscore.Metal>
0.0000

> <Gold.Chemscore.Lipo>
140.5907

> <Gold.Chemscore.Internal_Hbond>
0.0000

> <Gold.Chemscore.DEClash>
0.8633

> <Gold.Chemscore.DEInternal>
1.0214

> <Gold.Chemscore.Rot>
2.9469

> <Gold.Chemscore.Internal.Correction>
   9.000000E+99

> <Gold.Chemscore.Hbonds>
donor molecule, donor type, donor heavy atom, donor atom, acceptor molecule, acceptor atom, score
      L1  H    19    48       P1  7957  0.98

> <Gold.Chemscore.Hbond.Weighted>
-3.2644

> <Gold.Chemscore.Metal.Weighted>
-0.0000

> <Gold.Chemscore.Lipo.Weighted>
-16.4491

> <Gold.Chemscore.Internal_Hbond.Weighted>
0.0000

> <Gold.Chemscore.DEClash.Weighted>
0.8633

> <Gold.Chemscore.DEInternal.Weighted>
1.0214

> <Gold.Chemscore.Rot.Weighted>
7.5439

> <Gold.Chemscore.Internal.Correction.Weighted>
   9.000000E+99

> <Gold.Protein.RotatedTorsions>
[ 6907 6896 6895 6894 ] final -118.49 input  -60.11 | X-H torsion
[ 7974 7965 7964 7962 ] final  165.50 input  175.53 | X-H torsion
[ 8008 7997 7996 7995 ] final  -50.13 input   59.86 | X-H torsion
[ 10167 10162 10161 10158 ] final  138.15 input  -65.29 | X-H torsion
[ 10718 10713 10712 10709 ] final   97.09 input   66.30 | X-H torsion
[ 10763 10752 10751 10750 ] final -173.57 input  -60.55 | X-H torsion
[ 11005 11000 10999 10996 ] final  -19.43 input  -57.11 | X-H torsion

> <Gold.Protein.ActiveResidues>
 VAL166  LYS551  ARG553  GLY616  TRP617  ASP618  TYR619  PRO620  LYS621  CYS622 
 ASP623  PHE694  ASN695  SER759  ASP760  ASP761  ALA762  ILE779  LEU786  VAL792 
 PHE793  MET794  SER795  GLU796  ALA797  LYS798  CYS799  TRP800  GLU811  SER814 

> <Gold.Protein.RotatedAtoms>
  150.8224  133.8229  159.3132 H   0  0  0  0  0  0  0  0  0  0  0  0  # atno 6907 bound_to 6896
  151.5983  135.1047  160.0064 H   0  0  0  0  0  0  0  0  0  0  0  0  # atno 6908 bound_to 6896
  152.4312  133.7240  159.6606 H   0  0  0  0  0  0  0  0  0  0  0  0  # atno 6909 bound_to 6896
  144.7500  139.8479  143.6369 H   0  0  0  0  0  0  0  0  0  0  0  0  # atno 7974 bound_to 7965
  154.4056  140.1280  156.4616 H   0  0  0  0  0  0  0  0  0  0  0  0  # atno 8008 bound_to 7997
  155.7267  140.3492  155.5021 H   0  0  0  0  0  0  0  0  0  0  0  0  # atno 8009 bound_to 7997
  155.9164  140.1045  157.1230 H   0  0  0  0  0  0  0  0  0  0  0  0  # atno 8010 bound_to 7997
  139.5120  144.6370  151.5671 H   0  0  0  0  0  0  0  0  0  0  0  0  # atno 10167 bound_to 10162
  157.6918  131.0598  150.4590 H   0  0  0  0  0  0  0  0  0  0  0  0  # atno 10718 bound_to 10713
  154.6064  135.2860  155.0480 H   0  0  0  0  0  0  0  0  0  0  0  0  # atno 10763 bound_to 10752
  154.1726  135.6470  153.5017 H   0  0  0  0  0  0  0  0  0  0  0  0  # atno 10764 bound_to 10752
  153.0177  135.5404  154.6801 H   0  0  0  0  0  0  0  0  0  0  0  0  # atno 10765 bound_to 10752
  140.8366  133.7957  155.9815 H   0  0  0  0  0  0  0  0  0  0  0  0  # atno 11005 bound_to 11000
  146.1437  139.4500  143.0093 LP  0  0  0  0  0  0  0  0  0  0  0  0  # atno 17320 bound_to 7965
  145.6979  141.0145  143.1520 LP  0  0  0  0  0  0  0  0  0  0  0  0  # atno 17321 bound_to 7965
  140.6122  143.9414  150.6462 LP  0  0  0  0  0  0  0  0  0  0  0  0  # atno 17342 bound_to 10162
  140.2661  143.3489  152.1280 LP  0  0  0  0  0  0  0  0  0  0  0  0  # atno 17343 bound_to 10162
  156.4936  130.4101  149.6392 LP  0  0  0  0  0  0  0  0  0  0  0  0  # atno 17370 bound_to 10713
  156.3394  130.7374  151.2316 LP  0  0  0  0  0  0  0  0  0  0  0  0  # atno 17371 bound_to 10713
  140.8941  134.2459  157.5078 LP  0  0  0  0  0  0  0  0  0  0  0  0  # atno 17394 bound_to 11000
  139.8704  134.9675  156.4600 LP  0  0  0  0  0  0  0  0  0  0  0  0  # atno 17395 bound_to 11000

$$$$
