AV-unprocessed.smi:1337|AV-procd|sdf|5498|dock4
  -GOLD-   22720 5 83D 1   1.00000     0.00000
 Structure written by MMmdl.
 38 39  0  0  0  0  0  0  0  0  1 V2000
  150.7741  139.8446  154.5871 O   0  0  0  0  0  0  0  0  0  0  0  0
  149.8079  140.5578  154.8618 C   0  0  0  0  0  0  0  0  0  0  0  0
  148.5127  140.4755  154.0416 C   0  0  0  0  0  0  0  0  0  0  0  0
  147.4811  141.4245  154.4913 N   0  0  0  0  0  0  0  0  0  0  0  0
  147.1746  142.5014  153.6425 C   0  0  0  0  0  0  0  0  0  0  0  0
  146.2405  143.4013  153.9823 C   0  0  0  0  0  0  0  0  0  0  0  0
  145.5719  143.1925  155.2731 C   0  0  0  0  0  0  0  0  0  0  0  0
  145.8469  142.2104  156.0478 N   0  0  0  0  0  0  0  0  0  0  0  0
  146.8256  141.2649  155.6870 C   0  0  0  0  0  0  0  0  0  0  0  0
  147.0904  140.3148  156.4240 O   0  0  0  0  0  0  0  0  0  0  0  0
  149.8179  141.4548  155.8594 N   0  0  0  0  0  0  0  0  0  0  0  0
  150.9420  141.6945  156.7565 C   0  0  0  0  0  0  0  0  0  0  0  0
  151.1964  143.1991  156.9526 C   0  0  0  0  0  0  0  0  0  0  0  0
  151.5884  143.5484  158.3788 C   0  0  0  0  0  0  0  0  0  0  0  0
  152.2700  142.6883  159.1606 C   0  0  0  0  0  0  0  0  0  0  0  0
  152.6736  142.9751  160.5962 C   0  0  0  0  0  0  0  0  0  0  0  0
  151.9323  144.1888  161.1809 C   0  0  0  0  0  0  0  0  0  0  0  0
  151.8811  145.3436  160.1728 C   0  0  0  0  0  0  0  0  0  0  0  0
  151.1640  144.9259  158.8763 C   0  0  0  0  0  0  0  0  0  0  0  0
  148.7363  140.6397  152.9857 H   0  0  0  0  0  0  0  0  0  0  0  0
  148.1399  139.4520  154.0997 H   0  0  0  0  0  0  0  0  0  0  0  0
  147.7313  142.5406  152.7176 H   0  0  0  0  0  0  0  0  0  0  0  0
  145.9547  144.2483  153.3763 H   0  0  0  0  0  0  0  0  0  0  0  0
  144.8157  143.9372  155.5337 H   0  0  0  0  0  0  0  0  0  0  0  0
  148.9852  142.0052  156.0120 H   0  0  0  0  0  0  0  0  0  0  0  0
  150.7126  141.2224  157.7119 H   0  0  0  0  0  0  0  0  0  0  0  0
  151.8380  141.2021  156.3745 H   0  0  0  0  0  0  0  0  0  0  0  0
  151.9864  143.5291  156.2764 H   0  0  0  0  0  0  0  0  0  0  0  0
  150.3061  143.7686  156.6837 H   0  0  0  0  0  0  0  0  0  0  0  0
  152.5703  141.7276  158.7683 H   0  0  0  0  0  0  0  0  0  0  0  0
  152.4807  142.0930  161.2075 H   0  0  0  0  0  0  0  0  0  0  0  0
  153.7503  143.1456  160.6157 H   0  0  0  0  0  0  0  0  0  0  0  0
  150.9142  143.9006  161.4466 H   0  0  0  0  0  0  0  0  0  0  0  0
  152.4135  144.5104  162.1049 H   0  0  0  0  0  0  0  0  0  0  0  0
  151.3819  146.2080  160.6117 H   0  0  0  0  0  0  0  0  0  0  0  0
  152.8986  145.6603  159.9401 H   0  0  0  0  0  0  0  0  0  0  0  0
  151.3521  145.6691  158.1008 H   0  0  0  0  0  0  0  0  0  0  0  0
  150.0868  144.9099  159.0435 H   0  0  0  0  0  0  0  0  0  0  0  0
  1  2  2  0  0  0  0
  2  3  1  0  0  0  0
  2 11  1  0  0  0  0
  3  4  1  0  0  0  0
  3 20  1  0  0  0  0
  3 21  1  0  0  0  0
  4  9  1  0  0  0  0
  4  5  1  0  0  0  0
  5  6  2  0  0  0  0
  5 22  1  0  0  0  0
  6  7  1  0  0  0  0
  6 23  1  0  0  0  0
  7  8  2  0  0  0  0
  7 24  1  0  0  0  0
  8  9  1  0  0  0  0
  9 10  2  0  0  0  0
 11 12  1  0  0  0  0
 11 25  1  0  0  0  0
 12 13  1  0  0  0  0
 12 26  1  0  0  0  0
 12 27  1  0  0  0  0
 13 14  1  0  0  0  0
 13 28  1  0  0  0  0
 13 29  1  0  0  0  0
 14 19  1  0  0  0  0
 14 15  2  0  0  0  0
 15 16  1  0  0  0  0
 15 30  1  0  0  0  0
 16 17  1  0  0  0  0
 16 31  1  0  0  0  0
 16 32  1  0  0  0  0
 17 18  1  0  0  0  0
 17 33  1  0  0  0  0
 17 34  1  0  0  0  0
 18 19  1  0  0  0  0
 18 35  1  0  0  0  0
 18 36  1  0  0  0  0
 19 37  1  0  0  0  0
 19 38  1  0  0  0  0
M  END
> <s_m_source_file>
AV-unprocessed.smi

> <i_m_source_file_index>
1337

> <i_lp_mmshare_version>
43012

> <i_f3d_flags>
0

> <s_epik_input>
Tz1jMW5bY0hdW2NIXVtjSF1uMVtDSDJdQyg9TylbTkhdW0NIMl1bQ0gyXUMyPVtDSF1bQ0gyXVtDSDJdW0NIMl1bQ0gyXTI=

> <s_epik_cmdline>
J2VwaWtfcHl0aG9uJywgJy1waCcsICc3LjAnLCAnLXRuJywgJzgnLCAnLW1hJywgJzIwMCcsICctbWV0YWxfYmluZGluZycsICctaW1hZScsICc8aW5maWxlLm1hZT4nLCAnLW9tYWUnLCAnPG91dGZpbGUubWFlPic=

> <r_lp_tautomer_probability>
1

> <r_epik_Ionization_Penalty>
7.10509e-06

> <r_epik_Ionization_Penalty_Charging>
1.70435e-08

> <r_epik_Ionization_Penalty_Neutral>
7.08805e-06

> <r_epik_State_Penalty>
-0

> <r_epik_Charging_Adjusted_Penalty>
1.70435e-08

> <i_epik_Tot_Q>
0

> <i_epik_Tot_abs_Q>
0

> <r_epik_Metal_State_Penalty>
-0

> <b_epik_Metal_Only>
0

> <s_lp_Force_Field>
OPLS_2005

> <r_lp_Energy>
9.56824

> <b_lp_Chiralities_Consistent>
1

> <s_lp_Variant>
AV-unprocessed.smi:1337-1

> <Gold.Version>
5.8.1

> <Gold.Id.Protein>
6NUR|6NUR_protein|mol2

> <Gold.PLP.Fitness>
45.7499

> <Gold.PLP.PLP>
-44.3589

> <Gold.PLP.part.hbond>
-1.0000

> <Gold.PLP.part.metal>
0.0000

> <Gold.PLP.part.buried>
-4.6696

> <Gold.PLP.part.nonpolar>
-38.9659

> <Gold.PLP.part.repulsive>
0.2744

> <Gold.PLP.ligand.clash>
0.0000

> <Gold.PLP.ligand.torsion>
0.8303

> <Gold.PLP.Chemscore.Hbond>
1.0000

> <Gold.PLP.Chemscore.CHOScore>
0.0000

> <Gold.PLP.Chemscore.Metal>
0.0000

> <Gold.Chemscore.Hbonds>
donor molecule, donor type, donor heavy atom, donor atom, acceptor molecule, acceptor atom, score
      P1  H  7989  7998       L1     1  1.00

> <Gold.PLP.Chemscore.Internal.Correction>
0.0515

> <Gold.Rescore>
     Score         DG    S(hbond)    S(metal)    S(lipo)     H(rot)  DE(clash)    DE(int)     intcor
     13.90     -15.74       0.60        0.00     111.84       1.89       0.34       1.50       ----

> <Gold.Chemscore.Fitness>
13.9031

> <Gold.Chemscore.DG>
-15.7375

> <Gold.Chemscore.ZeroCoef>
-5.4800

> <Gold.Chemscore.Hbond>
0.6034

> <Gold.Chemscore.Metal>
0.0000

> <Gold.Chemscore.Lipo>
111.8350

> <Gold.Chemscore.Internal_Hbond>
0.0000

> <Gold.Chemscore.DEClash>
0.3370

> <Gold.Chemscore.DEInternal>
1.4974

> <Gold.Chemscore.Rot>
1.8916

> <Gold.Chemscore.Internal.Correction>
   9.000000E+99

> <Gold.Chemscore.Hbonds>
donor molecule, donor type, donor heavy atom, donor atom, acceptor molecule, acceptor atom, score
      P1  H  7989  7998       L1     1  0.30

> <Gold.Chemscore.Hbond.Weighted>
-2.0153

> <Gold.Chemscore.Metal.Weighted>
-0.0000

> <Gold.Chemscore.Lipo.Weighted>
-13.0847

> <Gold.Chemscore.Internal_Hbond.Weighted>
0.0000

> <Gold.Chemscore.DEClash.Weighted>
0.3370

> <Gold.Chemscore.DEInternal.Weighted>
1.4974

> <Gold.Chemscore.Rot.Weighted>
4.8425

> <Gold.Chemscore.Internal.Correction.Weighted>
   9.000000E+99

> <Gold.Protein.RotatedTorsions>
[ 6907 6896 6895 6894 ] final -163.73 input  -60.11 | X-H torsion
[ 7974 7965 7964 7962 ] final -149.12 input  175.53 | X-H torsion
[ 8008 7997 7996 7995 ] final  -41.57 input   59.86 | X-H torsion
[ 10167 10162 10161 10158 ] final  -13.57 input  -65.29 | X-H torsion
[ 10718 10713 10712 10709 ] final  104.08 input   66.30 | X-H torsion
[ 10763 10752 10751 10750 ] final  -84.66 input  -60.55 | X-H torsion
[ 11005 11000 10999 10996 ] final  -92.50 input  -57.11 | X-H torsion

> <Gold.Protein.ActiveResidues>
 VAL166  LYS551  ARG553  GLY616  TRP617  ASP618  TYR619  PRO620  LYS621  CYS622 
 ASP623  PHE694  ASN695  SER759  ASP760  ASP761  ALA762  ILE779  LEU786  VAL792 
 PHE793  MET794  SER795  GLU796  ALA797  LYS798  CYS799  TRP800  GLU811  SER814 

> <Gold.Protein.RotatedAtoms>
  151.4006  133.3759  159.2731 H   0  0  0  0  0  0  0  0  0  0  0  0  # atno 6907 bound_to 6896
  150.9436  134.8845  159.7639 H   0  0  0  0  0  0  0  0  0  0  0  0  # atno 6908 bound_to 6896
  152.5082  134.3957  159.9451 H   0  0  0  0  0  0  0  0  0  0  0  0  # atno 6909 bound_to 6896
  144.7987  140.5106  143.5722 H   0  0  0  0  0  0  0  0  0  0  0  0  # atno 7974 bound_to 7965
  154.4003  140.1496  156.3212 H   0  0  0  0  0  0  0  0  0  0  0  0  # atno 8008 bound_to 7997
  155.8527  140.3457  155.5683 H   0  0  0  0  0  0  0  0  0  0  0  0  # atno 8009 bound_to 7997
  155.7966  140.0864  157.1970 H   0  0  0  0  0  0  0  0  0  0  0  0  # atno 8010 bound_to 7997
  140.7185  143.5412  150.9407 H   0  0  0  0  0  0  0  0  0  0  0  0  # atno 10167 bound_to 10162
  157.6752  131.0795  150.5652 H   0  0  0  0  0  0  0  0  0  0  0  0  # atno 10718 bound_to 10713
  154.6021  135.5512  153.7385 H   0  0  0  0  0  0  0  0  0  0  0  0  # atno 10763 bound_to 10752
  153.0159  135.6369  154.1699 H   0  0  0  0  0  0  0  0  0  0  0  0  # atno 10764 bound_to 10752
  154.1639  135.2896  155.3081 H   0  0  0  0  0  0  0  0  0  0  0  0  # atno 10765 bound_to 10752
  141.1520  133.7825  157.0028 H   0  0  0  0  0  0  0  0  0  0  0  0  # atno 11005 bound_to 11000
  145.5608  139.1479  143.3342 LP  0  0  0  0  0  0  0  0  0  0  0  0  # atno 17320 bound_to 7965
  146.2262  140.5744  142.8995 LP  0  0  0  0  0  0  0  0  0  0  0  0  # atno 17321 bound_to 7965
  139.9135  143.6692  152.3111 LP  0  0  0  0  0  0  0  0  0  0  0  0  # atno 17342 bound_to 10162
  139.7083  144.7624  151.1155 LP  0  0  0  0  0  0  0  0  0  0  0  0  # atno 17343 bound_to 10162
  156.5954  130.4340  149.5919 LP  0  0  0  0  0  0  0  0  0  0  0  0  # atno 17370 bound_to 10713
  156.2549  130.6929  151.1678 LP  0  0  0  0  0  0  0  0  0  0  0  0  # atno 17371 bound_to 10713
  140.0929  134.9582  157.1804 LP  0  0  0  0  0  0  0  0  0  0  0  0  # atno 17394 bound_to 11000
  140.3422  134.2691  155.7210 LP  0  0  0  0  0  0  0  0  0  0  0  0  # atno 17395 bound_to 11000

$$$$
