AV-unprocessed.smi:1406|AV-procd|sdf|5719|dock9
  -GOLD-   22720 5353D 1   1.00000     0.00000
 Structure written by MMmdl.
 41 43  0  0  0  0  0  0  0  0  2 V2000
  153.0812  138.5604  154.6997 C   0  0  0  0  0  0  0  0  0  0  0  0
  151.8282  138.4749  155.5946 C   0  0  2  0  0  0  0  0  0  0  0  0
  150.9964  139.7665  155.5712 C   0  0  0  0  0  0  0  0  0  0  0  0
  150.6575  140.2779  154.5034 O   0  0  0  0  0  0  0  0  0  0  0  0
  150.6789  140.2926  156.7644 N   0  0  0  0  0  0  0  0  0  0  0  0
  149.9391  141.5361  156.9509 C   0  0  1  0  0  0  0  0  0  0  0  0
  148.6034  141.3718  157.7018 C   0  0  0  0  0  0  0  0  0  0  0  0
  148.4751  142.6279  158.5860 C   0  0  0  0  0  0  0  0  0  0  0  0
  149.6497  143.4588  158.2576 N   0  3  1  0  0  0  0  0  0  0  0  0
  150.1115  144.4138  159.2883 C   0  0  0  0  0  0  0  0  0  0  0  0
  151.2869  145.2387  158.7255 C   0  0  0  0  0  0  0  0  0  0  0  0
  152.4087  144.3359  158.1711 C   0  0  0  0  0  0  0  0  0  0  0  0
  151.8512  143.3015  157.1738 C   0  0  0  0  0  0  0  0  0  0  0  0
  150.7016  142.5228  157.8334 C   0  0  2  0  0  0  0  0  0  0  0  0
  152.1552  138.1172  156.9691 N   0  0  0  0  0  0  0  0  0  0  0  0
  151.5770  137.2339  157.7861 C   0  0  0  0  0  0  0  0  0  0  0  0
  152.1035  137.1987  159.0019 N   0  0  0  0  0  0  0  0  0  0  0  0
  153.0652  138.1587  158.8616 C   0  0  0  0  0  0  0  0  0  0  0  0
  153.1315  138.7484  157.6684 N   0  0  0  0  0  0  0  0  0  0  0  0
  152.8105  138.7681  153.6639 H   0  0  0  0  0  0  0  0  0  0  0  0
  153.6301  137.6183  154.7103 H   0  0  0  0  0  0  0  0  0  0  0  0
  153.7668  139.3439  155.0246 H   0  0  0  0  0  0  0  0  0  0  0  0
  151.2033  137.6736  155.1961 H   0  0  0  0  0  0  0  0  0  0  0  0
  150.9941  139.8133  157.5955 H   0  0  0  0  0  0  0  0  0  0  0  0
  149.7515  141.9986  155.9795 H   0  0  0  0  0  0  0  0  0  0  0  0
  147.7698  141.2777  157.0047 H   0  0  0  0  0  0  0  0  0  0  0  0
  148.6076  140.4794  158.3294 H   0  0  0  0  0  0  0  0  0  0  0  0
  147.5517  143.1764  158.3975 H   0  0  0  0  0  0  0  0  0  0  0  0
  148.4940  142.3468  159.6401 H   0  0  0  0  0  0  0  0  0  0  0  0
  149.2900  145.0727  159.5716 H   0  0  0  0  0  0  0  0  0  0  0  0
  150.4177  143.8741  160.1857 H   0  0  0  0  0  0  0  0  0  0  0  0
  150.9211  145.8866  157.9278 H   0  0  0  0  0  0  0  0  0  0  0  0
  151.6844  145.8978  159.4979 H   0  0  0  0  0  0  0  0  0  0  0  0
  153.1771  144.9436  157.6924 H   0  0  0  0  0  0  0  0  0  0  0  0
  152.8961  143.8166  158.9974 H   0  0  0  0  0  0  0  0  0  0  0  0
  151.4970  143.8067  156.2742 H   0  0  0  0  0  0  0  0  0  0  0  0
  152.6414  142.6187  156.8601 H   0  0  0  0  0  0  0  0  0  0  0  0
  151.0768  141.9991  158.7160 H   0  0  0  0  0  0  0  0  0  0  0  0
  150.7496  136.6073  157.4872 H   0  0  0  0  0  0  0  0  0  0  0  0
  153.7317  138.4361  159.6650 H   0  0  0  0  0  0  0  0  0  0  0  0
  149.4004  143.9963  157.4396 H   0  0  0  0  0  0  0  0  0  0  0  0
  1  2  1  0  0  0  0
  1 20  1  0  0  0  0
  1 21  1  0  0  0  0
  1 22  1  0  0  0  0
  2  3  1  0  0  0  0
  2 15  1  0  0  0  0
  2 23  1  0  0  0  0
  3  4  2  0  0  0  0
  3  5  1  0  0  0  0
  5  6  1  0  0  0  0
  5 24  1  0  0  0  0
  6 14  1  0  0  0  0
  6  7  1  0  0  0  0
  6 25  1  0  0  0  0
  7  8  1  0  0  0  0
  7 26  1  0  0  0  0
  7 27  1  0  0  0  0
  8  9  1  0  0  0  0
  8 28  1  0  0  0  0
  8 29  1  0  0  0  0
  9 14  1  0  0  0  0
  9 10  1  0  0  0  0
  9 41  1  0  0  0  0
 10 11  1  0  0  0  0
 10 30  1  0  0  0  0
 10 31  1  0  0  0  0
 11 12  1  0  0  0  0
 11 32  1  0  0  0  0
 11 33  1  0  0  0  0
 12 13  1  0  0  0  0
 12 34  1  0  0  0  0
 12 35  1  0  0  0  0
 13 14  1  0  0  0  0
 13 36  1  0  0  0  0
 13 37  1  0  0  0  0
 14 38  1  0  0  0  0
 15 19  1  0  0  0  0
 15 16  1  0  0  0  0
 16 17  2  0  0  0  0
 16 39  1  0  0  0  0
 17 18  1  0  0  0  0
 18 19  2  0  0  0  0
 18 40  1  0  0  0  0
M  CHG  1   9   1
M  END
> <s_m_source_file>
AV-unprocessed.smi

> <i_m_source_file_index>
1406

> <i_lp_mmshare_version>
43012

> <i_f3d_flags>
0

> <s_epik_input>
bjFbY0hdbltjSF1uMVtDQEhdKFtDSDNdKUMoPU8pW05IXVtDQEhdKFtDSDJdW0NIMl0yKVtDQEBIXShOMjMpW0NIMl1bQ0gyXVtDSDJdW0NIMl0z

> <s_epik_cmdline>
J2VwaWtfcHl0aG9uJywgJy1waCcsICc3LjAnLCAnLXRuJywgJzgnLCAnLW1hJywgJzIwMCcsICctbWV0YWxfYmluZGluZycsICctaW1hZScsICc8aW5maWxlLm1hZT4nLCAnLW9tYWUnLCAnPG91dGZpbGUubWFlPic=

> <r_lp_tautomer_probability>
1

> <r_epik_Ionization_Penalty>
0.00197066

> <r_epik_Ionization_Penalty_Charging>
0.00196223

> <r_epik_Ionization_Penalty_Neutral>
8.43107e-06

> <r_epik_State_Penalty>
0.00133866

> <r_epik_Charging_Adjusted_Penalty>
0.00330089

> <i_epik_Tot_Q>
1

> <i_epik_Tot_abs_Q>
1

> <r_epik_Metal_State_Penalty>
-0

> <b_epik_Metal_Only>
0

> <s_lp_Force_Field>
OPLS_2005

> <r_lp_Energy>
39.7149

> <b_lp_Chiralities_Consistent>
1

> <s_lp_Variant>
AV-unprocessed.smi:1406-11

> <Gold.Version>
5.8.1

> <Gold.Id.Protein>
6NUR|6NUR_protein|mol2

> <Gold.PLP.Fitness>
44.0766

> <Gold.PLP.PLP>
-32.1407

> <Gold.PLP.part.hbond>
-3.6858

> <Gold.PLP.part.metal>
0.0000

> <Gold.PLP.part.buried>
-6.3237

> <Gold.PLP.part.nonpolar>
-23.4864

> <Gold.PLP.part.repulsive>
0.2072

> <Gold.PLP.ligand.clash>
0.0000

> <Gold.PLP.ligand.torsion>
0.5076

> <Gold.PLP.Chemscore.Hbond>
4.2838

> <Gold.PLP.Chemscore.CHOScore>
0.0000

> <Gold.PLP.Chemscore.Metal>
0.0000

> <Gold.Chemscore.Hbonds>
donor molecule, donor type, donor heavy atom, donor atom, acceptor molecule, acceptor atom, score
      L1  H     9    41       P1  8028  2.00
      P1  H  6896  6909       L1    17  0.31
      P1  H  7989  7998       L1     4  0.98
      P1  H  7997  8010       L1    19  1.00

> <Gold.PLP.Chemscore.Internal.Correction>
0.0999

> <Gold.Rescore>
     Score         DG    S(hbond)    S(metal)    S(lipo)     H(rot)  DE(clash)    DE(int)     intcor
     16.49     -18.59       2.61        0.00      78.89       1.89       1.46       0.65       ----

> <Gold.Chemscore.Fitness>
16.4863

> <Gold.Chemscore.DG>
-18.5929

> <Gold.Chemscore.ZeroCoef>
-5.4800

> <Gold.Chemscore.Hbond>
2.6085

> <Gold.Chemscore.Metal>
0.0000

> <Gold.Chemscore.Lipo>
78.8907

> <Gold.Chemscore.Internal_Hbond>
0.0000

> <Gold.Chemscore.DEClash>
1.4558

> <Gold.Chemscore.DEInternal>
0.6508

> <Gold.Chemscore.Rot>
1.8865

> <Gold.Chemscore.Internal.Correction>
   9.000000E+99

> <Gold.Chemscore.Hbonds>
donor molecule, donor type, donor heavy atom, donor atom, acceptor molecule, acceptor atom, score
      L1  H     9    41       P1  8028  0.25
      P1  H  6896  6909       L1    17  0.20
      P1  H  7989  7998       L1     4  0.90
      P1  H  7997  8010       L1    19  0.93

> <Gold.Chemscore.Hbond.Weighted>
-8.7122

> <Gold.Chemscore.Metal.Weighted>
-0.0000

> <Gold.Chemscore.Lipo.Weighted>
-9.2302

> <Gold.Chemscore.Internal_Hbond.Weighted>
0.0000

> <Gold.Chemscore.DEClash.Weighted>
1.4558

> <Gold.Chemscore.DEInternal.Weighted>
0.6508

> <Gold.Chemscore.Rot.Weighted>
4.8295

> <Gold.Chemscore.Internal.Correction.Weighted>
   9.000000E+99

> <Gold.Protein.RotatedTorsions>
[ 6907 6896 6895 6894 ] final  120.84 input  -60.11 | X-H torsion
[ 7974 7965 7964 7962 ] final  120.06 input  175.53 | X-H torsion
[ 8008 7997 7996 7995 ] final   44.90 input   59.86 | X-H torsion
[ 10167 10162 10161 10158 ] final   54.56 input  -65.29 | X-H torsion
[ 10718 10713 10712 10709 ] final    2.10 input   66.30 | X-H torsion
[ 10763 10752 10751 10750 ] final  109.73 input  -60.55 | X-H torsion
[ 11005 11000 10999 10996 ] final   41.55 input  -57.11 | X-H torsion

> <Gold.Protein.ActiveResidues>
 VAL166  LYS551  ARG553  GLY616  TRP617  ASP618  TYR619  PRO620  LYS621  CYS622 
 ASP623  PHE694  ASN695  SER759  ASP760  ASP761  ALA762  ILE779  LEU786  VAL792 
 PHE793  MET794  SER795  GLU796  ALA797  LYS798  CYS799  TRP800  GLU811  SER814 

> <Gold.Protein.RotatedAtoms>
  152.4367  133.7374  159.6621 H   0  0  0  0  0  0  0  0  0  0  0  0  # atno 6907 bound_to 6896
  150.8252  133.8173  159.3127 H   0  0  0  0  0  0  0  0  0  0  0  0  # atno 6908 bound_to 6896
  151.5843  135.1059  160.0076 H   0  0  0  0  0  0  0  0  0  0  0  0  # atno 6909 bound_to 6896
  145.1357  139.3299  143.4642 H   0  0  0  0  0  0  0  0  0  0  0  0  # atno 7974 bound_to 7965
  155.3270  140.3400  155.4240 H   0  0  0  0  0  0  0  0  0  0  0  0  # atno 8008 bound_to 7997
  156.1881  140.1687  156.8183 H   0  0  0  0  0  0  0  0  0  0  0  0  # atno 8009 bound_to 7997
  154.5409  140.0725  156.8492 H   0  0  0  0  0  0  0  0  0  0  0  0  # atno 8010 bound_to 7997
  140.2288  144.3709  150.6422 H   0  0  0  0  0  0  0  0  0  0  0  0  # atno 10167 bound_to 10162
  156.8580  130.5577  149.5665 H   0  0  0  0  0  0  0  0  0  0  0  0  # atno 10718 bound_to 10713
  153.4389  135.3771  155.2216 H   0  0  0  0  0  0  0  0  0  0  0  0  # atno 10763 bound_to 10752
  154.8753  135.3858  154.4177 H   0  0  0  0  0  0  0  0  0  0  0  0  # atno 10764 bound_to 10752
  153.4720  135.7087  153.6051 H   0  0  0  0  0  0  0  0  0  0  0  0  # atno 10765 bound_to 10752
  140.1824  134.4088  155.8193 H   0  0  0  0  0  0  0  0  0  0  0  0  # atno 11005 bound_to 11000
  146.3510  140.1374  142.8595 LP  0  0  0  0  0  0  0  0  0  0  0  0  # atno 17320 bound_to 7965
  145.0587  140.9071  143.4952 LP  0  0  0  0  0  0  0  0  0  0  0  0  # atno 17321 bound_to 7965
  140.6200  143.2175  151.6712 LP  0  0  0  0  0  0  0  0  0  0  0  0  # atno 17342 bound_to 10162
  139.5117  144.3499  152.0662 LP  0  0  0  0  0  0  0  0  0  0  0  0  # atno 17343 bound_to 10162
  156.0792  130.5806  150.9531 LP  0  0  0  0  0  0  0  0  0  0  0  0  # atno 17370 bound_to 10713
  157.6266  131.0925  150.8522 LP  0  0  0  0  0  0  0  0  0  0  0  0  # atno 17371 bound_to 10713
  141.2223  133.7007  156.7953 LP  0  0  0  0  0  0  0  0  0  0  0  0  # atno 17394 bound_to 11000
  140.2252  134.8727  157.3419 LP  0  0  0  0  0  0  0  0  0  0  0  0  # atno 17395 bound_to 11000

$$$$
