AV-unprocessed.smi:886|AV-procd|sdf|4050|dock3
  -GOLD-   22720 1533D 1   1.00000     0.00000
 Structure written by MMmdl.
 35 37  0  0  0  0  0  0  0  0  1 V2000
  154.9211  140.6265  162.1855 C   0  0  0  0  0  0  0  0  0  0  0  0
  154.0677  141.4585  161.3515 N   0  0  0  0  0  0  0  0  0  0  0  0
  153.4015  141.0141  160.2748 C   0  0  0  0  0  0  0  0  0  0  0  0
  153.4619  139.8505  159.8760 O   0  0  0  0  0  0  0  0  0  0  0  0
  152.5861  142.0536  159.5489 C   0  0  0  0  0  0  0  0  0  0  0  0
  152.6260  143.3990  159.9851 C   0  0  0  0  0  0  0  0  0  0  0  0
  151.8422  144.3659  159.3310 C   0  0  0  0  0  0  0  0  0  0  0  0
  151.0338  143.9513  158.2589 C   0  0  0  0  0  0  0  0  0  0  0  0
  150.9778  142.6746  157.8302 N   0  0  0  0  0  0  0  0  0  0  0  0
  151.7299  141.7351  158.4548 C   0  0  0  0  0  0  0  0  0  0  0  0
  151.6546  140.4218  157.9564 N   0  0  0  0  0  0  0  0  0  0  0  0
  150.6380  140.0473  156.9790 C   0  0  2  0  0  0  0  0  0  0  0  0
  150.8163  138.6193  156.4466 C   0  0  0  0  0  0  0  0  0  0  0  0
  150.9198  138.8539  154.9345 C   0  0  1  0  0  0  0  0  0  0  0  0
  149.5880  139.3116  154.3244 C   0  0  0  0  0  0  0  0  0  0  0  0
  149.4903  140.7498  154.8323 C   0  0  0  0  0  0  0  0  0  0  0  0
  150.7602  140.8710  155.6859 C   0  0  2  0  0  0  0  0  0  0  0  0
  151.6464  140.0696  154.9208 O   0  0  0  0  0  0  0  0  0  0  0  0
  155.3565  141.2249  162.9855 H   0  0  0  0  0  0  0  0  0  0  0  0
  155.7348  140.1957  161.6005 H   0  0  0  0  0  0  0  0  0  0  0  0
  154.3493  139.8152  162.6381 H   0  0  0  0  0  0  0  0  0  0  0  0
  153.9792  142.4319  161.6053 H   0  0  0  0  0  0  0  0  0  0  0  0
  153.2447  143.6953  160.8197 H   0  0  0  0  0  0  0  0  0  0  0  0
  151.8566  145.3984  159.6470 H   0  0  0  0  0  0  0  0  0  0  0  0
  150.4153  144.6625  157.7319 H   0  0  0  0  0  0  0  0  0  0  0  0
  152.0274  139.6822  158.5349 H   0  0  0  0  0  0  0  0  0  0  0  0
  149.6479  140.1928  157.4132 H   0  0  0  0  0  0  0  0  0  0  0  0
  151.7346  138.1618  156.8180 H   0  0  0  0  0  0  0  0  0  0  0  0
  149.9837  137.9670  156.7114 H   0  0  0  0  0  0  0  0  0  0  0  0
  151.3991  138.0384  154.3924 H   0  0  0  0  0  0  0  0  0  0  0  0
  149.6325  139.2933  153.2349 H   0  0  0  0  0  0  0  0  0  0  0  0
  148.7512  138.6903  154.6448 H   0  0  0  0  0  0  0  0  0  0  0  0
  149.5177  141.4515  153.9978 H   0  0  0  0  0  0  0  0  0  0  0  0
  148.5818  140.9371  155.4058 H   0  0  0  0  0  0  0  0  0  0  0  0
  151.0885  141.9006  155.8337 H   0  0  0  0  0  0  0  0  0  0  0  0
  1  2  1  0  0  0  0
  1 19  1  0  0  0  0
  1 20  1  0  0  0  0
  1 21  1  0  0  0  0
  2  3  1  0  0  0  0
  2 22  1  0  0  0  0
  3  4  2  0  0  0  0
  3  5  1  0  0  0  0
  5 10  1  0  0  0  0
  5  6  2  0  0  0  0
  6  7  1  0  0  0  0
  6 23  1  0  0  0  0
  7  8  2  0  0  0  0
  7 24  1  0  0  0  0
  8  9  1  0  0  0  0
  8 25  1  0  0  0  0
  9 10  2  0  0  0  0
 10 11  1  0  0  0  0
 11 12  1  0  0  0  0
 11 26  1  0  0  0  0
 12 17  1  0  0  0  0
 12 13  1  0  0  0  0
 12 27  1  0  0  0  0
 13 14  1  0  0  0  0
 13 28  1  0  0  0  0
 13 29  1  0  0  0  0
 14 18  1  0  0  0  0
 14 15  1  0  0  0  0
 14 30  1  0  0  0  0
 15 16  1  0  0  0  0
 15 31  1  0  0  0  0
 15 32  1  0  0  0  0
 16 17  1  0  0  0  0
 16 33  1  0  0  0  0
 16 34  1  0  0  0  0
 17 18  1  0  0  0  0
 17 35  1  0  0  0  0
M  END
> <s_m_source_file>
AV-unprocessed.smi

> <i_m_source_file_index>
886

> <i_lp_mmshare_version>
43012

> <i_f3d_flags>
0

> <s_epik_input>
W0NIM11bTkhdQyg9TyljMVtjSF1bY0hdW2NIXW5jMVtOSF1bQ0BIXShbQ0gyXVtDQEhdMjMpW0NASF0oTzMpW0NIMl1bQ0gyXTI=

> <s_epik_cmdline>
J2VwaWtfcHl0aG9uJywgJy1waCcsICc3LjAnLCAnLXRuJywgJzgnLCAnLW1hJywgJzIwMCcsICctbWV0YWxfYmluZGluZycsICctaW1hZScsICc8aW5maWxlLm1hZT4nLCAnLW9tYWUnLCAnPG91dGZpbGUubWFlPic=

> <r_lp_tautomer_probability>
1

> <r_epik_Ionization_Penalty>
0.0065447

> <r_epik_Ionization_Penalty_Charging>
0

> <r_epik_Ionization_Penalty_Neutral>
0.0065447

> <r_epik_State_Penalty>
0.00484214

> <r_epik_Charging_Adjusted_Penalty>
0.00484214

> <i_epik_Tot_Q>
0

> <i_epik_Tot_abs_Q>
0

> <r_epik_Metal_State_Penalty>
-0

> <b_epik_Metal_Only>
0

> <s_lp_Force_Field>
OPLS_2005

> <r_lp_Energy>
46.3803

> <b_lp_Chiralities_Consistent>
1

> <s_lp_Variant>
AV-unprocessed.smi:886-3

> <Gold.Version>
5.8.1

> <Gold.Id.Protein>
6NUR|6NUR_protein|mol2

> <Gold.PLP.Fitness>
42.5395

> <Gold.PLP.PLP>
-36.5098

> <Gold.PLP.part.hbond>
-1.2144

> <Gold.PLP.part.metal>
0.0000

> <Gold.PLP.part.buried>
-3.3855

> <Gold.PLP.part.nonpolar>
-32.3110

> <Gold.PLP.part.repulsive>
0.2333

> <Gold.PLP.ligand.clash>
0.0000

> <Gold.PLP.ligand.torsion>
0.0558

> <Gold.PLP.Chemscore.Hbond>
1.0000

> <Gold.PLP.Chemscore.CHOScore>
1.0371

> <Gold.PLP.Chemscore.Metal>
0.0000

> <Gold.Chemscore.Hbonds>
donor molecule, donor type, donor heavy atom, donor atom, acceptor molecule, acceptor atom, score
      P1  H  7989  7998       L1    18  1.00
      L1  C     8    25       P1  8028  0.97
      L1  C     8    25       P1  8029  0.06

> <Gold.PLP.Chemscore.Internal.Correction>
0.0302

> <Gold.Rescore>
     Score         DG    S(hbond)    S(metal)    S(lipo)     H(rot)  DE(clash)    DE(int)     intcor
     15.05     -16.49       0.94        0.00      89.13       1.00       0.00       1.44       ----

> <Gold.Chemscore.Fitness>
15.0543

> <Gold.Chemscore.DG>
-16.4925

> <Gold.Chemscore.ZeroCoef>
-5.4800

> <Gold.Chemscore.Hbond>
0.9413

> <Gold.Chemscore.Metal>
0.0000

> <Gold.Chemscore.Lipo>
89.1330

> <Gold.Chemscore.Internal_Hbond>
0.0000

> <Gold.Chemscore.DEClash>
0.0000

> <Gold.Chemscore.DEInternal>
1.4383

> <Gold.Chemscore.Rot>
1.0000

> <Gold.Chemscore.Internal.Correction>
   9.000000E+99

> <Gold.Chemscore.Hbonds>
donor molecule, donor type, donor heavy atom, donor atom, acceptor molecule, acceptor atom, score
      P1  H  7989  7998       L1    18  0.27

> <Gold.Chemscore.Hbond.Weighted>
-3.1439

> <Gold.Chemscore.Metal.Weighted>
-0.0000

> <Gold.Chemscore.Lipo.Weighted>
-10.4286

> <Gold.Chemscore.Internal_Hbond.Weighted>
0.0000

> <Gold.Chemscore.DEClash.Weighted>
0.0000

> <Gold.Chemscore.DEInternal.Weighted>
1.4383

> <Gold.Chemscore.Rot.Weighted>
2.5600

> <Gold.Chemscore.Internal.Correction.Weighted>
   9.000000E+99

> <Gold.Protein.RotatedTorsions>
[ 6907 6896 6895 6894 ] final -179.99 input  -60.11 | X-H torsion
[ 7974 7965 7964 7962 ] final -169.15 input  175.53 | X-H torsion
[ 8008 7997 7996 7995 ] final    0.30 input   59.86 | X-H torsion
[ 10167 10162 10161 10158 ] final -136.12 input  -65.29 | X-H torsion
[ 10718 10713 10712 10709 ] final   69.01 input   66.30 | X-H torsion
[ 10763 10752 10751 10750 ] final   94.52 input  -60.55 | X-H torsion
[ 11005 11000 10999 10996 ] final   -7.08 input  -57.11 | X-H torsion

> <Gold.Protein.ActiveResidues>
 VAL166  LYS551  ARG553  GLY616  TRP617  ASP618  TYR619  PRO620  LYS621  CYS622 
 ASP623  PHE694  ASN695  SER759  ASP760  ASP761  ALA762  ILE779  LEU786  VAL792 
 PHE793  MET794  SER795  GLU796  ALA797  LYS798  CYS799  TRP800  GLU811  SER814 

> <Gold.Protein.RotatedAtoms>
  151.6623  133.3316  159.3176 H   0  0  0  0  0  0  0  0  0  0  0  0  # atno 6907 bound_to 6896
  150.7907  134.6933  159.6518 H   0  0  0  0  0  0  0  0  0  0  0  0  # atno 6908 bound_to 6896
  152.3986  134.6327  160.0131 H   0  0  0  0  0  0  0  0  0  0  0  0  # atno 6909 bound_to 6896
  144.7190  140.2264  143.6309 H   0  0  0  0  0  0  0  0  0  0  0  0  # atno 7974 bound_to 7965
  154.6665  140.2602  155.7053 H   0  0  0  0  0  0  0  0  0  0  0  0  # atno 8008 bound_to 7997
  156.2641  140.2838  156.1079 H   0  0  0  0  0  0  0  0  0  0  0  0  # atno 8009 bound_to 7997
  155.1231  140.0377  157.2745 H   0  0  0  0  0  0  0  0  0  0  0  0  # atno 8010 bound_to 7997
  139.8710  143.6957  152.2640 H   0  0  0  0  0  0  0  0  0  0  0  0  # atno 10167 bound_to 10162
  157.6321  130.9403  150.0454 H   0  0  0  0  0  0  0  0  0  0  0  0  # atno 10718 bound_to 10713
  153.2426  135.4286  155.0714 H   0  0  0  0  0  0  0  0  0  0  0  0  # atno 10763 bound_to 10752
  154.8347  135.3406  154.6627 H   0  0  0  0  0  0  0  0  0  0  0  0  # atno 10764 bound_to 10752
  153.7050  135.7026  153.5109 H   0  0  0  0  0  0  0  0  0  0  0  0  # atno 10765 bound_to 10752
  140.7089  133.8926  155.8736 H   0  0  0  0  0  0  0  0  0  0  0  0  # atno 11005 bound_to 11000
  145.8452  139.2149  143.1804 LP  0  0  0  0  0  0  0  0  0  0  0  0  # atno 17320 bound_to 7965
  146.0311  140.8257  142.9876 LP  0  0  0  0  0  0  0  0  0  0  0  0  # atno 17321 bound_to 7965
  139.7284  144.7588  151.0842 LP  0  0  0  0  0  0  0  0  0  0  0  0  # atno 17342 bound_to 10162
  140.7760  143.5119  150.9642 LP  0  0  0  0  0  0  0  0  0  0  0  0  # atno 17343 bound_to 10162
  156.1533  130.3643  149.9406 LP  0  0  0  0  0  0  0  0  0  0  0  0  # atno 17370 bound_to 10713
  156.7421  130.9083  151.3633 LP  0  0  0  0  0  0  0  0  0  0  0  0  # atno 17371 bound_to 10713
  141.0101  134.1032  157.4230 LP  0  0  0  0  0  0  0  0  0  0  0  0  # atno 17394 bound_to 11000
  139.8877  135.0092  156.6575 LP  0  0  0  0  0  0  0  0  0  0  0  0  # atno 17395 bound_to 11000

$$$$
