AV-unprocessed.smi:2567|AV-procd|sdf|10083|dock5
  -GOLD-   2272014113D 1   1.00000     0.00000
 Structure written by MMmdl.
 33 34  0  0  0  0  0  0  0  0  1 V2000
  152.4899  145.1029  158.6681 C   0  0  0  0  0  0  0  0  0  0  0  0
  151.6807  144.1781  159.5950 C   0  0  0  0  0  0  0  0  0  0  0  0
  152.1184  144.3994  161.0594 C   0  0  0  0  0  0  0  0  0  0  0  0
  150.1814  144.5434  159.5203 C   0  0  0  0  0  0  0  0  0  0  0  0
  151.9023  142.7382  159.1931 C   0  0  0  0  0  0  0  0  0  0  0  0
  152.2092  141.8037  160.0965 N   0  0  0  0  0  0  0  0  0  0  0  0
  152.1790  140.6704  159.3654 N   0  0  0  0  0  0  0  0  0  0  0  0
  151.8126  140.9607  158.1171 C   0  0  0  0  0  0  0  0  0  0  0  0
  151.6512  139.9052  157.0690 C   0  0  1  0  0  0  0  0  0  0  0  0
  151.2447  140.4926  155.7034 C   0  0  0  0  0  0  0  0  0  0  0  0
  151.1878  139.4364  154.6942 N   0  0  0  0  0  0  0  0  0  0  0  0
  152.4520  138.7050  154.6239 C   0  0  0  0  0  0  0  0  0  0  0  0
  152.8373  138.1660  156.0135 C   0  0  0  0  0  0  0  0  0  0  0  0
  152.9070  139.2431  156.9418 O   0  0  0  0  0  0  0  0  0  0  0  0
  151.5851  142.2593  157.9487 N   0  0  0  0  0  0  0  0  0  0  0  0
  152.3832  139.7592  159.7501 H   0  0  0  0  0  0  0  0  0  0  0  0
  152.3557  146.1510  158.9371 H   0  0  0  0  0  0  0  0  0  0  0  0
  152.1836  144.9881  157.6276 H   0  0  0  0  0  0  0  0  0  0  0  0
  153.5567  144.8824  158.7228 H   0  0  0  0  0  0  0  0  0  0  0  0
  153.1841  144.2120  161.1958 H   0  0  0  0  0  0  0  0  0  0  0  0
  151.5781  143.7404  161.7403 H   0  0  0  0  0  0  0  0  0  0  0  0
  151.9323  145.4253  161.3791 H   0  0  0  0  0  0  0  0  0  0  0  0
  150.0066  145.5694  159.8462 H   0  0  0  0  0  0  0  0  0  0  0  0
  149.5805  143.8911  160.1557 H   0  0  0  0  0  0  0  0  0  0  0  0
  149.7942  144.4630  158.5041 H   0  0  0  0  0  0  0  0  0  0  0  0
  150.8988  139.1914  157.4107 H   0  0  0  0  0  0  0  0  0  0  0  0
  150.2770  140.9891  155.7806 H   0  0  0  0  0  0  0  0  0  0  0  0
  151.9650  141.2537  155.4002 H   0  0  0  0  0  0  0  0  0  0  0  0
  150.9808  139.8437  153.7878 H   0  0  0  0  0  0  0  0  0  0  0  0
  152.3704  137.8834  153.9124 H   0  0  0  0  0  0  0  0  0  0  0  0
  153.2405  139.3620  154.2554 H   0  0  0  0  0  0  0  0  0  0  0  0
  152.1196  137.4185  156.3558 H   0  0  0  0  0  0  0  0  0  0  0  0
  153.8096  137.6758  155.9685 H   0  0  0  0  0  0  0  0  0  0  0  0
  1  2  1  0  0  0  0
  1 17  1  0  0  0  0
  1 18  1  0  0  0  0
  1 19  1  0  0  0  0
  2  3  1  0  0  0  0
  2  4  1  0  0  0  0
  2  5  1  0  0  0  0
  3 20  1  0  0  0  0
  3 21  1  0  0  0  0
  3 22  1  0  0  0  0
  4 23  1  0  0  0  0
  4 24  1  0  0  0  0
  4 25  1  0  0  0  0
  5 15  1  0  0  0  0
  5  6  2  0  0  0  0
  6  7  1  0  0  0  0
  7 16  1  0  0  0  0
  7  8  1  0  0  0  0
  8  9  1  0  0  0  0
  8 15  2  0  0  0  0
  9 14  1  0  0  0  0
  9 10  1  0  0  0  0
  9 26  1  0  0  0  0
 10 11  1  0  0  0  0
 10 27  1  0  0  0  0
 10 28  1  0  0  0  0
 11 12  1  0  0  0  0
 11 29  1  0  0  0  0
 12 13  1  0  0  0  0
 12 30  1  0  0  0  0
 12 31  1  0  0  0  0
 13 14  1  0  0  0  0
 13 32  1  0  0  0  0
 13 33  1  0  0  0  0
M  END
> <s_m_source_file>
AV-unprocessed.smi

> <i_m_source_file_index>
2567

> <i_lp_mmshare_version>
43012

> <i_f3d_flags>
0

> <s_epik_input>
W0NIM11DKFtDSDNdKShbQ0gzXSljMW5bbkhdYyhuMSlbQ0BASF0yW0NIMl1bTkhdW0NIMl1bQ0gyXU8y

> <s_epik_cmdline>
J2VwaWtfcHl0aG9uJywgJy1waCcsICc3LjAnLCAnLXRuJywgJzgnLCAnLW1hJywgJzIwMCcsICctbWV0YWxfYmluZGluZycsICctaW1hZScsICc8aW5maWxlLm1hZT4nLCAnLW9tYWUnLCAnPG91dGZpbGUubWFlPic=

> <r_epik_Ionization_Penalty>
0.981987

> <r_epik_Ionization_Penalty_Charging>
0

> <r_epik_Ionization_Penalty_Neutral>
0.981987

> <r_epik_State_Penalty>
2.09479

> <r_epik_Charging_Adjusted_Penalty>
2.09479

> <i_epik_Tot_Q>
0

> <i_epik_Tot_abs_Q>
0

> <r_epik_Metal_State_Penalty>
2.40362

> <b_epik_Metal_Only>
0

> <s_lp_Force_Field>
OPLS_2005

> <r_lp_Energy>
12.9727

> <b_lp_Chiralities_Consistent>
1

> <s_lp_Variant>
AV-unprocessed.smi:2567-8

> <Gold.Version>
5.8.1

> <Gold.Id.Protein>
6NUR|6NUR_protein|mol2

> <Gold.PLP.Fitness>
34.7899

> <Gold.PLP.PLP>
-31.9756

> <Gold.PLP.part.hbond>
-2.0000

> <Gold.PLP.part.metal>
0.0000

> <Gold.PLP.part.buried>
-5.4822

> <Gold.PLP.part.nonpolar>
-24.5548

> <Gold.PLP.part.repulsive>
0.1824

> <Gold.PLP.ligand.clash>
0.0000

> <Gold.PLP.ligand.torsion>
0.1946

> <Gold.PLP.Chemscore.Hbond>
1.0000

> <Gold.PLP.Chemscore.CHOScore>
0.0000

> <Gold.PLP.Chemscore.Metal>
0.0000

> <Gold.Chemscore.Hbonds>
donor molecule, donor type, donor heavy atom, donor atom, acceptor molecule, acceptor atom, score
      P1  H  7997  8010       L1    14  1.00

> <Gold.PLP.Chemscore.Internal.Correction>
0.2036

> <Gold.Rescore>
     Score         DG    S(hbond)    S(metal)    S(lipo)     H(rot)  DE(clash)    DE(int)     intcor
     13.55     -13.75       0.83        0.00      74.22       1.25       0.00       0.20       ----

> <Gold.Chemscore.Fitness>
13.5456

> <Gold.Chemscore.DG>
-13.7454

> <Gold.Chemscore.ZeroCoef>
-5.4800

> <Gold.Chemscore.Hbond>
0.8291

> <Gold.Chemscore.Metal>
0.0000

> <Gold.Chemscore.Lipo>
74.2187

> <Gold.Chemscore.Internal_Hbond>
0.0000

> <Gold.Chemscore.DEClash>
0.0038

> <Gold.Chemscore.DEInternal>
0.1960

> <Gold.Chemscore.Rot>
1.2450

> <Gold.Chemscore.Internal.Correction>
   9.000000E+99

> <Gold.Chemscore.Hbonds>
donor molecule, donor type, donor heavy atom, donor atom, acceptor molecule, acceptor atom, score
      P1  H  7997  8010       L1    14  0.29

> <Gold.Chemscore.Hbond.Weighted>
-2.7690

> <Gold.Chemscore.Metal.Weighted>
-0.0000

> <Gold.Chemscore.Lipo.Weighted>
-8.6836

> <Gold.Chemscore.Internal_Hbond.Weighted>
0.0000

> <Gold.Chemscore.DEClash.Weighted>
0.0038

> <Gold.Chemscore.DEInternal.Weighted>
0.1960

> <Gold.Chemscore.Rot.Weighted>
3.1872

> <Gold.Chemscore.Internal.Correction.Weighted>
   9.000000E+99

> <Gold.Protein.RotatedTorsions>
[ 6907 6896 6895 6894 ] final  100.36 input  -60.11 | X-H torsion
[ 7974 7965 7964 7962 ] final  -87.99 input  175.53 | X-H torsion
[ 8008 7997 7996 7995 ] final   77.49 input   59.86 | X-H torsion
[ 10167 10162 10161 10158 ] final   74.86 input  -65.29 | X-H torsion
[ 10718 10713 10712 10709 ] final   53.43 input   66.30 | X-H torsion
[ 10763 10752 10751 10750 ] final  113.59 input  -60.55 | X-H torsion
[ 11005 11000 10999 10996 ] final   26.48 input  -57.11 | X-H torsion

> <Gold.Protein.ActiveResidues>
 VAL166  LYS551  ARG553  GLY616  TRP617  ASP618  TYR619  PRO620  LYS621  CYS622 
 ASP623  PHE694  ASN695  SER759  ASP760  ASP761  ALA762  ILE779  LEU786  VAL792 
 PHE793  MET794  SER795  GLU796  ALA797  LYS798  CYS799  TRP800  GLU811  SER814 

> <Gold.Protein.RotatedAtoms>
  152.5373  134.0289  159.8015 H   0  0  0  0  0  0  0  0  0  0  0  0  # atno 6907 bound_to 6896
  151.0463  133.5655  159.2653 H   0  0  0  0  0  0  0  0  0  0  0  0  # atno 6908 bound_to 6896
  151.2606  135.0660  159.9150 H   0  0  0  0  0  0  0  0  0  0  0  0  # atno 6909 bound_to 6896
  145.4592  140.9561  143.1979 H   0  0  0  0  0  0  0  0  0  0  0  0  # atno 7974 bound_to 7965
  155.8423  140.3462  155.5640 H   0  0  0  0  0  0  0  0  0  0  0  0  # atno 8008 bound_to 7997
  155.8127  140.0901  157.1914 H   0  0  0  0  0  0  0  0  0  0  0  0  # atno 8009 bound_to 7997
  154.4005  140.1444  156.3394 H   0  0  0  0  0  0  0  0  0  0  0  0  # atno 8010 bound_to 7997
  140.0091  144.5627  150.7673 H   0  0  0  0  0  0  0  0  0  0  0  0  # atno 10167 bound_to 10162
  157.5166  130.8536  149.8503 H   0  0  0  0  0  0  0  0  0  0  0  0  # atno 10718 bound_to 10713
  153.4947  135.3651  155.2510 H   0  0  0  0  0  0  0  0  0  0  0  0  # atno 10763 bound_to 10752
  154.8750  135.3985  154.3548 H   0  0  0  0  0  0  0  0  0  0  0  0  # atno 10764 bound_to 10752
  153.4173  135.7079  153.6384 H   0  0  0  0  0  0  0  0  0  0  0  0  # atno 10765 bound_to 10752
  140.3366  134.2379  155.7695 H   0  0  0  0  0  0  0  0  0  0  0  0  # atno 11005 bound_to 11000
  144.8013  139.6135  143.7070 LP  0  0  0  0  0  0  0  0  0  0  0  0  # atno 17320 bound_to 7965
  146.2461  139.6100  142.9459 LP  0  0  0  0  0  0  0  0  0  0  0  0  # atno 17321 bound_to 7965
  140.7388  143.2783  151.3674 LP  0  0  0  0  0  0  0  0  0  0  0  0  # atno 17342 bound_to 10162
  139.6217  144.0893  152.2397 LP  0  0  0  0  0  0  0  0  0  0  0  0  # atno 17343 bound_to 10162
  156.0324  130.3761  150.1651 LP  0  0  0  0  0  0  0  0  0  0  0  0  # atno 17370 bound_to 10713
  156.9840  130.9873  151.3431 LP  0  0  0  0  0  0  0  0  0  0  0  0  # atno 17371 bound_to 10713
  141.2050  133.7872  157.0258 LP  0  0  0  0  0  0  0  0  0  0  0  0  # atno 17394 bound_to 11000
  140.0816  134.9645  157.1634 LP  0  0  0  0  0  0  0  0  0  0  0  0  # atno 17395 bound_to 11000

$$$$
