#       Name:                AV-unprocessed.smi:612
#       Creating user name   scv26
#       Creation time:       Thu Mar 26 23:58:46 2020


#       File generated by GOLD software.
#

@<TRIPOS>MOLECULE
AV-unprocessed.smi:612
    54    56     1
SMALL
NO_CHARGES


@<TRIPOS>ATOM
      1 ****        -6.9591   3.2789   0.4155 C.3            1 S1                 0.0000
      2 ****        -6.3271   1.9589   0.3450 N.am           1 S1                 0.0000
      3 ****        -7.1678   0.8337   0.3747 C.2            1 S1                 0.0000
      4 ****        -6.6773  -0.4120   0.3181 C.2            1 S1                 0.0000
      5 ****        -5.2474  -0.5834   0.2244 C.2            1 S1                 0.0000
      6 ****        -4.4165   0.4893   0.1884 C.2            1 S1                 0.0000
      7 ****        -3.0139   0.4192   0.1048 N.am           1 S1                 0.0000
      8 ****        -2.2184  -0.6358  -0.1526 C.2            1 S1                 0.0000
      9 ****        -2.5942  -1.7833  -0.3893 O.2            1 S1                 0.0000
     10 ****        -0.9271  -0.2734  -0.1344 N.am           1 S1                 0.0000
     11 ****         0.2103  -1.1549  -0.3872 C.3            1 S1                 0.0000
     12 ****         1.0307  -1.3468   0.9005 C.3            1 S1                 0.0000
     13 ****         2.3097  -2.1628   0.6284 C.3            1 S1                 0.0000
     14 ****         3.1478  -1.5516  -0.4409 N.4            1 S1                 1.0000
     15 ****         3.8813  -0.3188  -0.0235 C.3            1 S1                 0.0000
     16 ****         4.8403   0.2217  -1.0932 C.3            1 S1                 0.0000
     17 ****         5.8121   1.1277  -0.3324 C.3            1 S1                 0.0000
     18 ****         5.8393   0.6047   1.1099 C.3            1 S1                 0.0000
     19 ****         4.8215  -0.5399   1.1703 C.3            1 S1                 0.0000
     20 ****         2.3662  -1.4113  -1.7011 C.3            1 S1                 0.0000
     21 ****         1.0940  -0.5664  -1.5000 C.3            1 S1                 0.0000
     22 ****        -4.9672   1.8575   0.2583 C.2            1 S1                 0.0000
     23 ****        -4.2526   2.8631   0.2405 O.2            1 S1                 0.0000
     24 ****        -8.0477   3.2239   0.4531 H              1 S1                 0.0000
     25 ****        -6.6957   3.8783  -0.4572 H              1 S1                 0.0000
     26 ****        -6.6292   3.8130   1.3078 H              1 S1                 0.0000
     27 ****        -8.2250   1.0440   0.4470 H              1 S1                 0.0000
     28 ****        -7.3359  -1.2676   0.3427 H              1 S1                 0.0000
     29 ****        -4.8799  -1.5956   0.1975 H              1 S1                 0.0000
     30 ****        -2.5483   1.3059   0.2337 H              1 S1                 0.0000
     31 ****        -0.7144   0.6927   0.0682 H              1 S1                 0.0000
     32 ****        -0.1344  -2.1359  -0.7191 H              1 S1                 0.0000
     33 ****         1.2914  -0.3786   1.3298 H              1 S1                 0.0000
     34 ****         0.4255  -1.8573   1.6506 H              1 S1                 0.0000
     35 ****         2.8779  -2.3010   1.5474 H              1 S1                 0.0000
     36 ****         2.0294  -3.1669   0.3073 H              1 S1                 0.0000
     37 ****         3.1724   0.4689   0.2338 H              1 S1                 0.0000
     38 ****         5.3934  -0.6004  -1.5505 H              1 S1                 0.0000
     39 ****         4.3280   0.7630  -1.8892 H              1 S1                 0.0000
     40 ****         6.8026   1.1292  -0.7887 H              1 S1                 0.0000
     41 ****         5.4472   2.1555  -0.3429 H              1 S1                 0.0000
     42 ****         6.8336   0.2615   1.3978 H              1 S1                 0.0000
     43 ****         5.5584   1.4023   1.7987 H              1 S1                 0.0000
     44 ****         4.2951  -0.5598   2.1251 H              1 S1                 0.0000
     45 ****         5.3450  -1.4910   1.0611 H              1 S1                 0.0000
     46 ****         2.9763  -1.0006  -2.5044 H              1 S1                 0.0000
     47 ****         2.0814  -2.4095  -2.0363 H              1 S1                 0.0000
     48 ****         0.5321  -0.5249  -2.4339 H              1 S1                 0.0000
     49 ****         1.3649   0.4631  -1.2629 H              1 S1                 0.0000
     50 ****         3.8708  -2.2279  -0.6422 H              1 S1                 0.0000
     51 ****        -3.5710  -1.9969  -0.4017 LP             1 S1                 0.0000
     52 ****        -1.9228  -2.5022  -0.5692 LP             1 S1                 0.0000
     53 ****        -4.6669   3.7719   0.2900 LP             1 S1                 0.0000
     54 ****        -3.2590   2.7694   0.1767 LP             1 S1                 0.0000
@<TRIPOS>BOND
    1    1    2 1     
    2    1   24 1     
    3    1   25 1     
    4    1   26 1     
    5    2   22 am    
    6    2    3 1     
    7    3    4 2     
    8    3   27 1     
    9    4    5 1     
   10    4   28 1     
   11    5    6 2     
   12    5   29 1     
   13    6    7 1     
   14    6   22 1     
   15    7    8 am    
   16    7   30 1     
   17    8    9 2     
   18    8   10 am    
   19   10   11 1     
   20   10   31 1     
   21   11   21 1     
   22   11   12 1     
   23   11   32 1     
   24   12   13 1     
   25   12   33 1     
   26   12   34 1     
   27   13   14 1     
   28   13   35 1     
   29   13   36 1     
   30   14   15 1     
   31   14   20 1     
   32   14   50 1     
   33   15   19 1     
   34   15   16 1     
   35   15   37 1     
   36   16   17 1     
   37   16   38 1     
   38   16   39 1     
   39   17   18 1     
   40   17   40 1     
   41   17   41 1     
   42   18   19 1     
   43   18   42 1     
   44   18   43 1     
   45   19   44 1     
   46   19   45 1     
   47   20   21 1     
   48   20   46 1     
   49   20   47 1     
   50   21   48 1     
   51   21   49 1     
   52   22   23 2     
   53    9   51 1     
   54    9   52 1     
   55   23   53 1     
   56   23   54 1     
@<TRIPOS>SUBSTRUCTURE
      1 S1             1
@<TRIPOS>SET
LONE_PAIRS      STATIC     ATOMS    <user>   **** ""
4 51 52 53 54
DONOR_HYDROGENS      STATIC     ATOMS    <user>   **** ""
3 30 31 50
ATOM$BLUE        STATIC     ATOMS    COLORGROUP SYSTEM
4 51 52 53 54
ATOM$RED        STATIC     ATOMS    COLORGROUP SYSTEM
3 30 31 50
