AV-unprocessed.smi:2773|AV-procd|sdf|10678|dock1
  -GOLD-   2272015123D 1   1.00000     0.00000
 Structure written by MMmdl.
 30 31  0  0  0  0  0  0  0  0  1 V2000
  146.7186  142.4050  154.0779 C   0  0  0  0  0  0  0  0  0  0  0  0
  147.5901  141.2011  153.7783 C   0  0  2  0  0  0  0  0  0  0  0  0
  147.8786  140.1780  154.8445 C   0  0  0  0  0  0  0  0  0  0  0  0
  148.9953  141.0632  154.3350 C   0  0  2  0  0  0  0  0  0  0  0  0
  149.4926  142.0643  155.2320 N   0  0  0  0  0  0  0  0  0  0  0  0
  150.2486  141.8897  156.3308 C   0  0  0  0  0  0  0  0  0  0  0  0
  150.5776  140.7638  156.7005 O   0  0  0  0  0  0  0  0  0  0  0  0
  150.5624  143.0311  156.9764 N   0  0  0  0  0  0  0  0  0  0  0  0
  151.3451  143.1943  158.1497 C   0  0  0  0  0  0  0  0  0  0  0  0
  151.2655  144.4703  158.7496 C   0  0  0  0  0  0  0  0  0  0  0  0
  152.0056  144.7328  159.9180 C   0  0  0  0  0  0  0  0  0  0  0  0
  152.8083  143.7123  160.4577 C   0  0  0  0  0  0  0  0  0  0  0  0
  152.8356  142.4642  159.7997 C   0  0  0  0  0  0  0  0  0  0  0  0
  153.6792  141.3073  160.3163 C   0  0  0  0  0  0  0  0  0  0  0  0
  154.9061  141.3192  159.7933 F   0  0  0  0  0  0  0  0  0  0  0  0
  153.7867  141.3856  161.6428 F   0  0  0  0  0  0  0  0  0  0  0  0
  153.0977  140.1501  159.9992 F   0  0  0  0  0  0  0  0  0  0  0  0
  152.1224  142.2172  158.6775 N   0  0  0  0  0  0  0  0  0  0  0  0
  146.8194  142.7167  155.1179 H   0  0  0  0  0  0  0  0  0  0  0  0
  145.6724  142.1623  153.8918 H   0  0  0  0  0  0  0  0  0  0  0  0
  147.0010  143.2393  153.4353 H   0  0  0  0  0  0  0  0  0  0  0  0
  147.4512  140.8137  152.7708 H   0  0  0  0  0  0  0  0  0  0  0  0
  147.4957  140.3677  155.8457 H   0  0  0  0  0  0  0  0  0  0  0  0
  147.8907  139.1321  154.5445 H   0  0  0  0  0  0  0  0  0  0  0  0
  149.7198  140.5553  153.7001 H   0  0  0  0  0  0  0  0  0  0  0  0
  149.1865  143.0084  155.0451 H   0  0  0  0  0  0  0  0  0  0  0  0
  150.2036  143.8834  156.5721 H   0  0  0  0  0  0  0  0  0  0  0  0
  150.6444  145.2440  158.3221 H   0  0  0  0  0  0  0  0  0  0  0  0
  151.9582  145.7021  160.3916 H   0  0  0  0  0  0  0  0  0  0  0  0
  153.3850  143.8911  161.3531 H   0  0  0  0  0  0  0  0  0  0  0  0
  1  2  1  0  0  0  0
  1 19  1  0  0  0  0
  1 20  1  0  0  0  0
  1 21  1  0  0  0  0
  2  4  1  0  0  0  0
  2  3  1  0  0  0  0
  2 22  1  0  0  0  0
  3  4  1  0  0  0  0
  3 23  1  0  0  0  0
  3 24  1  0  0  0  0
  4  5  1  0  0  0  0
  4 25  1  0  0  0  0
  5  6  1  0  0  0  0
  5 26  1  0  0  0  0
  6  7  2  0  0  0  0
  6  8  1  0  0  0  0
  8  9  1  0  0  0  0
  8 27  1  0  0  0  0
  9 18  1  0  0  0  0
  9 10  2  0  0  0  0
 10 11  1  0  0  0  0
 10 28  1  0  0  0  0
 11 12  2  0  0  0  0
 11 29  1  0  0  0  0
 12 13  1  0  0  0  0
 12 30  1  0  0  0  0
 13 14  1  0  0  0  0
 13 18  2  0  0  0  0
 14 15  1  0  0  0  0
 14 16  1  0  0  0  0
 14 17  1  0  0  0  0
M  END
> <s_m_source_file>
AV-unprocessed.smi

> <i_m_source_file_index>
2773

> <i_lp_mmshare_version>
43012

> <i_f3d_flags>
0

> <s_epik_input>
W0NIM11bQ0BASF0xW0NIMl1bQ0BIXTFbTkhdQyg9TylbTkhdYzJbY0hdW2NIXVtjSF1jKG4yKUMoRikoRilG

> <s_epik_cmdline>
J2VwaWtfcHl0aG9uJywgJy1waCcsICc3LjAnLCAnLXRuJywgJzgnLCAnLW1hJywgJzIwMCcsICctbWV0YWxfYmluZGluZycsICctaW1hZScsICc8aW5maWxlLm1hZT4nLCAnLW9tYWUnLCAnPG91dGZpbGUubWFlPic=

> <r_lp_tautomer_probability>
1

> <r_epik_Ionization_Penalty>
4.04275e-05

> <r_epik_Ionization_Penalty_Charging>
0

> <r_epik_Ionization_Penalty_Neutral>
4.04275e-05

> <r_epik_State_Penalty>
-0

> <r_epik_Charging_Adjusted_Penalty>
0

> <i_epik_Tot_Q>
0

> <i_epik_Tot_abs_Q>
0

> <r_epik_Metal_State_Penalty>
-0

> <b_epik_Metal_Only>
0

> <s_lp_Force_Field>
OPLS_2005

> <r_lp_Energy>
32.9292

> <b_lp_Chiralities_Consistent>
1

> <s_lp_Variant>
AV-unprocessed.smi:2773-3

> <Gold.Version>
5.8.1

> <Gold.Id.Protein>
6NUR|6NUR_protein|mol2

> <Gold.PLP.Fitness>
47.5412

> <Gold.PLP.PLP>
-44.2704

> <Gold.PLP.part.hbond>
-2.0000

> <Gold.PLP.part.metal>
0.0000

> <Gold.PLP.part.buried>
-7.0543

> <Gold.PLP.part.nonpolar>
-36.1602

> <Gold.PLP.part.repulsive>
0.2461

> <Gold.PLP.ligand.clash>
0.0000

> <Gold.PLP.ligand.torsion>
1.3755

> <Gold.PLP.Chemscore.Hbond>
1.9920

> <Gold.PLP.Chemscore.CHOScore>
0.0000

> <Gold.PLP.Chemscore.Metal>
0.0000

> <Gold.Chemscore.Hbonds>
donor molecule, donor type, donor heavy atom, donor atom, acceptor molecule, acceptor atom, score
      L1  H     5    26       P1  8028  1.00
      L1  H     8    27       P1  8028  0.99

> <Gold.PLP.Chemscore.Internal.Correction>
0.0457

> <Gold.Rescore>
     Score         DG    S(hbond)    S(metal)    S(lipo)     H(rot)  DE(clash)    DE(int)     intcor
     17.00     -19.18       1.93        0.00      83.96       1.00       0.02       2.16       ----

> <Gold.Chemscore.Fitness>
17.0015

> <Gold.Chemscore.DG>
-19.1827

> <Gold.Chemscore.ZeroCoef>
-5.4800

> <Gold.Chemscore.Hbond>
1.9280

> <Gold.Chemscore.Metal>
0.0000

> <Gold.Chemscore.Lipo>
83.9598

> <Gold.Chemscore.Internal_Hbond>
0.0000

> <Gold.Chemscore.DEClash>
0.0214

> <Gold.Chemscore.DEInternal>
2.1598

> <Gold.Chemscore.Rot>
1.0000

> <Gold.Chemscore.Internal.Correction>
   9.000000E+99

> <Gold.Chemscore.Hbonds>
donor molecule, donor type, donor heavy atom, donor atom, acceptor molecule, acceptor atom, score
      L1  H     5    26       P1  8028  0.94
      L1  H     8    27       P1  8028  0.94

> <Gold.Chemscore.Hbond.Weighted>
-6.4394

> <Gold.Chemscore.Metal.Weighted>
-0.0000

> <Gold.Chemscore.Lipo.Weighted>
-9.8233

> <Gold.Chemscore.Internal_Hbond.Weighted>
0.0000

> <Gold.Chemscore.DEClash.Weighted>
0.0214

> <Gold.Chemscore.DEInternal.Weighted>
2.1598

> <Gold.Chemscore.Rot.Weighted>
2.5600

> <Gold.Chemscore.Internal.Correction.Weighted>
   9.000000E+99

> <Gold.Protein.RotatedTorsions>
[ 6907 6896 6895 6894 ] final  128.12 input  -60.11 | X-H torsion
[ 7974 7965 7964 7962 ] final  -95.23 input  175.53 | X-H torsion
[ 8008 7997 7996 7995 ] final -138.74 input   59.86 | X-H torsion
[ 10167 10162 10161 10158 ] final   20.79 input  -65.29 | X-H torsion
[ 10718 10713 10712 10709 ] final  -35.16 input   66.30 | X-H torsion
[ 10763 10752 10751 10750 ] final   88.93 input  -60.55 | X-H torsion
[ 11005 11000 10999 10996 ] final   26.39 input  -57.11 | X-H torsion

> <Gold.Protein.ActiveResidues>
 VAL166  LYS551  ARG553  GLY616  TRP617  ASP618  TYR619  PRO620  LYS621  CYS622 
 ASP623  PHE694  ASN695  SER759  ASP760  ASP761  ALA762  ILE779  LEU786  VAL792 
 PHE793  MET794  SER795  GLU796  ALA797  LYS798  CYS799  TRP800  GLU811  SER814 

> <Gold.Protein.RotatedAtoms>
  152.3749  133.6467  159.6115 H   0  0  0  0  0  0  0  0  0  0  0  0  # atno 6907 bound_to 6896
  150.7696  133.9210  159.3407 H   0  0  0  0  0  0  0  0  0  0  0  0  # atno 6908 bound_to 6896
  151.7026  135.0928  160.0305 H   0  0  0  0  0  0  0  0  0  0  0  0  # atno 6909 bound_to 6896
  145.3628  140.9494  143.2491 H   0  0  0  0  0  0  0  0  0  0  0  0  # atno 7974 bound_to 7965
  155.4333  140.0526  157.3017 H   0  0  0  0  0  0  0  0  0  0  0  0  # atno 8008 bound_to 7997
  154.4850  140.2097  155.9633 H   0  0  0  0  0  0  0  0  0  0  0  0  # atno 8009 bound_to 7997
  156.1262  140.3180  155.8285 H   0  0  0  0  0  0  0  0  0  0  0  0  # atno 8010 bound_to 7997
  140.5477  143.9565  150.6558 H   0  0  0  0  0  0  0  0  0  0  0  0  # atno 10167 bound_to 10162
  156.3419  130.4295  149.7779 H   0  0  0  0  0  0  0  0  0  0  0  0  # atno 10718 bound_to 10713
  153.1819  135.4489  155.0039 H   0  0  0  0  0  0  0  0  0  0  0  0  # atno 10763 bound_to 10752
  154.8035  135.3265  154.7492 H   0  0  0  0  0  0  0  0  0  0  0  0  # atno 10764 bound_to 10752
  153.7956  135.6966  153.4919 H   0  0  0  0  0  0  0  0  0  0  0  0  # atno 10765 bound_to 10752
  140.3376  134.2369  155.7694 H   0  0  0  0  0  0  0  0  0  0  0  0  # atno 11005 bound_to 11000
  144.8633  139.5144  143.6802 LP  0  0  0  0  0  0  0  0  0  0  0  0  # atno 17320 bound_to 7965
  146.2919  139.7165  142.9154 LP  0  0  0  0  0  0  0  0  0  0  0  0  # atno 17321 bound_to 7965
  140.2983  143.3278  152.0997 LP  0  0  0  0  0  0  0  0  0  0  0  0  # atno 17342 bound_to 10162
  139.5014  144.6713  151.6236 LP  0  0  0  0  0  0  0  0  0  0  0  0  # atno 17343 bound_to 10162
  156.5012  130.8130  151.3133 LP  0  0  0  0  0  0  0  0  0  0  0  0  # atno 17370 bound_to 10713
  157.7448  130.9944  150.2706 LP  0  0  0  0  0  0  0  0  0  0  0  0  # atno 17371 bound_to 10713
  141.2047  133.7879  157.0272 LP  0  0  0  0  0  0  0  0  0  0  0  0  # atno 17394 bound_to 11000
  140.0808  134.9649  157.1621 LP  0  0  0  0  0  0  0  0  0  0  0  0  # atno 17395 bound_to 11000

$$$$
