#       Name:                AV-unprocessed.smi:1113
#       Creating user name   scv26
#       Creation time:       Fri Mar 27 03:34:42 2020


#       File generated by GOLD software.
#

@<TRIPOS>MOLECULE
AV-unprocessed.smi:1113
    48    49     1
SMALL
NO_CHARGES


@<TRIPOS>ATOM
      1 ****        -3.0385   6.1084   2.7072 C.3            1 S1                 0.0000
      2 ****        -2.6525   4.7340   2.1441 C.3            1 S1                 0.0000
      3 ****        -2.8027   4.8019   0.7408 O.3            1 S1                 0.0000
      4 ****        -1.1969   4.3618   2.4860 C.3            1 S1                 0.0000
      5 ****        -0.9662   2.9260   2.3671 N.am           1 S1                 0.0000
      6 ****        -0.4863   2.3107   1.2774 C.2            1 S1                 0.0000
      7 ****        -0.1701   2.9041   0.2465 O.2            1 S1                 0.0000
      8 ****        -0.4195   0.9812   1.4631 N.am           1 S1                 0.0000
      9 ****         0.0436  -0.0212   0.5678 C.ar           1 S1                 0.0000
     10 ****         0.8758   0.2230  -0.5493 C.ar           1 S1                 0.0000
     11 ****         1.2809  -0.8632  -1.3485 C.ar           1 S1                 0.0000
     12 ****         0.8553  -2.1699  -1.0117 C.ar           1 S1                 0.0000
     13 ****         1.2530  -3.2728  -1.7988 N.3            1 S1                 0.0000
     14 ****         2.6887  -3.3933  -2.0419 C.3            1 S1                 0.0000
     15 ****         2.9608  -4.4300  -3.1458 C.3            1 S1                 0.0000
     16 ****         2.3522  -5.6708  -2.8041 O.3            1 S1                 0.0000
     17 ****         0.9387  -5.5509  -2.6846 C.3            1 S1                 0.0000
     18 ****         0.5963  -4.5573  -1.5614 C.3            1 S1                 0.0000
     19 ****         0.0612  -2.3996   0.0627 N.ar           1 S1                 0.0000
     20 ****        -0.3237  -1.3562   0.8267 C.ar           1 S1                 0.0000
     21 ****        -2.9662   6.1199   3.7950 H              1 S1                 0.0000
     22 ****        -4.0649   6.3674   2.4449 H              1 S1                 0.0000
     23 ****        -2.3872   6.8944   2.3229 H              1 S1                 0.0000
     24 ****        -3.3394   3.9843   2.5392 H              1 S1                 0.0000
     25 ****        -2.1779   5.4239   0.4005 H              1 S1                 0.0000
     26 ****        -0.4852   4.9400   1.8935 H              1 S1                 0.0000
     27 ****        -0.9957   4.6151   3.5272 H              1 S1                 0.0000
     28 ****        -1.2041   2.3595   3.1679 H              1 S1                 0.0000
     29 ****        -0.7891   0.6388   2.3378 H              1 S1                 0.0000
     30 ****         1.2209   1.2121  -0.8059 H              1 S1                 0.0000
     31 ****         1.9017  -0.6788  -2.2124 H              1 S1                 0.0000
     32 ****         3.1309  -2.4421  -2.3342 H              1 S1                 0.0000
     33 ****         3.1771  -3.6983  -1.1154 H              1 S1                 0.0000
     34 ****         2.5839  -4.0804  -4.1085 H              1 S1                 0.0000
     35 ****         4.0341  -4.5819  -3.2611 H              1 S1                 0.0000
     36 ****         0.5084  -5.2287  -3.6343 H              1 S1                 0.0000
     37 ****         0.5167  -6.5306  -2.4605 H              1 S1                 0.0000
     38 ****         0.9203  -4.9560  -0.5991 H              1 S1                 0.0000
     39 ****        -0.4855  -4.4254  -1.5136 H              1 S1                 0.0000
     40 ****        -0.9504  -1.5984   1.6727 H              1 S1                 0.0000
     41 ****        -3.7306   5.0987   0.5153 LP             1 S1                 0.0000
     42 ****        -2.6341   3.9014   0.3400 LP             1 S1                 0.0000
     43 ****        -0.2662   3.8980   0.1921 LP             1 S1                 0.0000
     44 ****         0.1830   2.3923  -0.5367 LP             1 S1                 0.0000
     45 ****         0.8559  -2.9889  -2.6715 LP             1 S1                 0.0000
     46 ****         2.7254  -5.9849  -1.9311 LP             1 S1                 0.0000
     47 ****         2.5612  -6.3409  -3.5164 LP             1 S1                 0.0000
     48 ****        -0.2348  -3.3284   0.2857 LP             1 S1                 0.0000
@<TRIPOS>BOND
    1    1    2 1     
    2    1   21 1     
    3    1   22 1     
    4    1   23 1     
    5    2    3 1     
    6    2    4 1     
    7    2   24 1     
    8    3   25 1     
    9    4    5 1     
   10    4   26 1     
   11    4   27 1     
   12    5    6 am    
   13    5   28 1     
   14    6    7 2     
   15    6    8 am    
   16    8    9 1     
   17    8   29 1     
   18    9   20 ar    
   19    9   10 ar    
   20   10   11 ar    
   21   10   30 1     
   22   11   12 ar    
   23   11   31 1     
   24   12   13 1     
   25   12   19 ar    
   26   13   18 1     
   27   13   14 1     
   28   14   15 1     
   29   14   32 1     
   30   14   33 1     
   31   15   16 1     
   32   15   34 1     
   33   15   35 1     
   34   16   17 1     
   35   17   18 1     
   36   17   36 1     
   37   17   37 1     
   38   18   38 1     
   39   18   39 1     
   40   19   20 ar    
   41   20   40 1     
   42    3   41 1     
   43    3   42 1     
   44    7   43 1     
   45    7   44 1     
   46   13   45 1     
   47   16   46 1     
   48   16   47 1     
   49   19   48 1     
@<TRIPOS>SUBSTRUCTURE
      1 S1             1
@<TRIPOS>SET
LONE_PAIRS      STATIC     ATOMS    <user>   **** ""
8 41 42 43 44 45 46 47 48
DONOR_HYDROGENS      STATIC     ATOMS    <user>   **** ""
3 25 28 29
ATOM$BLUE        STATIC     ATOMS    COLORGROUP SYSTEM
8 41 42 43 44 45 46 47 48
ATOM$RED        STATIC     ATOMS    COLORGROUP SYSTEM
3 25 28 29
