AV-unprocessed.smi:1466|AV-procd|sdf|5953|dock4
  -GOLD-   22720 6 33D 1   1.00000     0.00000
 Structure written by MMmdl.
 49 50  0  0  0  0  0  0  0  0  2 V2000
  152.0438  144.7511  157.7759 C   0  0  0  0  0  0  0  0  0  0  0  0
  151.7407  144.5253  159.1829 N   0  0  0  0  0  0  0  0  0  0  0  0
  150.7119  145.3148  159.8506 C   0  0  0  0  0  0  0  0  0  0  0  0
  152.4408  143.5324  159.9018 C   0  0  0  0  0  0  0  0  0  0  0  0
  152.6341  143.5819  161.3042 C   0  0  0  0  0  0  0  0  0  0  0  0
  153.3468  142.5533  161.9544 C   0  0  0  0  0  0  0  0  0  0  0  0
  153.8737  141.4802  161.1953 C   0  0  0  0  0  0  0  0  0  0  0  0
  154.5937  140.3891  161.7527 N   0  0  0  0  0  0  0  0  0  0  0  0
  155.4227  140.3903  162.8109 C   0  0  0  0  0  0  0  0  0  0  0  0
  155.7100  141.3779  163.4869 O   0  0  0  0  0  0  0  0  0  0  0  0
  155.9273  139.1688  163.0355 N   0  0  0  0  0  0  0  0  0  0  0  0
  156.8744  138.8405  164.0945 C   0  0  0  0  0  0  0  0  0  0  0  0
  156.1789  138.1359  165.2740 C   0  0  0  0  0  0  0  0  0  0  0  0
  155.4688  136.9291  164.8351 N   0  0  0  0  0  0  0  0  0  0  0  0
  154.0953  137.1292  164.3472 C   0  0  0  0  0  0  0  0  0  0  0  0
  153.9412  136.9306  162.8217 C   0  0  0  0  0  0  0  0  0  0  0  0
  154.9005  135.9168  162.1672 C   0  0  0  0  0  0  0  0  0  0  0  0
  154.9434  134.5281  162.8394 C   0  0  0  0  0  0  0  0  0  0  0  0
  155.2483  134.5014  164.3566 C   0  0  0  0  0  0  0  0  0  0  0  0
  156.0547  135.7071  164.8668 C   0  0  0  0  0  0  0  0  0  0  0  0
  157.1983  135.5221  165.2843 O   0  0  0  0  0  0  0  0  0  0  0  0
  153.6396  141.4696  159.8057 C   0  0  0  0  0  0  0  0  0  0  0  0
  152.9517  142.4755  159.2239 N   0  3  0  0  0  0  0  0  0  0  0  0
  151.9002  143.8362  157.2002 H   0  0  0  0  0  0  0  0  0  0  0  0
  153.0758  145.0817  157.6554 H   0  0  0  0  0  0  0  0  0  0  0  0
  151.3963  145.5171  157.3490 H   0  0  0  0  0  0  0  0  0  0  0  0
  149.8982  144.6734  160.1904 H   0  0  0  0  0  0  0  0  0  0  0  0
  150.2896  146.0641  159.1808 H   0  0  0  0  0  0  0  0  0  0  0  0
  151.1273  145.8366  160.7134 H   0  0  0  0  0  0  0  0  0  0  0  0
  152.2418  144.3929  161.8989 H   0  0  0  0  0  0  0  0  0  0  0  0
  153.4621  142.6042  163.0260 H   0  0  0  0  0  0  0  0  0  0  0  0
  154.5201  139.5173  161.2490 H   0  0  0  0  0  0  0  0  0  0  0  0
  155.6416  138.4129  162.4301 H   0  0  0  0  0  0  0  0  0  0  0  0
  157.6819  138.2255  163.6932 H   0  0  0  0  0  0  0  0  0  0  0  0
  157.3338  139.7683  164.4362 H   0  0  0  0  0  0  0  0  0  0  0  0
  156.9120  137.8847  166.0419 H   0  0  0  0  0  0  0  0  0  0  0  0
  155.4794  138.8171  165.7624 H   0  0  0  0  0  0  0  0  0  0  0  0
  153.4263  136.4498  164.8756 H   0  0  0  0  0  0  0  0  0  0  0  0
  153.7276  138.1198  164.6178 H   0  0  0  0  0  0  0  0  0  0  0  0
  152.9098  136.6491  162.6066 H   0  0  0  0  0  0  0  0  0  0  0  0
  154.0913  137.8926  162.3306 H   0  0  0  0  0  0  0  0  0  0  0  0
  154.6185  135.7924  161.1213 H   0  0  0  0  0  0  0  0  0  0  0  0
  155.9065  136.3379  162.1387 H   0  0  0  0  0  0  0  0  0  0  0  0
  153.9919  134.0239  162.6682 H   0  0  0  0  0  0  0  0  0  0  0  0
  155.6896  133.9235  162.3227 H   0  0  0  0  0  0  0  0  0  0  0  0
  154.3205  134.4331  164.9237 H   0  0  0  0  0  0  0  0  0  0  0  0
  155.7878  133.5843  164.5962 H   0  0  0  0  0  0  0  0  0  0  0  0
  153.9862  140.6926  159.1395 H   0  0  0  0  0  0  0  0  0  0  0  0
  152.8091  142.4372  158.2145 H   0  0  0  0  0  0  0  0  0  0  0  0
  1  2  1  0  0  0  0
  1 24  1  0  0  0  0
  1 25  1  0  0  0  0
  1 26  1  0  0  0  0
  2  3  1  0  0  0  0
  2  4  1  0  0  0  0
  3 27  1  0  0  0  0
  3 28  1  0  0  0  0
  3 29  1  0  0  0  0
  4 23  1  0  0  0  0
  4  5  2  0  0  0  0
  5  6  1  0  0  0  0
  5 30  1  0  0  0  0
  6  7  2  0  0  0  0
  6 31  1  0  0  0  0
  7  8  1  0  0  0  0
  7 22  1  0  0  0  0
  8  9  1  0  0  0  0
  8 32  1  0  0  0  0
  9 10  2  0  0  0  0
  9 11  1  0  0  0  0
 11 12  1  0  0  0  0
 11 33  1  0  0  0  0
 12 13  1  0  0  0  0
 12 34  1  0  0  0  0
 12 35  1  0  0  0  0
 13 14  1  0  0  0  0
 13 36  1  0  0  0  0
 13 37  1  0  0  0  0
 14 20  1  0  0  0  0
 14 15  1  0  0  0  0
 15 16  1  0  0  0  0
 15 38  1  0  0  0  0
 15 39  1  0  0  0  0
 16 17  1  0  0  0  0
 16 40  1  0  0  0  0
 16 41  1  0  0  0  0
 17 18  1  0  0  0  0
 17 42  1  0  0  0  0
 17 43  1  0  0  0  0
 18 19  1  0  0  0  0
 18 44  1  0  0  0  0
 18 45  1  0  0  0  0
 19 20  1  0  0  0  0
 19 46  1  0  0  0  0
 19 47  1  0  0  0  0
 20 21  2  0  0  0  0
 22 23  2  0  0  0  0
 22 48  1  0  0  0  0
 23 49  1  0  0  0  0
M  CHG  1  23   1
M  END
> <s_m_source_file>
AV-unprocessed.smi

> <i_m_source_file_index>
1466

> <i_lp_mmshare_version>
43012

> <i_f3d_flags>
0

> <s_epik_input>
W0NIM11OKFtDSDNdKWMxW2NIXVtjSF1jKFtjSF1uMSlbTkhdQyg9TylbTkhdW0NIMl1bQ0gyXU4yW0NIMl1bQ0gyXVtDSDJdW0NIMl1bQ0gyXUMyPU8=

> <s_epik_cmdline>
J2VwaWtfcHl0aG9uJywgJy1waCcsICc3LjAnLCAnLXRuJywgJzgnLCAnLW1hJywgJzIwMCcsICctbWV0YWxfYmluZGluZycsICctaW1hZScsICc8aW5maWxlLm1hZT4nLCAnLW9tYWUnLCAnPG91dGZpbGUubWFlPic=

> <r_lp_tautomer_probability>
0.999994

> <r_epik_Ionization_Penalty>
0.269687

> <r_epik_Ionization_Penalty_Charging>
0.269668

> <r_epik_Ionization_Penalty_Neutral>
1.89217e-05

> <r_epik_State_Penalty>
0.261755

> <r_epik_Charging_Adjusted_Penalty>
0.531423

> <i_epik_Tot_Q>
1

> <i_epik_Tot_abs_Q>
1

> <r_epik_Metal_State_Penalty>
0.546954

> <b_epik_Metal_Only>
0

> <s_lp_Force_Field>
OPLS_2005

> <r_lp_Energy>
31.5815

> <b_lp_Chiralities_Consistent>
1

> <s_lp_Variant>
AV-unprocessed.smi:1466-1

> <Gold.Version>
5.8.1

> <Gold.Id.Protein>
6NUR|6NUR_protein|mol2

> <Gold.PLP.Fitness>
50.5378

> <Gold.PLP.PLP>
-52.5142

> <Gold.PLP.part.hbond>
-1.0000

> <Gold.PLP.part.metal>
0.0000

> <Gold.PLP.part.buried>
-6.9794

> <Gold.PLP.part.nonpolar>
-44.7643

> <Gold.PLP.part.repulsive>
0.1300

> <Gold.PLP.ligand.clash>
0.0005

> <Gold.PLP.ligand.torsion>
1.0055

> <Gold.PLP.Chemscore.Hbond>
0.0000

> <Gold.PLP.Chemscore.CHOScore>
0.0000

> <Gold.PLP.Chemscore.Metal>
0.0000

> <Gold.PLP.Chemscore.Internal.Correction>
0.0350

> <Gold.Rescore>
     Score         DG    S(hbond)    S(metal)    S(lipo)     H(rot)  DE(clash)    DE(int)     intcor
     11.03     -14.48       0.00        0.00     109.88       1.50       1.35       2.10       ----

> <Gold.Chemscore.Fitness>
11.0342

> <Gold.Chemscore.DG>
-14.4839

> <Gold.Chemscore.ZeroCoef>
-5.4800

> <Gold.Chemscore.Hbond>
0.0000

> <Gold.Chemscore.Metal>
0.0000

> <Gold.Chemscore.Lipo>
109.8807

> <Gold.Chemscore.Internal_Hbond>
0.0000

> <Gold.Chemscore.DEClash>
1.3484

> <Gold.Chemscore.DEInternal>
2.1013

> <Gold.Chemscore.Rot>
1.5047

> <Gold.Chemscore.Internal.Correction>
   9.000000E+99

> <Gold.Chemscore.Hbond.Weighted>
-0.0000

> <Gold.Chemscore.Metal.Weighted>
-0.0000

> <Gold.Chemscore.Lipo.Weighted>
-12.8560

> <Gold.Chemscore.Internal_Hbond.Weighted>
0.0000

> <Gold.Chemscore.DEClash.Weighted>
1.3484

> <Gold.Chemscore.DEInternal.Weighted>
2.1013

> <Gold.Chemscore.Rot.Weighted>
3.8522

> <Gold.Chemscore.Internal.Correction.Weighted>
   9.000000E+99

> <Gold.Protein.RotatedTorsions>
[ 6907 6896 6895 6894 ] final  -53.78 input  -60.11 | X-H torsion
[ 7974 7965 7964 7962 ] final   30.00 input  175.53 | X-H torsion
[ 8008 7997 7996 7995 ] final  -26.93 input   59.86 | X-H torsion
[ 10167 10162 10161 10158 ] final -146.41 input  -65.29 | X-H torsion
[ 10718 10713 10712 10709 ] final  130.31 input   66.30 | X-H torsion
[ 10763 10752 10751 10750 ] final -160.22 input  -60.55 | X-H torsion
[ 11005 11000 10999 10996 ] final  -42.94 input  -57.11 | X-H torsion

> <Gold.Protein.ActiveResidues>
 VAL166  LYS551  ARG553  GLY616  TRP617  ASP618  TYR619  PRO620  LYS621  CYS622 
 ASP623  PHE694  ASN695  SER759  ASP760  ASP761  ALA762  ILE779  LEU786  VAL792 
 PHE793  MET794  SER795  GLU796  ALA797  LYS798  CYS799  TRP800  GLU811  SER814 

> <Gold.Protein.RotatedAtoms>
  150.8396  134.7682  159.6920 H   0  0  0  0  0  0  0  0  0  0  0  0  # atno 6907 bound_to 6896
  152.4486  134.5439  159.9857 H   0  0  0  0  0  0  0  0  0  0  0  0  # atno 6908 bound_to 6896
  151.5582  133.3369  159.3002 H   0  0  0  0  0  0  0  0  0  0  0  0  # atno 6909 bound_to 6896
  146.1638  139.6847  142.9015 H   0  0  0  0  0  0  0  0  0  0  0  0  # atno 7974 bound_to 7965
  154.4401  140.1886  156.0852 H   0  0  0  0  0  0  0  0  0  0  0  0  # atno 8008 bound_to 7997
  156.0408  140.3320  155.7216 H   0  0  0  0  0  0  0  0  0  0  0  0  # atno 8009 bound_to 7997
  155.5702  140.0612  157.2799 H   0  0  0  0  0  0  0  0  0  0  0  0  # atno 8010 bound_to 7997
  139.7716  143.8230  152.2625 H   0  0  0  0  0  0  0  0  0  0  0  0  # atno 10167 bound_to 10162
  157.5073  131.1096  150.9342 H   0  0  0  0  0  0  0  0  0  0  0  0  # atno 10718 bound_to 10713
  154.7409  135.3068  154.8730 H   0  0  0  0  0  0  0  0  0  0  0  0  # atno 10763 bound_to 10752
  153.9545  135.6760  153.4748 H   0  0  0  0  0  0  0  0  0  0  0  0  # atno 10764 bound_to 10752
  153.1008  135.4913  154.8787 H   0  0  0  0  0  0  0  0  0  0  0  0  # atno 10765 bound_to 10752
  141.0350  133.6804  156.2664 H   0  0  0  0  0  0  0  0  0  0  0  0  # atno 11005 bound_to 11000
  145.4520  141.0429  143.2799 LP  0  0  0  0  0  0  0  0  0  0  0  0  # atno 17320 bound_to 7965
  144.8064  139.6044  143.7049 LP  0  0  0  0  0  0  0  0  0  0  0  0  # atno 17321 bound_to 7965
  139.8266  144.7272  150.9504 LP  0  0  0  0  0  0  0  0  0  0  0  0  # atno 17342 bound_to 10162
  140.7814  143.4109  151.0995 LP  0  0  0  0  0  0  0  0  0  0  0  0  # atno 17343 bound_to 10162
  156.9994  130.5594  149.5310 LP  0  0  0  0  0  0  0  0  0  0  0  0  # atno 17370 bound_to 10713
  156.0267  130.5360  150.8424 LP  0  0  0  0  0  0  0  0  0  0  0  0  # atno 17371 bound_to 10713
  140.6338  134.5236  157.5562 LP  0  0  0  0  0  0  0  0  0  0  0  0  # atno 17394 bound_to 11000
  139.9234  134.8103  156.1141 LP  0  0  0  0  0  0  0  0  0  0  0  0  # atno 17395 bound_to 11000

$$$$
