AV-unprocessed.smi:1197|AV-procd|sdf|5008|dock9
  -GOLD-   22720 4 23D 1   1.00000     0.00000
 Structure written by MMmdl.
 40 41  0  0  0  0  0  0  0  0  1 V2000
  135.9928  138.4198  152.4323 C   0  0  0  0  0  0  0  0  0  0  0  0
  136.7687  137.2663  152.7379 O   0  0  0  0  0  0  0  0  0  0  0  0
  138.1434  137.3644  152.6689 C   0  0  0  0  0  0  0  0  0  0  0  0
  138.9151  136.2158  152.9332 C   0  0  0  0  0  0  0  0  0  0  0  0
  140.3188  136.3069  152.8678 C   0  0  0  0  0  0  0  0  0  0  0  0
  140.9098  137.5490  152.5312 C   0  0  0  0  0  0  0  0  0  0  0  0
  142.3097  137.7857  152.4444 N   0  0  0  0  0  0  0  0  0  0  0  0
  143.3209  136.9009  152.4016 C   0  0  0  0  0  0  0  0  0  0  0  0
  143.2018  135.6763  152.3946 O   0  0  0  0  0  0  0  0  0  0  0  0
  144.5060  137.5256  152.3509 N   0  0  0  0  0  0  0  0  0  0  0  0
  145.8017  136.8590  152.3006 C   0  0  0  0  0  0  0  0  0  0  0  0
  145.9147  135.9377  151.0710 C   0  0  0  0  0  0  0  0  0  0  0  0
  145.5088  134.5526  151.3012 N   0  0  0  0  0  0  0  0  0  0  0  0
  146.4971  133.7952  152.0663 C   0  0  0  0  0  0  0  0  0  0  0  0
  146.0638  132.3336  152.2749 C   0  0  0  0  0  0  0  0  0  0  0  0
  145.8188  131.7208  151.0134 O   0  0  0  0  0  0  0  0  0  0  0  0
  144.8255  132.4041  150.2561 C   0  0  0  0  0  0  0  0  0  0  0  0
  145.2587  133.8644  150.0390 C   0  0  0  0  0  0  0  0  0  0  0  0
  140.0474  138.6389  152.2912 C   0  0  0  0  0  0  0  0  0  0  0  0
  138.7016  138.5591  152.3537 N   0  0  0  0  0  0  0  0  0  0  0  0
  134.9343  138.1771  152.5254 H   0  0  0  0  0  0  0  0  0  0  0  0
  136.1654  138.7586  151.4097 H   0  0  0  0  0  0  0  0  0  0  0  0
  136.2066  139.2377  153.1219 H   0  0  0  0  0  0  0  0  0  0  0  0
  138.4389  135.2803  153.1873 H   0  0  0  0  0  0  0  0  0  0  0  0
  140.9013  135.4269  153.0881 H   0  0  0  0  0  0  0  0  0  0  0  0
  142.5749  138.7577  152.3848 H   0  0  0  0  0  0  0  0  0  0  0  0
  144.5140  138.5350  152.3563 H   0  0  0  0  0  0  0  0  0  0  0  0
  146.5636  137.6370  152.2723 H   0  0  0  0  0  0  0  0  0  0  0  0
  145.9658  136.2930  153.2193 H   0  0  0  0  0  0  0  0  0  0  0  0
  145.2876  136.3545  150.2816 H   0  0  0  0  0  0  0  0  0  0  0  0
  146.9354  135.9638  150.6860 H   0  0  0  0  0  0  0  0  0  0  0  0
  147.4591  133.8163  151.5521 H   0  0  0  0  0  0  0  0  0  0  0  0
  146.6535  134.2524  153.0428 H   0  0  0  0  0  0  0  0  0  0  0  0
  146.8437  131.7780  152.7959 H   0  0  0  0  0  0  0  0  0  0  0  0
  145.1656  132.2822  152.8924 H   0  0  0  0  0  0  0  0  0  0  0  0
  144.6975  131.8998  149.2983 H   0  0  0  0  0  0  0  0  0  0  0  0
  143.8664  132.3582  150.7745 H   0  0  0  0  0  0  0  0  0  0  0  0
  144.4841  134.3888  149.4783 H   0  0  0  0  0  0  0  0  0  0  0  0
  146.1583  133.8851  149.4216 H   0  0  0  0  0  0  0  0  0  0  0  0
  140.4489  139.6098  152.0396 H   0  0  0  0  0  0  0  0  0  0  0  0
  1  2  1  0  0  0  0
  1 21  1  0  0  0  0
  1 22  1  0  0  0  0
  1 23  1  0  0  0  0
  2  3  1  0  0  0  0
  3 20  1  0  0  0  0
  3  4  2  0  0  0  0
  4  5  1  0  0  0  0
  4 24  1  0  0  0  0
  5  6  2  0  0  0  0
  5 25  1  0  0  0  0
  6  7  1  0  0  0  0
  6 19  1  0  0  0  0
  7  8  1  0  0  0  0
  7 26  1  0  0  0  0
  8  9  2  0  0  0  0
  8 10  1  0  0  0  0
 10 11  1  0  0  0  0
 10 27  1  0  0  0  0
 11 12  1  0  0  0  0
 11 28  1  0  0  0  0
 11 29  1  0  0  0  0
 12 13  1  0  0  0  0
 12 30  1  0  0  0  0
 12 31  1  0  0  0  0
 13 18  1  0  0  0  0
 13 14  1  0  0  0  0
 14 15  1  0  0  0  0
 14 32  1  0  0  0  0
 14 33  1  0  0  0  0
 15 16  1  0  0  0  0
 15 34  1  0  0  0  0
 15 35  1  0  0  0  0
 16 17  1  0  0  0  0
 17 18  1  0  0  0  0
 17 36  1  0  0  0  0
 17 37  1  0  0  0  0
 18 38  1  0  0  0  0
 18 39  1  0  0  0  0
 19 20  2  0  0  0  0
 19 40  1  0  0  0  0
M  END
> <s_m_source_file>
AV-unprocessed.smi

> <i_m_source_file_index>
1197

> <i_lp_mmshare_version>
43012

> <i_f3d_flags>
0

> <s_epik_input>
W0NIM11PYzFbY0hdW2NIXWMoW2NIXW4xKVtOSF1DKD1PKVtOSF1bQ0gyXVtDSDJdTjJbQ0gyXVtDSDJdT1tDSDJdW0NIMl0y

> <s_epik_cmdline>
J2VwaWtfcHl0aG9uJywgJy1waCcsICc3LjAnLCAnLXRuJywgJzgnLCAnLW1hJywgJzIwMCcsICctbWV0YWxfYmluZGluZycsICctaW1hZScsICc8aW5maWxlLm1hZT4nLCAnLW9tYWUnLCAnPG91dGZpbGUubWFlPic=

> <r_lp_tautomer_probability>
1

> <r_epik_Ionization_Penalty>
0.266083

> <r_epik_Ionization_Penalty_Charging>
0

> <r_epik_Ionization_Penalty_Neutral>
0.266083

> <r_epik_State_Penalty>
0.257924

> <r_epik_Charging_Adjusted_Penalty>
0.257924

> <i_epik_Tot_Q>
0

> <i_epik_Tot_abs_Q>
0

> <r_epik_Metal_State_Penalty>
0.257922

> <b_epik_Metal_Only>
0

> <s_lp_Force_Field>
OPLS_2005

> <r_lp_Energy>
24.2104

> <b_lp_Chiralities_Consistent>
1

> <s_lp_Variant>
AV-unprocessed.smi:1197-1

> <Gold.Version>
5.8.1

> <Gold.Id.Protein>
6NUR|6NUR_protein|mol2

> <Gold.PLP.Fitness>
44.3792

> <Gold.PLP.PLP>
-36.1003

> <Gold.PLP.part.hbond>
-3.0000

> <Gold.PLP.part.metal>
0.0000

> <Gold.PLP.part.buried>
-5.6529

> <Gold.PLP.part.nonpolar>
-28.3946

> <Gold.PLP.part.repulsive>
0.6265

> <Gold.PLP.ligand.clash>
0.0000

> <Gold.PLP.ligand.torsion>
0.3739

> <Gold.PLP.Chemscore.Hbond>
2.0000

> <Gold.PLP.Chemscore.CHOScore>
1.0000

> <Gold.PLP.Chemscore.Metal>
0.0000

> <Gold.Chemscore.Hbonds>
donor molecule, donor type, donor heavy atom, donor atom, acceptor molecule, acceptor atom, score
      L1  H     7    26       P1 10175  1.00
      L1  H    10    27       P1 10175  0.84

> <Gold.PLP.Chemscore.Internal.Correction>
0.0268

> <Gold.Rescore>
     Score         DG    S(hbond)    S(metal)    S(lipo)     H(rot)  DE(clash)    DE(int)     intcor
     13.42     -15.00       1.97        0.00      63.57       1.76       0.03       1.54       ----

> <Gold.Chemscore.Fitness>
13.4232

> <Gold.Chemscore.DG>
-14.9991

> <Gold.Chemscore.ZeroCoef>
-5.4800

> <Gold.Chemscore.Hbond>
1.9741

> <Gold.Chemscore.Metal>
0.0000

> <Gold.Chemscore.Lipo>
63.5724

> <Gold.Chemscore.Internal_Hbond>
0.0000

> <Gold.Chemscore.DEClash>
0.0333

> <Gold.Chemscore.DEInternal>
1.5425

> <Gold.Chemscore.Rot>
1.7626

> <Gold.Chemscore.Internal.Correction>
   9.000000E+99

> <Gold.Chemscore.Hbonds>
donor molecule, donor type, donor heavy atom, donor atom, acceptor molecule, acceptor atom, score
      L1  H     7    26       P1 10175  0.97
      L1  H    10    27       P1 10175  0.82

> <Gold.Chemscore.Hbond.Weighted>
-6.5934

> <Gold.Chemscore.Metal.Weighted>
-0.0000

> <Gold.Chemscore.Lipo.Weighted>
-7.4380

> <Gold.Chemscore.Internal_Hbond.Weighted>
0.0000

> <Gold.Chemscore.DEClash.Weighted>
0.0333

> <Gold.Chemscore.DEInternal.Weighted>
1.5425

> <Gold.Chemscore.Rot.Weighted>
4.5123

> <Gold.Chemscore.Internal.Correction.Weighted>
   9.000000E+99

> <Gold.Protein.RotatedTorsions>
[ 6907 6896 6895 6894 ] final  152.11 input  -60.11 | X-H torsion
[ 7974 7965 7964 7962 ] final  -45.28 input  175.53 | X-H torsion
[ 8008 7997 7996 7995 ] final -162.19 input   59.86 | X-H torsion
[ 10167 10162 10161 10158 ] final  -80.79 input  -65.29 | X-H torsion
[ 10718 10713 10712 10709 ] final -150.97 input   66.30 | X-H torsion
[ 10763 10752 10751 10750 ] final -129.51 input  -60.55 | X-H torsion
[ 11005 11000 10999 10996 ] final   60.91 input  -57.11 | X-H torsion

> <Gold.Protein.ActiveResidues>
 VAL166  LYS551  ARG553  GLY616  TRP617  ASP618  TYR619  PRO620  LYS621  CYS622 
 ASP623  PHE694  ASN695  SER759  ASP760  ASP761  ALA762  ILE779  LEU786  VAL792 
 PHE793  MET794  SER795  GLU796  ALA797  LYS798  CYS799  TRP800  GLU811  SER814 

> <Gold.Protein.RotatedAtoms>
  152.0913  133.4202  159.4544 H   0  0  0  0  0  0  0  0  0  0  0  0  # atno 6907 bound_to 6896
  150.6862  134.2868  159.4659 H   0  0  0  0  0  0  0  0  0  0  0  0  # atno 6908 bound_to 6896
  152.0720  134.9527  160.0625 H   0  0  0  0  0  0  0  0  0  0  0  0  # atno 6909 bound_to 6896
  145.9837  140.7256  142.9351 H   0  0  0  0  0  0  0  0  0  0  0  0  # atno 7974 bound_to 7965
  155.8031  140.0895  157.1946 H   0  0  0  0  0  0  0  0  0  0  0  0  # atno 8008 bound_to 7997
  154.3981  140.1468  156.3357 H   0  0  0  0  0  0  0  0  0  0  0  0  # atno 8009 bound_to 7997
  155.8442  140.3437  155.5654 H   0  0  0  0  0  0  0  0  0  0  0  0  # atno 8010 bound_to 7997
  140.4471  143.2495  151.8543 H   0  0  0  0  0  0  0  0  0  0  0  0  # atno 10167 bound_to 10162
  156.4531  130.8177  151.2408 H   0  0  0  0  0  0  0  0  0  0  0  0  # atno 10718 bound_to 10713
  154.8757  135.3893  154.3932 H   0  0  0  0  0  0  0  0  0  0  0  0  # atno 10763 bound_to 10752
  153.4665  135.7029  153.6024 H   0  0  0  0  0  0  0  0  0  0  0  0  # atno 10764 bound_to 10752
  153.4499  135.3836  155.2246 H   0  0  0  0  0  0  0  0  0  0  0  0  # atno 10765 bound_to 10752
  140.0198  134.6170  155.9656 H   0  0  0  0  0  0  0  0  0  0  0  0  # atno 11005 bound_to 11000
  144.6868  140.2951  143.7272 LP  0  0  0  0  0  0  0  0  0  0  0  0  # atno 17320 bound_to 7965
  145.7732  139.1865  143.2200 LP  0  0  0  0  0  0  0  0  0  0  0  0  # atno 17321 bound_to 7965
  139.4793  144.5163  151.8863 LP  0  0  0  0  0  0  0  0  0  0  0  0  # atno 17342 bound_to 10162
  140.4251  144.2191  150.5887 LP  0  0  0  0  0  0  0  0  0  0  0  0  # atno 17343 bound_to 10162
  157.7502  131.0131  150.3412 LP  0  0  0  0  0  0  0  0  0  0  0  0  # atno 17370 bound_to 10713
  156.3795  130.3878  149.7113 LP  0  0  0  0  0  0  0  0  0  0  0  0  # atno 17371 bound_to 10713
  141.1766  133.6541  156.4854 LP  0  0  0  0  0  0  0  0  0  0  0  0  # atno 17394 bound_to 11000
  140.4407  134.7018  157.4990 LP  0  0  0  0  0  0  0  0  0  0  0  0  # atno 17395 bound_to 11000

$$$$
