AV-unprocessed.smi:3033|AV-procd|sdf|11576|dock3
  -GOLD-   2272016543D 1   1.00000     0.00000
 Structure written by MMmdl.
 32 33  0  0  0  0  0  0  0  0  2 V2000
  154.4136  141.3104  160.1371 C   0  0  0  0  0  0  0  0  0  0  0  0
  153.8558  142.5452  160.5628 O   0  0  0  0  0  0  0  0  0  0  0  0
  152.6978  142.9778  159.9530 C   0  0  0  0  0  0  0  0  0  0  0  0
  152.2192  144.2522  160.3192 C   0  0  0  0  0  0  0  0  0  0  0  0
  151.0470  144.7743  159.7411 C   0  0  0  0  0  0  0  0  0  0  0  0
  150.3356  144.0214  158.7895 C   0  0  0  0  0  0  0  0  0  0  0  0
  150.7930  142.7395  158.4154 C   0  0  0  0  0  0  0  0  0  0  0  0
  150.0431  141.9137  157.3800 C   0  0  1  0  0  0  0  0  0  0  0  0
  148.7902  142.4882  157.0605 O   0  0  0  0  0  0  0  0  0  0  0  0
  150.8693  141.7762  156.0838 C   0  0  0  0  0  0  0  0  0  0  0  0
  151.3933  140.4145  155.9026 N   0  0  0  0  0  0  0  0  0  0  0  0
  152.2059  139.8917  156.9224 C   0  0  0  0  0  0  0  0  0  0  0  0
  152.7344  138.6545  156.8523 C   0  0  0  0  0  0  0  0  0  0  0  0
  153.7326  138.0389  158.1211 Cl  0  0  0  0  0  0  0  0  0  0  0  0
  152.4397  137.8489  155.6688 C   0  0  0  0  0  0  0  0  0  0  0  0
  152.9010  136.7124  155.5752 O   0  0  0  0  0  0  0  0  0  0  0  0
  151.6515  138.4059  154.7028 N   0  5  0  0  0  0  0  0  0  0  0  0
  151.1266  139.6670  154.7904 C   0  0  0  0  0  0  0  0  0  0  0  0
  150.4256  140.1522  153.9014 O   0  0  0  0  0  0  0  0  0  0  0  0
  151.9737  142.2258  158.9934 C   0  0  0  0  0  0  0  0  0  0  0  0
  155.3201  141.1095  160.7078 H   0  0  0  0  0  0  0  0  0  0  0  0
  154.6881  141.3402  159.0817 H   0  0  0  0  0  0  0  0  0  0  0  0
  153.7259  140.4813  160.3088 H   0  0  0  0  0  0  0  0  0  0  0  0
  152.7589  144.8379  161.0487 H   0  0  0  0  0  0  0  0  0  0  0  0
  150.6949  145.7544  160.0270 H   0  0  0  0  0  0  0  0  0  0  0  0
  149.4405  144.4333  158.3467 H   0  0  0  0  0  0  0  0  0  0  0  0
  149.8492  140.9299  157.8094 H   0  0  0  0  0  0  0  0  0  0  0  0
  148.9435  143.3106  156.6216 H   0  0  0  0  0  0  0  0  0  0  0  0
  150.2867  142.1000  155.2196 H   0  0  0  0  0  0  0  0  0  0  0  0
  151.7166  142.4641  156.1178 H   0  0  0  0  0  0  0  0  0  0  0  0
  152.3759  140.5566  157.7567 H   0  0  0  0  0  0  0  0  0  0  0  0
  152.3099  141.2484  158.6817 H   0  0  0  0  0  0  0  0  0  0  0  0
  1  2  1  0  0  0  0
  1 21  1  0  0  0  0
  1 22  1  0  0  0  0
  1 23  1  0  0  0  0
  2  3  1  0  0  0  0
  3 20  1  0  0  0  0
  3  4  2  0  0  0  0
  4  5  1  0  0  0  0
  4 24  1  0  0  0  0
  5  6  2  0  0  0  0
  5 25  1  0  0  0  0
  6  7  1  0  0  0  0
  6 26  1  0  0  0  0
  7  8  1  0  0  0  0
  7 20  2  0  0  0  0
  8  9  1  0  0  0  0
  8 10  1  0  0  0  0
  8 27  1  0  0  0  0
  9 28  1  0  0  0  0
 10 11  1  0  0  0  0
 10 29  1  0  0  0  0
 10 30  1  0  0  0  0
 11 18  1  0  0  0  0
 11 12  1  0  0  0  0
 12 13  2  0  0  0  0
 12 31  1  0  0  0  0
 13 14  1  0  0  0  0
 13 15  1  0  0  0  0
 15 16  2  0  0  0  0
 15 17  1  0  0  0  0
 17 18  1  0  0  0  0
 18 19  2  0  0  0  0
 20 32  1  0  0  0  0
M  CHG  1  17  -1
M  END
> <s_m_source_file>
AV-unprocessed.smi

> <i_m_source_file_index>
3033

> <i_lp_mmshare_version>
43012

> <i_f3d_flags>
0

> <s_epik_input>
W0NIM11PYzFbY0hdW2NIXVtjSF1jKFtjSF0xKVtDQEhdKFtPSF0pW0NIMl1uMltjSF1jKENsKWMoPU8pW25IXWMyPU8=

> <s_epik_cmdline>
J2VwaWtfcHl0aG9uJywgJy1waCcsICc3LjAnLCAnLXRuJywgJzgnLCAnLW1hJywgJzIwMCcsICctbWV0YWxfYmluZGluZycsICctaW1hZScsICc8aW5maWxlLm1hZT4nLCAnLW9tYWUnLCAnPG91dGZpbGUubWFlPic=

> <r_lp_tautomer_probability>
1

> <r_epik_Ionization_Penalty>
1.7979

> <r_epik_Ionization_Penalty_Charging>
3.23819e-08

> <r_epik_Ionization_Penalty_Neutral>
1.7979

> <r_epik_State_Penalty>
1.91135

> <r_epik_Charging_Adjusted_Penalty>
1.91135

> <i_epik_Tot_Q>
-1

> <i_epik_Tot_abs_Q>
1

> <r_epik_Metal_State_Penalty>
0.014155

> <b_epik_Metal_Only>
0

> <s_lp_Force_Field>
OPLS_2005

> <r_lp_Energy>
25.1118

> <b_lp_Chiralities_Consistent>
1

> <s_lp_Variant>
AV-unprocessed.smi:3033-4

> <Gold.Version>
5.8.1

> <Gold.Id.Protein>
6NUR|6NUR_protein|mol2

> <Gold.PLP.Fitness>
46.0461

> <Gold.PLP.PLP>
-38.8237

> <Gold.PLP.part.hbond>
-2.7036

> <Gold.PLP.part.metal>
0.0000

> <Gold.PLP.part.buried>
-5.8546

> <Gold.PLP.part.nonpolar>
-30.3324

> <Gold.PLP.part.repulsive>
0.5354

> <Gold.PLP.ligand.clash>
0.0000

> <Gold.PLP.ligand.torsion>
0.8721

> <Gold.PLP.Chemscore.Hbond>
2.9760

> <Gold.PLP.Chemscore.CHOScore>
0.0000

> <Gold.PLP.Chemscore.Metal>
0.0000

> <Gold.Chemscore.Hbonds>
donor molecule, donor type, donor heavy atom, donor atom, acceptor molecule, acceptor atom, score
      L1  H     9    28       P1  8028  1.00
      P1  H  7989  7998       L1    19  0.27
      P1  H 10752 10763       L1    16  0.34

> <Gold.PLP.Chemscore.Internal.Correction>
0.0386

> <Gold.Rescore>
     Score         DG    S(hbond)    S(metal)    S(lipo)     H(rot)  DE(clash)    DE(int)     intcor
     18.77     -19.59       2.86        0.00      92.56       2.45       0.01       0.81       ----

> <Gold.Chemscore.Fitness>
18.7673

> <Gold.Chemscore.DG>
-19.5882

> <Gold.Chemscore.ZeroCoef>
-5.4800

> <Gold.Chemscore.Hbond>
2.8588

> <Gold.Chemscore.Metal>
0.0000

> <Gold.Chemscore.Lipo>
92.5581

> <Gold.Chemscore.Internal_Hbond>
0.0000

> <Gold.Chemscore.DEClash>
0.0098

> <Gold.Chemscore.DEInternal>
0.8111

> <Gold.Chemscore.Rot>
2.4491

> <Gold.Chemscore.Internal.Correction>
   9.000000E+99

> <Gold.Chemscore.Hbonds>
donor molecule, donor type, donor heavy atom, donor atom, acceptor molecule, acceptor atom, score
      L1  H     9    28       P1  8028  0.93
      P1  H  7989  7998       L1    19  0.01
      P1  H 10752 10763       L1    16  0.34

> <Gold.Chemscore.Hbond.Weighted>
-9.5485

> <Gold.Chemscore.Metal.Weighted>
-0.0000

> <Gold.Chemscore.Lipo.Weighted>
-10.8293

> <Gold.Chemscore.Internal_Hbond.Weighted>
0.0000

> <Gold.Chemscore.DEClash.Weighted>
0.0098

> <Gold.Chemscore.DEInternal.Weighted>
0.8111

> <Gold.Chemscore.Rot.Weighted>
6.2696

> <Gold.Chemscore.Internal.Correction.Weighted>
   9.000000E+99

> <Gold.Protein.RotatedTorsions>
[ 6907 6896 6895 6894 ] final  -60.86 input  -60.11 | X-H torsion
[ 7974 7965 7964 7962 ] final -177.40 input  175.53 | X-H torsion
[ 8008 7997 7996 7995 ] final -120.21 input   59.86 | X-H torsion
[ 10167 10162 10161 10158 ] final   36.32 input  -65.29 | X-H torsion
[ 10718 10713 10712 10709 ] final -164.23 input   66.30 | X-H torsion
[ 10763 10752 10751 10750 ] final   94.93 input  -60.55 | X-H torsion
[ 11005 11000 10999 10996 ] final -124.45 input  -57.11 | X-H torsion

> <Gold.Protein.ActiveResidues>
 VAL166  LYS551  ARG553  GLY616  TRP617  ASP618  TYR619  PRO620  LYS621  CYS622 
 ASP623  PHE694  ASN695  SER759  ASP760  ASP761  ALA762  ILE779  LEU786  VAL792 
 PHE793  MET794  SER795  GLU796  ALA797  LYS798  CYS799  TRP800  GLU811  SER814 

> <Gold.Protein.RotatedAtoms>
  150.7826  134.6782  159.6428 H   0  0  0  0  0  0  0  0  0  0  0  0  # atno 6907 bound_to 6896
  152.3914  134.6432  160.0115 H   0  0  0  0  0  0  0  0  0  0  0  0  # atno 6908 bound_to 6896
  151.6731  133.3277  159.3237 H   0  0  0  0  0  0  0  0  0  0  0  0  # atno 6909 bound_to 6896
  144.7127  140.1025  143.6415 H   0  0  0  0  0  0  0  0  0  0  0  0  # atno 7974 bound_to 7965
  155.1281  140.0399  157.2768 H   0  0  0  0  0  0  0  0  0  0  0  0  # atno 8008 bound_to 7997
  154.6563  140.2581  155.7132 H   0  0  0  0  0  0  0  0  0  0  0  0  # atno 8009 bound_to 7997
  156.2599  140.2826  156.1017 H   0  0  0  0  0  0  0  0  0  0  0  0  # atno 8010 bound_to 7997
  140.4139  144.1554  150.6141 H   0  0  0  0  0  0  0  0  0  0  0  0  # atno 10167 bound_to 10162
  156.6361  130.8949  151.2987 H   0  0  0  0  0  0  0  0  0  0  0  0  # atno 10718 bound_to 10713
  153.2473  135.4272  155.0760 H   0  0  0  0  0  0  0  0  0  0  0  0  # atno 10763 bound_to 10752
  154.8366  135.3417  154.6564 H   0  0  0  0  0  0  0  0  0  0  0  0  # atno 10764 bound_to 10752
  153.6986  135.7029  153.5126 H   0  0  0  0  0  0  0  0  0  0  0  0  # atno 10765 bound_to 10752
  140.9840  134.0633  157.3732 H   0  0  0  0  0  0  0  0  0  0  0  0  # atno 11005 bound_to 11000
  145.9525  139.2743  143.1204 LP  0  0  0  0  0  0  0  0  0  0  0  0  # atno 17320 bound_to 7965
  145.9308  140.9050  143.0357 LP  0  0  0  0  0  0  0  0  0  0  0  0  # atno 17321 bound_to 7965
  140.4608  143.2450  151.9223 LP  0  0  0  0  0  0  0  0  0  0  0  0  # atno 17342 bound_to 10162
  139.4782  144.5469  151.8444 LP  0  0  0  0  0  0  0  0  0  0  0  0  # atno 17343 bound_to 10162
  157.7185  130.9528  150.1347 LP  0  0  0  0  0  0  0  0  0  0  0  0  # atno 17370 bound_to 10713
  156.2196  130.3673  149.8572 LP  0  0  0  0  0  0  0  0  0  0  0  0  # atno 17371 bound_to 10713
  139.8962  135.0145  156.7042 LP  0  0  0  0  0  0  0  0  0  0  0  0  # atno 17394 bound_to 11000
  140.7142  133.9196  155.8104 LP  0  0  0  0  0  0  0  0  0  0  0  0  # atno 17395 bound_to 11000

$$$$
