AV-unprocessed.smi:290|AV-procd|sdf|2243|dock10
  -GOLD-   2262022123D 1   1.00000     0.00000
 Structure written by MMmdl.
 59 62  0  0  0  0  0  0  0  0  2 V2000
  153.6544  143.1263  159.1840 C   0  0  0  0  0  0  0  0  0  0  0  0
  152.5434  144.0747  158.7069 C   0  0  2  0  0  0  0  0  0  0  0  0
  152.0091  144.7297  159.8542 O   0  0  0  0  0  0  0  0  0  0  0  0
  150.6501  145.0431  159.6079 C   0  0  0  0  0  0  0  0  0  0  0  0
  150.1541  143.7943  158.8957 C   0  0  0  0  0  0  0  0  0  0  0  0
  151.3258  143.4261  157.9884 C   0  0  1  0  0  0  0  0  0  0  0  0
  151.1418  144.1011  156.7549 O   0  0  0  0  0  0  0  0  0  0  0  0
  151.4275  141.9055  157.6972 C   0  0  0  0  0  0  0  0  0  0  0  0
  150.3019  141.3873  156.9350 N   0  0  0  0  0  0  0  0  0  0  0  0
  148.9689  141.6622  157.1399 C   0  0  0  0  0  0  0  0  0  0  0  0
  148.1470  141.0764  156.3130 N   0  0  0  0  0  0  0  0  0  0  0  0
  148.9744  140.3379  155.4741 C   0  0  0  0  0  0  0  0  0  0  0  0
  148.7471  139.4784  154.3602 C   0  0  0  0  0  0  0  0  0  0  0  0
  147.5059  139.2309  153.8611 N   0  0  0  0  0  0  0  0  0  0  0  0
  147.2043  139.7751  152.5375 C   0  0  0  0  0  0  0  0  0  0  0  0
  146.4877  138.6621  151.7622 C   0  0  0  0  0  0  0  0  0  0  0  0
  146.8469  137.3945  152.5496 C   0  0  2  0  0  0  0  0  0  0  0  0
  145.9576  136.2199  152.3190 N   0  3  2  0  0  0  0  0  0  0  0  0
  146.3147  135.0468  153.1557 C   0  0  0  0  0  0  0  0  0  0  0  0
  145.7403  135.8610  150.8873 C   0  0  0  0  0  0  0  0  0  0  0  0
  144.6587  134.7882  150.6285 C   0  0  0  0  0  0  0  0  0  0  0  0
  144.2543  134.7693  149.2766 O   0  0  0  0  0  0  0  0  0  0  0  0
  146.8614  137.9248  153.9959 C   0  0  2  0  0  0  0  0  0  0  0  0
  145.4649  138.1001  154.6297 C   0  0  0  0  0  0  0  0  0  0  0  0
  149.8386  138.9002  153.7918 N   0  0  0  0  0  0  0  0  0  0  0  0
  151.0636  139.1490  154.2635 C   0  0  0  0  0  0  0  0  0  0  0  0
  151.4213  139.9332  155.2810 N   0  0  0  0  0  0  0  0  0  0  0  0
  150.3330  140.5129  155.8629 C   0  0  0  0  0  0  0  0  0  0  0  0
  147.8676  137.1076  152.2896 H   0  0  0  0  0  0  0  0  0  0  0  0
  147.4232  137.2374  154.6270 H   0  0  0  0  0  0  0  0  0  0  0  0
  154.1176  142.6019  158.3482 H   0  0  0  0  0  0  0  0  0  0  0  0
  153.2741  142.3842  159.8863 H   0  0  0  0  0  0  0  0  0  0  0  0
  154.4411  143.6828  159.6939 H   0  0  0  0  0  0  0  0  0  0  0  0
  152.9946  144.8406  158.0731 H   0  0  0  0  0  0  0  0  0  0  0  0
  150.1087  145.2472  160.5318 H   0  0  0  0  0  0  0  0  0  0  0  0
  150.5819  145.9204  158.9624 H   0  0  0  0  0  0  0  0  0  0  0  0
  149.9927  143.0106  159.6373 H   0  0  0  0  0  0  0  0  0  0  0  0
  149.2134  143.9471  158.3645 H   0  0  0  0  0  0  0  0  0  0  0  0
  150.2286  144.3296  156.6699 H   0  0  0  0  0  0  0  0  0  0  0  0
  152.3424  141.6824  157.1468 H   0  0  0  0  0  0  0  0  0  0  0  0
  151.4814  141.3409  158.6284 H   0  0  0  0  0  0  0  0  0  0  0  0
  148.6223  142.3193  157.9241 H   0  0  0  0  0  0  0  0  0  0  0  0
  146.5853  140.6692  152.6169 H   0  0  0  0  0  0  0  0  0  0  0  0
  148.1225  140.0477  152.0148 H   0  0  0  0  0  0  0  0  0  0  0  0
  145.4108  138.8334  151.7775 H   0  0  0  0  0  0  0  0  0  0  0  0
  146.8020  138.6274  150.7193 H   0  0  0  0  0  0  0  0  0  0  0  0
  147.3483  134.7401  152.9936 H   0  0  0  0  0  0  0  0  0  0  0  0
  145.6663  134.1984  152.9347 H   0  0  0  0  0  0  0  0  0  0  0  0
  146.2011  135.2675  154.2164 H   0  0  0  0  0  0  0  0  0  0  0  0
  145.4373  136.7758  150.3765 H   0  0  0  0  0  0  0  0  0  0  0  0
  146.6801  135.5762  150.4137 H   0  0  0  0  0  0  0  0  0  0  0  0
  144.9736  133.7922  150.9371 H   0  0  0  0  0  0  0  0  0  0  0  0
  143.7749  135.0254  151.2210 H   0  0  0  0  0  0  0  0  0  0  0  0
  144.9476  135.1343  148.7473 H   0  0  0  0  0  0  0  0  0  0  0  0
  144.9397  137.1506  154.7280 H   0  0  0  0  0  0  0  0  0  0  0  0
  144.8287  138.7708  154.0520 H   0  0  0  0  0  0  0  0  0  0  0  0
  145.5521  138.5218  155.6314 H   0  0  0  0  0  0  0  0  0  0  0  0
  151.8731  138.6508  153.7505 H   0  0  0  0  0  0  0  0  0  0  0  0
  145.0486  136.5142  152.6467 H   0  0  0  0  0  0  0  0  0  0  0  0
  1  2  1  0  0  0  0
  1 31  1  0  0  0  0
  1 32  1  0  0  0  0
  1 33  1  0  0  0  0
  2  6  1  0  0  0  0
  2  3  1  0  0  0  0
  2 34  1  0  0  0  0
  3  4  1  0  0  0  0
  4  5  1  0  0  0  0
  4 35  1  0  0  0  0
  4 36  1  0  0  0  0
  5  6  1  0  0  0  0
  5 37  1  0  0  0  0
  5 38  1  0  0  0  0
  6  7  1  0  0  0  0
  6  8  1  0  0  0  0
  7 39  1  0  0  0  0
  8  9  1  0  0  0  0
  8 40  1  0  0  0  0
  8 41  1  0  0  0  0
  9 28  1  0  0  0  0
  9 10  1  0  0  0  0
 10 11  2  0  0  0  0
 10 42  1  0  0  0  0
 11 12  1  0  0  0  0
 12 28  2  0  0  0  0
 12 13  1  0  0  0  0
 13 14  1  0  0  0  0
 13 25  2  0  0  0  0
 14 23  1  0  0  0  0
 14 15  1  0  0  0  0
 15 16  1  0  0  0  0
 15 43  1  0  0  0  0
 15 44  1  0  0  0  0
 16 17  1  0  0  0  0
 16 45  1  0  0  0  0
 16 46  1  0  0  0  0
 17 29  1  0  0  0  0
 17 18  1  0  0  0  0
 17 23  1  0  0  0  0
 18 19  1  0  0  0  0
 18 20  1  0  0  0  0
 18 59  1  0  0  0  0
 19 47  1  0  0  0  0
 19 48  1  0  0  0  0
 19 49  1  0  0  0  0
 20 21  1  0  0  0  0
 20 50  1  0  0  0  0
 20 51  1  0  0  0  0
 21 22  1  0  0  0  0
 21 52  1  0  0  0  0
 21 53  1  0  0  0  0
 22 54  1  0  0  0  0
 23 30  1  0  0  0  0
 23 24  1  0  0  0  0
 24 55  1  0  0  0  0
 24 56  1  0  0  0  0
 24 57  1  0  0  0  0
 25 26  1  0  0  0  0
 26 27  2  0  0  0  0
 26 58  1  0  0  0  0
 27 28  1  0  0  0  0
M  CHG  1  18   1
M  END
> <s_m_source_file>
AV-unprocessed.smi

> <i_m_source_file_index>
290

> <i_lp_mmshare_version>
43012

> <i_f3d_flags>
0

> <s_epik_input>
W0NIMl0xW0NIMl1PW0NAQEhdKFtDSDNdKVtDQEBdMShbT0hdKVtDSDJdbihbY0hdbjIpYyhjMjMpbltjSF1uYzNONFtDSDJdW0NIMl1bQ0BIXShbQ0BIXTRbQ0gzXSlOKFtDSDNdKVtDSDJdW0NIMl1bT0hd

> <s_epik_cmdline>
J2VwaWtfcHl0aG9uJywgJy1waCcsICc3LjAnLCAnLXRuJywgJzgnLCAnLW1hJywgJzIwMCcsICctbWV0YWxfYmluZGluZycsICctaW1hZScsICc8aW5maWxlLm1hZT4nLCAnLW9tYWUnLCAnPG91dGZpbGUubWFlPic=

> <r_lp_tautomer_probability>
1

> <r_epik_Ionization_Penalty>
0.0036983

> <r_epik_Ionization_Penalty_Charging>
0.0032725

> <r_epik_Ionization_Penalty_Neutral>
0.000425798

> <r_epik_State_Penalty>
-0

> <r_epik_Charging_Adjusted_Penalty>
0.0032725

> <i_epik_Tot_Q>
1

> <i_epik_Tot_abs_Q>
1

> <r_epik_Metal_State_Penalty>
-0

> <b_epik_Metal_Only>
0

> <s_lp_Force_Field>
OPLS_2005

> <r_lp_Energy>
63.2975

> <b_lp_Chiralities_Consistent>
1

> <s_lp_Variant>
AV-unprocessed.smi:290-29

> <Gold.Version>
5.8.1

> <Gold.Id.Protein>
6NUR|6NUR_protein|mol2

> <Gold.PLP.Fitness>
51.1068

> <Gold.PLP.PLP>
-45.6344

> <Gold.PLP.part.hbond>
-3.7793

> <Gold.PLP.part.metal>
0.0000

> <Gold.PLP.part.buried>
-1.6091

> <Gold.PLP.part.nonpolar>
-42.0814

> <Gold.PLP.part.repulsive>
1.5586

> <Gold.PLP.ligand.clash>
0.0000

> <Gold.PLP.ligand.torsion>
0.5245

> <Gold.PLP.Chemscore.Hbond>
2.0000

> <Gold.PLP.Chemscore.CHOScore>
0.0000

> <Gold.PLP.Chemscore.Metal>
0.0000

> <Gold.Chemscore.Hbonds>
donor molecule, donor type, donor heavy atom, donor atom, acceptor molecule, acceptor atom, score
      L1  H     7    39       P1  8028  0.99
      L1  H    22    54       P1  7921  0.93

> <Gold.PLP.Chemscore.Internal.Correction>
0.5214

> <Gold.Rescore>
     Score         DG    S(hbond)    S(metal)    S(lipo)     H(rot)  DE(clash)    DE(int)     intcor
     12.05     -15.55       1.90        0.00     112.08       3.67       2.97       0.53       ----

> <Gold.Chemscore.Fitness>
12.0529

> <Gold.Chemscore.DG>
-15.5545

> <Gold.Chemscore.ZeroCoef>
-5.4800

> <Gold.Chemscore.Hbond>
1.8997

> <Gold.Chemscore.Metal>
0.0000

> <Gold.Chemscore.Lipo>
112.0843

> <Gold.Chemscore.Internal_Hbond>
0.0000

> <Gold.Chemscore.DEClash>
2.9704

> <Gold.Chemscore.DEInternal>
0.5311

> <Gold.Chemscore.Rot>
3.6658

> <Gold.Chemscore.Internal.Correction>
   9.000000E+99

> <Gold.Chemscore.Hbonds>
donor molecule, donor type, donor heavy atom, donor atom, acceptor molecule, acceptor atom, score
      L1  H     7    39       P1  8028  0.91
      L1  H    22    54       P1  7921  0.89

> <Gold.Chemscore.Hbond.Weighted>
-6.3450

> <Gold.Chemscore.Metal.Weighted>
-0.0000

> <Gold.Chemscore.Lipo.Weighted>
-13.1139

> <Gold.Chemscore.Internal_Hbond.Weighted>
0.0000

> <Gold.Chemscore.DEClash.Weighted>
2.9704

> <Gold.Chemscore.DEInternal.Weighted>
0.5311

> <Gold.Chemscore.Rot.Weighted>
9.3844

> <Gold.Chemscore.Internal.Correction.Weighted>
   9.000000E+99

> <Gold.Protein.RotatedTorsions>
[ 6907 6896 6895 6894 ] final -130.75 input  -60.11 | X-H torsion
[ 7974 7965 7964 7962 ] final  157.19 input  175.53 | X-H torsion
[ 8008 7997 7996 7995 ] final  -27.49 input   59.86 | X-H torsion
[ 10167 10162 10161 10158 ] final   55.06 input  -65.29 | X-H torsion
[ 10718 10713 10712 10709 ] final   22.48 input   66.30 | X-H torsion
[ 10763 10752 10751 10750 ] final   70.19 input  -60.55 | X-H torsion
[ 11005 11000 10999 10996 ] final -107.01 input  -57.11 | X-H torsion

> <Gold.Protein.ActiveResidues>
 VAL166  LYS551  ARG553  GLY616  TRP617  ASP618  TYR619  PRO620  LYS621  CYS622 
 ASP623  PHE694  ASN695  SER759  ASP760  ASP761  ALA762  ILE779  LEU786  VAL792 
 PHE793  MET794  SER795  GLU796  ALA797  LYS798  CYS799  TRP800  GLU811  SER814 

> <Gold.Protein.RotatedAtoms>
  150.9432  133.6633  159.2786 H   0  0  0  0  0  0  0  0  0  0  0  0  # atno 6907 bound_to 6896
  151.4015  135.0970  159.9567 H   0  0  0  0  0  0  0  0  0  0  0  0  # atno 6908 bound_to 6896
  152.5078  133.8925  159.7455 H   0  0  0  0  0  0  0  0  0  0  0  0  # atno 6909 bound_to 6896
  144.7918  139.7307  143.6218 H   0  0  0  0  0  0  0  0  0  0  0  0  # atno 7974 bound_to 7965
  154.4375  140.1871  156.0940 H   0  0  0  0  0  0  0  0  0  0  0  0  # atno 8008 bound_to 7997
  156.0343  140.3327  155.7148 H   0  0  0  0  0  0  0  0  0  0  0  0  # atno 8009 bound_to 7997
  155.5793  140.0620  157.2778 H   0  0  0  0  0  0  0  0  0  0  0  0  # atno 8010 bound_to 7997
  140.2235  144.3763  150.6441 H   0  0  0  0  0  0  0  0  0  0  0  0  # atno 10167 bound_to 10162
  157.1529  130.6682  149.6018 H   0  0  0  0  0  0  0  0  0  0  0  0  # atno 10718 bound_to 10713
  153.0328  135.5183  154.7404 H   0  0  0  0  0  0  0  0  0  0  0  0  # atno 10763 bound_to 10752
  154.6405  135.2911  155.0111 H   0  0  0  0  0  0  0  0  0  0  0  0  # atno 10764 bound_to 10752
  154.1031  135.6633  153.4924 H   0  0  0  0  0  0  0  0  0  0  0  0  # atno 10765 bound_to 10752
  141.0975  133.8944  157.1925 H   0  0  0  0  0  0  0  0  0  0  0  0  # atno 11005 bound_to 11000
  146.2172  139.5571  142.9642 LP  0  0  0  0  0  0  0  0  0  0  0  0  # atno 17320 bound_to 7965
  145.5775  141.0386  143.2140 LP  0  0  0  0  0  0  0  0  0  0  0  0  # atno 17321 bound_to 7965
  140.6237  143.2179  151.6640 LP  0  0  0  0  0  0  0  0  0  0  0  0  # atno 17342 bound_to 10162
  139.5135  144.3440  152.0714 LP  0  0  0  0  0  0  0  0  0  0  0  0  # atno 17343 bound_to 10162
  155.9767  130.4738  150.6547 LP  0  0  0  0  0  0  0  0  0  0  0  0  # atno 17370 bound_to 10713
  157.4204  131.0836  151.1136 LP  0  0  0  0  0  0  0  0  0  0  0  0  # atno 17371 bound_to 10713
  139.9816  135.0096  156.9764 LP  0  0  0  0  0  0  0  0  0  0  0  0  # atno 17394 bound_to 11000
  140.5103  134.1009  155.7269 LP  0  0  0  0  0  0  0  0  0  0  0  0  # atno 17395 bound_to 11000

$$$$
