AV-unprocessed.smi:212|AV-procd|sdf|1631|dock5
  -GOLD-   2262019583D 1   1.00000     0.00000
 Structure written by MMmdl.
 65 68  0  0  0  0  0  0  0  0  2 V2000
  143.1648  136.6850  152.7580 C   0  0  0  0  0  0  0  0  0  0  0  0
  144.6531  137.0662  152.6812 C   0  0  2  0  0  0  0  0  0  0  0  0
  145.4394  136.1527  151.7180 C   0  0  0  0  0  0  0  0  0  0  0  0
  145.6289  134.7919  152.2867 N   0  3  1  0  0  0  0  0  0  0  0  0
  146.2674  133.8413  151.3387 C   0  0  0  0  0  0  0  0  0  0  0  0
  145.2333  133.0713  150.4840 C   0  0  0  0  0  0  0  0  0  0  0  0
  145.9460  132.0446  149.5878 C   0  0  0  0  0  0  0  0  0  0  0  0
  144.1663  132.3740  151.3479 C   0  0  0  0  0  0  0  0  0  0  0  0
  144.5798  133.9775  149.6177 O   0  0  0  0  0  0  0  0  0  0  0  0
  146.2898  134.8289  153.6154 C   0  0  0  0  0  0  0  0  0  0  0  0
  145.5212  135.7417  154.5888 C   0  0  0  0  0  0  0  0  0  0  0  0
  145.2820  137.0628  154.0047 N   0  0  0  0  0  0  0  0  0  0  0  0
  146.1829  138.0539  154.2382 C   0  0  0  0  0  0  0  0  0  0  0  0
  146.5300  138.9061  153.2369 N   0  0  0  0  0  0  0  0  0  0  0  0
  147.4046  139.8915  153.4594 C   0  0  0  0  0  0  0  0  0  0  0  0
  148.0438  140.2001  154.5887 N   0  0  0  0  0  0  0  0  0  0  0  0
  147.7077  139.3444  155.5956 C   0  0  0  0  0  0  0  0  0  0  0  0
  146.7962  138.2543  155.5076 C   0  0  0  0  0  0  0  0  0  0  0  0
  146.7199  137.6021  156.7331 N   0  0  0  0  0  0  0  0  0  0  0  0
  147.5354  138.2708  157.5023 C   0  0  0  0  0  0  0  0  0  0  0  0
  148.1719  139.3313  156.8989 N   0  0  0  0  0  0  0  0  0  0  0  0
  149.1267  140.2338  157.5168 C   0  0  0  0  0  0  0  0  0  0  0  0
  150.5704  140.0925  156.9592 C   0  0  1  0  0  0  0  0  0  0  0  0
  150.6683  140.3138  155.4294 C   0  0  0  0  0  0  0  0  0  0  0  0
  151.9398  139.9639  154.9220 O   0  0  0  0  0  0  0  0  0  0  0  0
  151.6024  140.9906  157.6922 C   0  0  1  0  0  0  0  0  0  0  0  0
  151.3493  142.4970  157.6629 C   0  0  0  0  0  0  0  0  0  0  0  0
  151.8615  142.9864  159.0220 C   0  0  0  0  0  0  0  0  0  0  0  0
  152.5192  141.8687  159.6039 O   0  0  0  0  0  0  0  0  0  0  0  0
  151.8285  140.7067  159.1781 C   0  0  0  0  0  0  0  0  0  0  0  0
  142.6953  136.7533  151.7765 H   0  0  0  0  0  0  0  0  0  0  0  0
  142.6260  137.3578  153.4258 H   0  0  0  0  0  0  0  0  0  0  0  0
  143.0186  135.6675  153.1207 H   0  0  0  0  0  0  0  0  0  0  0  0
  144.6907  138.0691  152.2572 H   0  0  0  0  0  0  0  0  0  0  0  0
  144.9260  136.0971  150.7580 H   0  0  0  0  0  0  0  0  0  0  0  0
  146.4193  136.5907  151.5204 H   0  0  0  0  0  0  0  0  0  0  0  0
  146.9808  134.3674  150.7018 H   0  0  0  0  0  0  0  0  0  0  0  0
  146.8603  133.1122  151.8939 H   0  0  0  0  0  0  0  0  0  0  0  0
  146.4759  131.3006  150.1838 H   0  0  0  0  0  0  0  0  0  0  0  0
  146.6777  132.5238  148.9359 H   0  0  0  0  0  0  0  0  0  0  0  0
  145.2392  131.5108  148.9511 H   0  0  0  0  0  0  0  0  0  0  0  0
  144.6233  131.6699  152.0437 H   0  0  0  0  0  0  0  0  0  0  0  0
  143.4608  131.8148  150.7321 H   0  0  0  0  0  0  0  0  0  0  0  0
  143.5870  133.0882  151.9343 H   0  0  0  0  0  0  0  0  0  0  0  0
  145.2149  134.3248  149.0094 H   0  0  0  0  0  0  0  0  0  0  0  0
  146.3411  133.8216  154.0304 H   0  0  0  0  0  0  0  0  0  0  0  0
  147.3168  135.1767  153.4966 H   0  0  0  0  0  0  0  0  0  0  0  0
  144.5572  135.2924  154.8276 H   0  0  0  0  0  0  0  0  0  0  0  0
  146.0513  135.8218  155.5388 H   0  0  0  0  0  0  0  0  0  0  0  0
  147.6233  140.5237  152.6113 H   0  0  0  0  0  0  0  0  0  0  0  0
  147.7025  138.0041  158.5359 H   0  0  0  0  0  0  0  0  0  0  0  0
  148.7580  141.2510  157.3907 H   0  0  0  0  0  0  0  0  0  0  0  0
  149.1058  140.0326  158.5868 H   0  0  0  0  0  0  0  0  0  0  0  0
  150.8872  139.0661  157.1525 H   0  0  0  0  0  0  0  0  0  0  0  0
  149.8958  139.7512  154.9043 H   0  0  0  0  0  0  0  0  0  0  0  0
  150.5132  141.3647  155.1835 H   0  0  0  0  0  0  0  0  0  0  0  0
  152.5358  139.8640  155.6487 H   0  0  0  0  0  0  0  0  0  0  0  0
  152.5707  140.8292  157.2149 H   0  0  0  0  0  0  0  0  0  0  0  0
  151.8921  142.9620  156.8392 H   0  0  0  0  0  0  0  0  0  0  0  0
  150.2974  142.7533  157.5445 H   0  0  0  0  0  0  0  0  0  0  0  0
  152.5383  143.8364  158.9332 H   0  0  0  0  0  0  0  0  0  0  0  0
  151.0271  143.2817  159.6599 H   0  0  0  0  0  0  0  0  0  0  0  0
  150.8990  140.6285  159.7414 H   0  0  0  0  0  0  0  0  0  0  0  0
  152.4154  139.8044  159.3506 H   0  0  0  0  0  0  0  0  0  0  0  0
  144.7019  134.4276  152.4540 H   0  0  0  0  0  0  0  0  0  0  0  0
  1  2  1  0  0  0  0
  1 31  1  0  0  0  0
  1 32  1  0  0  0  0
  1 33  1  0  0  0  0
  2 12  1  0  0  0  0
  2  3  1  0  0  0  0
  2 34  1  0  0  0  0
  3  4  1  0  0  0  0
  3 35  1  0  0  0  0
  3 36  1  0  0  0  0
  4  5  1  0  0  0  0
  4 10  1  0  0  0  0
  4 65  1  0  0  0  0
  5  6  1  0  0  0  0
  5 37  1  0  0  0  0
  5 38  1  0  0  0  0
  6  7  1  0  0  0  0
  6  8  1  0  0  0  0
  6  9  1  0  0  0  0
  7 39  1  0  0  0  0
  7 40  1  0  0  0  0
  7 41  1  0  0  0  0
  8 42  1  0  0  0  0
  8 43  1  0  0  0  0
  8 44  1  0  0  0  0
  9 45  1  0  0  0  0
 10 11  1  0  0  0  0
 10 46  1  0  0  0  0
 10 47  1  0  0  0  0
 11 12  1  0  0  0  0
 11 48  1  0  0  0  0
 11 49  1  0  0  0  0
 12 13  1  0  0  0  0
 13 18  1  0  0  0  0
 13 14  2  0  0  0  0
 14 15  1  0  0  0  0
 15 16  2  0  0  0  0
 15 50  1  0  0  0  0
 16 17  1  0  0  0  0
 17 21  1  0  0  0  0
 17 18  2  0  0  0  0
 18 19  1  0  0  0  0
 19 20  2  0  0  0  0
 20 21  1  0  0  0  0
 20 51  1  0  0  0  0
 21 22  1  0  0  0  0
 22 23  1  0  0  0  0
 22 52  1  0  0  0  0
 22 53  1  0  0  0  0
 23 24  1  0  0  0  0
 23 26  1  0  0  0  0
 23 54  1  0  0  0  0
 24 25  1  0  0  0  0
 24 55  1  0  0  0  0
 24 56  1  0  0  0  0
 25 57  1  0  0  0  0
 26 30  1  0  0  0  0
 26 27  1  0  0  0  0
 26 58  1  0  0  0  0
 27 28  1  0  0  0  0
 27 59  1  0  0  0  0
 27 60  1  0  0  0  0
 28 29  1  0  0  0  0
 28 61  1  0  0  0  0
 28 62  1  0  0  0  0
 29 30  1  0  0  0  0
 30 63  1  0  0  0  0
 30 64  1  0  0  0  0
M  CHG  1   4   1
M  END
> <s_m_source_file>
AV-unprocessed.smi

> <i_m_source_file_index>
212

> <i_lp_mmshare_version>
43012

> <i_f3d_flags>
0

> <s_epik_input>
W0NIM11bQ0BASF0xW0NIMl1OKFtDSDJdQyhbQ0gzXSkoW0NIM10pW09IXSlbQ0gyXVtDSDJdTjFjKG5bY0hdbjIpYyhjMjMpbltjSF1uM1tDSDJdW0NASF0oW0NIMl1bT0hdKVtDQEBIXTRbQ0gyXVtDSDJdT1tDSDJdNA==

> <s_epik_cmdline>
J2VwaWtfcHl0aG9uJywgJy1waCcsICc3LjAnLCAnLXRuJywgJzgnLCAnLW1hJywgJzIwMCcsICctbWV0YWxfYmluZGluZycsICctaW1hZScsICc8aW5maWxlLm1hZT4nLCAnLW9tYWUnLCAnPG91dGZpbGUubWFlPic=

> <r_lp_tautomer_probability>
1

> <r_epik_Ionization_Penalty>
0.00182193

> <r_epik_Ionization_Penalty_Charging>
0.00173996

> <r_epik_Ionization_Penalty_Neutral>
8.19718e-05

> <r_epik_State_Penalty>
-0

> <r_epik_Charging_Adjusted_Penalty>
0.00173996

> <i_epik_Tot_Q>
1

> <i_epik_Tot_abs_Q>
1

> <r_epik_Metal_State_Penalty>
-0

> <b_epik_Metal_Only>
0

> <s_lp_Force_Field>
OPLS_2005

> <r_lp_Energy>
59.1595

> <b_lp_Chiralities_Consistent>
1

> <s_lp_Variant>
AV-unprocessed.smi:212-15

> <Gold.Version>
5.8.1

> <Gold.Id.Protein>
6NUR|6NUR_protein|mol2

> <Gold.PLP.Fitness>
46.2350

> <Gold.PLP.PLP>
-40.0283

> <Gold.PLP.part.hbond>
-2.0000

> <Gold.PLP.part.metal>
0.0000

> <Gold.PLP.part.buried>
-8.1405

> <Gold.PLP.part.nonpolar>
-30.4269

> <Gold.PLP.part.repulsive>
0.3272

> <Gold.PLP.ligand.clash>
0.0000

> <Gold.PLP.ligand.torsion>
0.9645

> <Gold.PLP.Chemscore.Hbond>
1.5376

> <Gold.PLP.Chemscore.CHOScore>
0.8081

> <Gold.PLP.Chemscore.Metal>
0.0000

> <Gold.Chemscore.Hbonds>
donor molecule, donor type, donor heavy atom, donor atom, acceptor molecule, acceptor atom, score
      L1  H     9    45       P1  7921  1.00
      P1  H  7989  7998       L1    25  0.53
      L1  C    15    50       P1  7957  0.82

> <Gold.PLP.Chemscore.Internal.Correction>
1.0987

> <Gold.Rescore>
     Score         DG    S(hbond)    S(metal)    S(lipo)     H(rot)  DE(clash)    DE(int)     intcor
     11.22     -13.65       1.91        0.00      89.58       3.40       0.02       2.42       ----

> <Gold.Chemscore.Fitness>
11.2176

> <Gold.Chemscore.DG>
-13.6534

> <Gold.Chemscore.ZeroCoef>
-5.4800

> <Gold.Chemscore.Hbond>
1.9142

> <Gold.Chemscore.Metal>
0.0000

> <Gold.Chemscore.Lipo>
89.5755

> <Gold.Chemscore.Internal_Hbond>
0.0000

> <Gold.Chemscore.DEClash>
0.0162

> <Gold.Chemscore.DEInternal>
2.4196

> <Gold.Chemscore.Rot>
3.3986

> <Gold.Chemscore.Internal.Correction>
   9.000000E+99

> <Gold.Chemscore.Hbonds>
donor molecule, donor type, donor heavy atom, donor atom, acceptor molecule, acceptor atom, score
      L1  H     9    45       P1  7921  1.00
      P1  H  7989  7998       L1    25  0.04

> <Gold.Chemscore.Hbond.Weighted>
-6.3936

> <Gold.Chemscore.Metal.Weighted>
-0.0000

> <Gold.Chemscore.Lipo.Weighted>
-10.4803

> <Gold.Chemscore.Internal_Hbond.Weighted>
0.0000

> <Gold.Chemscore.DEClash.Weighted>
0.0162

> <Gold.Chemscore.DEInternal.Weighted>
2.4196

> <Gold.Chemscore.Rot.Weighted>
8.7005

> <Gold.Chemscore.Internal.Correction.Weighted>
   9.000000E+99

> <Gold.Protein.RotatedTorsions>
[ 6907 6896 6895 6894 ] final  179.82 input  -60.11 | X-H torsion
[ 7974 7965 7964 7962 ] final  -82.78 input  175.53 | X-H torsion
[ 8008 7997 7996 7995 ] final   31.19 input   59.86 | X-H torsion
[ 10167 10162 10161 10158 ] final   62.08 input  -65.29 | X-H torsion
[ 10718 10713 10712 10709 ] final -146.98 input   66.30 | X-H torsion
[ 10763 10752 10751 10750 ] final  157.65 input  -60.55 | X-H torsion
[ 11005 11000 10999 10996 ] final  118.30 input  -57.11 | X-H torsion

> <Gold.Protein.ActiveResidues>
 VAL166  LYS551  ARG553  GLY616  TRP617  ASP618  TYR619  PRO620  LYS621  CYS622 
 ASP623  PHE694  ASN695  SER759  ASP760  ASP761  ALA762  ILE779  LEU786  VAL792 
 PHE793  MET794  SER795  GLU796  ALA797  LYS798  CYS799  TRP800  GLU811  SER814 

> <Gold.Protein.RotatedAtoms>
  151.6654  133.3315  159.3183 H   0  0  0  0  0  0  0  0  0  0  0  0  # atno 6907 bound_to 6896
  150.7893  134.6908  159.6505 H   0  0  0  0  0  0  0  0  0  0  0  0  # atno 6908 bound_to 6896
  152.3970  134.6353  160.0137 H   0  0  0  0  0  0  0  0  0  0  0  0  # atno 6909 bound_to 6896
  145.5287  140.9523  143.1615 H   0  0  0  0  0  0  0  0  0  0  0  0  # atno 7974 bound_to 7965
  155.1025  140.3231  155.4543 H   0  0  0  0  0  0  0  0  0  0  0  0  # atno 8008 bound_to 7997
  156.2713  140.2058  156.6098 H   0  0  0  0  0  0  0  0  0  0  0  0  # atno 8009 bound_to 7997
  154.6818  140.0525  157.0261 H   0  0  0  0  0  0  0  0  0  0  0  0  # atno 8010 bound_to 7997
  140.1478  144.4492  150.6776 H   0  0  0  0  0  0  0  0  0  0  0  0  # atno 10167 bound_to 10162
  156.4017  130.7937  151.2148 H   0  0  0  0  0  0  0  0  0  0  0  0  # atno 10718 bound_to 10713
  154.2035  135.2789  155.2982 H   0  0  0  0  0  0  0  0  0  0  0  0  # atno 10763 bound_to 10752
  154.5835  135.5582  153.7212 H   0  0  0  0  0  0  0  0  0  0  0  0  # atno 10764 bound_to 10752
  153.0082  135.6350  154.2174 H   0  0  0  0  0  0  0  0  0  0  0  0  # atno 10765 bound_to 10752
  139.9105  134.9619  156.7483 H   0  0  0  0  0  0  0  0  0  0  0  0  # atno 11005 bound_to 11000
  144.7637  139.6895  143.7223 LP  0  0  0  0  0  0  0  0  0  0  0  0  # atno 17320 bound_to 7965
  146.2058  139.5382  142.9713 LP  0  0  0  0  0  0  0  0  0  0  0  0  # atno 17321 bound_to 7965
  140.6721  143.2290  151.5598 LP  0  0  0  0  0  0  0  0  0  0  0  0  # atno 17342 bound_to 10162
  139.5441  144.2569  152.1407 LP  0  0  0  0  0  0  0  0  0  0  0  0  # atno 17343 bound_to 10162
  157.7504  131.0285  150.4050 LP  0  0  0  0  0  0  0  0  0  0  0  0  # atno 17370 bound_to 10713
  156.4331  130.3976  149.6747 LP  0  0  0  0  0  0  0  0  0  0  0  0  # atno 17371 bound_to 10713
  140.6794  133.9488  155.7902 LP  0  0  0  0  0  0  0  0  0  0  0  0  # atno 17394 bound_to 11000
  141.0521  134.0470  157.3770 LP  0  0  0  0  0  0  0  0  0  0  0  0  # atno 17395 bound_to 11000

$$$$
