AV-unprocessed.smi:798|AV-procd|sdf|3774|dock1
  -GOLD-   22720 1203D 1   1.00000     0.00000
 Structure written by MMmdl.
 34 36  0  0  0  0  0  0  0  0  1 V2000
  145.1017  137.4517  153.8480 O   0  0  0  0  0  0  0  0  0  0  0  0
  146.1993  137.2359  153.3335 C   0  0  0  0  0  0  0  0  0  0  0  0
  147.2362  138.0916  153.3280 N   0  0  0  0  0  0  0  0  0  0  0  0
  147.3064  139.3933  153.8907 C   0  0  0  0  0  0  0  0  0  0  0  0
  146.2361  140.0739  154.3299 N   0  0  0  0  0  0  0  0  0  0  0  0
  146.5838  141.3211  154.8325 N   0  0  0  0  0  0  0  0  0  0  0  0
  147.9006  141.5319  154.7523 C   0  0  0  0  0  0  0  0  0  0  0  0
  148.8448  140.2280  154.0534 S   0  0  0  0  0  0  0  0  0  0  0  0
  146.5108  136.0973  152.6986 N   0  0  0  0  0  0  0  0  0  0  0  0
  145.6246  134.9462  152.5426 C   0  0  1  0  0  0  0  0  0  0  0  0
  144.2583  135.3895  151.9742 C   0  0  2  0  0  0  0  0  0  0  0  0
  143.2416  134.2549  152.1916 C   0  0  0  0  0  0  0  0  0  0  0  0
  143.7005  133.1977  151.1698 C   0  0  0  0  0  0  0  0  0  0  0  0
  144.9227  133.8662  150.5037 C   0  0  1  0  0  0  0  0  0  0  0  0
  144.4756  135.3219  150.4651 C   0  0  0  0  0  0  0  0  0  0  0  0
  146.1316  133.9516  151.4662 C   0  0  2  0  0  0  0  0  0  0  0  0
  146.6255  132.5978  152.0123 C   0  0  0  0  0  0  0  0  0  0  0  0
  146.7344  131.6608  150.9625 O   0  0  0  0  0  0  0  0  0  0  0  0
  148.0760  137.7734  152.8678 H   0  0  0  0  0  0  0  0  0  0  0  0
  148.3191  142.4620  155.1072 H   0  0  0  0  0  0  0  0  0  0  0  0
  147.4361  136.0108  152.3048 H   0  0  0  0  0  0  0  0  0  0  0  0
  145.4802  134.4569  153.5082 H   0  0  0  0  0  0  0  0  0  0  0  0
  143.9113  136.3532  152.3491 H   0  0  0  0  0  0  0  0  0  0  0  0
  143.2467  133.8780  153.2150 H   0  0  0  0  0  0  0  0  0  0  0  0
  142.2292  134.5918  151.9654 H   0  0  0  0  0  0  0  0  0  0  0  0
  143.9307  132.2382  151.6314 H   0  0  0  0  0  0  0  0  0  0  0  0
  142.9159  133.0212  150.4330 H   0  0  0  0  0  0  0  0  0  0  0  0
  145.1730  133.4435  149.5304 H   0  0  0  0  0  0  0  0  0  0  0  0
  143.5625  135.4816  149.8888 H   0  0  0  0  0  0  0  0  0  0  0  0
  145.2470  136.0051  150.1054 H   0  0  0  0  0  0  0  0  0  0  0  0
  146.9511  134.4037  150.9032 H   0  0  0  0  0  0  0  0  0  0  0  0
  147.5943  132.6906  152.5026 H   0  0  0  0  0  0  0  0  0  0  0  0
  145.9225  132.2067  152.7478 H   0  0  0  0  0  0  0  0  0  0  0  0
  147.6482  131.4588  150.8311 H   0  0  0  0  0  0  0  0  0  0  0  0
  1  2  2  0  0  0  0
  2  3  1  0  0  0  0
  2  9  1  0  0  0  0
  3  4  1  0  0  0  0
  3 19  1  0  0  0  0
  4  8  1  0  0  0  0
  4  5  2  0  0  0  0
  5  6  1  0  0  0  0
  6  7  2  0  0  0  0
  7  8  1  0  0  0  0
  7 20  1  0  0  0  0
  9 10  1  0  0  0  0
  9 21  1  0  0  0  0
 10 16  1  0  0  0  0
 10 11  1  0  0  0  0
 10 22  1  0  0  0  0
 11 15  1  0  0  0  0
 11 12  1  0  0  0  0
 11 23  1  0  0  0  0
 12 13  1  0  0  0  0
 12 24  1  0  0  0  0
 12 25  1  0  0  0  0
 13 14  1  0  0  0  0
 13 26  1  0  0  0  0
 13 27  1  0  0  0  0
 14 15  1  0  0  0  0
 14 16  1  0  0  0  0
 14 28  1  0  0  0  0
 15 29  1  0  0  0  0
 15 30  1  0  0  0  0
 16 17  1  0  0  0  0
 16 31  1  0  0  0  0
 17 18  1  0  0  0  0
 17 32  1  0  0  0  0
 17 33  1  0  0  0  0
 18 34  1  0  0  0  0
M  END
> <s_m_source_file>
AV-unprocessed.smi

> <i_m_source_file_index>
798

> <i_lp_mmshare_version>
43012

> <i_f3d_flags>
0

> <s_epik_input>
W0NIMl0xW0NIMl1bQ0BASF0oW0NIMl0yKVtDQEBIXShbQ0gyXVtPSF0pW0NAQEhdKFtDQEhdMTIpW05IXUMoPU8pW05IXWMzbm5bY0hdczM=

> <s_epik_cmdline>
J2VwaWtfcHl0aG9uJywgJy1waCcsICc3LjAnLCAnLXRuJywgJzgnLCAnLW1hJywgJzIwMCcsICctbWV0YWxfYmluZGluZycsICctaW1hZScsICc8aW5maWxlLm1hZT4nLCAnLW9tYWUnLCAnPG91dGZpbGUubWFlPic=

> <r_lp_tautomer_probability>
1

> <r_epik_Ionization_Penalty>
0.000329046

> <r_epik_Ionization_Penalty_Charging>
0

> <r_epik_Ionization_Penalty_Neutral>
0.000329046

> <r_epik_State_Penalty>
-0

> <r_epik_Charging_Adjusted_Penalty>
0

> <i_epik_Tot_Q>
0

> <i_epik_Tot_abs_Q>
0

> <r_epik_Metal_State_Penalty>
0.173433

> <b_epik_Metal_Only>
0

> <s_lp_Force_Field>
OPLS_2005

> <r_lp_Energy>
48.4277

> <b_lp_Chiralities_Consistent>
1

> <s_lp_Variant>
AV-unprocessed.smi:798-6

> <Gold.Version>
5.8.1

> <Gold.Id.Protein>
6NUR|6NUR_protein|mol2

> <Gold.PLP.Fitness>
38.6546

> <Gold.PLP.PLP>
-27.3476

> <Gold.PLP.part.hbond>
-2.8238

> <Gold.PLP.part.metal>
0.0000

> <Gold.PLP.part.buried>
-4.0113

> <Gold.PLP.part.nonpolar>
-21.8296

> <Gold.PLP.part.repulsive>
0.4016

> <Gold.PLP.ligand.clash>
0.0000

> <Gold.PLP.ligand.torsion>
0.2596

> <Gold.PLP.Chemscore.Hbond>
2.9280

> <Gold.PLP.Chemscore.CHOScore>
1.0000

> <Gold.PLP.Chemscore.Metal>
0.0000

> <Gold.Chemscore.Hbonds>
donor molecule, donor type, donor heavy atom, donor atom, acceptor molecule, acceptor atom, score
      L1  H     3    19       P1  7948  0.93
      L1  H     9    21       P1  7948  1.00
      L1  H    18    34       P1 10747  1.00
      L1  C     7    20       P1  8028  1.00

> <Gold.PLP.Chemscore.Internal.Correction>
0.0422

> <Gold.Rescore>
     Score         DG    S(hbond)    S(metal)    S(lipo)     H(rot)  DE(clash)    DE(int)     intcor
     15.53     -17.01       2.91        0.00      58.15       1.94       0.12       1.36       ----

> <Gold.Chemscore.Fitness>
15.5291

> <Gold.Chemscore.DG>
-17.0143

> <Gold.Chemscore.ZeroCoef>
-5.4800

> <Gold.Chemscore.Hbond>
2.9066

> <Gold.Chemscore.Metal>
0.0000

> <Gold.Chemscore.Lipo>
58.1469

> <Gold.Chemscore.Internal_Hbond>
0.0000

> <Gold.Chemscore.DEClash>
0.1243

> <Gold.Chemscore.DEInternal>
1.3608

> <Gold.Chemscore.Rot>
1.9442

> <Gold.Chemscore.Internal.Correction>
   9.000000E+99

> <Gold.Chemscore.Hbonds>
donor molecule, donor type, donor heavy atom, donor atom, acceptor molecule, acceptor atom, score
      L1  H     3    19       P1  7948  0.84
      L1  H     9    21       P1  7948  0.97
      L1  H    18    34       P1 10747  0.96

> <Gold.Chemscore.Hbond.Weighted>
-9.7082

> <Gold.Chemscore.Metal.Weighted>
-0.0000

> <Gold.Chemscore.Lipo.Weighted>
-6.8032

> <Gold.Chemscore.Internal_Hbond.Weighted>
0.0000

> <Gold.Chemscore.DEClash.Weighted>
0.1243

> <Gold.Chemscore.DEInternal.Weighted>
1.3608

> <Gold.Chemscore.Rot.Weighted>
4.9771

> <Gold.Chemscore.Internal.Correction.Weighted>
   9.000000E+99

> <Gold.Protein.RotatedTorsions>
[ 6907 6896 6895 6894 ] final  -35.18 input  -60.11 | X-H torsion
[ 7974 7965 7964 7962 ] final   75.04 input  175.53 | X-H torsion
[ 8008 7997 7996 7995 ] final  145.81 input   59.86 | X-H torsion
[ 10167 10162 10161 10158 ] final   60.93 input  -65.29 | X-H torsion
[ 10718 10713 10712 10709 ] final    2.02 input   66.30 | X-H torsion
[ 10763 10752 10751 10750 ] final  137.91 input  -60.55 | X-H torsion
[ 11005 11000 10999 10996 ] final   20.32 input  -57.11 | X-H torsion

> <Gold.Protein.ActiveResidues>
 VAL166  LYS551  ARG553  GLY616  TRP617  ASP618  TYR619  PRO620  LYS621  CYS622 
 ASP623  PHE694  ASN695  SER759  ASP760  ASP761  ALA762  ILE779  LEU786  VAL792 
 PHE793  MET794  SER795  GLU796  ALA797  LYS798  CYS799  TRP800  GLU811  SER814 

> <Gold.Protein.RotatedAtoms>
  151.0431  134.9621  159.8171 H   0  0  0  0  0  0  0  0  0  0  0  0  # atno 6907 bound_to 6896
  152.5367  134.2632  159.8953 H   0  0  0  0  0  0  0  0  0  0  0  0  # atno 6908 bound_to 6896
  151.2645  133.4243  159.2652 H   0  0  0  0  0  0  0  0  0  0  0  0  # atno 6909 bound_to 6896
  145.7207  139.2647  143.1598 H   0  0  0  0  0  0  0  0  0  0  0  0  # atno 7974 bound_to 7965
  156.2873  140.2199  156.5275 H   0  0  0  0  0  0  0  0  0  0  0  0  # atno 8008 bound_to 7997
  154.7476  140.0483  157.0888 H   0  0  0  0  0  0  0  0  0  0  0  0  # atno 8009 bound_to 7997
  155.0150  140.3117  155.4818 H   0  0  0  0  0  0  0  0  0  0  0  0  # atno 8010 bound_to 7997
  140.1602  144.4377  150.6713 H   0  0  0  0  0  0  0  0  0  0  0  0  # atno 10167 bound_to 10162
  156.8568  130.5573  149.5665 H   0  0  0  0  0  0  0  0  0  0  0  0  # atno 10718 bound_to 10713
  153.8809  135.3044  155.3445 H   0  0  0  0  0  0  0  0  0  0  0  0  # atno 10763 bound_to 10752
  154.7762  135.4860  153.9752 H   0  0  0  0  0  0  0  0  0  0  0  0  # atno 10764 bound_to 10752
  153.1352  135.6812  153.9211 H   0  0  0  0  0  0  0  0  0  0  0  0  # atno 10765 bound_to 10752
  140.4039  134.1689  155.7664 H   0  0  0  0  0  0  0  0  0  0  0  0  # atno 11005 bound_to 11000
  146.0628  140.7952  142.9726 LP  0  0  0  0  0  0  0  0  0  0  0  0  # atno 17320 bound_to 7965
  144.6917  140.3223  143.7230 LP  0  0  0  0  0  0  0  0  0  0  0  0  # atno 17321 bound_to 7965
  140.6647  143.2264  151.5770 LP  0  0  0  0  0  0  0  0  0  0  0  0  # atno 17342 bound_to 10162
  139.5384  144.2715  152.1301 LP  0  0  0  0  0  0  0  0  0  0  0  0  # atno 17343 bound_to 10162
  156.0798  130.5811  150.9542 LP  0  0  0  0  0  0  0  0  0  0  0  0  # atno 17370 bound_to 10713
  157.6272  131.0924  150.8510 LP  0  0  0  0  0  0  0  0  0  0  0  0  # atno 17371 bound_to 10713
  141.1846  133.8340  157.1133 LP  0  0  0  0  0  0  0  0  0  0  0  0  # atno 17394 bound_to 11000
  140.0316  134.9898  157.0791 LP  0  0  0  0  0  0  0  0  0  0  0  0  # atno 17395 bound_to 11000

$$$$
