AV-unprocessed.smi:209|AV-procd|sdf|1607|dock4
  -GOLD-   2262019523D 1   1.00000     0.00000
 Structure written by MMmdl.
 48 52  0  0  0  0  0  0  0  0  1 V2000
  152.6349  144.9707  158.2924 O   0  0  0  0  0  0  0  0  0  0  0  0
  151.9829  143.9473  158.0963 C   0  0  0  0  0  0  0  0  0  0  0  0
  151.4821  143.5503  156.9277 N   0  0  0  0  0  0  0  0  0  0  0  0
  150.8349  142.2512  156.9964 C   0  0  0  0  0  0  0  0  0  0  0  0
  151.2547  141.6777  158.3728 C   0  0  2  0  0  0  0  0  0  0  0  0
  151.5974  142.9526  159.1824 C   0  0  1  0  0  0  0  0  0  0  0  0
  152.6121  142.7621  160.3297 C   0  0  0  0  0  0  0  0  0  0  0  0
  153.7709  141.8439  159.9320 C   0  0  0  0  0  0  0  0  0  0  0  0
  153.2206  140.5178  159.3994 C   0  0  0  0  0  0  0  0  0  0  0  0
  152.3927  140.7518  158.2196 N   0  0  0  0  0  0  0  0  0  0  0  0
  152.1951  139.6164  157.5015 C   0  0  0  0  0  0  0  0  0  0  0  0
  152.9002  139.3993  156.3588 N   0  0  0  0  0  0  0  0  0  0  0  0
  152.7026  138.2862  155.6463 C   0  0  0  0  0  0  0  0  0  0  0  0
  151.8640  137.2772  155.8900 N   0  0  0  0  0  0  0  0  0  0  0  0
  151.1552  137.4889  157.0357 C   0  0  0  0  0  0  0  0  0  0  0  0
  151.2575  138.6204  157.8927 C   0  0  0  0  0  0  0  0  0  0  0  0
  150.3874  138.4809  158.9668 N   0  0  0  0  0  0  0  0  0  0  0  0
  149.7997  137.3352  158.7538 C   0  0  0  0  0  0  0  0  0  0  0  0
  150.1947  136.6751  157.6117 N   0  0  0  0  0  0  0  0  0  0  0  0
  149.7126  135.3874  157.1352 C   0  0  0  0  0  0  0  0  0  0  0  0
  149.2702  135.3926  155.6600 C   0  0  0  0  0  0  0  0  0  0  0  0
  148.3148  136.5822  155.4359 C   0  0  0  0  0  0  0  0  0  0  0  0
  147.7208  136.5649  154.1528 O   0  0  0  0  0  0  0  0  0  0  0  0
  150.4112  135.2366  154.6445 C   0  0  0  0  0  0  0  0  0  0  0  0
  149.7673  134.1146  154.0015 O   0  0  0  0  0  0  0  0  0  0  0  0
  148.8134  134.0444  155.0844 C   0  0  0  0  0  0  0  0  0  0  0  0
  150.4234  141.1532  158.8454 H   0  0  0  0  0  0  0  0  0  0  0  0
  150.6762  143.3478  159.6132 H   0  0  0  0  0  0  0  0  0  0  0  0
  151.6006  144.0546  156.0609 H   0  0  0  0  0  0  0  0  0  0  0  0
  149.7555  142.4019  156.9586 H   0  0  0  0  0  0  0  0  0  0  0  0
  151.1129  141.6305  156.1441 H   0  0  0  0  0  0  0  0  0  0  0  0
  152.9966  143.7241  160.6712 H   0  0  0  0  0  0  0  0  0  0  0  0
  152.0951  142.3268  161.1857 H   0  0  0  0  0  0  0  0  0  0  0  0
  154.3906  142.3239  159.1734 H   0  0  0  0  0  0  0  0  0  0  0  0
  154.4142  141.6629  160.7934 H   0  0  0  0  0  0  0  0  0  0  0  0
  154.0535  139.8521  159.1714 H   0  0  0  0  0  0  0  0  0  0  0  0
  152.6222  140.0220  160.1651 H   0  0  0  0  0  0  0  0  0  0  0  0
  153.3009  138.1914  154.7523 H   0  0  0  0  0  0  0  0  0  0  0  0
  149.0582  136.9382  159.4316 H   0  0  0  0  0  0  0  0  0  0  0  0
  150.4946  134.6442  157.2961 H   0  0  0  0  0  0  0  0  0  0  0  0
  148.8869  135.0872  157.7815 H   0  0  0  0  0  0  0  0  0  0  0  0
  147.5037  136.5785  156.1640 H   0  0  0  0  0  0  0  0  0  0  0  0
  148.8415  137.5299  155.5522 H   0  0  0  0  0  0  0  0  0  0  0  0
  148.4047  136.6253  153.5034 H   0  0  0  0  0  0  0  0  0  0  0  0
  150.5400  136.0880  153.9755 H   0  0  0  0  0  0  0  0  0  0  0  0
  151.3655  134.9515  155.0901 H   0  0  0  0  0  0  0  0  0  0  0  0
  149.0104  133.1914  155.7345 H   0  0  0  0  0  0  0  0  0  0  0  0
  147.7807  134.0341  154.7339 H   0  0  0  0  0  0  0  0  0  0  0  0
  1  2  2  0  0  0  0
  2  6  1  0  0  0  0
  2  3  1  0  0  0  0
  3  4  1  0  0  0  0
  3 29  1  0  0  0  0
  4  5  1  0  0  0  0
  4 30  1  0  0  0  0
  4 31  1  0  0  0  0
  5 27  1  0  0  0  0
  5 10  1  0  0  0  0
  5  6  1  0  0  0  0
  6 28  1  0  0  0  0
  6  7  1  0  0  0  0
  7  8  1  0  0  0  0
  7 32  1  0  0  0  0
  7 33  1  0  0  0  0
  8  9  1  0  0  0  0
  8 34  1  0  0  0  0
  8 35  1  0  0  0  0
  9 10  1  0  0  0  0
  9 36  1  0  0  0  0
  9 37  1  0  0  0  0
 10 11  1  0  0  0  0
 11 16  1  0  0  0  0
 11 12  2  0  0  0  0
 12 13  1  0  0  0  0
 13 14  2  0  0  0  0
 13 38  1  0  0  0  0
 14 15  1  0  0  0  0
 15 19  1  0  0  0  0
 15 16  2  0  0  0  0
 16 17  1  0  0  0  0
 17 18  2  0  0  0  0
 18 19  1  0  0  0  0
 18 39  1  0  0  0  0
 19 20  1  0  0  0  0
 20 21  1  0  0  0  0
 20 40  1  0  0  0  0
 20 41  1  0  0  0  0
 21 26  1  0  0  0  0
 21 22  1  0  0  0  0
 21 24  1  0  0  0  0
 22 23  1  0  0  0  0
 22 42  1  0  0  0  0
 22 43  1  0  0  0  0
 23 44  1  0  0  0  0
 24 25  1  0  0  0  0
 24 45  1  0  0  0  0
 24 46  1  0  0  0  0
 25 26  1  0  0  0  0
 26 47  1  0  0  0  0
 26 48  1  0  0  0  0
M  END
> <s_m_source_file>
AV-unprocessed.smi

> <i_m_source_file_index>
209

> <i_lp_mmshare_version>
43012

> <i_f3d_flags>
0

> <s_epik_input>
W0NIMl0xW05IXUMoPU8pW0NAQEhdKFtDQEBIXTEyKVtDSDJdW0NIMl1bQ0gyXU4yYyhuW2NIXW4zKWMoYzM0KW5bY0hdbjRbQ0gyXUM1KFtDSDJdW09IXSlbQ0gyXU9bQ0gyXTU=

> <s_epik_cmdline>
J2VwaWtfcHl0aG9uJywgJy1waCcsICc3LjAnLCAnLXRuJywgJzgnLCAnLW1hJywgJzIwMCcsICctbWV0YWxfYmluZGluZycsICctaW1hZScsICc8aW5maWxlLm1hZT4nLCAnLW9tYWUnLCAnPG91dGZpbGUubWFlPic=

> <r_lp_tautomer_probability>
1

> <r_epik_Ionization_Penalty>
0.00113306

> <r_epik_Ionization_Penalty_Charging>
0

> <r_epik_Ionization_Penalty_Neutral>
0.00113306

> <r_epik_State_Penalty>
0.000624042

> <r_epik_Charging_Adjusted_Penalty>
0.000624042

> <i_epik_Tot_Q>
0

> <i_epik_Tot_abs_Q>
0

> <r_epik_Metal_State_Penalty>
-0

> <b_epik_Metal_Only>
0

> <s_lp_Force_Field>
OPLS_2005

> <r_lp_Energy>
50.3938

> <b_lp_Chiralities_Consistent>
1

> <s_lp_Variant>
AV-unprocessed.smi:209-1

> <Gold.Version>
5.8.1

> <Gold.Id.Protein>
6NUR|6NUR_protein|mol2

> <Gold.PLP.Fitness>
45.6581

> <Gold.PLP.PLP>
-39.4510

> <Gold.PLP.part.hbond>
-3.7350

> <Gold.PLP.part.metal>
0.0000

> <Gold.PLP.part.buried>
-6.0259

> <Gold.PLP.part.nonpolar>
-29.8805

> <Gold.PLP.part.repulsive>
0.2474

> <Gold.PLP.ligand.clash>
0.0000

> <Gold.PLP.ligand.torsion>
0.5908

> <Gold.PLP.Chemscore.Hbond>
2.2275

> <Gold.PLP.Chemscore.CHOScore>
0.0000

> <Gold.PLP.Chemscore.Metal>
0.0000

> <Gold.Chemscore.Hbonds>
donor molecule, donor type, donor heavy atom, donor atom, acceptor molecule, acceptor atom, score
      L1  H    23    44       P1  7948  0.96
      P1  H  7997  8009       L1    12  1.00
      P1  H 10752 10765       L1    14  0.25

> <Gold.PLP.Chemscore.Internal.Correction>
0.7061

> <Gold.Rescore>
     Score         DG    S(hbond)    S(metal)    S(lipo)     H(rot)  DE(clash)    DE(int)     intcor
     11.69     -13.67       1.87        0.00      74.71       2.66       0.06       1.92       ----

> <Gold.Chemscore.Fitness>
11.6887

> <Gold.Chemscore.DG>
-13.6656

> <Gold.Chemscore.ZeroCoef>
-5.4800

> <Gold.Chemscore.Hbond>
1.8740

> <Gold.Chemscore.Metal>
0.0000

> <Gold.Chemscore.Lipo>
74.7107

> <Gold.Chemscore.Internal_Hbond>
0.0000

> <Gold.Chemscore.DEClash>
0.0589

> <Gold.Chemscore.DEInternal>
1.9179

> <Gold.Chemscore.Rot>
2.6620

> <Gold.Chemscore.Internal.Correction>
   9.000000E+99

> <Gold.Chemscore.Hbonds>
donor molecule, donor type, donor heavy atom, donor atom, acceptor molecule, acceptor atom, score
      L1  H    23    44       P1  7948  0.92
      P1  H  7997  8009       L1    12  0.54
      P1  H 10752 10765       L1    14  0.06

> <Gold.Chemscore.Hbond.Weighted>
-6.2592

> <Gold.Chemscore.Metal.Weighted>
-0.0000

> <Gold.Chemscore.Lipo.Weighted>
-8.7412

> <Gold.Chemscore.Internal_Hbond.Weighted>
0.0000

> <Gold.Chemscore.DEClash.Weighted>
0.0589

> <Gold.Chemscore.DEInternal.Weighted>
1.9179

> <Gold.Chemscore.Rot.Weighted>
6.8148

> <Gold.Chemscore.Internal.Correction.Weighted>
   9.000000E+99

> <Gold.Protein.RotatedTorsions>
[ 6907 6896 6895 6894 ] final  176.71 input  -60.11 | X-H torsion
[ 7974 7965 7964 7962 ] final  121.01 input  175.53 | X-H torsion
[ 8008 7997 7996 7995 ] final -179.76 input   59.86 | X-H torsion
[ 10167 10162 10161 10158 ] final   10.89 input  -65.29 | X-H torsion
[ 10718 10713 10712 10709 ] final -106.93 input   66.30 | X-H torsion
[ 10763 10752 10751 10750 ] final -163.49 input  -60.55 | X-H torsion
[ 11005 11000 10999 10996 ] final -173.55 input  -57.11 | X-H torsion

> <Gold.Protein.ActiveResidues>
 VAL166  LYS551  ARG553  GLY616  TRP617  ASP618  TYR619  PRO620  LYS621  CYS622 
 ASP623  PHE694  ASN695  SER759  ASP760  ASP761  ALA762  ILE779  LEU786  VAL792 
 PHE793  MET794  SER795  GLU796  ALA797  LYS798  CYS799  TRP800  GLU811  SER814 

> <Gold.Protein.RotatedAtoms>
  151.7157  133.3313  159.3301 H   0  0  0  0  0  0  0  0  0  0  0  0  # atno 6907 bound_to 6896
  150.7674  134.6493  159.6289 H   0  0  0  0  0  0  0  0  0  0  0  0  # atno 6908 bound_to 6896
  152.3684  134.6773  160.0236 H   0  0  0  0  0  0  0  0  0  0  0  0  # atno 6909 bound_to 6896
  145.1243  139.3368  143.4698 H   0  0  0  0  0  0  0  0  0  0  0  0  # atno 7974 bound_to 7965
  156.0342  140.1289  157.0225 H   0  0  0  0  0  0  0  0  0  0  0  0  # atno 8008 bound_to 7997
  154.4363  140.1043  156.6214 H   0  0  0  0  0  0  0  0  0  0  0  0  # atno 8009 bound_to 7997
  155.5762  140.3467  155.4530 H   0  0  0  0  0  0  0  0  0  0  0  0  # atno 8010 bound_to 7997
  140.6166  143.8295  150.7125 H   0  0  0  0  0  0  0  0  0  0  0  0  # atno 10167 bound_to 10162
  156.0412  130.5637  150.7750 H   0  0  0  0  0  0  0  0  0  0  0  0  # atno 10718 bound_to 10713
  154.7118  135.3008  154.9185 H   0  0  0  0  0  0  0  0  0  0  0  0  # atno 10763 bound_to 10752
  154.0085  135.6698  153.4768 H   0  0  0  0  0  0  0  0  0  0  0  0  # atno 10764 bound_to 10752
  153.0761  135.5034  154.8321 H   0  0  0  0  0  0  0  0  0  0  0  0  # atno 10765 bound_to 10752
  140.4845  134.6044  157.4932 H   0  0  0  0  0  0  0  0  0  0  0  0  # atno 11005 bound_to 11000
  146.3519  140.1216  142.8600 LP  0  0  0  0  0  0  0  0  0  0  0  0  # atno 17320 bound_to 7965
  145.0705  140.9152  143.4884 LP  0  0  0  0  0  0  0  0  0  0  0  0  # atno 17321 bound_to 7965
  140.1875  143.4063  152.1887 LP  0  0  0  0  0  0  0  0  0  0  0  0  # atno 17342 bound_to 10162
  139.5403  144.7250  151.4754 LP  0  0  0  0  0  0  0  0  0  0  0  0  # atno 17343 bound_to 10162
  157.5233  131.0932  151.0050 LP  0  0  0  0  0  0  0  0  0  0  0  0  # atno 17370 bound_to 10713
  157.0375  130.5736  149.5351 LP  0  0  0  0  0  0  0  0  0  0  0  0  # atno 17371 bound_to 10713
  139.9806  134.7143  155.9866 LP  0  0  0  0  0  0  0  0  0  0  0  0  # atno 17394 bound_to 11000
  141.1515  133.6548  156.4027 LP  0  0  0  0  0  0  0  0  0  0  0  0  # atno 17395 bound_to 11000

$$$$
