AV-unprocessed.smi:1965|AV-procd|sdf|7941|dock1
  -GOLD-   2272010113D 1   1.00000     0.00000
 Structure written by MMmdl.
 36 38  0  0  0  0  0  0  0  0  3 V2000
  152.0942  139.9020  154.7682 O   0  0  0  0  0  0  0  0  0  0  0  0
  151.8211  139.5203  155.9055 C   0  0  0  0  0  0  0  0  0  0  0  0
  152.5169  139.8996  157.0085 N   0  5  0  0  0  0  0  0  0  0  0  0
  152.1926  140.9876  157.7312 C   0  0  0  0  0  0  0  0  0  0  0  0
  152.7519  141.2756  158.9123 N   0  0  0  0  0  0  0  0  0  0  0  0
  152.2681  142.4541  159.4830 C   0  0  0  0  0  0  0  0  0  0  0  0
  151.3157  143.0758  158.7200 C   0  0  0  0  0  0  0  0  0  0  0  0
  150.9927  142.1919  157.2560 S   0  0  0  0  0  0  0  0  0  0  0  0
  150.7739  138.6911  156.0779 N   0  0  0  0  0  0  0  0  0  0  0  0
  149.8874  138.2035  155.0261 C   0  0  1  0  0  0  0  0  0  0  0  0
  148.6271  137.5170  155.5692 C   0  0  0  0  0  0  0  0  0  0  0  0
  147.5312  137.8125  154.5298 C   0  0  0  0  0  0  0  0  0  0  0  0
  148.1678  138.6466  153.4861 N   0  3  1  0  0  0  0  0  0  0  0  0
  147.2663  139.5258  152.6987 C   0  0  0  0  0  0  0  0  0  0  0  0
  146.8717  140.8048  153.4563 C   0  0  0  0  0  0  0  0  0  0  0  0
  148.1169  141.5450  153.9553 C   0  0  0  0  0  0  0  0  0  0  0  0
  148.9451  140.6143  154.8471 C   0  0  0  0  0  0  0  0  0  0  0  0
  149.3356  139.3077  154.1086 C   0  0  1  0  0  0  0  0  0  0  0  0
  152.6584  142.7766  160.4368 H   0  0  0  0  0  0  0  0  0  0  0  0
  150.7848  143.9921  158.9293 H   0  0  0  0  0  0  0  0  0  0  0  0
  150.5712  138.3928  157.0211 H   0  0  0  0  0  0  0  0  0  0  0  0
  150.4271  137.4772  154.4146 H   0  0  0  0  0  0  0  0  0  0  0  0
  148.7828  136.4472  155.7118 H   0  0  0  0  0  0  0  0  0  0  0  0
  148.3398  137.9373  156.5343 H   0  0  0  0  0  0  0  0  0  0  0  0
  147.1319  136.9001  154.0865 H   0  0  0  0  0  0  0  0  0  0  0  0
  146.7039  138.3425  155.0032 H   0  0  0  0  0  0  0  0  0  0  0  0
  147.7884  139.8013  151.7816 H   0  0  0  0  0  0  0  0  0  0  0  0
  146.3800  138.9683  152.3943 H   0  0  0  0  0  0  0  0  0  0  0  0
  146.2895  141.4561  152.8039 H   0  0  0  0  0  0  0  0  0  0  0  0
  146.2255  140.5593  154.2995 H   0  0  0  0  0  0  0  0  0  0  0  0
  148.7171  141.8817  153.1092 H   0  0  0  0  0  0  0  0  0  0  0  0
  147.8273  142.4374  154.5110 H   0  0  0  0  0  0  0  0  0  0  0  0
  149.8409  141.1379  155.1827 H   0  0  0  0  0  0  0  0  0  0  0  0
  148.3731  140.3838  155.7468 H   0  0  0  0  0  0  0  0  0  0  0  0
  150.0588  139.5497  153.3287 H   0  0  0  0  0  0  0  0  0  0  0  0
  148.5576  137.9836  152.8314 H   0  0  0  0  0  0  0  0  0  0  0  0
  1  2  2  0  0  0  0
  2  3  1  0  0  0  0
  2  9  1  0  0  0  0
  3  4  1  0  0  0  0
  4  8  1  0  0  0  0
  4  5  2  0  0  0  0
  5  6  1  0  0  0  0
  6  7  2  0  0  0  0
  6 19  1  0  0  0  0
  7  8  1  0  0  0  0
  7 20  1  0  0  0  0
  9 10  1  0  0  0  0
  9 21  1  0  0  0  0
 10 18  1  0  0  0  0
 10 11  1  0  0  0  0
 10 22  1  0  0  0  0
 11 12  1  0  0  0  0
 11 23  1  0  0  0  0
 11 24  1  0  0  0  0
 12 13  1  0  0  0  0
 12 25  1  0  0  0  0
 12 26  1  0  0  0  0
 13 18  1  0  0  0  0
 13 14  1  0  0  0  0
 13 36  1  0  0  0  0
 14 15  1  0  0  0  0
 14 27  1  0  0  0  0
 14 28  1  0  0  0  0
 15 16  1  0  0  0  0
 15 29  1  0  0  0  0
 15 30  1  0  0  0  0
 16 17  1  0  0  0  0
 16 31  1  0  0  0  0
 16 32  1  0  0  0  0
 17 18  1  0  0  0  0
 17 33  1  0  0  0  0
 17 34  1  0  0  0  0
 18 35  1  0  0  0  0
M  CHG  1   3  -1
M  CHG  1  13   1
M  END
> <s_m_source_file>
AV-unprocessed.smi

> <i_m_source_file_index>
1965

> <i_lp_mmshare_version>
43012

> <i_f3d_flags>
0

> <s_epik_input>
czFbY0hdW2NIXW5jMVtOSF1DKD1PKVtOSF1bQ0BIXShbQ0gyXVtDSDJdMilbQ0BASF0oTjIzKVtDSDJdW0NIMl1bQ0gyXVtDSDJdMw==

> <s_epik_cmdline>
J2VwaWtfcHl0aG9uJywgJy1waCcsICc3LjAnLCAnLXRuJywgJzgnLCAnLW1hJywgJzIwMCcsICctbWV0YWxfYmluZGluZycsICctaW1hZScsICc8aW5maWxlLm1hZT4nLCAnLW9tYWUnLCAnPG91dGZpbGUubWFlPic=

> <r_lp_tautomer_probability>
1

> <r_epik_Ionization_Penalty>
7.4116

> <r_epik_Ionization_Penalty_Charging>
6.13869

> <r_epik_Ionization_Penalty_Neutral>
1.27291

> <r_epik_State_Penalty>
6.13761

> <r_epik_Charging_Adjusted_Penalty>
12.2763

> <i_epik_Tot_Q>
0

> <i_epik_Tot_abs_Q>
2

> <r_epik_Metal_State_Penalty>
2.08142

> <b_epik_Metal_Only>
1

> <s_lp_Force_Field>
OPLS_2005

> <r_lp_Energy>
27.943

> <b_lp_Chiralities_Consistent>
1

> <s_lp_Variant>
AV-unprocessed.smi:1965-10

> <Gold.Version>
5.8.1

> <Gold.Id.Protein>
6NUR|6NUR_protein|mol2

> <Gold.PLP.Fitness>
41.7915

> <Gold.PLP.PLP>
-29.1071

> <Gold.PLP.part.hbond>
-3.8125

> <Gold.PLP.part.metal>
0.0000

> <Gold.PLP.part.buried>
-0.8240

> <Gold.PLP.part.nonpolar>
-24.7935

> <Gold.PLP.part.repulsive>
0.1159

> <Gold.PLP.ligand.clash>
0.0000

> <Gold.PLP.ligand.torsion>
0.8833

> <Gold.PLP.Chemscore.Hbond>
4.8160

> <Gold.PLP.Chemscore.CHOScore>
0.0000

> <Gold.PLP.Chemscore.Metal>
0.0000

> <Gold.Chemscore.Hbonds>
donor molecule, donor type, donor heavy atom, donor atom, acceptor molecule, acceptor atom, score
      L1  H    13    36       P1  7948  2.00
      P1  H  7989  7998       L1     1  0.82
      P1  H  7997  8010       L1     3  2.00

> <Gold.PLP.Chemscore.Internal.Correction>
0.0029

> <Gold.Rescore>
     Score         DG    S(hbond)    S(metal)    S(lipo)     H(rot)  DE(clash)    DE(int)     intcor
     16.97     -19.31       2.61        0.00      65.68       1.00       0.13       2.21       ----

> <Gold.Chemscore.Fitness>
16.9704

> <Gold.Chemscore.DG>
-19.3133

> <Gold.Chemscore.ZeroCoef>
-5.4800

> <Gold.Chemscore.Hbond>
2.6073

> <Gold.Chemscore.Metal>
0.0000

> <Gold.Chemscore.Lipo>
65.6831

> <Gold.Chemscore.Internal_Hbond>
0.0000

> <Gold.Chemscore.DEClash>
0.1297

> <Gold.Chemscore.DEInternal>
2.2131

> <Gold.Chemscore.Rot>
1.0000

> <Gold.Chemscore.Internal.Correction>
   9.000000E+99

> <Gold.Chemscore.Hbonds>
donor molecule, donor type, donor heavy atom, donor atom, acceptor molecule, acceptor atom, score
      L1  H    13    36       P1  7948  0.94
      P1  H  7989  7998       L1     1  0.79
      P1  H  7997  8010       L1     3  0.29

> <Gold.Chemscore.Hbond.Weighted>
-8.7083

> <Gold.Chemscore.Metal.Weighted>
-0.0000

> <Gold.Chemscore.Lipo.Weighted>
-7.6849

> <Gold.Chemscore.Internal_Hbond.Weighted>
0.0000

> <Gold.Chemscore.DEClash.Weighted>
0.1297

> <Gold.Chemscore.DEInternal.Weighted>
2.2131

> <Gold.Chemscore.Rot.Weighted>
2.5600

> <Gold.Chemscore.Internal.Correction.Weighted>
   9.000000E+99

> <Gold.Protein.RotatedTorsions>
[ 6907 6896 6895 6894 ] final  135.34 input  -60.11 | X-H torsion
[ 7974 7965 7964 7962 ] final  -68.49 input  175.53 | X-H torsion
[ 8008 7997 7996 7995 ] final   75.01 input   59.86 | X-H torsion
[ 10167 10162 10161 10158 ] final   30.75 input  -65.29 | X-H torsion
[ 10718 10713 10712 10709 ] final  -47.15 input   66.30 | X-H torsion
[ 10763 10752 10751 10750 ] final  -36.50 input  -60.55 | X-H torsion
[ 11005 11000 10999 10996 ] final   -3.26 input  -57.11 | X-H torsion

> <Gold.Protein.ActiveResidues>
 VAL166  LYS551  ARG553  GLY616  TRP617  ASP618  TYR619  PRO620  LYS621  CYS622 
 ASP623  PHE694  ASN695  SER759  ASP760  ASP761  ALA762  ILE779  LEU786  VAL792 
 PHE793  MET794  SER795  GLU796  ALA797  LYS798  CYS799  TRP800  GLU811  SER814 

> <Gold.Protein.RotatedAtoms>
  152.3015  133.5660  159.5621 H   0  0  0  0  0  0  0  0  0  0  0  0  # atno 6907 bound_to 6896
  150.7280  134.0284  159.3734 H   0  0  0  0  0  0  0  0  0  0  0  0  # atno 6908 bound_to 6896
  151.8183  135.0660  160.0473 H   0  0  0  0  0  0  0  0  0  0  0  0  # atno 6909 bound_to 6896
  145.7159  140.9059  143.0656 H   0  0  0  0  0  0  0  0  0  0  0  0  # atno 7974 bound_to 7965
  155.8067  140.3474  155.5434 H   0  0  0  0  0  0  0  0  0  0  0  0  # atno 8008 bound_to 7997
  155.8483  140.0952  157.1711 H   0  0  0  0  0  0  0  0  0  0  0  0  # atno 8009 bound_to 7997
  154.4007  140.1381  156.3800 H   0  0  0  0  0  0  0  0  0  0  0  0  # atno 8010 bound_to 7997
  140.4650  144.0849  150.6222 H   0  0  0  0  0  0  0  0  0  0  0  0  # atno 10167 bound_to 10162
  156.2113  130.4161  149.9111 H   0  0  0  0  0  0  0  0  0  0  0  0  # atno 10718 bound_to 10713
  153.8807  135.6822  153.4767 H   0  0  0  0  0  0  0  0  0  0  0  0  # atno 10763 bound_to 10752
  153.1235  135.4729  154.9232 H   0  0  0  0  0  0  0  0  0  0  0  0  # atno 10764 bound_to 10752
  154.7670  135.3227  154.8218 H   0  0  0  0  0  0  0  0  0  0  0  0  # atno 10765 bound_to 10752
  140.6673  133.9267  155.8473 H   0  0  0  0  0  0  0  0  0  0  0  0  # atno 11005 bound_to 11000
  144.6929  139.9136  143.7464 LP  0  0  0  0  0  0  0  0  0  0  0  0  # atno 17320 bound_to 7965
  146.0670  139.3661  143.0546 LP  0  0  0  0  0  0  0  0  0  0  0  0  # atno 17321 bound_to 7965
  140.4047  143.2686  151.9905 LP  0  0  0  0  0  0  0  0  0  0  0  0  # atno 17342 bound_to 10162
  139.4811  144.5967  151.7678 LP  0  0  0  0  0  0  0  0  0  0  0  0  # atno 17343 bound_to 10162
  156.6788  130.8850  151.3573 LP  0  0  0  0  0  0  0  0  0  0  0  0  # atno 17370 bound_to 10713
  157.7040  130.9364  150.0872 LP  0  0  0  0  0  0  0  0  0  0  0  0  # atno 17371 bound_to 10713
  141.0419  134.0609  157.3891 LP  0  0  0  0  0  0  0  0  0  0  0  0  # atno 17394 bound_to 11000
  139.8993  135.0158  156.7188 LP  0  0  0  0  0  0  0  0  0  0  0  0  # atno 17395 bound_to 11000

$$$$
