AV-unprocessed.smi:278|AV-procd|sdf|2093|dock1
  -GOLD-   2262021373D 1   1.00000     0.00000
 Structure written by MMmdl.
 50 54  0  0  0  0  0  0  0  0  1 V2000
  152.6681  140.1890  154.9671 O   0  0  0  0  0  0  0  0  0  0  0  0
  151.4110  139.7354  155.5806 S   0  0  0  0  0  0  0  0  0  0  0  0
  150.9010  138.3778  155.3330 O   0  0  0  0  0  0  0  0  0  0  0  0
  151.4947  140.0217  157.3909 C   0  0  0  0  0  0  0  0  0  0  0  0
  150.6716  141.2872  157.6647 C   0  0  0  0  0  0  0  0  0  0  0  0
  149.5609  141.4062  156.6051 C   0  0  2  0  0  0  0  0  0  0  0  0
  148.3879  140.4444  156.8218 C   0  0  0  0  0  0  0  0  0  0  0  0
  147.8682  140.1728  155.4892 N   0  0  0  0  0  0  0  0  0  0  0  0
  146.8844  139.2574  155.2873 C   0  0  0  0  0  0  0  0  0  0  0  0
  146.0729  138.9329  156.3291 N   0  0  0  0  0  0  0  0  0  0  0  0
  145.0900  138.0418  156.1740 C   0  0  0  0  0  0  0  0  0  0  0  0
  144.7406  137.3685  155.0775 N   0  0  0  0  0  0  0  0  0  0  0  0
  145.5406  137.6945  154.0230 C   0  0  0  0  0  0  0  0  0  0  0  0
  146.6251  138.6191  154.0376 C   0  0  0  0  0  0  0  0  0  0  0  0
  147.1917  138.6909  152.7687 N   0  0  0  0  0  0  0  0  0  0  0  0
  146.4910  137.8557  152.0522 C   0  0  0  0  0  0  0  0  0  0  0  0
  145.4760  137.2177  152.7256 N   0  0  0  0  0  0  0  0  0  0  0  0
  144.5409  136.2537  152.1718 C   0  0  0  0  0  0  0  0  0  0  0  0
  145.1861  135.3611  151.0931 C   0  0  2  0  0  0  0  0  0  0  0  0
  145.0307  135.9686  149.8243 O   0  0  0  0  0  0  0  0  0  0  0  0
  144.5878  133.9392  151.0849 C   0  0  1  0  0  0  0  0  0  0  0  0
  144.7746  133.1059  149.8125 C   0  0  0  0  0  0  0  0  0  0  0  0
  144.6345  131.7030  150.3590 C   0  0  0  0  0  0  0  0  0  0  0  0
  145.3400  131.8216  151.7081 C   0  0  0  0  0  0  0  0  0  0  0  0
  145.1135  133.1566  152.1535 O   0  0  0  0  0  0  0  0  0  0  0  0
  148.8948  140.4100  154.4834 C   0  0  0  0  0  0  0  0  0  0  0  0
  150.1020  140.9873  155.2367 C   0  0  2  0  0  0  0  0  0  0  0  0
  149.1769  142.4263  156.5567 H   0  0  0  0  0  0  0  0  0  0  0  0
  150.5633  141.8202  154.7053 H   0  0  0  0  0  0  0  0  0  0  0  0
  151.0536  139.1576  157.8879 H   0  0  0  0  0  0  0  0  0  0  0  0
  152.5331  140.1120  157.7103 H   0  0  0  0  0  0  0  0  0  0  0  0
  150.2714  141.2971  158.6791 H   0  0  0  0  0  0  0  0  0  0  0  0
  151.3273  142.1541  157.5763 H   0  0  0  0  0  0  0  0  0  0  0  0
  148.7209  139.5099  157.2754 H   0  0  0  0  0  0  0  0  0  0  0  0
  147.6265  140.8844  157.4670 H   0  0  0  0  0  0  0  0  0  0  0  0
  144.4973  137.8410  157.0544 H   0  0  0  0  0  0  0  0  0  0  0  0
  146.6916  137.6863  151.0043 H   0  0  0  0  0  0  0  0  0  0  0  0
  144.1619  135.6414  152.9910 H   0  0  0  0  0  0  0  0  0  0  0  0
  143.6837  136.7901  151.7627 H   0  0  0  0  0  0  0  0  0  0  0  0
  146.2546  135.2872  151.2997 H   0  0  0  0  0  0  0  0  0  0  0  0
  144.8995  136.8958  149.9522 H   0  0  0  0  0  0  0  0  0  0  0  0
  143.5176  134.0128  151.2851 H   0  0  0  0  0  0  0  0  0  0  0  0
  144.0413  133.3394  149.0400 H   0  0  0  0  0  0  0  0  0  0  0  0
  145.7701  133.2319  149.3862 H   0  0  0  0  0  0  0  0  0  0  0  0
  143.5810  131.4608  150.5048 H   0  0  0  0  0  0  0  0  0  0  0  0
  145.0748  130.9435  149.7123 H   0  0  0  0  0  0  0  0  0  0  0  0
  144.9790  131.0923  152.4336 H   0  0  0  0  0  0  0  0  0  0  0  0
  146.4141  131.6759  151.5877 H   0  0  0  0  0  0  0  0  0  0  0  0
  149.1515  139.5067  153.9301 H   0  0  0  0  0  0  0  0  0  0  0  0
  148.5150  141.1410  153.7692 H   0  0  0  0  0  0  0  0  0  0  0  0
  1  2  2  0  0  0  0
  2 27  1  0  0  0  0
  2  3  2  0  0  0  0
  2  4  1  0  0  0  0
  4  5  1  0  0  0  0
  4 30  1  0  0  0  0
  4 31  1  0  0  0  0
  5  6  1  0  0  0  0
  5 32  1  0  0  0  0
  5 33  1  0  0  0  0
  6 28  1  0  0  0  0
  6 27  1  0  0  0  0
  6  7  1  0  0  0  0
  7  8  1  0  0  0  0
  7 34  1  0  0  0  0
  7 35  1  0  0  0  0
  8  9  1  0  0  0  0
  8 26  1  0  0  0  0
  9 14  1  0  0  0  0
  9 10  2  0  0  0  0
 10 11  1  0  0  0  0
 11 12  2  0  0  0  0
 11 36  1  0  0  0  0
 12 13  1  0  0  0  0
 13 17  1  0  0  0  0
 13 14  2  0  0  0  0
 14 15  1  0  0  0  0
 15 16  2  0  0  0  0
 16 17  1  0  0  0  0
 16 37  1  0  0  0  0
 17 18  1  0  0  0  0
 18 19  1  0  0  0  0
 18 38  1  0  0  0  0
 18 39  1  0  0  0  0
 19 20  1  0  0  0  0
 19 21  1  0  0  0  0
 19 40  1  0  0  0  0
 20 41  1  0  0  0  0
 21 25  1  0  0  0  0
 21 22  1  0  0  0  0
 21 42  1  0  0  0  0
 22 23  1  0  0  0  0
 22 43  1  0  0  0  0
 22 44  1  0  0  0  0
 23 24  1  0  0  0  0
 23 45  1  0  0  0  0
 23 46  1  0  0  0  0
 24 25  1  0  0  0  0
 24 47  1  0  0  0  0
 24 48  1  0  0  0  0
 26 27  1  0  0  0  0
 26 49  1  0  0  0  0
 26 50  1  0  0  0  0
 27 29  1  0  0  0  0
M  END
> <s_m_source_file>
AV-unprocessed.smi

> <i_m_source_file_index>
278

> <i_lp_mmshare_version>
43012

> <i_f3d_flags>
0

> <s_epik_input>
W0NIMl0xW0NIMl1TKD1PKSg9TylbQ0BASF0oW0NAQEhdMTIpW0NIMl1OKFtDSDJdMiljKG5bY0hdbjMpYyhjMzQpbltjSF1uNFtDSDJdW0NASF0oW09IXSlbQ0BASF01W0NIMl1bQ0gyXVtDSDJdTzU=

> <s_epik_cmdline>
J2VwaWtfcHl0aG9uJywgJy1waCcsICc3LjAnLCAnLXRuJywgJzgnLCAnLW1hJywgJzIwMCcsICctbWV0YWxfYmluZGluZycsICctaW1hZScsICc8aW5maWxlLm1hZT4nLCAnLW9tYWUnLCAnPG91dGZpbGUubWFlPic=

> <r_lp_tautomer_probability>
1

> <r_epik_Ionization_Penalty>
0.000636766

> <r_epik_Ionization_Penalty_Charging>
0

> <r_epik_Ionization_Penalty_Neutral>
0.000636766

> <r_epik_State_Penalty>
0.000329976

> <r_epik_Charging_Adjusted_Penalty>
0.000329976

> <i_epik_Tot_Q>
0

> <i_epik_Tot_abs_Q>
0

> <r_epik_Metal_State_Penalty>
-0

> <b_epik_Metal_Only>
0

> <s_lp_Force_Field>
OPLS_2005

> <r_lp_Energy>
51.4583

> <b_lp_Chiralities_Consistent>
1

> <s_lp_Variant>
AV-unprocessed.smi:278-7

> <Gold.Version>
5.8.1

> <Gold.Id.Protein>
6NUR|6NUR_protein|mol2

> <Gold.PLP.Fitness>
43.4987

> <Gold.PLP.PLP>
-38.8353

> <Gold.PLP.part.hbond>
-3.9346

> <Gold.PLP.part.metal>
0.0000

> <Gold.PLP.part.buried>
-4.6106

> <Gold.PLP.part.nonpolar>
-31.9669

> <Gold.PLP.part.repulsive>
0.5577

> <Gold.PLP.ligand.clash>
0.0000

> <Gold.PLP.ligand.torsion>
1.2572

> <Gold.PLP.Chemscore.Hbond>
2.2641

> <Gold.PLP.Chemscore.CHOScore>
0.0388

> <Gold.PLP.Chemscore.Metal>
0.0000

> <Gold.Chemscore.Hbonds>
donor molecule, donor type, donor heavy atom, donor atom, acceptor molecule, acceptor atom, score
      L1  H    20    41       P1 10171  1.00
      P1  H  7989  7998       L1     1  0.22
      P1  H  7997  8009       L1     1  1.00
      L1  C    16    37       P1  7948  0.06

> <Gold.PLP.Chemscore.Internal.Correction>
0.2692

> <Gold.Rescore>
     Score         DG    S(hbond)    S(metal)    S(lipo)     H(rot)  DE(clash)    DE(int)     intcor
     12.95     -15.30       1.98        0.00      73.95       2.13       0.26       2.09       ----

> <Gold.Chemscore.Fitness>
12.9455

> <Gold.Chemscore.DG>
-15.2951

> <Gold.Chemscore.ZeroCoef>
-5.4800

> <Gold.Chemscore.Hbond>
1.9843

> <Gold.Chemscore.Metal>
0.0000

> <Gold.Chemscore.Lipo>
73.9507

> <Gold.Chemscore.Internal_Hbond>
0.0000

> <Gold.Chemscore.DEClash>
0.2572

> <Gold.Chemscore.DEInternal>
2.0924

> <Gold.Chemscore.Rot>
2.1346

> <Gold.Chemscore.Internal.Correction>
   9.000000E+99

> <Gold.Chemscore.Hbonds>
donor molecule, donor type, donor heavy atom, donor atom, acceptor molecule, acceptor atom, score
      L1  H    20    41       P1 10171  0.95
      P1  H  7989  7998       L1     1  0.01
      P1  H  7997  8009       L1     1  0.95

> <Gold.Chemscore.Hbond.Weighted>
-6.6275

> <Gold.Chemscore.Metal.Weighted>
-0.0000

> <Gold.Chemscore.Lipo.Weighted>
-8.6522

> <Gold.Chemscore.Internal_Hbond.Weighted>
0.0000

> <Gold.Chemscore.DEClash.Weighted>
0.2572

> <Gold.Chemscore.DEInternal.Weighted>
2.0924

> <Gold.Chemscore.Rot.Weighted>
5.4646

> <Gold.Chemscore.Internal.Correction.Weighted>
   9.000000E+99

> <Gold.Protein.RotatedTorsions>
[ 6907 6896 6895 6894 ] final  142.90 input  -60.11 | X-H torsion
[ 7974 7965 7964 7962 ] final  -85.09 input  175.53 | X-H torsion
[ 8008 7997 7996 7995 ] final -137.02 input   59.86 | X-H torsion
[ 10167 10162 10161 10158 ] final  166.49 input  -65.29 | X-H torsion
[ 10718 10713 10712 10709 ] final  116.22 input   66.30 | X-H torsion
[ 10763 10752 10751 10750 ] final   74.38 input  -60.55 | X-H torsion
[ 11005 11000 10999 10996 ] final   89.79 input  -57.11 | X-H torsion

> <Gold.Protein.ActiveResidues>
 VAL166  LYS551  ARG553  GLY616  TRP617  ASP618  TYR619  PRO620  LYS621  CYS622 
 ASP623  PHE694  ASN695  SER759  ASP760  ASP761  ALA762  ILE779  LEU786  VAL792 
 PHE793  MET794  SER795  GLU796  ALA797  LYS798  CYS799  TRP800  GLU811  SER814 

> <Gold.Protein.RotatedAtoms>
  152.2130  133.4925  159.5119 H   0  0  0  0  0  0  0  0  0  0  0  0  # atno 6907 bound_to 6896
  150.6994  134.1443  159.4125 H   0  0  0  0  0  0  0  0  0  0  0  0  # atno 6908 bound_to 6896
  151.9362  135.0234  160.0583 H   0  0  0  0  0  0  0  0  0  0  0  0  # atno 6909 bound_to 6896
  145.4979  140.9549  143.1776 H   0  0  0  0  0  0  0  0  0  0  0  0  # atno 7974 bound_to 7965
  155.4049  140.0508  157.3035 H   0  0  0  0  0  0  0  0  0  0  0  0  # atno 8008 bound_to 7997
  154.4973  140.2143  155.9380 H   0  0  0  0  0  0  0  0  0  0  0  0  # atno 8009 bound_to 7997
  156.1422  140.3152  155.8519 H   0  0  0  0  0  0  0  0  0  0  0  0  # atno 8010 bound_to 7997
  139.4926  144.4022  151.9397 H   0  0  0  0  0  0  0  0  0  0  0  0  # atno 10167 bound_to 10162
  157.6174  131.1022  150.7441 H   0  0  0  0  0  0  0  0  0  0  0  0  # atno 10718 bound_to 10713
  153.0583  135.5028  154.8033 H   0  0  0  0  0  0  0  0  0  0  0  0  # atno 10763 bound_to 10752
  154.6842  135.2973  154.9573 H   0  0  0  0  0  0  0  0  0  0  0  0  # atno 10764 bound_to 10752
  154.0349  135.6724  153.4837 H   0  0  0  0  0  0  0  0  0  0  0  0  # atno 10765 bound_to 10752
  139.8868  134.8573  156.3192 H   0  0  0  0  0  0  0  0  0  0  0  0  # atno 11005 bound_to 11000
  144.7797  139.6553  143.7160 LP  0  0  0  0  0  0  0  0  0  0  0  0  # atno 17320 bound_to 7965
  146.2244  139.5695  142.9597 LP  0  0  0  0  0  0  0  0  0  0  0  0  # atno 17321 bound_to 7965
  140.3461  144.3145  150.5958 LP  0  0  0  0  0  0  0  0  0  0  0  0  # atno 17342 bound_to 10162
  140.5525  143.2204  151.7903 LP  0  0  0  0  0  0  0  0  0  0  0  0  # atno 17343 bound_to 10162
  156.7805  130.4858  149.5402 LP  0  0  0  0  0  0  0  0  0  0  0  0  # atno 17370 bound_to 10713
  156.1303  130.6173  151.0323 LP  0  0  0  0  0  0  0  0  0  0  0  0  # atno 17371 bound_to 10713
  140.9798  133.7274  156.0656 LP  0  0  0  0  0  0  0  0  0  0  0  0  # atno 17394 bound_to 11000
  140.7763  134.3775  157.5497 LP  0  0  0  0  0  0  0  0  0  0  0  0  # atno 17395 bound_to 11000

$$$$
