AV-unprocessed.smi:994|AV-procd|sdf|4343|dock2
  -GOLD-   22720 2243D 1   1.00000     0.00000
 Structure written by MMmdl.
 37 38  0  0  0  0  0  0  0  0  2 V2000
  153.5837  139.9380  158.7948 O   0  0  0  0  0  0  0  0  0  0  0  0
  152.4202  140.2959  158.6070 C   0  0  0  0  0  0  0  0  0  0  0  0
  151.5167  139.5575  157.9424 N   0  0  0  0  0  0  0  0  0  0  0  0
  151.7538  138.2559  157.3182 C   0  0  2  0  0  0  0  0  0  0  0  0
  150.5245  137.7814  156.5114 C   0  0  0  0  0  0  0  0  0  0  0  0
  150.0063  138.7670  155.4931 C   0  0  0  0  0  0  0  0  0  0  0  0
  149.9195  138.6232  154.1235 C   0  0  0  0  0  0  0  0  0  0  0  0
  149.4082  139.8141  153.6398 N   0  0  0  0  0  0  0  0  0  0  0  0
  149.2088  140.6093  154.6914 C   0  0  0  0  0  0  0  0  0  0  0  0
  149.5430  140.0416  155.8424 N   0  0  0  0  0  0  0  0  0  0  0  0
  152.2109  137.2477  158.3765 C   0  0  0  0  0  0  0  0  0  0  0  0
  151.4291  137.0199  159.3266 O   0  0  0  0  0  0  0  0  0  0  0  0
  153.3356  136.7227  158.2221 O   0  5  0  0  0  0  0  0  0  0  0  0
  151.9394  141.6571  159.1250 C   0  0  0  0  0  0  0  0  0  0  0  0
  151.5101  142.5642  157.9516 C   0  0  0  0  0  0  0  0  0  0  0  0
  151.0448  143.9422  158.4489 C   0  0  0  0  0  0  0  0  0  0  0  0
  152.1305  144.6238  159.2968 C   0  0  0  0  0  0  0  0  0  0  0  0
  152.5657  143.7269  160.4665 C   0  0  0  0  0  0  0  0  0  0  0  0
  153.0320  142.3491  159.9679 C   0  0  0  0  0  0  0  0  0  0  0  0
  149.2286  140.0421  152.6724 H   0  0  0  0  0  0  0  0  0  0  0  0
  150.5820  139.9276  157.8483 H   0  0  0  0  0  0  0  0  0  0  0  0
  152.5834  138.3555  156.6150 H   0  0  0  0  0  0  0  0  0  0  0  0
  150.7823  136.8667  155.9760 H   0  0  0  0  0  0  0  0  0  0  0  0
  149.7073  137.5160  157.1837 H   0  0  0  0  0  0  0  0  0  0  0  0
  150.1836  137.7999  153.4763 H   0  0  0  0  0  0  0  0  0  0  0  0
  148.8162  141.6125  154.6146 H   0  0  0  0  0  0  0  0  0  0  0  0
  151.0696  141.4941  159.7644 H   0  0  0  0  0  0  0  0  0  0  0  0
  152.3392  142.6962  157.2544 H   0  0  0  0  0  0  0  0  0  0  0  0
  150.7061  142.0902  157.3866 H   0  0  0  0  0  0  0  0  0  0  0  0
  150.7840  144.5748  157.6001 H   0  0  0  0  0  0  0  0  0  0  0  0
  150.1359  143.8287  159.0410 H   0  0  0  0  0  0  0  0  0  0  0  0
  152.9938  144.8511  158.6700 H   0  0  0  0  0  0  0  0  0  0  0  0
  151.7630  145.5779  159.6756 H   0  0  0  0  0  0  0  0  0  0  0  0
  153.3664  144.2097  161.0273 H   0  0  0  0  0  0  0  0  0  0  0  0
  151.7338  143.6019  161.1608 H   0  0  0  0  0  0  0  0  0  0  0  0
  153.2990  141.7241  160.8212 H   0  0  0  0  0  0  0  0  0  0  0  0
  153.9423  142.4713  159.3785 H   0  0  0  0  0  0  0  0  0  0  0  0
  1  2  2  0  0  0  0
  2  3  1  0  0  0  0
  2 14  1  0  0  0  0
  3  4  1  0  0  0  0
  3 21  1  0  0  0  0
  4  5  1  0  0  0  0
  4 11  1  0  0  0  0
  4 22  1  0  0  0  0
  5  6  1  0  0  0  0
  5 23  1  0  0  0  0
  5 24  1  0  0  0  0
  6 10  1  0  0  0  0
  6  7  2  0  0  0  0
  7  8  1  0  0  0  0
  7 25  1  0  0  0  0
  8 20  1  0  0  0  0
  8  9  1  0  0  0  0
  9 10  2  0  0  0  0
  9 26  1  0  0  0  0
 11 12  2  0  0  0  0
 11 13  1  0  0  0  0
 14 19  1  0  0  0  0
 14 15  1  0  0  0  0
 14 27  1  0  0  0  0
 15 16  1  0  0  0  0
 15 28  1  0  0  0  0
 15 29  1  0  0  0  0
 16 17  1  0  0  0  0
 16 30  1  0  0  0  0
 16 31  1  0  0  0  0
 17 18  1  0  0  0  0
 17 32  1  0  0  0  0
 17 33  1  0  0  0  0
 18 19  1  0  0  0  0
 18 34  1  0  0  0  0
 18 35  1  0  0  0  0
 19 36  1  0  0  0  0
 19 37  1  0  0  0  0
M  CHG  1  13  -1
M  END
> <s_m_source_file>
AV-unprocessed.smi

> <i_m_source_file_index>
994

> <i_lp_mmshare_version>
43012

> <i_f3d_flags>
0

> <s_epik_input>
W0NIMl0xW0NIMl1bQ0gyXVtDSDJdW0NIMl1bQ0hdMUMoPU8pW05IXVtDQEBIXShDKD1PKVtPSF0pW0NIMl1jMltjSF1bbkhdW2NIXW4y

> <s_epik_cmdline>
J2VwaWtfcHl0aG9uJywgJy1waCcsICc3LjAnLCAnLXRuJywgJzgnLCAnLW1hJywgJzIwMCcsICctbWV0YWxfYmluZGluZycsICctaW1hZScsICc8aW5maWxlLm1hZT4nLCAnLW9tYWUnLCAnPG91dGZpbGUubWFlPic=

> <r_lp_tautomer_probability>
0.5

> <r_epik_Ionization_Penalty>
0.836077

> <r_epik_Ionization_Penalty_Charging>
0.836077

> <r_epik_Ionization_Penalty_Neutral>
7.85059e-08

> <r_epik_State_Penalty>
0.938582

> <r_epik_Charging_Adjusted_Penalty>
1.77466

> <i_epik_Tot_Q>
-1

> <i_epik_Tot_abs_Q>
1

> <r_epik_Metal_State_Penalty>
0.523638

> <b_epik_Metal_Only>
0

> <s_lp_Force_Field>
OPLS_2005

> <r_lp_Energy>
9.63069

> <b_lp_Chiralities_Consistent>
1

> <s_lp_Variant>
AV-unprocessed.smi:994-5

> <Gold.Version>
5.8.1

> <Gold.Id.Protein>
6NUR|6NUR_protein|mol2

> <Gold.PLP.Fitness>
48.1314

> <Gold.PLP.PLP>
-33.0443

> <Gold.PLP.part.hbond>
-2.8096

> <Gold.PLP.part.metal>
0.0000

> <Gold.PLP.part.buried>
-6.0880

> <Gold.PLP.part.nonpolar>
-25.4216

> <Gold.PLP.part.repulsive>
0.2500

> <Gold.PLP.ligand.clash>
0.0000

> <Gold.PLP.ligand.torsion>
0.0976

> <Gold.PLP.Chemscore.Hbond>
4.0000

> <Gold.PLP.Chemscore.CHOScore>
1.0653

> <Gold.PLP.Chemscore.Metal>
0.0000

> <Gold.Chemscore.Hbonds>
donor molecule, donor type, donor heavy atom, donor atom, acceptor molecule, acceptor atom, score
      L1  H     8    20       P1  7957  1.00
      P1  H  6896  6908       L1    12  2.00
      P1  H  7997  8010       L1     1  1.00
      L1  C     7    25       P1  7948  1.00
      L1  C     7    25       P1  7949  0.05

> <Gold.PLP.Chemscore.Internal.Correction>
0.0864

> <Gold.Rescore>
     Score         DG    S(hbond)    S(metal)    S(lipo)     H(rot)  DE(clash)    DE(int)     intcor
     17.33     -18.52       2.90        0.00      86.97       2.66       0.01       1.19       ----

> <Gold.Chemscore.Fitness>
17.3251

> <Gold.Chemscore.DG>
-18.5202

> <Gold.Chemscore.ZeroCoef>
-5.4800

> <Gold.Chemscore.Hbond>
2.8951

> <Gold.Chemscore.Metal>
0.0000

> <Gold.Chemscore.Lipo>
86.9682

> <Gold.Chemscore.Internal_Hbond>
0.0000

> <Gold.Chemscore.DEClash>
0.0060

> <Gold.Chemscore.DEInternal>
1.1891

> <Gold.Chemscore.Rot>
2.6581

> <Gold.Chemscore.Internal.Correction>
   9.000000E+99

> <Gold.Chemscore.Hbonds>
donor molecule, donor type, donor heavy atom, donor atom, acceptor molecule, acceptor atom, score
      L1  H     8    20       P1  7957  0.92
      P1  H  6896  6908       L1    12  0.90
      P1  H  7997  8010       L1     1  0.85

> <Gold.Chemscore.Hbond.Weighted>
-9.6698

> <Gold.Chemscore.Metal.Weighted>
-0.0000

> <Gold.Chemscore.Lipo.Weighted>
-10.1753

> <Gold.Chemscore.Internal_Hbond.Weighted>
0.0000

> <Gold.Chemscore.DEClash.Weighted>
0.0060

> <Gold.Chemscore.DEInternal.Weighted>
1.1891

> <Gold.Chemscore.Rot.Weighted>
6.8048

> <Gold.Chemscore.Internal.Correction.Weighted>
   9.000000E+99

> <Gold.Protein.RotatedTorsions>
[ 6907 6896 6895 6894 ] final -136.37 input  -60.11 | X-H torsion
[ 7974 7965 7964 7962 ] final   73.04 input  175.53 | X-H torsion
[ 8008 7997 7996 7995 ] final   20.27 input   59.86 | X-H torsion
[ 10167 10162 10161 10158 ] final -104.71 input  -65.29 | X-H torsion
[ 10718 10713 10712 10709 ] final   69.85 input   66.30 | X-H torsion
[ 10763 10752 10751 10750 ] final  -82.02 input  -60.55 | X-H torsion
[ 11005 11000 10999 10996 ] final  153.52 input  -57.11 | X-H torsion

> <Gold.Protein.ActiveResidues>
 VAL166  LYS551  ARG553  GLY616  TRP617  ASP618  TYR619  PRO620  LYS621  CYS622 
 ASP623  PHE694  ASN695  SER759  ASP760  ASP761  ALA762  ILE779  LEU786  VAL792 
 PHE793  MET794  SER795  GLU796  ALA797  LYS798  CYS799  TRP800  GLU811  SER814 

> <Gold.Protein.RotatedAtoms>
  151.0093  133.5981  159.2684 H   0  0  0  0  0  0  0  0  0  0  0  0  # atno 6907 bound_to 6896
  151.3138  135.0800  159.9291 H   0  0  0  0  0  0  0  0  0  0  0  0  # atno 6908 bound_to 6896
  152.5295  133.9753  159.7835 H   0  0  0  0  0  0  0  0  0  0  0  0  # atno 6909 bound_to 6896
  145.7459  139.2739  143.1459 H   0  0  0  0  0  0  0  0  0  0  0  0  # atno 7974 bound_to 7965
  154.9331  140.3043  155.5158 H   0  0  0  0  0  0  0  0  0  0  0  0  # atno 8008 bound_to 7997
  156.3002  140.2350  156.4329 H   0  0  0  0  0  0  0  0  0  0  0  0  # atno 8009 bound_to 7997
  154.8218  140.0423  157.1405 H   0  0  0  0  0  0  0  0  0  0  0  0  # atno 8010 bound_to 7997
  140.2063  143.3780  152.1088 H   0  0  0  0  0  0  0  0  0  0  0  0  # atno 10167 bound_to 10162
  157.6368  130.9447  150.0570 H   0  0  0  0  0  0  0  0  0  0  0  0  # atno 10718 bound_to 10713
  154.5707  135.5606  153.7092 H   0  0  0  0  0  0  0  0  0  0  0  0  # atno 10763 bound_to 10752
  153.0047  135.6296  154.2118 H   0  0  0  0  0  0  0  0  0  0  0  0  # atno 10764 bound_to 10752
  154.2058  135.2876  155.2955 H   0  0  0  0  0  0  0  0  0  0  0  0  # atno 10765 bound_to 10752
  140.1405  134.8742  157.2325 H   0  0  0  0  0  0  0  0  0  0  0  0  # atno 11005 bound_to 11000
  146.0404  140.8171  142.9832 LP  0  0  0  0  0  0  0  0  0  0  0  0  # atno 17320 bound_to 7965
  144.6860  140.2901  143.7279 LP  0  0  0  0  0  0  0  0  0  0  0  0  # atno 17321 bound_to 7965
  139.5197  144.7023  151.5457 LP  0  0  0  0  0  0  0  0  0  0  0  0  # atno 17342 bound_to 10162
  140.6355  143.8992  150.6643 LP  0  0  0  0  0  0  0  0  0  0  0  0  # atno 17343 bound_to 10162
  156.1614  130.3644  149.9294 LP  0  0  0  0  0  0  0  0  0  0  0  0  # atno 17370 bound_to 10713
  156.7291  130.9036  151.3624 LP  0  0  0  0  0  0  0  0  0  0  0  0  # atno 17371 bound_to 10713
  140.2728  134.3440  155.7368 LP  0  0  0  0  0  0  0  0  0  0  0  0  # atno 17394 bound_to 11000
  141.2185  133.7433  156.9248 LP  0  0  0  0  0  0  0  0  0  0  0  0  # atno 17395 bound_to 11000

$$$$
