AV-unprocessed.smi:3062|AV-procd|sdf|11684|dock8
  -GOLD-   2272017 93D 1   1.00000     0.00000
 Structure written by MMmdl.
 39 40  0  0  0  0  0  0  0  0  1 V2000
  154.0135  129.4699  154.5456 C   0  0  0  0  0  0  0  0  0  0  0  0
  153.2916  130.5179  155.3491 C   0  0  0  0  0  0  0  0  0  0  0  0
  152.0161  130.6153  155.1638 N   0  0  0  0  0  0  0  0  0  0  0  0
  151.2578  131.5413  155.8520 N   0  0  0  0  0  0  0  0  0  0  0  0
  149.8302  131.5108  155.5129 C   0  0  0  0  0  0  0  0  0  0  0  0
  149.5656  131.9533  154.0566 C   0  0  1  0  0  0  0  0  0  0  0  0
  149.1532  130.8515  153.2733 O   0  0  0  0  0  0  0  0  0  0  0  0
  148.4795  133.0360  153.9467 C   0  0  0  0  0  0  0  0  0  0  0  0
  147.6599  132.7792  152.8180 O   0  0  0  0  0  0  0  0  0  0  0  0
  146.4646  133.5417  152.8143 C   0  0  0  0  0  0  0  0  0  0  0  0
  145.7002  133.1990  151.5733 C   0  0  0  0  0  0  0  0  0  0  0  0
  146.0424  132.2582  150.6354 C   0  0  0  0  0  0  0  0  0  0  0  0
  145.1121  132.1691  149.5583 C   0  0  0  0  0  0  0  0  0  0  0  0
  144.0689  133.0470  149.6835 C   0  0  0  0  0  0  0  0  0  0  0  0
  144.2112  134.0059  151.1308 S   0  0  0  0  0  0  0  0  0  0  0  0
  151.7507  132.4205  156.7705 C   0  0  0  0  0  0  0  0  0  0  0  0
  151.0358  133.2317  157.3614 O   0  0  0  0  0  0  0  0  0  0  0  0
  153.1963  132.3054  156.9758 C   0  0  0  0  0  0  0  0  0  0  0  0
  153.7542  133.2063  157.9322 C   0  0  0  0  0  0  0  0  0  0  0  0
  154.1898  133.9346  158.7199 N   0  0  0  0  0  0  0  0  0  0  0  0
  153.9530  131.4028  156.3029 C   0  0  0  0  0  0  0  0  0  0  0  0
  155.4568  131.2428  156.4812 C   0  0  0  0  0  0  0  0  0  0  0  0
  154.5712  128.7976  155.1974 H   0  0  0  0  0  0  0  0  0  0  0  0
  154.7170  129.9319  153.8527 H   0  0  0  0  0  0  0  0  0  0  0  0
  153.3244  128.8599  153.9591 H   0  0  0  0  0  0  0  0  0  0  0  0
  149.4095  130.5190  155.6915 H   0  0  0  0  0  0  0  0  0  0  0  0
  149.2939  132.1694  156.1984 H   0  0  0  0  0  0  0  0  0  0  0  0
  150.4778  132.3483  153.6081 H   0  0  0  0  0  0  0  0  0  0  0  0
  149.1342  131.1215  152.3678 H   0  0  0  0  0  0  0  0  0  0  0  0
  147.8603  133.0144  154.8447 H   0  0  0  0  0  0  0  0  0  0  0  0
  148.9248  134.0307  153.8878 H   0  0  0  0  0  0  0  0  0  0  0  0
  145.8648  133.3127  153.6960 H   0  0  0  0  0  0  0  0  0  0  0  0
  146.6950  134.6080  152.8316 H   0  0  0  0  0  0  0  0  0  0  0  0
  146.9225  131.6341  150.6856 H   0  0  0  0  0  0  0  0  0  0  0  0
  145.2389  131.4744  148.7410 H   0  0  0  0  0  0  0  0  0  0  0  0
  143.2304  133.1896  149.0177 H   0  0  0  0  0  0  0  0  0  0  0  0
  155.8786  132.0075  157.1328 H   0  0  0  0  0  0  0  0  0  0  0  0
  155.9701  131.3160  155.5218 H   0  0  0  0  0  0  0  0  0  0  0  0
  155.6852  130.2714  156.9209 H   0  0  0  0  0  0  0  0  0  0  0  0
  1  2  1  0  0  0  0
  1 23  1  0  0  0  0
  1 24  1  0  0  0  0
  1 25  1  0  0  0  0
  2 21  1  0  0  0  0
  2  3  2  0  0  0  0
  3  4  1  0  0  0  0
  4  5  1  0  0  0  0
  4 16  1  0  0  0  0
  5  6  1  0  0  0  0
  5 26  1  0  0  0  0
  5 27  1  0  0  0  0
  6  7  1  0  0  0  0
  6  8  1  0  0  0  0
  6 28  1  0  0  0  0
  7 29  1  0  0  0  0
  8  9  1  0  0  0  0
  8 30  1  0  0  0  0
  8 31  1  0  0  0  0
  9 10  1  0  0  0  0
 10 11  1  0  0  0  0
 10 32  1  0  0  0  0
 10 33  1  0  0  0  0
 11 15  1  0  0  0  0
 11 12  2  0  0  0  0
 12 13  1  0  0  0  0
 12 34  1  0  0  0  0
 13 14  2  0  0  0  0
 13 35  1  0  0  0  0
 14 15  1  0  0  0  0
 14 36  1  0  0  0  0
 16 17  2  0  0  0  0
 16 18  1  0  0  0  0
 18 19  1  0  0  0  0
 18 21  2  0  0  0  0
 19 20  3  0  0  0  0
 21 22  1  0  0  0  0
 22 37  1  0  0  0  0
 22 38  1  0  0  0  0
 22 39  1  0  0  0  0
M  END
> <s_m_source_file>
AV-unprocessed.smi

> <i_m_source_file_index>
3062

> <i_lp_mmshare_version>
43012

> <i_f3d_flags>
0

> <s_epik_input>
TiNDYyhjMVtDSDNdKWMoPU8pbihuYzFbQ0gzXSlbQ0gyXVtDQEhdKFtPSF0pW0NIMl1PW0NIMl1jMltjSF1bY0hdW2NIXXMy

> <s_epik_cmdline>
J2VwaWtfcHl0aG9uJywgJy1waCcsICc3LjAnLCAnLXRuJywgJzgnLCAnLW1hJywgJzIwMCcsICctbWV0YWxfYmluZGluZycsICctaW1hZScsICc8aW5maWxlLm1hZT4nLCAnLW9tYWUnLCAnPG91dGZpbGUubWFlPic=

> <r_lp_tautomer_probability>
1

> <r_epik_Ionization_Penalty>
6.86395e-08

> <r_epik_Ionization_Penalty_Charging>
2.24757e-10

> <r_epik_Ionization_Penalty_Neutral>
6.84147e-08

> <r_epik_State_Penalty>
-0

> <r_epik_Charging_Adjusted_Penalty>
2.24757e-10

> <i_epik_Tot_Q>
0

> <i_epik_Tot_abs_Q>
0

> <r_epik_Metal_State_Penalty>
-0

> <b_epik_Metal_Only>
0

> <s_lp_Force_Field>
OPLS_2005

> <r_lp_Energy>
25.5383

> <b_lp_Chiralities_Consistent>
1

> <s_lp_Variant>
AV-unprocessed.smi:3062-2

> <Gold.Version>
5.8.1

> <Gold.Id.Protein>
6NUR|6NUR_protein|mol2

> <Gold.PLP.Fitness>
45.1730

> <Gold.PLP.PLP>
-36.9794

> <Gold.PLP.part.hbond>
-3.0000

> <Gold.PLP.part.metal>
0.0000

> <Gold.PLP.part.buried>
-3.5511

> <Gold.PLP.part.nonpolar>
-31.6363

> <Gold.PLP.part.repulsive>
0.1860

> <Gold.PLP.ligand.clash>
0.7739

> <Gold.PLP.ligand.torsion>
1.3792

> <Gold.PLP.Chemscore.Hbond>
2.9513

> <Gold.PLP.Chemscore.CHOScore>
0.9332

> <Gold.PLP.Chemscore.Metal>
0.0000

> <Gold.Chemscore.Hbonds>
donor molecule, donor type, donor heavy atom, donor atom, acceptor molecule, acceptor atom, score
      L1  H     7    29       P1 10747  0.88
      P1  H  6896  6907       L1    17  0.82
      P1  H  6896  6909       L1    20  0.75
      L1  C    14    36       P1 10186  0.81

> <Gold.PLP.Chemscore.Internal.Correction>
0.0727

> <Gold.Rescore>
     Score         DG    S(hbond)    S(metal)    S(lipo)     H(rot)  DE(clash)    DE(int)     intcor
     15.88     -17.42       2.39        0.00      88.76       2.51       0.18       1.35       ----

> <Gold.Chemscore.Fitness>
15.8776

> <Gold.Chemscore.DG>
-17.4163

> <Gold.Chemscore.ZeroCoef>
-5.4800

> <Gold.Chemscore.Hbond>
2.3897

> <Gold.Chemscore.Metal>
0.0000

> <Gold.Chemscore.Lipo>
88.7611

> <Gold.Chemscore.Internal_Hbond>
0.0000

> <Gold.Chemscore.DEClash>
0.1849

> <Gold.Chemscore.DEInternal>
1.3538

> <Gold.Chemscore.Rot>
2.5119

> <Gold.Chemscore.Internal.Correction>
   9.000000E+99

> <Gold.Chemscore.Hbonds>
donor molecule, donor type, donor heavy atom, donor atom, acceptor molecule, acceptor atom, score
      L1  H     7    29       P1 10747  0.29
      P1  H  6896  6907       L1    17  0.81
      P1  H  6896  6909       L1    20  0.09

> <Gold.Chemscore.Hbond.Weighted>
-7.9817

> <Gold.Chemscore.Metal.Weighted>
-0.0000

> <Gold.Chemscore.Lipo.Weighted>
-10.3851

> <Gold.Chemscore.Internal_Hbond.Weighted>
0.0000

> <Gold.Chemscore.DEClash.Weighted>
0.1849

> <Gold.Chemscore.DEInternal.Weighted>
1.3538

> <Gold.Chemscore.Rot.Weighted>
6.4305

> <Gold.Chemscore.Internal.Correction.Weighted>
   9.000000E+99

> <Gold.Protein.RotatedTorsions>
[ 6907 6896 6895 6894 ] final -139.40 input  -60.11 | X-H torsion
[ 7974 7965 7964 7962 ] final  -84.71 input  175.53 | X-H torsion
[ 8008 7997 7996 7995 ] final  -51.16 input   59.86 | X-H torsion
[ 10167 10162 10161 10158 ] final  104.25 input  -65.29 | X-H torsion
[ 10718 10713 10712 10709 ] final  -16.99 input   66.30 | X-H torsion
[ 10763 10752 10751 10750 ] final   22.55 input  -60.55 | X-H torsion
[ 11005 11000 10999 10996 ] final  -18.03 input  -57.11 | X-H torsion

> <Gold.Protein.ActiveResidues>
 VAL166  LYS551  ARG553  GLY616  TRP617  ASP618  TYR619  PRO620  LYS621  CYS622 
 ASP623  PHE694  ASN695  SER759  ASP760  ASP761  ALA762  ILE779  LEU786  VAL792 
 PHE793  MET794  SER795  GLU796  ALA797  LYS798  CYS799  TRP800  GLU811  SER814 

> <Gold.Protein.RotatedAtoms>
  151.0473  133.5655  159.2645 H   0  0  0  0  0  0  0  0  0  0  0  0  # atno 6907 bound_to 6896
  151.2679  135.0674  159.9133 H   0  0  0  0  0  0  0  0  0  0  0  0  # atno 6908 bound_to 6896
  152.5375  134.0208  159.8034 H   0  0  0  0  0  0  0  0  0  0  0  0  # atno 6909 bound_to 6896
  145.5030  140.9546  143.1749 H   0  0  0  0  0  0  0  0  0  0  0  0  # atno 7974 bound_to 7965
  154.4077  140.1255  156.4783 H   0  0  0  0  0  0  0  0  0  0  0  0  # atno 8008 bound_to 7997
  155.7110  140.3494  155.4954 H   0  0  0  0  0  0  0  0  0  0  0  0  # atno 8009 bound_to 7997
  155.9300  140.1068  157.1130 H   0  0  0  0  0  0  0  0  0  0  0  0  # atno 8010 bound_to 7997
  139.7193  144.7061  151.0899 H   0  0  0  0  0  0  0  0  0  0  0  0  # atno 10167 bound_to 10162
  156.5798  130.4771  149.6325 H   0  0  0  0  0  0  0  0  0  0  0  0  # atno 10718 bound_to 10713
  153.0907  135.6646  153.9860 H   0  0  0  0  0  0  0  0  0  0  0  0  # atno 10763 bound_to 10752
  153.9458  135.2989  155.3442 H   0  0  0  0  0  0  0  0  0  0  0  0  # atno 10764 bound_to 10752
  154.7321  135.5118  153.9054 H   0  0  0  0  0  0  0  0  0  0  0  0  # atno 10765 bound_to 10752
  140.8228  133.8056  155.9677 H   0  0  0  0  0  0  0  0  0  0  0  0  # atno 11005 bound_to 11000
  144.7770  139.6609  143.7171 LP  0  0  0  0  0  0  0  0  0  0  0  0  # atno 17320 bound_to 7965
  146.2214  139.5643  142.9616 LP  0  0  0  0  0  0  0  0  0  0  0  0  # atno 17321 bound_to 7965
  140.7750  143.5187  150.9562 LP  0  0  0  0  0  0  0  0  0  0  0  0  # atno 17342 bound_to 10162
  139.8874  143.6996  152.3149 LP  0  0  0  0  0  0  0  0  0  0  0  0  # atno 17343 bound_to 10162
  156.2641  130.6979  151.1757 LP  0  0  0  0  0  0  0  0  0  0  0  0  # atno 17370 bound_to 10713
  157.7329  131.0595  150.5604 LP  0  0  0  0  0  0  0  0  0  0  0  0  # atno 17371 bound_to 10713
  140.9081  134.2294  157.5002 LP  0  0  0  0  0  0  0  0  0  0  0  0  # atno 17394 bound_to 11000
  139.8708  134.9738  156.4821 LP  0  0  0  0  0  0  0  0  0  0  0  0  # atno 17395 bound_to 11000

$$$$
