AV-unprocessed.smi:2451|AV-procd|sdf|9684|dock1
  -GOLD-   2272013323D 1   1.00000     0.00000
 Structure written by MMmdl.
 37 38  0  0  0  0  0  0  0  0  2 V2000
  153.4158  142.8870  162.9923 C   0  0  0  0  0  0  0  0  0  0  0  0
  152.7111  142.6438  161.6449 C   0  0  1  0  0  0  0  0  0  0  0  0
  152.1506  143.9884  161.1164 C   0  0  0  0  0  0  0  0  0  0  0  0
  151.4505  143.7899  159.7584 C   0  0  0  0  0  0  0  0  0  0  0  0
  152.3621  143.0992  158.7149 C   0  0  0  0  0  0  0  0  0  0  0  0
  152.9536  141.7524  159.1953 C   0  0  2  0  0  0  0  0  0  0  0  0
  151.8947  140.7510  159.2636 N   0  5  0  0  0  0  0  0  0  0  0  0
  151.9622  139.4428  158.3092 S   0  0  0  0  0  0  0  0  0  0  0  0
  152.8113  139.6502  157.1246 O   0  0  0  0  0  0  0  0  0  0  0  0
  152.1685  138.1980  159.0679 O   0  0  0  0  0  0  0  0  0  0  0  0
  150.2255  139.3861  157.6941 C   0  0  0  0  0  0  0  0  0  0  0  0
  150.2095  139.3424  156.1921 C   0  0  0  0  0  0  0  0  0  0  0  0
  149.6848  138.3285  155.3432 C   0  0  0  0  0  0  0  0  0  0  0  0
  149.9308  138.8043  154.0879 C   0  0  0  0  0  0  0  0  0  0  0  0
  150.5462  140.0120  154.1494 O   0  0  0  0  0  0  0  0  0  0  0  0
  150.7161  140.3492  155.4971 N   0  0  0  0  0  0  0  0  0  0  0  0
  153.6359  141.9406  160.5905 C   0  0  2  0  0  0  0  0  0  0  0  0
  154.2814  140.6335  161.1165 C   0  0  0  0  0  0  0  0  0  0  0  0
  154.3335  143.4611  162.8620 H   0  0  0  0  0  0  0  0  0  0  0  0
  153.6692  141.9518  163.4909 H   0  0  0  0  0  0  0  0  0  0  0  0
  152.7723  143.4416  163.6757 H   0  0  0  0  0  0  0  0  0  0  0  0
  151.8602  141.9919  161.8547 H   0  0  0  0  0  0  0  0  0  0  0  0
  151.4497  144.4182  161.8328 H   0  0  0  0  0  0  0  0  0  0  0  0
  152.9627  144.7080  161.0033 H   0  0  0  0  0  0  0  0  0  0  0  0
  150.5351  143.2129  159.9029 H   0  0  0  0  0  0  0  0  0  0  0  0
  151.1298  144.7579  159.3729 H   0  0  0  0  0  0  0  0  0  0  0  0
  151.8162  142.9580  157.7810 H   0  0  0  0  0  0  0  0  0  0  0  0
  153.1849  143.7742  158.4766 H   0  0  0  0  0  0  0  0  0  0  0  0
  153.7253  141.4599  158.4818 H   0  0  0  0  0  0  0  0  0  0  0  0
  149.7456  138.5018  158.1126 H   0  0  0  0  0  0  0  0  0  0  0  0
  149.6994  140.2615  158.0753 H   0  0  0  0  0  0  0  0  0  0  0  0
  149.2103  137.3975  155.6152 H   0  0  0  0  0  0  0  0  0  0  0  0
  149.7359  138.4206  153.0974 H   0  0  0  0  0  0  0  0  0  0  0  0
  154.4679  142.6250  160.4173 H   0  0  0  0  0  0  0  0  0  0  0  0
  153.5320  139.9085  161.4386 H   0  0  0  0  0  0  0  0  0  0  0  0
  154.9300  140.8281  161.9696 H   0  0  0  0  0  0  0  0  0  0  0  0
  154.9124  140.1486  160.3685 H   0  0  0  0  0  0  0  0  0  0  0  0
  1  2  1  0  0  0  0
  1 19  1  0  0  0  0
  1 20  1  0  0  0  0
  1 21  1  0  0  0  0
  2 17  1  0  0  0  0
  2  3  1  0  0  0  0
  2 22  1  0  0  0  0
  3  4  1  0  0  0  0
  3 23  1  0  0  0  0
  3 24  1  0  0  0  0
  4  5  1  0  0  0  0
  4 25  1  0  0  0  0
  4 26  1  0  0  0  0
  5  6  1  0  0  0  0
  5 27  1  0  0  0  0
  5 28  1  0  0  0  0
  6  7  1  0  0  0  0
  6 17  1  0  0  0  0
  6 29  1  0  0  0  0
  7  8  1  0  0  0  0
  8  9  2  0  0  0  0
  8 10  2  0  0  0  0
  8 11  1  0  0  0  0
 11 12  1  0  0  0  0
 11 30  1  0  0  0  0
 11 31  1  0  0  0  0
 12 16  2  0  0  0  0
 12 13  1  0  0  0  0
 13 14  2  0  0  0  0
 13 32  1  0  0  0  0
 14 15  1  0  0  0  0
 14 33  1  0  0  0  0
 15 16  1  0  0  0  0
 17 18  1  0  0  0  0
 17 34  1  0  0  0  0
 18 35  1  0  0  0  0
 18 36  1  0  0  0  0
 18 37  1  0  0  0  0
M  CHG  1   7  -1
M  END
> <s_m_source_file>
AV-unprocessed.smi

> <i_m_source_file_index>
2451

> <i_lp_mmshare_version>
43012

> <i_f3d_flags>
0

> <s_epik_input>
W0NIM11bQ0BASF0xW0NIMl1bQ0gyXVtDSDJdW0NASF0oW0NASF0xW0NIM10pW05IXVMoPU8pKD1PKVtDSDJdYzJbY0hdW2NIXW9uMg==

> <s_epik_cmdline>
J2VwaWtfcHl0aG9uJywgJy1waCcsICc3LjAnLCAnLXRuJywgJzgnLCAnLW1hJywgJzIwMCcsICctbWV0YWxfYmluZGluZycsICctaW1hZScsICc8aW5maWxlLm1hZT4nLCAnLW9tYWUnLCAnPG91dGZpbGUubWFlPic=

> <r_lp_tautomer_probability>
1

> <r_epik_Ionization_Penalty>
5.22693

> <r_epik_Ionization_Penalty_Charging>
5.22693

> <r_epik_Ionization_Penalty_Neutral>
2.67702e-10

> <r_epik_State_Penalty>
5.22685

> <r_epik_Charging_Adjusted_Penalty>
10.4538

> <i_epik_Tot_Q>
-1

> <i_epik_Tot_abs_Q>
1

> <r_epik_Metal_State_Penalty>
1.28716

> <b_epik_Metal_Only>
1

> <s_lp_Force_Field>
OPLS_2005

> <r_lp_Energy>
15.3657

> <b_lp_Chiralities_Consistent>
1

> <s_lp_Variant>
AV-unprocessed.smi:2451-16

> <Gold.Version>
5.8.1

> <Gold.Id.Protein>
6NUR|6NUR_protein|mol2

> <Gold.PLP.Fitness>
49.4481

> <Gold.PLP.PLP>
-38.7955

> <Gold.PLP.part.hbond>
-2.3808

> <Gold.PLP.part.metal>
0.0000

> <Gold.PLP.part.buried>
-5.3887

> <Gold.PLP.part.nonpolar>
-30.8623

> <Gold.PLP.part.repulsive>
0.1782

> <Gold.PLP.ligand.clash>
0.0000

> <Gold.PLP.ligand.torsion>
0.6377

> <Gold.PLP.Chemscore.Hbond>
2.0000

> <Gold.PLP.Chemscore.CHOScore>
1.6420

> <Gold.PLP.Chemscore.Metal>
0.0000

> <Gold.Chemscore.Hbonds>
donor molecule, donor type, donor heavy atom, donor atom, acceptor molecule, acceptor atom, score
      P1  H  7989  7998       L1    15  0.99
      P1  H  7997  8010       L1     9  1.00
      L1  C    14    33       P1  7948  0.85
      L1  C    14    33       P1  7957  0.80

> <Gold.PLP.Chemscore.Internal.Correction>
1.0019

> <Gold.Rescore>
     Score         DG    S(hbond)    S(metal)    S(lipo)     H(rot)  DE(clash)    DE(int)     intcor
     19.09     -21.25       1.98        0.00     108.85       1.40       0.02       2.14       ----

> <Gold.Chemscore.Fitness>
19.0879

> <Gold.Chemscore.DG>
-21.2499

> <Gold.Chemscore.ZeroCoef>
-5.4800

> <Gold.Chemscore.Hbond>
1.9806

> <Gold.Chemscore.Metal>
0.0000

> <Gold.Chemscore.Lipo>
108.8471

> <Gold.Chemscore.Internal_Hbond>
0.0000

> <Gold.Chemscore.DEClash>
0.0202

> <Gold.Chemscore.DEInternal>
2.1418

> <Gold.Chemscore.Rot>
1.3986

> <Gold.Chemscore.Internal.Correction>
   9.000000E+99

> <Gold.Chemscore.Hbonds>
donor molecule, donor type, donor heavy atom, donor atom, acceptor molecule, acceptor atom, score
      P1  H  7989  7998       L1    15  0.32
      P1  H  7997  8010       L1     9  1.00

> <Gold.Chemscore.Hbond.Weighted>
-6.6152

> <Gold.Chemscore.Metal.Weighted>
-0.0000

> <Gold.Chemscore.Lipo.Weighted>
-12.7351

> <Gold.Chemscore.Internal_Hbond.Weighted>
0.0000

> <Gold.Chemscore.DEClash.Weighted>
0.0202

> <Gold.Chemscore.DEInternal.Weighted>
2.1418

> <Gold.Chemscore.Rot.Weighted>
3.5804

> <Gold.Chemscore.Internal.Correction.Weighted>
   9.000000E+99

> <Gold.Protein.RotatedTorsions>
[ 6907 6896 6895 6894 ] final -154.29 input  -60.11 | X-H torsion
[ 7974 7965 7964 7962 ] final -138.15 input  175.53 | X-H torsion
[ 8008 7997 7996 7995 ] final   49.72 input   59.86 | X-H torsion
[ 10167 10162 10161 10158 ] final  137.81 input  -65.29 | X-H torsion
[ 10718 10713 10712 10709 ] final   82.39 input   66.30 | X-H torsion
[ 10763 10752 10751 10750 ] final  173.69 input  -60.55 | X-H torsion
[ 11005 11000 10999 10996 ] final  -40.16 input  -57.11 | X-H torsion

> <Gold.Protein.ActiveResidues>
 VAL166  LYS551  ARG553  GLY616  TRP617  ASP618  TYR619  PRO620  LYS621  CYS622 
 ASP623  PHE694  ASN695  SER759  ASP760  ASP761  ALA762  ILE779  LEU786  VAL792 
 PHE793  MET794  SER795  GLU796  ALA797  LYS798  CYS799  TRP800  GLU811  SER814 

> <Gold.Protein.RotatedAtoms>
  151.2552  133.4330  159.2613 H   0  0  0  0  0  0  0  0  0  0  0  0  # atno 6907 bound_to 6896
  151.0581  134.9718  159.8256 H   0  0  0  0  0  0  0  0  0  0  0  0  # atno 6908 bound_to 6896
  152.5394  134.2504  159.8949 H   0  0  0  0  0  0  0  0  0  0  0  0  # atno 6909 bound_to 6896
  144.8783  140.6469  143.5223 H   0  0  0  0  0  0  0  0  0  0  0  0  # atno 7974 bound_to 7965
  155.4069  140.3440  155.4261 H   0  0  0  0  0  0  0  0  0  0  0  0  # atno 8008 bound_to 7997
  156.1471  140.1559  156.8861 H   0  0  0  0  0  0  0  0  0  0  0  0  # atno 8009 bound_to 7997
  154.5020  140.0812  156.7798 H   0  0  0  0  0  0  0  0  0  0  0  0  # atno 8010 bound_to 7997
  139.5132  144.6389  151.5622 H   0  0  0  0  0  0  0  0  0  0  0  0  # atno 10167 bound_to 10162
  157.6856  131.0045  150.2367 H   0  0  0  0  0  0  0  0  0  0  0  0  # atno 10718 bound_to 10713
  154.4435  135.2762  155.1831 H   0  0  0  0  0  0  0  0  0  0  0  0  # atno 10763 bound_to 10752
  154.3688  135.6113  153.5732 H   0  0  0  0  0  0  0  0  0  0  0  0  # atno 10764 bound_to 10752
  152.9842  135.5852  154.4767 H   0  0  0  0  0  0  0  0  0  0  0  0  # atno 10765 bound_to 10752
  141.0154  133.6888  156.2284 H   0  0  0  0  0  0  0  0  0  0  0  0  # atno 11005 bound_to 11000
  145.4002  139.1599  143.4181 LP  0  0  0  0  0  0  0  0  0  0  0  0  # atno 17320 bound_to 7965
  146.2977  140.4098  142.8715 LP  0  0  0  0  0  0  0  0  0  0  0  0  # atno 17321 bound_to 7965
  140.6148  143.9368  150.6480 LP  0  0  0  0  0  0  0  0  0  0  0  0  # atno 17342 bound_to 10162
  140.2623  143.3515  152.1312 LP  0  0  0  0  0  0  0  0  0  0  0  0  # atno 17343 bound_to 10162
  156.2989  130.3756  149.7769 LP  0  0  0  0  0  0  0  0  0  0  0  0  # atno 17370 bound_to 10713
  156.5405  130.8298  151.3267 LP  0  0  0  0  0  0  0  0  0  0  0  0  # atno 17371 bound_to 10713
  140.6663  134.4915  157.5585 LP  0  0  0  0  0  0  0  0  0  0  0  0  # atno 17394 bound_to 11000
  139.9114  134.8337  156.1515 LP  0  0  0  0  0  0  0  0  0  0  0  0  # atno 17395 bound_to 11000

$$$$
