AV-unprocessed.smi:2093|AV-procd|sdf|8544|dock5
  -GOLD-   2272011263D 1   1.00000     0.00000
 Structure written by MMmdl.
 31 32  0  0  0  0  0  0  0  0  1 V2000
  151.9096  144.4725  157.8154 C   0  0  0  0  0  0  0  0  0  0  0  0
  151.8639  143.0336  157.2785 C   0  0  2  0  0  0  0  0  0  0  0  0
  150.6206  142.8489  156.5328 N   0  0  0  0  0  0  0  0  0  0  0  0
  150.2784  141.7576  155.8322 C   0  0  0  0  0  0  0  0  0  0  0  0
  150.9987  140.7657  155.7159 O   0  0  0  0  0  0  0  0  0  0  0  0
  149.0581  141.8980  155.2855 N   0  0  0  0  0  0  0  0  0  0  0  0
  148.3452  140.9733  154.4784 C   0  0  0  0  0  0  0  0  0  0  0  0
  148.6440  139.6728  154.3753 N   0  0  0  0  0  0  0  0  0  0  0  0
  147.7754  139.0020  153.5106 C   0  0  0  0  0  0  0  0  0  0  0  0
  146.8147  139.8128  152.9597 C   0  0  0  0  0  0  0  0  0  0  0  0
  146.9635  141.4612  153.5078 S   0  0  0  0  0  0  0  0  0  0  0  0
  151.9428  141.9827  158.4029 C   0  0  2  0  0  0  0  0  0  0  0  0
  153.0517  142.2226  159.4296 C   0  0  0  0  0  0  0  0  0  0  0  0
  153.3628  140.8313  159.9612 C   0  0  0  0  0  0  0  0  0  0  0  0
  152.6690  139.8892  158.9743 C   0  0  0  0  0  0  0  0  0  0  0  0
  152.3007  140.7131  157.8782 O   0  0  0  0  0  0  0  0  0  0  0  0
  152.8429  144.6703  158.3429 H   0  0  0  0  0  0  0  0  0  0  0  0
  151.0886  144.6651  158.5068 H   0  0  0  0  0  0  0  0  0  0  0  0
  151.8371  145.1957  157.0024 H   0  0  0  0  0  0  0  0  0  0  0  0
  152.7240  142.8959  156.6210 H   0  0  0  0  0  0  0  0  0  0  0  0
  149.9590  143.6101  156.5700 H   0  0  0  0  0  0  0  0  0  0  0  0
  148.5814  142.7679  155.4710 H   0  0  0  0  0  0  0  0  0  0  0  0
  147.9139  137.9439  153.3444 H   0  0  0  0  0  0  0  0  0  0  0  0
  146.0317  139.5410  152.2676 H   0  0  0  0  0  0  0  0  0  0  0  0
  150.9803  141.8938  158.9109 H   0  0  0  0  0  0  0  0  0  0  0  0
  153.9375  142.6307  158.9409 H   0  0  0  0  0  0  0  0  0  0  0  0
  152.7524  142.9167  160.2154 H   0  0  0  0  0  0  0  0  0  0  0  0
  154.4397  140.6603  159.9889 H   0  0  0  0  0  0  0  0  0  0  0  0
  152.9740  140.6890  160.9701 H   0  0  0  0  0  0  0  0  0  0  0  0
  153.3121  139.0697  158.6528 H   0  0  0  0  0  0  0  0  0  0  0  0
  151.7694  139.4619  159.4196 H   0  0  0  0  0  0  0  0  0  0  0  0
  1  2  1  0  0  0  0
  1 17  1  0  0  0  0
  1 18  1  0  0  0  0
  1 19  1  0  0  0  0
  2  3  1  0  0  0  0
  2 12  1  0  0  0  0
  2 20  1  0  0  0  0
  3  4  1  0  0  0  0
  3 21  1  0  0  0  0
  4  5  2  0  0  0  0
  4  6  1  0  0  0  0
  6  7  1  0  0  0  0
  6 22  1  0  0  0  0
  7 11  1  0  0  0  0
  7  8  2  0  0  0  0
  8  9  1  0  0  0  0
  9 10  2  0  0  0  0
  9 23  1  0  0  0  0
 10 11  1  0  0  0  0
 10 24  1  0  0  0  0
 12 16  1  0  0  0  0
 12 13  1  0  0  0  0
 12 25  1  0  0  0  0
 13 14  1  0  0  0  0
 13 26  1  0  0  0  0
 13 27  1  0  0  0  0
 14 15  1  0  0  0  0
 14 28  1  0  0  0  0
 14 29  1  0  0  0  0
 15 16  1  0  0  0  0
 15 30  1  0  0  0  0
 15 31  1  0  0  0  0
M  END
> <s_m_source_file>
AV-unprocessed.smi

> <i_m_source_file_index>
2093

> <i_lp_mmshare_version>
43012

> <i_f3d_flags>
0

> <s_epik_input>
TzFbQ0gyXVtDSDJdW0NIMl1bQ0BIXTFbQ0BIXShbQ0gzXSlbTkhdQyg9TylbTkhdYzJuW2NIXVtjSF1zMg==

> <s_epik_cmdline>
J2VwaWtfcHl0aG9uJywgJy1waCcsICc3LjAnLCAnLXRuJywgJzgnLCAnLW1hJywgJzIwMCcsICctbWV0YWxfYmluZGluZycsICctaW1hZScsICc8aW5maWxlLm1hZT4nLCAnLW9tYWUnLCAnPG91dGZpbGUubWFlPic=

> <r_lp_tautomer_probability>
0.999

> <r_epik_Ionization_Penalty>
0.000334433

> <r_epik_Ionization_Penalty_Charging>
0

> <r_epik_Ionization_Penalty_Neutral>
0.000334433

> <r_epik_State_Penalty>
0.000177984

> <r_epik_Charging_Adjusted_Penalty>
0.000177984

> <i_epik_Tot_Q>
0

> <i_epik_Tot_abs_Q>
0

> <r_epik_Metal_State_Penalty>
0.00767616

> <b_epik_Metal_Only>
0

> <s_lp_Force_Field>
OPLS_2005

> <r_lp_Energy>
16.8099

> <b_lp_Chiralities_Consistent>
1

> <s_lp_Variant>
AV-unprocessed.smi:2093-1

> <Gold.Version>
5.8.1

> <Gold.Id.Protein>
6NUR|6NUR_protein|mol2

> <Gold.PLP.Fitness>
42.0152

> <Gold.PLP.PLP>
-30.6831

> <Gold.PLP.part.hbond>
-2.8582

> <Gold.PLP.part.metal>
0.0000

> <Gold.PLP.part.buried>
-4.7175

> <Gold.PLP.part.nonpolar>
-23.2676

> <Gold.PLP.part.repulsive>
0.3919

> <Gold.PLP.ligand.clash>
0.0000

> <Gold.PLP.ligand.torsion>
0.2851

> <Gold.PLP.Chemscore.Hbond>
2.1170

> <Gold.PLP.Chemscore.CHOScore>
1.8435

> <Gold.PLP.Chemscore.Metal>
0.0000

> <Gold.Chemscore.Hbonds>
donor molecule, donor type, donor heavy atom, donor atom, acceptor molecule, acceptor atom, score
      L1  H     3    21       P1  8028  0.96
      L1  H     6    22       P1  8028  0.86
      P1  H  7989  7998       L1     5  0.25
      L1  C     9    23       P1  7948  1.00
      L1  C    10    24       P1 10175  0.85

> <Gold.PLP.Chemscore.Internal.Correction>
0.0206

> <Gold.Rescore>
     Score         DG    S(hbond)    S(metal)    S(lipo)     H(rot)  DE(clash)    DE(int)     intcor
     13.20     -16.62       1.50        0.00      80.84       1.29       0.14       3.29       ----

> <Gold.Chemscore.Fitness>
13.1965

> <Gold.Chemscore.DG>
-16.6246

> <Gold.Chemscore.ZeroCoef>
-5.4800

> <Gold.Chemscore.Hbond>
1.4964

> <Gold.Chemscore.Metal>
0.0000

> <Gold.Chemscore.Lipo>
80.8443

> <Gold.Chemscore.Internal_Hbond>
0.0000

> <Gold.Chemscore.DEClash>
0.1429

> <Gold.Chemscore.DEInternal>
3.2852

> <Gold.Chemscore.Rot>
1.2938

> <Gold.Chemscore.Internal.Correction>
   9.000000E+99

> <Gold.Chemscore.Hbonds>
donor molecule, donor type, donor heavy atom, donor atom, acceptor molecule, acceptor atom, score
      L1  H     3    21       P1  8028  0.92
      L1  H     6    22       P1  8028  0.83
      P1  H  7989  7998       L1     5  0.09

> <Gold.Chemscore.Hbond.Weighted>
-4.9980

> <Gold.Chemscore.Metal.Weighted>
-0.0000

> <Gold.Chemscore.Lipo.Weighted>
-9.4588

> <Gold.Chemscore.Internal_Hbond.Weighted>
0.0000

> <Gold.Chemscore.DEClash.Weighted>
0.1429

> <Gold.Chemscore.DEInternal.Weighted>
3.2852

> <Gold.Chemscore.Rot.Weighted>
3.3122

> <Gold.Chemscore.Internal.Correction.Weighted>
   9.000000E+99

> <Gold.Protein.RotatedTorsions>
[ 6907 6896 6895 6894 ] final   87.77 input  -60.11 | X-H torsion
[ 7974 7965 7964 7962 ] final  -44.43 input  175.53 | X-H torsion
[ 8008 7997 7996 7995 ] final  -15.16 input   59.86 | X-H torsion
[ 10167 10162 10161 10158 ] final   61.70 input  -65.29 | X-H torsion
[ 10718 10713 10712 10709 ] final   91.88 input   66.30 | X-H torsion
[ 10763 10752 10751 10750 ] final -176.89 input  -60.55 | X-H torsion
[ 11005 11000 10999 10996 ] final   77.79 input  -57.11 | X-H torsion

> <Gold.Protein.ActiveResidues>
 VAL166  LYS551  ARG553  GLY616  TRP617  ASP618  TYR619  PRO620  LYS621  CYS622 
 ASP623  PHE694  ASN695  SER759  ASP760  ASP761  ALA762  ILE779  LEU786  VAL792 
 PHE793  MET794  SER795  GLU796  ALA797  LYS798  CYS799  TRP800  GLU811  SER814 

> <Gold.Protein.RotatedAtoms>
  152.5416  134.2225  159.8792 H   0  0  0  0  0  0  0  0  0  0  0  0  # atno 6907 bound_to 6896
  151.2201  133.4500  159.2608 H   0  0  0  0  0  0  0  0  0  0  0  0  # atno 6908 bound_to 6896
  151.0813  134.9873  159.8413 H   0  0  0  0  0  0  0  0  0  0  0  0  # atno 6909 bound_to 6896
  145.9921  140.7169  142.9312 H   0  0  0  0  0  0  0  0  0  0  0  0  # atno 7974 bound_to 7965
  154.5152  140.2203  155.9079 H   0  0  0  0  0  0  0  0  0  0  0  0  # atno 8008 bound_to 7997
  156.1599  140.3144  155.8755 H   0  0  0  0  0  0  0  0  0  0  0  0  # atno 8009 bound_to 7997
  155.3772  140.0470  157.3035 H   0  0  0  0  0  0  0  0  0  0  0  0  # atno 8010 bound_to 7997
  140.1519  144.4454  150.6754 H   0  0  0  0  0  0  0  0  0  0  0  0  # atno 10167 bound_to 10162
  157.6959  131.0423  150.3796 H   0  0  0  0  0  0  0  0  0  0  0  0  # atno 10718 bound_to 10713
  154.5668  135.2824  155.0866 H   0  0  0  0  0  0  0  0  0  0  0  0  # atno 10763 bound_to 10752
  154.2253  135.6384  153.5161 H   0  0  0  0  0  0  0  0  0  0  0  0  # atno 10764 bound_to 10752
  153.0045  135.5524  154.6279 H   0  0  0  0  0  0  0  0  0  0  0  0  # atno 10765 bound_to 10752
  139.9240  134.7711  156.1566 H   0  0  0  0  0  0  0  0  0  0  0  0  # atno 11005 bound_to 11000
  144.6892  140.3088  143.7251 LP  0  0  0  0  0  0  0  0  0  0  0  0  # atno 17320 bound_to 7965
  145.7614  139.1826  143.2265 LP  0  0  0  0  0  0  0  0  0  0  0  0  # atno 17321 bound_to 7965
  140.6697  143.2281  151.5656 LP  0  0  0  0  0  0  0  0  0  0  0  0  # atno 17342 bound_to 10162
  139.5422  144.2618  152.1372 LP  0  0  0  0  0  0  0  0  0  0  0  0  # atno 17343 bound_to 10162
  156.4211  130.3953  149.6824 LP  0  0  0  0  0  0  0  0  0  0  0  0  # atno 17370 bound_to 10713
  156.4074  130.7705  151.2716 LP  0  0  0  0  0  0  0  0  0  0  0  0  # atno 17371 bound_to 10713
  141.0783  133.6765  156.2282 LP  0  0  0  0  0  0  0  0  0  0  0  0  # atno 17394 bound_to 11000
  140.6391  134.5184  157.5567 LP  0  0  0  0  0  0  0  0  0  0  0  0  # atno 17395 bound_to 11000

$$$$
