#       Name:                AV-unprocessed.smi:2349
#       Creating user name   scv26
#       Creation time:       Fri Mar 27 12:59:58 2020


#       File generated by GOLD software.
#

@<TRIPOS>MOLECULE
AV-unprocessed.smi:2349
    57    58     1
SMALL
NO_CHARGES


@<TRIPOS>ATOM
      1 ****         0.7504  -0.1542  -3.2290 C.3            1 S1                 0.0000
      2 ****        -0.2924  -0.8996  -2.4238 C.ar           1 S1                 0.0000
      3 ****         0.0626  -1.8126  -1.4092 C.ar           1 S1                 0.0000
      4 ****        -0.9547  -2.4496  -0.6694 C.ar           1 S1                 0.0000
      5 ****        -2.3073  -2.1645  -0.9598 C.ar           1 S1                 0.0000
      6 ****        -3.4238  -2.7829  -0.1320 C.3            1 S1                 0.0000
      7 ****        -4.2224  -1.7622   0.7071 C.3            1 S1                 0.0000
      8 ****        -3.3480  -0.8656   1.4631 N.am           1 S1                 0.0000
      9 ****        -3.0254   0.3912   1.1073 C.2            1 S1                 0.0000
     10 ****        -3.5560   0.9586   0.1510 O.2            1 S1                 0.0000
     11 ****        -2.0319   0.9532   1.8402 N.am           1 S1                 0.0000
     12 ****        -1.2658   0.3045   2.9146 C.3            1 S1                 0.0000
     13 ****         0.0893  -0.1462   2.3395 C.3            1 S1                 0.0000
     14 ****         0.8659   1.0303   1.6995 C.3            1 S1                 0.0000
     15 ****         2.1455   0.5127   1.0005 C.3            1 S1                 0.0000
     16 ****         3.1120   1.6047   0.5006 C.2            1 S1                 0.0000
     17 ****         3.0412   2.7366   0.9820 O.2            1 S1                 0.0000
     18 ****         4.0144   1.2879  -0.4573 N.am           1 S1                 0.0000
     19 ****         4.9069   2.3081  -1.0128 C.3            1 S1                 0.0000
     20 ****         4.1990  -0.0702  -0.9758 C.3            1 S1                 0.0000
     21 ****        -0.0499   1.8474   0.7504 C.3            1 S1                 0.0000
     22 ****        -1.3869   2.2026   1.4260 C.3            1 S1                 0.0000
     23 ****        -2.6022  -1.2632  -2.0058 C.ar           1 S1                 0.0000
     24 ****        -1.5985  -0.6654  -2.6844 N.pl3          1 S1                 1.0000
     25 ****         1.5669  -0.8216  -3.5060 H              1 S1                 0.0000
     26 ****         1.1623   0.6656  -2.6392 H              1 S1                 0.0000
     27 ****         0.3246   0.2600  -4.1438 H              1 S1                 0.0000
     28 ****         1.1011  -2.0132  -1.1895 H              1 S1                 0.0000
     29 ****        -0.6945  -3.1334   0.1253 H              1 S1                 0.0000
     30 ****        -4.0991  -3.3221  -0.7972 H              1 S1                 0.0000
     31 ****        -2.9945  -3.5330   0.5337 H              1 S1                 0.0000
     32 ****        -4.8843  -1.1901   0.0552 H              1 S1                 0.0000
     33 ****        -4.8743  -2.2877   1.4052 H              1 S1                 0.0000
     34 ****        -2.8811  -1.2588   2.2674 H              1 S1                 0.0000
     35 ****        -1.1061   1.0166   3.7256 H              1 S1                 0.0000
     36 ****        -1.7848  -0.5378   3.3727 H              1 S1                 0.0000
     37 ****         0.6887  -0.6030   3.1277 H              1 S1                 0.0000
     38 ****        -0.0803  -0.9241   1.5951 H              1 S1                 0.0000
     39 ****         1.1616   1.6898   2.5174 H              1 S1                 0.0000
     40 ****         2.7023  -0.1244   1.6887 H              1 S1                 0.0000
     41 ****         1.8423  -0.1195   0.1671 H              1 S1                 0.0000
     42 ****         5.3762   1.9849  -1.9424 H              1 S1                 0.0000
     43 ****         5.6989   2.5443  -0.3013 H              1 S1                 0.0000
     44 ****         4.3660   3.2285  -1.2379 H              1 S1                 0.0000
     45 ****         4.2204  -0.8054  -0.1703 H              1 S1                 0.0000
     46 ****         5.1386  -0.1784  -1.5181 H              1 S1                 0.0000
     47 ****         3.3910  -0.3303  -1.6599 H              1 S1                 0.0000
     48 ****         0.4434   2.7652   0.4313 H              1 S1                 0.0000
     49 ****        -0.2455   1.2742  -0.1572 H              1 S1                 0.0000
     50 ****        -2.0054   2.7935   0.7490 H              1 S1                 0.0000
     51 ****        -1.2142   2.8377   2.2960 H              1 S1                 0.0000
     52 ****        -3.6032  -0.9771  -2.2947 H              1 S1                 0.0000
     53 ****        -1.8378  -0.0011  -3.4210 H              1 S1                 0.0000
     54 ****        -4.2511   0.4840  -0.3891 LP             1 S1                 0.0000
     55 ****        -3.2916   1.8937  -0.0851 LP             1 S1                 0.0000
     56 ****         2.3625   2.9380   1.6883 LP             1 S1                 0.0000
     57 ****         3.6623   3.4539   0.6664 LP             1 S1                 0.0000
@<TRIPOS>BOND
    1    1    2 1     
    2    1   25 1     
    3    1   26 1     
    4    1   27 1     
    5    2   24 ar    
    6    2    3 ar    
    7    3    4 ar    
    8    3   28 1     
    9    4    5 ar    
   10    4   29 1     
   11    5    6 1     
   12    5   23 ar    
   13    6    7 1     
   14    6   30 1     
   15    6   31 1     
   16    7    8 1     
   17    7   32 1     
   18    7   33 1     
   19    8    9 am    
   20    8   34 1     
   21    9   10 2     
   22    9   11 am    
   23   11   22 1     
   24   11   12 1     
   25   12   13 1     
   26   12   35 1     
   27   12   36 1     
   28   13   14 1     
   29   13   37 1     
   30   13   38 1     
   31   14   15 1     
   32   14   21 1     
   33   14   39 1     
   34   15   16 1     
   35   15   40 1     
   36   15   41 1     
   37   16   17 2     
   38   16   18 am    
   39   18   19 1     
   40   18   20 1     
   41   19   42 1     
   42   19   43 1     
   43   19   44 1     
   44   20   45 1     
   45   20   46 1     
   46   20   47 1     
   47   21   22 1     
   48   21   48 1     
   49   21   49 1     
   50   22   50 1     
   51   22   51 1     
   52   23   24 ar    
   53   23   52 1     
   54   24   53 1     
   55   10   54 1     
   56   10   55 1     
   57   17   56 1     
   58   17   57 1     
@<TRIPOS>SUBSTRUCTURE
      1 S1             1
@<TRIPOS>SET
LONE_PAIRS      STATIC     ATOMS    <user>   **** ""
4 54 55 56 57
DONOR_HYDROGENS      STATIC     ATOMS    <user>   **** ""
2 34 53
ATOM$BLUE        STATIC     ATOMS    COLORGROUP SYSTEM
4 54 55 56 57
ATOM$RED        STATIC     ATOMS    COLORGROUP SYSTEM
2 34 53
