AV-unprocessed.smi:2978|AV-procd|sdf|11368|dock2
  -GOLD-   2272016283D 1   1.00000     0.00000
 Structure written by MMmdl.
 32 33  0  0  0  0  0  0  0  0  1 V2000
  150.4733  140.3032  154.3656 O   0  0  0  0  0  0  0  0  0  0  0  0
  150.3460  139.9767  155.5466 C   0  0  0  0  0  0  0  0  0  0  0  0
  151.5710  139.8590  156.4653 C   0  0  0  0  0  0  0  0  0  0  0  0
  151.7422  141.0139  157.3592 N   0  0  0  0  0  0  0  0  0  0  0  0
  150.9253  142.0890  157.0547 N   0  0  0  0  0  0  0  0  0  0  0  0
  150.9765  143.1505  157.7831 C   0  0  0  0  0  0  0  0  0  0  0  0
  151.8674  143.2650  158.9166 C   0  0  0  0  0  0  0  0  0  0  0  0
  151.8908  144.7144  159.8577 Cl  0  0  0  0  0  0  0  0  0  0  0  0
  152.6693  142.2084  159.2018 C   0  0  0  0  0  0  0  0  0  0  0  0
  153.7643  142.2720  160.5403 Cl  0  0  0  0  0  0  0  0  0  0  0  0
  152.6386  140.9818  158.3931 C   0  0  0  0  0  0  0  0  0  0  0  0
  153.3520  140.0030  158.6173 O   0  0  0  0  0  0  0  0  0  0  0  0
  149.1624  139.6820  156.1055 N   0  0  0  0  0  0  0  0  0  0  0  0
  147.8718  139.7149  155.4252 C   0  0  0  0  0  0  0  0  0  0  0  0
  147.1943  141.0900  155.5508 C   0  0  2  0  0  0  0  0  0  0  0  0
  145.6687  141.0754  155.4405 C   0  0  0  0  0  0  0  0  0  0  0  0
  145.3834  142.4836  154.9730 C   0  0  0  0  0  0  0  0  0  0  0  0
  146.5444  142.7329  154.0151 C   0  0  0  0  0  0  0  0  0  0  0  0
  147.6320  141.9499  154.5017 O   0  0  0  0  0  0  0  0  0  0  0  0
  151.5026  138.9411  157.0525 H   0  0  0  0  0  0  0  0  0  0  0  0
  152.4529  139.7363  155.8342 H   0  0  0  0  0  0  0  0  0  0  0  0
  150.3507  144.0203  157.5829 H   0  0  0  0  0  0  0  0  0  0  0  0
  149.1536  139.4170  157.0798 H   0  0  0  0  0  0  0  0  0  0  0  0
  148.0490  139.4942  154.3722 H   0  0  0  0  0  0  0  0  0  0  0  0
  147.2115  138.9273  155.7923 H   0  0  0  0  0  0  0  0  0  0  0  0
  147.4801  141.5598  156.4936 H   0  0  0  0  0  0  0  0  0  0  0  0
  145.3432  140.3604  154.6836 H   0  0  0  0  0  0  0  0  0  0  0  0
  145.1748  140.8280  156.3806 H   0  0  0  0  0  0  0  0  0  0  0  0
  144.4079  142.5900  154.4977 H   0  0  0  0  0  0  0  0  0  0  0  0
  145.4331  143.1753  155.8151 H   0  0  0  0  0  0  0  0  0  0  0  0
  146.2915  142.3861  153.0125 H   0  0  0  0  0  0  0  0  0  0  0  0
  146.8105  143.7882  153.9510 H   0  0  0  0  0  0  0  0  0  0  0  0
  1  2  2  0  0  0  0
  2  3  1  0  0  0  0
  2 13  1  0  0  0  0
  3  4  1  0  0  0  0
  3 20  1  0  0  0  0
  3 21  1  0  0  0  0
  4 11  1  0  0  0  0
  4  5  1  0  0  0  0
  5  6  2  0  0  0  0
  6  7  1  0  0  0  0
  6 22  1  0  0  0  0
  7  8  1  0  0  0  0
  7  9  2  0  0  0  0
  9 10  1  0  0  0  0
  9 11  1  0  0  0  0
 11 12  2  0  0  0  0
 13 14  1  0  0  0  0
 13 23  1  0  0  0  0
 14 15  1  0  0  0  0
 14 24  1  0  0  0  0
 14 25  1  0  0  0  0
 15 19  1  0  0  0  0
 15 16  1  0  0  0  0
 15 26  1  0  0  0  0
 16 17  1  0  0  0  0
 16 27  1  0  0  0  0
 16 28  1  0  0  0  0
 17 18  1  0  0  0  0
 17 29  1  0  0  0  0
 17 30  1  0  0  0  0
 18 19  1  0  0  0  0
 18 31  1  0  0  0  0
 18 32  1  0  0  0  0
M  END
> <s_m_source_file>
AV-unprocessed.smi

> <i_m_source_file_index>
2978

> <i_lp_mmshare_version>
43012

> <i_f3d_flags>
0

> <s_epik_input>
TzFbQ0gyXVtDSDJdW0NIMl1bQ0BIXTFbQ0gyXVtOSF1DKD1PKVtDSDJdbjJuW2NIXWMoQ2wpYyhDbCljMj1P

> <s_epik_cmdline>
J2VwaWtfcHl0aG9uJywgJy1waCcsICc3LjAnLCAnLXRuJywgJzgnLCAnLW1hJywgJzIwMCcsICctbWV0YWxfYmluZGluZycsICctaW1hZScsICc8aW5maWxlLm1hZT4nLCAnLW9tYWUnLCAnPG91dGZpbGUubWFlPic=

> <r_lp_tautomer_probability>
1

> <r_epik_Ionization_Penalty>
2.68881e-08

> <r_epik_Ionization_Penalty_Charging>
2.90862e-11

> <r_epik_Ionization_Penalty_Neutral>
2.6859e-08

> <r_epik_State_Penalty>
-0

> <r_epik_Charging_Adjusted_Penalty>
2.90862e-11

> <i_epik_Tot_Q>
0

> <i_epik_Tot_abs_Q>
0

> <r_epik_Metal_State_Penalty>
-0

> <b_epik_Metal_Only>
0

> <s_lp_Force_Field>
OPLS_2005

> <r_lp_Energy>
31.3125

> <b_lp_Chiralities_Consistent>
1

> <s_lp_Variant>
AV-unprocessed.smi:2978-1

> <Gold.Version>
5.8.1

> <Gold.Id.Protein>
6NUR|6NUR_protein|mol2

> <Gold.PLP.Fitness>
41.5106

> <Gold.PLP.PLP>
-34.2516

> <Gold.PLP.part.hbond>
-1.8211

> <Gold.PLP.part.metal>
0.0000

> <Gold.PLP.part.buried>
-5.9164

> <Gold.PLP.part.nonpolar>
-27.3675

> <Gold.PLP.part.repulsive>
0.3795

> <Gold.PLP.ligand.clash>
0.0000

> <Gold.PLP.ligand.torsion>
0.8638

> <Gold.PLP.Chemscore.Hbond>
1.9920

> <Gold.PLP.Chemscore.CHOScore>
1.0000

> <Gold.PLP.Chemscore.Metal>
0.0000

> <Gold.Chemscore.Hbonds>
donor molecule, donor type, donor heavy atom, donor atom, acceptor molecule, acceptor atom, score
      P1  H  7989  7998       L1     1  1.00
      P1  H  7997  8008       L1    12  0.98
      L1  C     6    22       P1  8028  1.00

> <Gold.PLP.Chemscore.Internal.Correction>
0.0106

> <Gold.Rescore>
     Score         DG    S(hbond)    S(metal)    S(lipo)     H(rot)  DE(clash)    DE(int)     intcor
     15.18     -15.95       1.86        0.00      76.58       1.83       0.13       0.64       ----

> <Gold.Chemscore.Fitness>
15.1824

> <Gold.Chemscore.DG>
-15.9514

> <Gold.Chemscore.ZeroCoef>
-5.4800

> <Gold.Chemscore.Hbond>
1.8568

> <Gold.Chemscore.Metal>
0.0000

> <Gold.Chemscore.Lipo>
76.5778

> <Gold.Chemscore.Internal_Hbond>
0.0000

> <Gold.Chemscore.DEClash>
0.1330

> <Gold.Chemscore.DEInternal>
0.6360

> <Gold.Chemscore.Rot>
1.8320

> <Gold.Chemscore.Internal.Correction>
   9.000000E+99

> <Gold.Chemscore.Hbonds>
donor molecule, donor type, donor heavy atom, donor atom, acceptor molecule, acceptor atom, score
      P1  H  7989  7998       L1     1  0.93
      P1  H  7997  8008       L1    12  0.22

> <Gold.Chemscore.Hbond.Weighted>
-6.2018

> <Gold.Chemscore.Metal.Weighted>
-0.0000

> <Gold.Chemscore.Lipo.Weighted>
-8.9596

> <Gold.Chemscore.Internal_Hbond.Weighted>
0.0000

> <Gold.Chemscore.DEClash.Weighted>
0.1330

> <Gold.Chemscore.DEInternal.Weighted>
0.6360

> <Gold.Chemscore.Rot.Weighted>
4.6900

> <Gold.Chemscore.Internal.Correction.Weighted>
   9.000000E+99

> <Gold.Protein.RotatedTorsions>
[ 6907 6896 6895 6894 ] final  119.98 input  -60.11 | X-H torsion
[ 7974 7965 7964 7962 ] final   90.51 input  175.53 | X-H torsion
[ 8008 7997 7996 7995 ] final  -80.66 input   59.86 | X-H torsion
[ 10167 10162 10161 10158 ] final -133.56 input  -65.29 | X-H torsion
[ 10718 10713 10712 10709 ] final   96.69 input   66.30 | X-H torsion
[ 10763 10752 10751 10750 ] final   13.23 input  -60.55 | X-H torsion
[ 11005 11000 10999 10996 ] final -133.18 input  -57.11 | X-H torsion

> <Gold.Protein.ActiveResidues>
 VAL166  LYS551  ARG553  GLY616  TRP617  ASP618  TYR619  PRO620  LYS621  CYS622 
 ASP623  PHE694  ASN695  SER759  ASP760  ASP761  ALA762  ILE779  LEU786  VAL792 
 PHE793  MET794  SER795  GLU796  ALA797  LYS798  CYS799  TRP800  GLU811  SER814 

> <Gold.Protein.RotatedAtoms>
  152.4432  133.7486  159.6681 H   0  0  0  0  0  0  0  0  0  0  0  0  # atno 6907 bound_to 6896
  150.8326  133.8055  159.3098 H   0  0  0  0  0  0  0  0  0  0  0  0  # atno 6908 bound_to 6896
  151.5704  135.1065  160.0045 H   0  0  0  0  0  0  0  0  0  0  0  0  # atno 6909 bound_to 6896
  145.5181  139.2278  143.2687 H   0  0  0  0  0  0  0  0  0  0  0  0  # atno 7974 bound_to 7965
  154.5905  140.0659  156.9232 H   0  0  0  0  0  0  0  0  0  0  0  0  # atno 8008 bound_to 7997
  155.2304  140.3337  155.4286 H   0  0  0  0  0  0  0  0  0  0  0  0  # atno 8009 bound_to 7997
  156.2252  140.1816  156.7364 H   0  0  0  0  0  0  0  0  0  0  0  0  # atno 8010 bound_to 7997
  139.8970  143.6654  152.2602 H   0  0  0  0  0  0  0  0  0  0  0  0  # atno 10167 bound_to 10162
  157.6923  131.0586  150.4529 H   0  0  0  0  0  0  0  0  0  0  0  0  # atno 10718 bound_to 10713
  153.1742  135.6817  153.8566 H   0  0  0  0  0  0  0  0  0  0  0  0  # atno 10763 bound_to 10752
  153.7919  135.3168  155.3380 H   0  0  0  0  0  0  0  0  0  0  0  0  # atno 10764 bound_to 10752
  154.8018  135.4773  154.0387 H   0  0  0  0  0  0  0  0  0  0  0  0  # atno 10765 bound_to 10752
  140.9103  134.1576  157.4394 H   0  0  0  0  0  0  0  0  0  0  0  0  # atno 11005 bound_to 11000
  146.2124  140.5991  142.9054 LP  0  0  0  0  0  0  0  0  0  0  0  0  # atno 17320 bound_to 7965
  144.7691  140.5597  143.6683 LP  0  0  0  0  0  0  0  0  0  0  0  0  # atno 17321 bound_to 7965
  139.7059  144.7628  151.1194 LP  0  0  0  0  0  0  0  0  0  0  0  0  # atno 17342 bound_to 10162
  140.7715  143.5395  150.9329 LP  0  0  0  0  0  0  0  0  0  0  0  0  # atno 17343 bound_to 10162
  156.4879  130.4088  149.6423 LP  0  0  0  0  0  0  0  0  0  0  0  0  # atno 17370 bound_to 10713
  156.3445  130.7399  151.2350 LP  0  0  0  0  0  0  0  0  0  0  0  0  # atno 17371 bound_to 10713
  139.8756  134.9933  156.5639 LP  0  0  0  0  0  0  0  0  0  0  0  0  # atno 17394 bound_to 11000
  140.8118  133.8423  155.8817 LP  0  0  0  0  0  0  0  0  0  0  0  0  # atno 17395 bound_to 11000

$$$$
