AV-unprocessed.smi:3122|AV-procd|sdf|11896|dock9
  -GOLD-   2272017283D 1   1.00000     0.00000
 Structure written by MMmdl.
 30 31  0  0  0  0  0  0  0  0  2 V2000
  152.8031  142.7628  159.4734 C   0  0  0  0  0  0  0  0  0  0  0  0
  152.1989  143.5141  158.2789 C   0  0  0  0  0  0  0  0  0  0  0  0
  151.8866  144.9806  158.6112 C   0  0  0  0  0  0  0  0  0  0  0  0
  151.0052  142.7997  157.7275 C   0  0  0  0  0  0  0  0  0  0  0  0
  149.8490  142.5483  158.3483 N   0  0  0  0  0  0  0  0  0  0  0  0
  149.0989  141.8082  157.4633 N   0  0  0  0  0  0  0  0  0  0  0  0
  149.8750  141.6272  156.3913 C   0  0  0  0  0  0  0  0  0  0  0  0
  149.5218  140.9357  155.1141 C   0  0  2  0  0  0  0  0  0  0  0  0
  148.3113  141.5821  154.4143 C   0  0  0  0  0  0  0  0  0  0  0  0
  147.9481  140.8045  153.2134 N   0  3  0  0  0  0  0  0  0  0  0  0
  147.7158  139.3832  153.5394 C   0  0  0  0  0  0  0  0  0  0  0  0
  148.9364  138.8015  154.2745 C   0  0  0  0  0  0  0  0  0  0  0  0
  149.2157  139.5804  155.4333 O   0  0  0  0  0  0  0  0  0  0  0  0
  151.0861  142.2333  156.4948 O   0  0  0  0  0  0  0  0  0  0  0  0
  153.0848  141.7464  159.1965 H   0  0  0  0  0  0  0  0  0  0  0  0
  152.0948  142.6984  160.3003 H   0  0  0  0  0  0  0  0  0  0  0  0
  153.6984  143.2648  159.8408 H   0  0  0  0  0  0  0  0  0  0  0  0
  152.9543  143.5225  157.4919 H   0  0  0  0  0  0  0  0  0  0  0  0
  151.5196  145.5119  157.7325 H   0  0  0  0  0  0  0  0  0  0  0  0
  152.7775  145.5015  158.9631 H   0  0  0  0  0  0  0  0  0  0  0  0
  151.1270  145.0596  159.3899 H   0  0  0  0  0  0  0  0  0  0  0  0
  150.3953  140.9641  154.4599 H   0  0  0  0  0  0  0  0  0  0  0  0
  147.4545  141.6159  155.0892 H   0  0  0  0  0  0  0  0  0  0  0  0
  148.5346  142.6097  154.1256 H   0  0  0  0  0  0  0  0  0  0  0  0
  147.1138  141.1953  152.7988 H   0  0  0  0  0  0  0  0  0  0  0  0
  146.8252  139.2992  154.1635 H   0  0  0  0  0  0  0  0  0  0  0  0
  147.5199  138.8284  152.6218 H   0  0  0  0  0  0  0  0  0  0  0  0
  148.7375  137.7738  154.5790 H   0  0  0  0  0  0  0  0  0  0  0  0
  149.8096  138.7769  153.6206 H   0  0  0  0  0  0  0  0  0  0  0  0
  148.7052  140.8635  152.5472 H   0  0  0  0  0  0  0  0  0  0  0  0
  1  2  1  0  0  0  0
  1 15  1  0  0  0  0
  1 16  1  0  0  0  0
  1 17  1  0  0  0  0
  2  3  1  0  0  0  0
  2  4  1  0  0  0  0
  2 18  1  0  0  0  0
  3 19  1  0  0  0  0
  3 20  1  0  0  0  0
  3 21  1  0  0  0  0
  4 14  1  0  0  0  0
  4  5  2  0  0  0  0
  5  6  1  0  0  0  0
  6  7  2  0  0  0  0
  7  8  1  0  0  0  0
  7 14  1  0  0  0  0
  8 13  1  0  0  0  0
  8  9  1  0  0  0  0
  8 22  1  0  0  0  0
  9 10  1  0  0  0  0
  9 23  1  0  0  0  0
  9 24  1  0  0  0  0
 10 11  1  0  0  0  0
 10 25  1  0  0  0  0
 10 30  1  0  0  0  0
 11 12  1  0  0  0  0
 11 26  1  0  0  0  0
 11 27  1  0  0  0  0
 12 13  1  0  0  0  0
 12 28  1  0  0  0  0
 12 29  1  0  0  0  0
M  CHG  1  10   1
M  END
> <s_m_source_file>
AV-unprocessed.smi

> <i_m_source_file_index>
3122

> <i_lp_mmshare_version>
43012

> <i_f3d_flags>
0

> <s_epik_input>
W0NIM11bQ0hdKFtDSDNdKWMxbm5jKG8xKVtDQEBIXTJbQ0gyXVtOSF1bQ0gyXVtDSDJdTzI=

> <s_epik_cmdline>
J2VwaWtfcHl0aG9uJywgJy1waCcsICc3LjAnLCAnLXRuJywgJzgnLCAnLW1hJywgJzIwMCcsICctbWV0YWxfYmluZGluZycsICctaW1hZScsICc8aW5maWxlLm1hZT4nLCAnLW9tYWUnLCAnPG91dGZpbGUubWFlPic=

> <r_lp_tautomer_probability>
1

> <r_epik_Ionization_Penalty>
0.0380945

> <r_epik_Ionization_Penalty_Charging>
0.0380945

> <r_epik_Ionization_Penalty_Neutral>
3.26791e-13

> <r_epik_State_Penalty>
0.0319257

> <r_epik_Charging_Adjusted_Penalty>
0.0700202

> <i_epik_Tot_Q>
1

> <i_epik_Tot_abs_Q>
1

> <r_epik_Metal_State_Penalty>
0.0319257

> <b_epik_Metal_Only>
0

> <s_lp_Force_Field>
OPLS_2005

> <r_lp_Energy>
10.6056

> <b_lp_Chiralities_Consistent>
1

> <s_lp_Variant>
AV-unprocessed.smi:3122-1

> <Gold.Version>
5.8.1

> <Gold.Id.Protein>
6NUR|6NUR_protein|mol2

> <Gold.PLP.Fitness>
30.2911

> <Gold.PLP.PLP>
-27.4806

> <Gold.PLP.part.hbond>
-1.0000

> <Gold.PLP.part.metal>
0.0000

> <Gold.PLP.part.buried>
-2.4758

> <Gold.PLP.part.nonpolar>
-24.1803

> <Gold.PLP.part.repulsive>
0.4962

> <Gold.PLP.ligand.clash>
0.0000

> <Gold.PLP.ligand.torsion>
0.0590

> <Gold.PLP.Chemscore.Hbond>
0.9440

> <Gold.PLP.Chemscore.CHOScore>
0.0000

> <Gold.PLP.Chemscore.Metal>
0.0000

> <Gold.Chemscore.Hbonds>
donor molecule, donor type, donor heavy atom, donor atom, acceptor molecule, acceptor atom, score
      L1  H    10    30       P1  7957  0.94

> <Gold.PLP.Chemscore.Internal.Correction>
0.0966

> <Gold.Rescore>
     Score         DG    S(hbond)    S(metal)    S(lipo)     H(rot)  DE(clash)    DE(int)     intcor
     12.94     -13.09       0.98        0.00      64.66       1.26       0.07       0.07       ----

> <Gold.Chemscore.Fitness>
12.9425

> <Gold.Chemscore.DG>
-13.0887

> <Gold.Chemscore.ZeroCoef>
-5.4800

> <Gold.Chemscore.Hbond>
0.9807

> <Gold.Chemscore.Metal>
0.0000

> <Gold.Chemscore.Lipo>
64.6598

> <Gold.Chemscore.Internal_Hbond>
0.0000

> <Gold.Chemscore.DEClash>
0.0732

> <Gold.Chemscore.DEInternal>
0.0729

> <Gold.Chemscore.Rot>
1.2625

> <Gold.Chemscore.Internal.Correction>
   9.000000E+99

> <Gold.Chemscore.Hbonds>
donor molecule, donor type, donor heavy atom, donor atom, acceptor molecule, acceptor atom, score
      L1  H    10    30       P1  7957  0.91

> <Gold.Chemscore.Hbond.Weighted>
-3.2755

> <Gold.Chemscore.Metal.Weighted>
-0.0000

> <Gold.Chemscore.Lipo.Weighted>
-7.5652

> <Gold.Chemscore.Internal_Hbond.Weighted>
0.0000

> <Gold.Chemscore.DEClash.Weighted>
0.0732

> <Gold.Chemscore.DEInternal.Weighted>
0.0729

> <Gold.Chemscore.Rot.Weighted>
3.2320

> <Gold.Chemscore.Internal.Correction.Weighted>
   9.000000E+99

> <Gold.Protein.RotatedTorsions>
[ 6907 6896 6895 6894 ] final   -8.15 input  -60.11 | X-H torsion
[ 7974 7965 7964 7962 ] final   35.84 input  175.53 | X-H torsion
[ 8008 7997 7996 7995 ] final  -74.58 input   59.86 | X-H torsion
[ 10167 10162 10161 10158 ] final  -83.39 input  -65.29 | X-H torsion
[ 10718 10713 10712 10709 ] final -173.85 input   66.30 | X-H torsion
[ 10763 10752 10751 10750 ] final   74.94 input  -60.55 | X-H torsion
[ 11005 11000 10999 10996 ] final   19.63 input  -57.11 | X-H torsion

> <Gold.Protein.ActiveResidues>
 VAL166  LYS551  ARG553  GLY616  TRP617  ASP618  TYR619  PRO620  LYS621  CYS622 
 ASP623  PHE694  ASN695  SER759  ASP760  ASP761  ALA762  ILE779  LEU786  VAL792 
 PHE793  MET794  SER795  GLU796  ALA797  LYS798  CYS799  TRP800  GLU811  SER814 

> <Gold.Protein.RotatedAtoms>
  151.4383  135.1017  159.9662 H   0  0  0  0  0  0  0  0  0  0  0  0  # atno 6907 bound_to 6896
  152.4932  133.8552  159.7233 H   0  0  0  0  0  0  0  0  0  0  0  0  # atno 6908 bound_to 6896
  150.9106  133.6944  159.2883 H   0  0  0  0  0  0  0  0  0  0  0  0  # atno 6909 bound_to 6896
  146.1254  139.6092  142.9262 H   0  0  0  0  0  0  0  0  0  0  0  0  # atno 7974 bound_to 7965
  154.5343  140.0759  156.8400 H   0  0  0  0  0  0  0  0  0  0  0  0  # atno 8008 bound_to 7997
  155.3310  140.3402  155.4221 H   0  0  0  0  0  0  0  0  0  0  0  0  # atno 8009 bound_to 7997
  156.1812  140.1653  156.8256 H   0  0  0  0  0  0  0  0  0  0  0  0  # atno 8010 bound_to 7997
  140.4231  143.2577  151.8862 H   0  0  0  0  0  0  0  0  0  0  0  0  # atno 10167 bound_to 10162
  156.7763  130.9467  151.3120 H   0  0  0  0  0  0  0  0  0  0  0  0  # atno 10718 bound_to 10713
  153.0620  135.5007  154.8116 H   0  0  0  0  0  0  0  0  0  0  0  0  # atno 10763 bound_to 10752
  154.6897  135.2982  154.9499 H   0  0  0  0  0  0  0  0  0  0  0  0  # atno 10764 bound_to 10752
  154.0257  135.6736  153.4829 H   0  0  0  0  0  0  0  0  0  0  0  0  # atno 10765 bound_to 10752
  140.4115  134.1613  155.7667 H   0  0  0  0  0  0  0  0  0  0  0  0  # atno 11005 bound_to 11000
  145.5376  141.0423  143.2348 LP  0  0  0  0  0  0  0  0  0  0  0  0  # atno 17320 bound_to 7965
  144.7637  139.6895  143.7223 LP  0  0  0  0  0  0  0  0  0  0  0  0  # atno 17321 bound_to 7965
  139.4783  144.5415  151.8520 LP  0  0  0  0  0  0  0  0  0  0  0  0  # atno 17342 bound_to 10162
  140.4511  144.1854  150.5897 LP  0  0  0  0  0  0  0  0  0  0  0  0  # atno 17343 bound_to 10162
  157.6667  130.9014  149.9948 LP  0  0  0  0  0  0  0  0  0  0  0  0  # atno 17370 bound_to 10713
  156.1246  130.3645  149.9831 LP  0  0  0  0  0  0  0  0  0  0  0  0  # atno 17371 bound_to 10713
  141.1819  133.8395  157.1227 LP  0  0  0  0  0  0  0  0  0  0  0  0  # atno 17394 bound_to 11000
  140.0264  134.9922  157.0694 LP  0  0  0  0  0  0  0  0  0  0  0  0  # atno 17395 bound_to 11000

$$$$
