AV-unprocessed.smi:2252|AV-procd|sdf|9105|dock4
  -GOLD-   2272012303D 1   1.00000     0.00000
 Structure written by MMmdl.
 45 47  0  0  0  0  0  0  0  0  2 V2000
  152.5637  141.4514  159.9481 C   0  0  0  0  0  0  0  0  0  0  0  0
  152.3467  142.6429  159.1502 N   0  0  0  0  0  0  0  0  0  0  0  0
  153.1807  143.7519  159.0971 C   0  0  0  0  0  0  0  0  0  0  0  0
  152.6033  144.6378  158.2198 C   0  0  0  0  0  0  0  0  0  0  0  0
  151.4220  144.0943  157.7267 N   0  0  0  0  0  0  0  0  0  0  0  0
  151.3193  142.9093  158.3208 C   0  0  0  0  0  0  0  0  0  0  0  0
  150.1947  141.9536  158.0714 C   0  0  0  0  0  0  0  0  0  0  0  0
  150.6934  140.5585  157.6589 C   0  0  0  0  0  0  0  0  0  0  0  0
  149.9693  140.0443  156.5026 N   0  0  0  0  0  0  0  0  0  0  0  0
  150.5015  139.8470  155.2865 C   0  0  0  0  0  0  0  0  0  0  0  0
  151.6810  140.0787  155.0191 O   0  0  0  0  0  0  0  0  0  0  0  0
  149.5633  139.2903  154.2054 C   0  0  2  0  0  0  0  0  0  0  0  0
  148.1578  139.8939  154.4127 C   0  0  0  0  0  0  0  0  0  0  0  0
  147.1784  140.0156  153.2654 C   0  0  0  0  0  0  0  0  0  0  0  0
  147.8066  141.2548  153.8494 C   0  0  0  0  0  0  0  0  0  0  0  0
  149.5261  137.8001  154.2262 N   0  3  0  0  0  0  0  0  0  0  0  0
  150.8386  137.1372  154.3792 C   0  0  0  0  0  0  0  0  0  0  0  0
  150.5443  135.7146  154.8661 C   0  0  0  0  0  0  0  0  0  0  0  0
  149.1054  135.7478  155.3908 C   0  0  0  0  0  0  0  0  0  0  0  0
  148.6659  137.2079  155.2739 C   0  0  0  0  0  0  0  0  0  0  0  0
  153.5431  141.4912  160.4255 H   0  0  0  0  0  0  0  0  0  0  0  0
  152.5171  140.5654  159.3144 H   0  0  0  0  0  0  0  0  0  0  0  0
  151.7978  141.3822  160.7210 H   0  0  0  0  0  0  0  0  0  0  0  0
  154.0932  143.8172  159.6712 H   0  0  0  0  0  0  0  0  0  0  0  0
  152.9432  145.6142  157.9075 H   0  0  0  0  0  0  0  0  0  0  0  0
  149.5668  141.8850  158.9599 H   0  0  0  0  0  0  0  0  0  0  0  0
  149.5631  142.3734  157.2875 H   0  0  0  0  0  0  0  0  0  0  0  0
  151.7641  140.5807  157.4480 H   0  0  0  0  0  0  0  0  0  0  0  0
  150.5541  139.8568  158.4818 H   0  0  0  0  0  0  0  0  0  0  0  0
  148.9951  139.8167  156.6404 H   0  0  0  0  0  0  0  0  0  0  0  0
  149.9382  139.6028  153.2286 H   0  0  0  0  0  0  0  0  0  0  0  0
  147.7259  139.6711  155.3873 H   0  0  0  0  0  0  0  0  0  0  0  0
  147.5099  139.7063  152.2761 H   0  0  0  0  0  0  0  0  0  0  0  0
  146.1281  139.8326  153.4828 H   0  0  0  0  0  0  0  0  0  0  0  0
  147.1748  141.9014  154.4549 H   0  0  0  0  0  0  0  0  0  0  0  0
  148.5549  141.7667  153.2474 H   0  0  0  0  0  0  0  0  0  0  0  0
  151.4062  137.1424  153.4481 H   0  0  0  0  0  0  0  0  0  0  0  0
  151.4251  137.6628  155.1345 H   0  0  0  0  0  0  0  0  0  0  0  0
  150.6253  135.0026  154.0439 H   0  0  0  0  0  0  0  0  0  0  0  0
  151.2524  135.4080  155.6369 H   0  0  0  0  0  0  0  0  0  0  0  0
  148.4718  135.1162  154.7670 H   0  0  0  0  0  0  0  0  0  0  0  0
  149.0279  135.3816  156.4151 H   0  0  0  0  0  0  0  0  0  0  0  0
  148.8419  137.7186  156.2222 H   0  0  0  0  0  0  0  0  0  0  0  0
  147.6051  137.2967  155.0366 H   0  0  0  0  0  0  0  0  0  0  0  0
  149.1506  137.4956  153.3391 H   0  0  0  0  0  0  0  0  0  0  0  0
  1  2  1  0  0  0  0
  1 21  1  0  0  0  0
  1 22  1  0  0  0  0
  1 23  1  0  0  0  0
  2  6  1  0  0  0  0
  2  3  1  0  0  0  0
  3  4  2  0  0  0  0
  3 24  1  0  0  0  0
  4  5  1  0  0  0  0
  4 25  1  0  0  0  0
  5  6  2  0  0  0  0
  6  7  1  0  0  0  0
  7  8  1  0  0  0  0
  7 26  1  0  0  0  0
  7 27  1  0  0  0  0
  8  9  1  0  0  0  0
  8 28  1  0  0  0  0
  8 29  1  0  0  0  0
  9 10  1  0  0  0  0
  9 30  1  0  0  0  0
 10 11  2  0  0  0  0
 10 12  1  0  0  0  0
 12 13  1  0  0  0  0
 12 16  1  0  0  0  0
 12 31  1  0  0  0  0
 13 15  1  0  0  0  0
 13 14  1  0  0  0  0
 13 32  1  0  0  0  0
 14 15  1  0  0  0  0
 14 33  1  0  0  0  0
 14 34  1  0  0  0  0
 15 35  1  0  0  0  0
 15 36  1  0  0  0  0
 16 20  1  0  0  0  0
 16 17  1  0  0  0  0
 16 45  1  0  0  0  0
 17 18  1  0  0  0  0
 17 37  1  0  0  0  0
 17 38  1  0  0  0  0
 18 19  1  0  0  0  0
 18 39  1  0  0  0  0
 18 40  1  0  0  0  0
 19 20  1  0  0  0  0
 19 41  1  0  0  0  0
 19 42  1  0  0  0  0
 20 43  1  0  0  0  0
 20 44  1  0  0  0  0
M  CHG  1  16   1
M  END
> <s_m_source_file>
AV-unprocessed.smi

> <i_m_source_file_index>
2252

> <i_lp_mmshare_version>
43012

> <i_f3d_flags>
0

> <s_epik_input>
W0NIM11uMVtjSF1bY0hdbmMxW0NIMl1bQ0gyXVtOSF1DKD1PKVtDQEhdKFtDSF0yW0NIMl1bQ0gyXTIpTjNbQ0gyXVtDSDJdW0NIMl1bQ0gyXTM=

> <s_epik_cmdline>
J2VwaWtfcHl0aG9uJywgJy1waCcsICc3LjAnLCAnLXRuJywgJzgnLCAnLW1hJywgJzIwMCcsICctbWV0YWxfYmluZGluZycsICctaW1hZScsICc8aW5maWxlLm1hZT4nLCAnLW9tYWUnLCAnPG91dGZpbGUubWFlPic=

> <r_lp_tautomer_probability>
1

> <r_epik_Ionization_Penalty>
1.07437

> <r_epik_Ionization_Penalty_Charging>
1.07435

> <r_epik_Ionization_Penalty_Neutral>
2.35578e-05

> <r_epik_State_Penalty>
1.18204

> <r_epik_Charging_Adjusted_Penalty>
2.25639

> <i_epik_Tot_Q>
1

> <i_epik_Tot_abs_Q>
1

> <r_epik_Metal_State_Penalty>
0.433434

> <b_epik_Metal_Only>
0

> <s_lp_Force_Field>
OPLS_2005

> <r_lp_Energy>
33.5931

> <b_lp_Chiralities_Consistent>
1

> <s_lp_Variant>
AV-unprocessed.smi:2252-3

> <Gold.Version>
5.8.1

> <Gold.Id.Protein>
6NUR|6NUR_protein|mol2

> <Gold.PLP.Fitness>
46.3519

> <Gold.PLP.PLP>
-40.1454

> <Gold.PLP.part.hbond>
-2.0000

> <Gold.PLP.part.metal>
0.0000

> <Gold.PLP.part.buried>
-4.0985

> <Gold.PLP.part.nonpolar>
-35.4482

> <Gold.PLP.part.repulsive>
0.2321

> <Gold.PLP.ligand.clash>
0.0000

> <Gold.PLP.ligand.torsion>
1.9330

> <Gold.PLP.Chemscore.Hbond>
2.9760

> <Gold.PLP.Chemscore.CHOScore>
0.0000

> <Gold.PLP.Chemscore.Metal>
0.0000

> <Gold.Chemscore.Hbonds>
donor molecule, donor type, donor heavy atom, donor atom, acceptor molecule, acceptor atom, score
      L1  H    16    45       P1  7948  2.00
      P1  H  7989  7998       L1    11  0.99

> <Gold.PLP.Chemscore.Internal.Correction>
1.1446

> <Gold.Rescore>
     Score         DG    S(hbond)    S(metal)    S(lipo)     H(rot)  DE(clash)    DE(int)     intcor
     15.27     -17.19       1.81        0.00      91.11       1.95       0.10       1.82       ----

> <Gold.Chemscore.Fitness>
15.2732

> <Gold.Chemscore.DG>
-17.1913

> <Gold.Chemscore.ZeroCoef>
-5.4800

> <Gold.Chemscore.Hbond>
1.8081

> <Gold.Chemscore.Metal>
0.0000

> <Gold.Chemscore.Lipo>
91.1139

> <Gold.Chemscore.Internal_Hbond>
0.0000

> <Gold.Chemscore.DEClash>
0.0966

> <Gold.Chemscore.DEInternal>
1.8215

> <Gold.Chemscore.Rot>
1.9485

> <Gold.Chemscore.Internal.Correction>
   9.000000E+99

> <Gold.Chemscore.Hbonds>
donor molecule, donor type, donor heavy atom, donor atom, acceptor molecule, acceptor atom, score
      L1  H    16    45       P1  7948  0.96
      P1  H  7989  7998       L1    11  0.52

> <Gold.Chemscore.Hbond.Weighted>
-6.0391

> <Gold.Chemscore.Metal.Weighted>
-0.0000

> <Gold.Chemscore.Lipo.Weighted>
-10.6603

> <Gold.Chemscore.Internal_Hbond.Weighted>
0.0000

> <Gold.Chemscore.DEClash.Weighted>
0.0966

> <Gold.Chemscore.DEInternal.Weighted>
1.8215

> <Gold.Chemscore.Rot.Weighted>
4.9881

> <Gold.Chemscore.Internal.Correction.Weighted>
   9.000000E+99

> <Gold.Protein.RotatedTorsions>
[ 6907 6896 6895 6894 ] final -105.70 input  -60.11 | X-H torsion
[ 7974 7965 7964 7962 ] final -135.04 input  175.53 | X-H torsion
[ 8008 7997 7996 7995 ] final  -27.95 input   59.86 | X-H torsion
[ 10167 10162 10161 10158 ] final  139.83 input  -65.29 | X-H torsion
[ 10718 10713 10712 10709 ] final  -76.44 input   66.30 | X-H torsion
[ 10763 10752 10751 10750 ] final  -78.12 input  -60.55 | X-H torsion
[ 11005 11000 10999 10996 ] final  -98.02 input  -57.11 | X-H torsion

> <Gold.Protein.ActiveResidues>
 VAL166  LYS551  ARG553  GLY616  TRP617  ASP618  TYR619  PRO620  LYS621  CYS622 
 ASP623  PHE694  ASN695  SER759  ASP760  ASP761  ALA762  ILE779  LEU786  VAL792 
 PHE793  MET794  SER795  GLU796  ALA797  LYS798  CYS799  TRP800  GLU811  SER814 

> <Gold.Protein.RotatedAtoms>
  150.7350  134.0087  159.3662 H   0  0  0  0  0  0  0  0  0  0  0  0  # atno 6907 bound_to 6896
  151.8045  135.0697  160.0414 H   0  0  0  0  0  0  0  0  0  0  0  0  # atno 6908 bound_to 6896
  152.3117  133.5723  159.5721 H   0  0  0  0  0  0  0  0  0  0  0  0  # atno 6909 bound_to 6896
  144.9049  140.6820  143.5062 H   0  0  0  0  0  0  0  0  0  0  0  0  # atno 7974 bound_to 7965
  154.4354  140.1858  156.1013 H   0  0  0  0  0  0  0  0  0  0  0  0  # atno 8008 bound_to 7997
  156.0290  140.3332  155.7093 H   0  0  0  0  0  0  0  0  0  0  0  0  # atno 8009 bound_to 7997
  155.5867  140.0627  157.2760 H   0  0  0  0  0  0  0  0  0  0  0  0  # atno 8010 bound_to 7997
  139.5067  144.6271  151.5911 H   0  0  0  0  0  0  0  0  0  0  0  0  # atno 10167 bound_to 10162
  156.0175  130.4465  150.3193 H   0  0  0  0  0  0  0  0  0  0  0  0  # atno 10718 bound_to 10713
  154.5217  135.5741  153.6686 H   0  0  0  0  0  0  0  0  0  0  0  0  # atno 10763 bound_to 10752
  152.9919  135.6183  154.2745 H   0  0  0  0  0  0  0  0  0  0  0  0  # atno 10764 bound_to 10752
  154.2666  135.2854  155.2735 H   0  0  0  0  0  0  0  0  0  0  0  0  # atno 10765 bound_to 10752
  141.1359  133.8214  157.0784 H   0  0  0  0  0  0  0  0  0  0  0  0  # atno 11005 bound_to 11000
  145.3553  139.1695  143.4412 LP  0  0  0  0  0  0  0  0  0  0  0  0  # atno 17320 bound_to 7965
  146.3128  140.3610  142.8665 LP  0  0  0  0  0  0  0  0  0  0  0  0  # atno 17321 bound_to 7965
  140.5991  143.9642  150.6374 LP  0  0  0  0  0  0  0  0  0  0  0  0  # atno 17342 bound_to 10162
  140.2848  143.3365  152.1118 LP  0  0  0  0  0  0  0  0  0  0  0  0  # atno 17343 bound_to 10162
  157.1294  131.0268  151.2976 LP  0  0  0  0  0  0  0  0  0  0  0  0  # atno 17370 bound_to 10713
  157.4563  130.7627  149.7196 LP  0  0  0  0  0  0  0  0  0  0  0  0  # atno 17371 bound_to 10713
  140.0467  134.9826  157.1062 LP  0  0  0  0  0  0  0  0  0  0  0  0  # atno 17394 bound_to 11000
  140.4052  134.2040  155.7163 LP  0  0  0  0  0  0  0  0  0  0  0  0  # atno 17395 bound_to 11000

$$$$
