#       Name:                AV-unprocessed.smi:2621
#       Creating user name   scv26
#       Creation time:       Fri Mar 27 14:23:19 2020


#       File generated by GOLD software.
#

@<TRIPOS>MOLECULE
AV-unprocessed.smi:2621
    29    30     1
SMALL
NO_CHARGES


@<TRIPOS>ATOM
      1 ****        -3.7530   0.3388  -0.5276 C.3            1 S1                 0.0000
      2 ****        -2.2383   0.3373  -0.5104 C.2            1 S1                 0.0000
      3 ****        -1.5185   1.4797  -0.4587 C.2            1 S1                 0.0000
      4 ****        -0.0572   1.4423  -0.4442 C.2            1 S1                 0.0000
      5 ****         0.6207   2.4680  -0.3701 O.2            1 S1                 0.0000
      6 ****         0.4972   0.1932  -0.5207 N.am           1 S1                 0.0000
      7 ****         1.9731   0.0679  -0.5665 C.3            1 S1                 0.0000
      8 ****         2.6957   0.0667   0.7731 C.3            1 S1                 0.0000
      9 ****         2.0192  -0.0437   2.1203 C.3            1 S1                 0.0000
     10 ****         2.6219  -1.1765   1.4884 O.3            1 S1                 0.0000
     11 ****        -0.3119  -0.9790  -0.5336 C.2            1 S1                 0.0000
     12 ****         0.3610  -2.1884  -0.5232 N.pl3          1 S1                 0.0000
     13 ****        -1.6050  -0.9060  -0.5378 N.2            1 S1                 0.0000
     14 ****        -4.1500   1.3532  -0.5759 H              1 S1                 0.0000
     15 ****        -4.1406  -0.1365   0.3738 H              1 S1                 0.0000
     16 ****        -4.1229  -0.2119  -1.3928 H              1 S1                 0.0000
     17 ****        -2.0206   2.4360  -0.4310 H              1 S1                 0.0000
     18 ****         2.3050  -0.7972  -1.1413 H              1 S1                 0.0000
     19 ****         2.3809   0.8976  -1.1465 H              1 S1                 0.0000
     20 ****         3.7027   0.4783   0.7485 H              1 S1                 0.0000
     21 ****         2.5461   0.3158   3.0016 H              1 S1                 0.0000
     22 ****         0.9340  -0.0861   2.1827 H              1 S1                 0.0000
     23 ****         1.3678  -2.2632  -0.5074 H              1 S1                 0.0000
     24 ****        -0.1020  -3.0852  -0.5604 H              1 S1                 0.0000
     25 ****         0.1729   3.3606  -0.3176 LP             1 S1                 0.0000
     26 ****         1.6188   2.4082  -0.3624 LP             1 S1                 0.0000
     27 ****         3.4555  -1.5691   1.8770 LP             1 S1                 0.0000
     28 ****         2.0397  -1.9102   1.1381 LP             1 S1                 0.0000
     29 ****        -2.1514  -1.7432  -0.5607 LP             1 S1                 0.0000
@<TRIPOS>BOND
    1    1    2 1     
    2    1   14 1     
    3    1   15 1     
    4    1   16 1     
    5    2   13 1     
    6    2    3 2     
    7    3    4 1     
    8    3   17 1     
    9    4    5 2     
   10    4    6 am    
   11    6    7 1     
   12    6   11 1     
   13    7    8 1     
   14    7   18 1     
   15    7   19 1     
   16    8   10 1     
   17    8    9 1     
   18    8   20 1     
   19    9   10 1     
   20    9   21 1     
   21    9   22 1     
   22   11   12 1     
   23   11   13 2     
   24   12   23 1     
   25   12   24 1     
   26    5   25 1     
   27    5   26 1     
   28   10   27 1     
   29   10   28 1     
   30   13   29 1     
@<TRIPOS>SUBSTRUCTURE
      1 S1             1
@<TRIPOS>SET
LONE_PAIRS      STATIC     ATOMS    <user>   **** ""
5 25 26 27 28 29
DONOR_HYDROGENS      STATIC     ATOMS    <user>   **** ""
2 23 24
ATOM$BLUE        STATIC     ATOMS    COLORGROUP SYSTEM
5 25 26 27 28 29
ATOM$RED        STATIC     ATOMS    COLORGROUP SYSTEM
2 23 24
