AV-unprocessed.smi:89|AV-procd|sdf|826|dock9
  -GOLD-   2262017243D 1   1.00000     0.00000
 Structure written by MMmdl.
 54 56  0  0  0  0  0  0  0  0  1 V2000
  145.5783  139.4756  155.1584 C   0  0  0  0  0  0  0  0  0  0  0  0
  144.8625  138.5728  156.1780 C   0  0  0  0  0  0  0  0  0  0  0  0
  145.6197  137.3729  156.5426 N   0  0  0  0  0  0  0  0  0  0  0  0
  145.9748  136.5539  155.5158 C   0  0  0  0  0  0  0  0  0  0  0  0
  147.0066  135.6833  155.6712 N   0  0  0  0  0  0  0  0  0  0  0  0
  147.3687  134.8758  154.6707 C   0  0  0  0  0  0  0  0  0  0  0  0
  146.8429  134.7747  153.4492 N   0  0  0  0  0  0  0  0  0  0  0  0
  145.8089  135.6480  153.2829 C   0  0  0  0  0  0  0  0  0  0  0  0
  145.3199  136.5701  154.2514 C   0  0  0  0  0  0  0  0  0  0  0  0
  144.2576  137.2913  153.7196 N   0  0  0  0  0  0  0  0  0  0  0  0
  144.1258  136.8228  152.5093 C   0  0  0  0  0  0  0  0  0  0  0  0
  145.0100  135.8254  152.1669 N   0  0  0  0  0  0  0  0  0  0  0  0
  145.0755  135.1196  150.8965 C   0  0  0  0  0  0  0  0  0  0  0  0
  144.4372  133.7120  150.9479 C   0  0  2  0  0  0  0  0  0  0  0  0
  143.1710  133.8038  151.5784 O   0  0  0  0  0  0  0  0  0  0  0  0
  145.2737  132.6736  151.6900 C   0  0  0  0  0  0  0  0  0  0  0  0
  144.9247  131.3799  150.9680 C   0  0  0  0  0  0  0  0  0  0  0  0
  144.8578  131.7912  149.6132 O   0  0  0  0  0  0  0  0  0  0  0  0
  144.2425  133.0747  149.5576 C   0  0  0  0  0  0  0  0  0  0  0  0
  146.3272  137.3451  157.8338 C   0  0  2  0  0  0  0  0  0  0  0  0
  147.6396  138.1519  157.8212 C   0  0  0  0  0  0  0  0  0  0  0  0
  146.5250  135.9271  158.4213 C   0  0  0  0  0  0  0  0  0  0  0  0
  147.6719  135.9278  159.8721 S   0  0  0  0  0  0  0  0  0  0  0  0
  148.9300  135.2902  159.4545 O   0  0  0  0  0  0  0  0  0  0  0  0
  147.7008  137.2792  160.4511 O   0  0  0  0  0  0  0  0  0  0  0  0
  146.8067  134.8157  161.0653 C   0  0  0  0  0  0  0  0  0  0  0  0
  147.5164  134.7535  162.4233 C   0  0  0  0  0  0  0  0  0  0  0  0
  144.9959  140.3784  154.9745 H   0  0  0  0  0  0  0  0  0  0  0  0
  145.7097  138.9732  154.1998 H   0  0  0  0  0  0  0  0  0  0  0  0
  146.5617  139.7843  155.5105 H   0  0  0  0  0  0  0  0  0  0  0  0
  144.6677  139.1532  157.0801 H   0  0  0  0  0  0  0  0  0  0  0  0
  143.8812  138.2891  155.8000 H   0  0  0  0  0  0  0  0  0  0  0  0
  148.1974  134.2156  154.8796 H   0  0  0  0  0  0  0  0  0  0  0  0
  143.3675  137.1868  151.8313 H   0  0  0  0  0  0  0  0  0  0  0  0
  144.5862  135.7315  150.1374 H   0  0  0  0  0  0  0  0  0  0  0  0
  146.1228  135.0457  150.6003 H   0  0  0  0  0  0  0  0  0  0  0  0
  142.5367  134.0840  150.9364 H   0  0  0  0  0  0  0  0  0  0  0  0
  146.3360  132.8739  151.5481 H   0  0  0  0  0  0  0  0  0  0  0  0
  145.0832  132.6365  152.7637 H   0  0  0  0  0  0  0  0  0  0  0  0
  145.6706  130.5985  151.1155 H   0  0  0  0  0  0  0  0  0  0  0  0
  143.9537  130.9989  151.2883 H   0  0  0  0  0  0  0  0  0  0  0  0
  143.1880  132.9646  149.2989 H   0  0  0  0  0  0  0  0  0  0  0  0
  144.7120  133.6577  148.7647 H   0  0  0  0  0  0  0  0  0  0  0  0
  145.6727  137.8617  158.5367 H   0  0  0  0  0  0  0  0  0  0  0  0
  148.0900  138.1715  158.8137 H   0  0  0  0  0  0  0  0  0  0  0  0
  147.4671  139.1880  157.5325 H   0  0  0  0  0  0  0  0  0  0  0  0
  148.3780  137.7315  157.1396 H   0  0  0  0  0  0  0  0  0  0  0  0
  145.5908  135.4514  158.7147 H   0  0  0  0  0  0  0  0  0  0  0  0
  146.9732  135.2883  157.6621 H   0  0  0  0  0  0  0  0  0  0  0  0
  145.7935  135.1969  161.1936 H   0  0  0  0  0  0  0  0  0  0  0  0
  146.7280  133.8248  160.6179 H   0  0  0  0  0  0  0  0  0  0  0  0
  146.9535  134.1345  163.1220 H   0  0  0  0  0  0  0  0  0  0  0  0
  147.6130  135.7452  162.8652 H   0  0  0  0  0  0  0  0  0  0  0  0
  148.5135  134.3238  162.3376 H   0  0  0  0  0  0  0  0  0  0  0  0
  1  2  1  0  0  0  0
  1 28  1  0  0  0  0
  1 29  1  0  0  0  0
  1 30  1  0  0  0  0
  2  3  1  0  0  0  0
  2 31  1  0  0  0  0
  2 32  1  0  0  0  0
  3  4  1  0  0  0  0
  3 20  1  0  0  0  0
  4  9  1  0  0  0  0
  4  5  2  0  0  0  0
  5  6  1  0  0  0  0
  6  7  2  0  0  0  0
  6 33  1  0  0  0  0
  7  8  1  0  0  0  0
  8 12  1  0  0  0  0
  8  9  2  0  0  0  0
  9 10  1  0  0  0  0
 10 11  2  0  0  0  0
 11 12  1  0  0  0  0
 11 34  1  0  0  0  0
 12 13  1  0  0  0  0
 13 14  1  0  0  0  0
 13 35  1  0  0  0  0
 13 36  1  0  0  0  0
 14 19  1  0  0  0  0
 14 15  1  0  0  0  0
 14 16  1  0  0  0  0
 15 37  1  0  0  0  0
 16 17  1  0  0  0  0
 16 38  1  0  0  0  0
 16 39  1  0  0  0  0
 17 18  1  0  0  0  0
 17 40  1  0  0  0  0
 17 41  1  0  0  0  0
 18 19  1  0  0  0  0
 19 42  1  0  0  0  0
 19 43  1  0  0  0  0
 20 21  1  0  0  0  0
 20 22  1  0  0  0  0
 20 44  1  0  0  0  0
 21 45  1  0  0  0  0
 21 46  1  0  0  0  0
 21 47  1  0  0  0  0
 22 23  1  0  0  0  0
 22 48  1  0  0  0  0
 22 49  1  0  0  0  0
 23 24  2  0  0  0  0
 23 25  2  0  0  0  0
 23 26  1  0  0  0  0
 26 27  1  0  0  0  0
 26 50  1  0  0  0  0
 26 51  1  0  0  0  0
 27 52  1  0  0  0  0
 27 53  1  0  0  0  0
 27 54  1  0  0  0  0
M  END
> <s_m_source_file>
AV-unprocessed.smi

> <i_m_source_file_index>
89

> <i_lp_mmshare_version>
43012

> <i_f3d_flags>
0

> <s_epik_input>
W0NIM11bQ0gyXVMoPU8pKD1PKVtDSDJdW0NAQEhdKFtDSDNdKU4oW0NIMl1bQ0gzXSljKG5bY0hdbjEpYyhjMTIpbltjSF1uMltDSDJdW0NAQF0zKFtPSF0pW0NIMl1bQ0gyXU9bQ0gyXTM=

> <s_epik_cmdline>
J2VwaWtfcHl0aG9uJywgJy1waCcsICc3LjAnLCAnLXRuJywgJzgnLCAnLW1hJywgJzIwMCcsICctbWV0YWxfYmluZGluZycsICctaW1hZScsICc8aW5maWxlLm1hZT4nLCAnLW9tYWUnLCAnPG91dGZpbGUubWFlPic=

> <r_lp_tautomer_probability>
1

> <r_epik_Ionization_Penalty>
0.00103773

> <r_epik_Ionization_Penalty_Charging>
0

> <r_epik_Ionization_Penalty_Neutral>
0.00103773

> <r_epik_State_Penalty>
0.000558914

> <r_epik_Charging_Adjusted_Penalty>
0.000558914

> <i_epik_Tot_Q>
0

> <i_epik_Tot_abs_Q>
0

> <r_epik_Metal_State_Penalty>
-0

> <b_epik_Metal_Only>
0

> <s_lp_Force_Field>
OPLS_2005

> <r_lp_Energy>
26.3336

> <b_lp_Chiralities_Consistent>
1

> <s_lp_Variant>
AV-unprocessed.smi:89-2

> <Gold.Version>
5.8.1

> <Gold.Id.Protein>
6NUR|6NUR_protein|mol2

> <Gold.PLP.Fitness>
43.1376

> <Gold.PLP.PLP>
-31.8994

> <Gold.PLP.part.hbond>
-4.9951

> <Gold.PLP.part.metal>
0.0000

> <Gold.PLP.part.buried>
-5.6996

> <Gold.PLP.part.nonpolar>
-23.0731

> <Gold.PLP.part.repulsive>
0.5827

> <Gold.PLP.ligand.clash>
0.0000

> <Gold.PLP.ligand.torsion>
1.6115

> <Gold.PLP.Chemscore.Hbond>
3.4543

> <Gold.PLP.Chemscore.CHOScore>
0.9844

> <Gold.PLP.Chemscore.Metal>
0.0000

> <Gold.Chemscore.Hbonds>
donor molecule, donor type, donor heavy atom, donor atom, acceptor molecule, acceptor atom, score
      L1  H    15    37       P1 10186  0.88
      P1  H  6896  6908       L1    24  1.00
      P1  H  6931  6943       L1    25  0.42
      P1  H  6934  6947       L1    25  0.90
      L1  C    11    34       P1 10171  0.89

> <Gold.PLP.Chemscore.Internal.Correction>
1.1448

> <Gold.Rescore>
     Score         DG    S(hbond)    S(metal)    S(lipo)     H(rot)  DE(clash)    DE(int)     intcor
      7.41     -13.27       2.77        0.00      56.14       3.14       0.01       5.86       ----

> <Gold.Chemscore.Fitness>
7.4061

> <Gold.Chemscore.DG>
-13.2707

> <Gold.Chemscore.ZeroCoef>
-5.4800

> <Gold.Chemscore.Hbond>
2.7718

> <Gold.Chemscore.Metal>
0.0000

> <Gold.Chemscore.Lipo>
56.1355

> <Gold.Chemscore.Internal_Hbond>
0.0000

> <Gold.Chemscore.DEClash>
0.0073

> <Gold.Chemscore.DEInternal>
5.8573

> <Gold.Chemscore.Rot>
3.1386

> <Gold.Chemscore.Internal.Correction>
   9.000000E+99

> <Gold.Chemscore.Hbonds>
donor molecule, donor type, donor heavy atom, donor atom, acceptor molecule, acceptor atom, score
      L1  H    15    37       P1 10186  0.38
      P1  H  6896  6908       L1    24  0.98
      P1  H  6931  6943       L1    25  0.42
      P1  H  6934  6947       L1    25  0.88

> <Gold.Chemscore.Hbond.Weighted>
-9.2578

> <Gold.Chemscore.Metal.Weighted>
-0.0000

> <Gold.Chemscore.Lipo.Weighted>
-6.5679

> <Gold.Chemscore.Internal_Hbond.Weighted>
0.0000

> <Gold.Chemscore.DEClash.Weighted>
0.0073

> <Gold.Chemscore.DEInternal.Weighted>
5.8573

> <Gold.Chemscore.Rot.Weighted>
8.0349

> <Gold.Chemscore.Internal.Correction.Weighted>
   9.000000E+99

> <Gold.Protein.RotatedTorsions>
[ 6907 6896 6895 6894 ] final  161.61 input  -60.11 | X-H torsion
[ 7974 7965 7964 7962 ] final  -16.28 input  175.53 | X-H torsion
[ 8008 7997 7996 7995 ] final  168.52 input   59.86 | X-H torsion
[ 10167 10162 10161 10158 ] final  157.24 input  -65.29 | X-H torsion
[ 10718 10713 10712 10709 ] final -165.88 input   66.30 | X-H torsion
[ 10763 10752 10751 10750 ] final -100.17 input  -60.55 | X-H torsion
[ 11005 11000 10999 10996 ] final   25.19 input  -57.11 | X-H torsion

> <Gold.Protein.ActiveResidues>
 VAL166  LYS551  ARG553  GLY616  TRP617  ASP618  TYR619  PRO620  LYS621  CYS622 
 ASP623  PHE694  ASN695  SER759  ASP760  ASP761  ALA762  ILE779  LEU786  VAL792 
 PHE793  MET794  SER795  GLU796  ALA797  LYS798  CYS799  TRP800  GLU811  SER814 

> <Gold.Protein.RotatedAtoms>
  151.9530  133.3672  159.4006 H   0  0  0  0  0  0  0  0  0  0  0  0  # atno 6907 bound_to 6896
  150.6977  134.4320  159.5262 H   0  0  0  0  0  0  0  0  0  0  0  0  # atno 6908 bound_to 6896
  152.1996  134.8599  160.0560 H   0  0  0  0  0  0  0  0  0  0  0  0  # atno 6909 bound_to 6896
  146.1995  140.3613  142.8428 H   0  0  0  0  0  0  0  0  0  0  0  0  # atno 7974 bound_to 7965
  156.1539  140.1588  156.8724 H   0  0  0  0  0  0  0  0  0  0  0  0  # atno 8008 bound_to 7997
  154.5096  140.0804  156.8001 H   0  0  0  0  0  0  0  0  0  0  0  0  # atno 8009 bound_to 7997
  155.3842  140.3406  155.4250 H   0  0  0  0  0  0  0  0  0  0  0  0  # atno 8010 bound_to 7997
  139.4822  144.4935  151.8274 H   0  0  0  0  0  0  0  0  0  0  0  0  # atno 10167 bound_to 10162
  156.6598  130.9041  151.3027 H   0  0  0  0  0  0  0  0  0  0  0  0  # atno 10718 bound_to 10713
  154.7558  135.4945  153.9371 H   0  0  0  0  0  0  0  0  0  0  0  0  # atno 10763 bound_to 10752
  153.1194  135.6728  153.9370 H   0  0  0  0  0  0  0  0  0  0  0  0  # atno 10764 bound_to 10752
  153.9106  135.3099  155.3427 H   0  0  0  0  0  0  0  0  0  0  0  0  # atno 10765 bound_to 10752
  140.3505  134.2234  155.7680 H   0  0  0  0  0  0  0  0  0  0  0  0  # atno 11005 bound_to 11000
  144.8651  140.7195  143.6082 LP  0  0  0  0  0  0  0  0  0  0  0  0  # atno 17320 bound_to 7965
  145.3533  139.1700  143.4423 LP  0  0  0  0  0  0  0  0  0  0  0  0  # atno 17321 bound_to 7965
  140.4421  144.1971  150.5892 LP  0  0  0  0  0  0  0  0  0  0  0  0  # atno 17342 bound_to 10162
  140.4672  143.2426  151.9139 LP  0  0  0  0  0  0  0  0  0  0  0  0  # atno 17343 bound_to 10162
  157.7113  130.9444  150.1100 LP  0  0  0  0  0  0  0  0  0  0  0  0  # atno 17370 bound_to 10713
  156.2019  130.3661  149.8777 LP  0  0  0  0  0  0  0  0  0  0  0  0  # atno 17371 bound_to 10713
  141.2013  133.7965  157.0445 LP  0  0  0  0  0  0  0  0  0  0  0  0  # atno 17394 bound_to 11000
  140.0707  134.9704  157.1462 LP  0  0  0  0  0  0  0  0  0  0  0  0  # atno 17395 bound_to 11000

$$$$
