AV-unprocessed.smi:287|AV-procd|sdf|2185|dock10
  -GOLD-   2262021563D 1   1.00000     0.00000
 Structure written by MMmdl.
 55 58  0  0  0  0  0  0  0  0  1 V2000
  151.0189  141.4096  156.3717 C   0  0  0  0  0  0  0  0  0  0  0  0
  149.6474  140.8720  156.1462 C   0  0  0  0  0  0  0  0  0  0  0  0
  148.7287  141.0142  155.1472 C   0  0  0  0  0  0  0  0  0  0  0  0
  147.5802  140.2488  155.5118 C   0  0  0  0  0  0  0  0  0  0  0  0
  146.2987  140.0961  154.7027 C   0  0  1  0  0  0  0  0  0  0  0  0
  145.1036  140.6031  155.5258 C   0  0  0  0  0  0  0  0  0  0  0  0
  146.3048  140.8779  153.5236 O   0  0  0  0  0  0  0  0  0  0  0  0
  146.0445  138.6423  154.2402 C   0  0  0  0  0  0  0  0  0  0  0  0
  144.7508  138.4691  153.5878 N   0  0  0  0  0  0  0  0  0  0  0  0
  144.1649  137.2542  153.5540 C   0  0  0  0  0  0  0  0  0  0  0  0
  143.2049  136.9137  154.4532 N   0  0  0  0  0  0  0  0  0  0  0  0
  142.6338  135.7069  154.3940 C   0  0  0  0  0  0  0  0  0  0  0  0
  142.8715  134.7128  153.5355 N   0  0  0  0  0  0  0  0  0  0  0  0
  143.8387  135.0488  152.6332 C   0  0  0  0  0  0  0  0  0  0  0  0
  144.5282  136.2918  152.5774 C   0  0  0  0  0  0  0  0  0  0  0  0
  145.4407  136.2783  151.5308 N   0  0  0  0  0  0  0  0  0  0  0  0
  145.2930  135.0945  150.9992 C   0  0  0  0  0  0  0  0  0  0  0  0
  144.3515  134.2894  151.6016 N   0  0  0  0  0  0  0  0  0  0  0  0
  143.9613  132.9002  151.2178 C   0  0  2  0  0  0  0  0  0  0  0  0
  144.7562  132.0136  151.9388 O   0  0  0  0  0  0  0  0  0  0  0  0
  144.9979  130.8700  151.1346 C   0  0  2  0  0  0  0  0  0  0  0  0
  146.1666  130.0371  151.6910 C   0  0  0  0  0  0  0  0  0  0  0  0
  147.2298  130.8818  152.0773 O   0  0  0  0  0  0  0  0  0  0  0  0
  145.1580  131.4494  149.7204 C   0  0  2  0  0  0  0  0  0  0  0  0
  146.4853  131.8747  149.4768 O   0  0  0  0  0  0  0  0  0  0  0  0
  144.2054  132.6446  149.7182 C   0  0  1  0  0  0  0  0  0  0  0  0
  143.0042  132.2870  149.0644 O   0  0  0  0  0  0  0  0  0  0  0  0
  147.9106  139.6756  156.7160 C   0  0  0  0  0  0  0  0  0  0  0  0
  147.2064  138.7447  157.6471 C   0  0  0  0  0  0  0  0  0  0  0  0
  149.1580  140.0543  157.1114 O   0  0  0  0  0  0  0  0  0  0  0  0
  142.9160  132.8042  151.5161 H   0  0  0  0  0  0  0  0  0  0  0  0
  144.0874  130.2682  151.1635 H   0  0  0  0  0  0  0  0  0  0  0  0
  144.9070  130.7095  148.9588 H   0  0  0  0  0  0  0  0  0  0  0  0
  144.6340  133.5204  149.2277 H   0  0  0  0  0  0  0  0  0  0  0  0
  151.3240  142.0568  155.5491 H   0  0  0  0  0  0  0  0  0  0  0  0
  151.7435  140.5991  156.4509 H   0  0  0  0  0  0  0  0  0  0  0  0
  151.0595  141.9918  157.2924 H   0  0  0  0  0  0  0  0  0  0  0  0
  148.8623  141.6077  154.2549 H   0  0  0  0  0  0  0  0  0  0  0  0
  144.9930  140.0354  156.4506 H   0  0  0  0  0  0  0  0  0  0  0  0
  144.1681  140.5119  154.9723 H   0  0  0  0  0  0  0  0  0  0  0  0
  145.2255  141.6523  155.7983 H   0  0  0  0  0  0  0  0  0  0  0  0
  145.4198  140.9352  153.1978 H   0  0  0  0  0  0  0  0  0  0  0  0
  146.8072  138.3671  153.5103 H   0  0  0  0  0  0  0  0  0  0  0  0
  146.1485  137.9480  155.0757 H   0  0  0  0  0  0  0  0  0  0  0  0
  144.3682  139.2878  153.1361 H   0  0  0  0  0  0  0  0  0  0  0  0
  141.8767  135.5106  155.1390 H   0  0  0  0  0  0  0  0  0  0  0  0
  145.8729  134.7741  150.1460 H   0  0  0  0  0  0  0  0  0  0  0  0
  145.8574  129.4195  152.5345 H   0  0  0  0  0  0  0  0  0  0  0  0
  146.5347  129.3575  150.9221 H   0  0  0  0  0  0  0  0  0  0  0  0
  147.8944  130.8542  151.4060 H   0  0  0  0  0  0  0  0  0  0  0  0
  147.0761  131.2340  149.8446 H   0  0  0  0  0  0  0  0  0  0  0  0
  142.3830  132.9907  149.1732 H   0  0  0  0  0  0  0  0  0  0  0  0
  146.8151  137.8819  157.1079 H   0  0  0  0  0  0  0  0  0  0  0  0
  146.3717  139.2460  158.1367 H   0  0  0  0  0  0  0  0  0  0  0  0
  147.8799  138.3773  158.4218 H   0  0  0  0  0  0  0  0  0  0  0  0
  1  2  1  0  0  0  0
  1 35  1  0  0  0  0
  1 36  1  0  0  0  0
  1 37  1  0  0  0  0
  2 30  1  0  0  0  0
  2  3  2  0  0  0  0
  3  4  1  0  0  0  0
  3 38  1  0  0  0  0
  4  5  1  0  0  0  0
  4 28  2  0  0  0  0
  5  6  1  0  0  0  0
  5  7  1  0  0  0  0
  5  8  1  0  0  0  0
  6 39  1  0  0  0  0
  6 40  1  0  0  0  0
  6 41  1  0  0  0  0
  7 42  1  0  0  0  0
  8  9  1  0  0  0  0
  8 43  1  0  0  0  0
  8 44  1  0  0  0  0
  9 10  1  0  0  0  0
  9 45  1  0  0  0  0
 10 15  1  0  0  0  0
 10 11  2  0  0  0  0
 11 12  1  0  0  0  0
 12 13  2  0  0  0  0
 12 46  1  0  0  0  0
 13 14  1  0  0  0  0
 14 18  1  0  0  0  0
 14 15  2  0  0  0  0
 15 16  1  0  0  0  0
 16 17  2  0  0  0  0
 17 18  1  0  0  0  0
 17 47  1  0  0  0  0
 18 19  1  0  0  0  0
 19 31  1  0  0  0  0
 19 26  1  0  0  0  0
 19 20  1  0  0  0  0
 20 21  1  0  0  0  0
 21 32  1  0  0  0  0
 21 22  1  0  0  0  0
 21 24  1  0  0  0  0
 22 23  1  0  0  0  0
 22 48  1  0  0  0  0
 22 49  1  0  0  0  0
 23 50  1  0  0  0  0
 24 33  1  0  0  0  0
 24 25  1  0  0  0  0
 24 26  1  0  0  0  0
 25 51  1  0  0  0  0
 26 34  1  0  0  0  0
 26 27  1  0  0  0  0
 27 52  1  0  0  0  0
 28 29  1  0  0  0  0
 28 30  1  0  0  0  0
 29 53  1  0  0  0  0
 29 54  1  0  0  0  0
 29 55  1  0  0  0  0
M  END
> <s_m_source_file>
AV-unprocessed.smi

> <i_m_source_file_index>
287

> <i_lp_mmshare_version>
43012

> <i_f3d_flags>
0

> <s_epik_input>
W0NIM11jMVtjSF1jKGMobzEpW0NIM10pW0NAQF0oW0NIM10pKFtPSF0pW0NIMl1bTkhdYyhuW2NIXW4yKWMoYzIzKW5bY0hdbjNbQ0BASF00T1tDQEhdKFtDSDJdW09IXSlbQ0BASF0oW09IXSlbQ0BIXTRbT0hd

> <s_epik_cmdline>
J2VwaWtfcHl0aG9uJywgJy1waCcsICc3LjAnLCAnLXRuJywgJzgnLCAnLW1hJywgJzIwMCcsICctbWV0YWxfYmluZGluZycsICctaW1hZScsICc8aW5maWxlLm1hZT4nLCAnLW9tYWUnLCAnPG91dGZpbGUubWFlPic=

> <r_lp_tautomer_probability>
1

> <r_epik_Ionization_Penalty>
0.000992612

> <r_epik_Ionization_Penalty_Charging>
0

> <r_epik_Ionization_Penalty_Neutral>
0.000992612

> <r_epik_State_Penalty>
-0

> <r_epik_Charging_Adjusted_Penalty>
0

> <i_epik_Tot_Q>
0

> <i_epik_Tot_abs_Q>
0

> <r_epik_Metal_State_Penalty>
-0

> <b_epik_Metal_Only>
0

> <s_epik_Chemistry_Notes>
This compound contains an acetal/aminal-like group ( X-CH(R)-Y where X, Y are N, S, or O) that may be acid/base labile, releasing an aldehyde.

> <s_lp_Force_Field>
OPLS_2005

> <r_lp_Energy>
37.4731

> <b_lp_Chiralities_Consistent>
1

> <s_lp_Variant>
AV-unprocessed.smi:287-9

> <Gold.Version>
5.8.1

> <Gold.Id.Protein>
6NUR|6NUR_protein|mol2

> <Gold.PLP.Fitness>
58.2837

> <Gold.PLP.PLP>
-40.7305

> <Gold.PLP.part.hbond>
-6.6327

> <Gold.PLP.part.metal>
0.0000

> <Gold.PLP.part.buried>
-9.4951

> <Gold.PLP.part.nonpolar>
-27.2841

> <Gold.PLP.part.repulsive>
0.5857

> <Gold.PLP.ligand.clash>
0.0000

> <Gold.PLP.ligand.torsion>
1.8149

> <Gold.PLP.Chemscore.Hbond>
5.4968

> <Gold.PLP.Chemscore.CHOScore>
1.5354

> <Gold.PLP.Chemscore.Metal>
0.0000

> <Gold.Chemscore.Hbonds>
donor molecule, donor type, donor heavy atom, donor atom, acceptor molecule, acceptor atom, score
      L1  H     7    42       P1 10175  1.00
      L1  H     9    45       P1 10175  0.96
      L1  H    23    50       P1 10747  1.00
      L1  H    25    51       P1 10747  0.88
      L1  H    27    52       P1 10186  1.00
      P1  H 10785 10796       L1    27  0.63
      L1  C    12    46       P1 11000  0.73
      L1  C    17    47       P1  7921  1.00

> <Gold.PLP.Chemscore.Internal.Correction>
0.0867

> <Gold.Rescore>
     Score         DG    S(hbond)    S(metal)    S(lipo)     H(rot)  DE(clash)    DE(int)     intcor
     13.80     -15.91       4.56        0.00      74.27       5.27       0.28       1.83       ----

> <Gold.Chemscore.Fitness>
13.8014

> <Gold.Chemscore.DG>
-15.9089

> <Gold.Chemscore.ZeroCoef>
-5.4800

> <Gold.Chemscore.Hbond>
4.5578

> <Gold.Chemscore.Metal>
0.0000

> <Gold.Chemscore.Lipo>
74.2708

> <Gold.Chemscore.Internal_Hbond>
0.0000

> <Gold.Chemscore.DEClash>
0.2823

> <Gold.Chemscore.DEInternal>
1.8252

> <Gold.Chemscore.Rot>
5.2672

> <Gold.Chemscore.Internal.Correction>
   9.000000E+99

> <Gold.Chemscore.Hbonds>
donor molecule, donor type, donor heavy atom, donor atom, acceptor molecule, acceptor atom, score
      L1  H     7    42       P1 10175  0.50
      L1  H     9    45       P1 10175  0.91
      L1  H    23    50       P1 10747  0.96
      L1  H    25    51       P1 10747  0.85
      L1  H    27    52       P1 10186  0.95
      P1  H 10785 10796       L1    27  0.29

> <Gold.Chemscore.Hbond.Weighted>
-15.2231

> <Gold.Chemscore.Metal.Weighted>
-0.0000

> <Gold.Chemscore.Lipo.Weighted>
-8.6897

> <Gold.Chemscore.Internal_Hbond.Weighted>
0.0000

> <Gold.Chemscore.DEClash.Weighted>
0.2823

> <Gold.Chemscore.DEInternal.Weighted>
1.8252

> <Gold.Chemscore.Rot.Weighted>
13.4839

> <Gold.Chemscore.Internal.Correction.Weighted>
   9.000000E+99

> <Gold.Protein.RotatedTorsions>
[ 6907 6896 6895 6894 ] final   49.26 input  -60.11 | X-H torsion
[ 7974 7965 7964 7962 ] final -152.20 input  175.53 | X-H torsion
[ 8008 7997 7996 7995 ] final   79.36 input   59.86 | X-H torsion
[ 10167 10162 10161 10158 ] final -149.78 input  -65.29 | X-H torsion
[ 10718 10713 10712 10709 ] final   59.23 input   66.30 | X-H torsion
[ 10763 10752 10751 10750 ] final   22.96 input  -60.55 | X-H torsion
[ 11005 11000 10999 10996 ] final -178.50 input  -57.11 | X-H torsion

> <Gold.Protein.ActiveResidues>
 VAL166  LYS551  ARG553  GLY616  TRP617  ASP618  TYR619  PRO620  LYS621  CYS622 
 ASP623  PHE694  ASN695  SER759  ASP760  ASP761  ALA762  ILE779  LEU786  VAL792 
 PHE793  MET794  SER795  GLU796  ALA797  LYS798  CYS799  TRP800  GLU811  SER814 

> <Gold.Protein.RotatedAtoms>
  152.2888  134.7745  160.0381 H   0  0  0  0  0  0  0  0  0  0  0  0  # atno 6907 bound_to 6896
  151.8299  133.3402  159.3618 H   0  0  0  0  0  0  0  0  0  0  0  0  # atno 6908 bound_to 6896
  150.7221  134.5422  159.5797 H   0  0  0  0  0  0  0  0  0  0  0  0  # atno 6909 bound_to 6896
  144.7807  140.4694  143.5841 H   0  0  0  0  0  0  0  0  0  0  0  0  # atno 7974 bound_to 7965
  155.8686  140.3450  155.5805 H   0  0  0  0  0  0  0  0  0  0  0  0  # atno 8008 bound_to 7997
  155.7853  140.0864  157.2057 H   0  0  0  0  0  0  0  0  0  0  0  0  # atno 8009 bound_to 7997
  154.4016  140.1493  156.3087 H   0  0  0  0  0  0  0  0  0  0  0  0  # atno 8010 bound_to 7997
  139.7412  143.8659  152.2563 H   0  0  0  0  0  0  0  0  0  0  0  0  # atno 10167 bound_to 10162
  157.5659  130.8871  149.9187 H   0  0  0  0  0  0  0  0  0  0  0  0  # atno 10718 bound_to 10713
  153.0875  135.6637  153.9920 H   0  0  0  0  0  0  0  0  0  0  0  0  # atno 10763 bound_to 10752
  153.9526  135.2982  155.3439 H   0  0  0  0  0  0  0  0  0  0  0  0  # atno 10764 bound_to 10752
  154.7285  135.5133  153.8998 H   0  0  0  0  0  0  0  0  0  0  0  0  # atno 10765 bound_to 10752
  140.4290  134.6536  157.4702 H   0  0  0  0  0  0  0  0  0  0  0  0  # atno 11005 bound_to 11000
  145.6059  139.1508  143.3103 LP  0  0  0  0  0  0  0  0  0  0  0  0  # atno 17320 bound_to 7965
  146.2013  140.6177  142.9101 LP  0  0  0  0  0  0  0  0  0  0  0  0  # atno 17321 bound_to 7965
  139.8610  144.7117  150.9099 LP  0  0  0  0  0  0  0  0  0  0  0  0  # atno 17342 bound_to 10162
  140.7786  143.3817  151.1465 LP  0  0  0  0  0  0  0  0  0  0  0  0  # atno 17343 bound_to 10162
  156.0707  130.3685  150.0781 LP  0  0  0  0  0  0  0  0  0  0  0  0  # atno 17370 bound_to 10713
  156.8940  130.9598  151.3585 LP  0  0  0  0  0  0  0  0  0  0  0  0  # atno 17371 bound_to 10713
  140.0147  134.6637  155.9327 LP  0  0  0  0  0  0  0  0  0  0  0  0  # atno 17394 bound_to 11000
  141.1753  133.6540  156.4806 LP  0  0  0  0  0  0  0  0  0  0  0  0  # atno 17395 bound_to 11000

$$$$
