AV-unprocessed.smi:2573|AV-procd|sdf|10113|dock3
  -GOLD-   2272014133D 1   1.00000     0.00000
 Structure written by MMmdl.
 38 39  0  0  0  0  0  0  0  0  1 V2000
  155.4957  139.4739  162.5940 C   0  0  0  0  0  0  0  0  0  0  0  0
  155.1278  140.2012  161.2967 C   0  0  0  0  0  0  0  0  0  0  0  0
  153.8297  139.6669  160.6717 C   0  0  0  0  0  0  0  0  0  0  0  0
  153.1413  140.7067  159.9110 N   0  0  0  0  0  0  0  0  0  0  0  0
  152.7211  140.6243  158.6268 C   0  0  0  0  0  0  0  0  0  0  0  0
  152.8578  139.6539  157.8822 O   0  0  0  0  0  0  0  0  0  0  0  0
  152.1192  141.7939  158.3048 N   0  0  0  0  0  0  0  0  0  0  0  0
  151.5119  142.1302  157.0169 C   0  0  0  0  0  0  0  0  0  0  0  0
  150.1639  141.4136  156.7950 C   0  0  1  0  0  0  0  0  0  0  0  0
  149.6511  141.8620  155.5570 O   0  0  0  0  0  0  0  0  0  0  0  0
  150.2831  139.8732  156.7825 C   0  0  0  0  0  0  0  0  0  0  0  0
  150.8362  139.2821  155.4733 C   0  0  0  0  0  0  0  0  0  0  0  0
  152.0730  139.7389  155.2802 F   0  0  0  0  0  0  0  0  0  0  0  0
  150.8824  137.9521  155.5492 F   0  0  0  0  0  0  0  0  0  0  0  0
  150.0884  139.6366  154.4285 F   0  0  0  0  0  0  0  0  0  0  0  0
  152.1452  142.6452  159.4202 C   0  0  0  0  0  0  0  0  0  0  0  0
  151.6601  143.9526  159.6012 C   0  0  0  0  0  0  0  0  0  0  0  0
  151.8506  144.5436  160.8722 C   0  0  0  0  0  0  0  0  0  0  0  0
  152.5047  143.8349  161.9130 C   0  0  0  0  0  0  0  0  0  0  0  0
  152.9858  142.5214  161.7037 C   0  0  0  0  0  0  0  0  0  0  0  0
  152.7868  141.9595  160.4305 C   0  0  0  0  0  0  0  0  0  0  0  0
  156.4197  139.8718  163.0140 H   0  0  0  0  0  0  0  0  0  0  0  0
  155.6421  138.4079  162.4189 H   0  0  0  0  0  0  0  0  0  0  0  0
  154.7130  139.5868  163.3444 H   0  0  0  0  0  0  0  0  0  0  0  0
  155.0262  141.2681  161.4997 H   0  0  0  0  0  0  0  0  0  0  0  0
  155.9479  140.0993  160.5849 H   0  0  0  0  0  0  0  0  0  0  0  0
  154.0459  138.8223  160.0168 H   0  0  0  0  0  0  0  0  0  0  0  0
  153.1703  139.2817  161.4512 H   0  0  0  0  0  0  0  0  0  0  0  0
  151.3635  143.2110  156.9832 H   0  0  0  0  0  0  0  0  0  0  0  0
  152.2004  141.9029  156.2029 H   0  0  0  0  0  0  0  0  0  0  0  0
  149.4634  141.7196  157.5726 H   0  0  0  0  0  0  0  0  0  0  0  0
  149.4605  142.7854  155.6263 H   0  0  0  0  0  0  0  0  0  0  0  0
  150.8949  139.5448  157.6239 H   0  0  0  0  0  0  0  0  0  0  0  0
  149.2969  139.4376  156.9438 H   0  0  0  0  0  0  0  0  0  0  0  0
  151.1644  144.4908  158.8071 H   0  0  0  0  0  0  0  0  0  0  0  0
  151.4932  145.5466  161.0526 H   0  0  0  0  0  0  0  0  0  0  0  0
  152.6383  144.3043  162.8765 H   0  0  0  0  0  0  0  0  0  0  0  0
  153.4844  141.9774  162.4920 H   0  0  0  0  0  0  0  0  0  0  0  0
  1  2  1  0  0  0  0
  1 22  1  0  0  0  0
  1 23  1  0  0  0  0
  1 24  1  0  0  0  0
  2  3  1  0  0  0  0
  2 25  1  0  0  0  0
  2 26  1  0  0  0  0
  3  4  1  0  0  0  0
  3 27  1  0  0  0  0
  3 28  1  0  0  0  0
  4 21  1  0  0  0  0
  4  5  1  0  0  0  0
  5  6  2  0  0  0  0
  5  7  1  0  0  0  0
  7  8  1  0  0  0  0
  7 16  1  0  0  0  0
  8  9  1  0  0  0  0
  8 29  1  0  0  0  0
  8 30  1  0  0  0  0
  9 10  1  0  0  0  0
  9 11  1  0  0  0  0
  9 31  1  0  0  0  0
 10 32  1  0  0  0  0
 11 12  1  0  0  0  0
 11 33  1  0  0  0  0
 11 34  1  0  0  0  0
 12 13  1  0  0  0  0
 12 14  1  0  0  0  0
 12 15  1  0  0  0  0
 16 21  2  0  0  0  0
 16 17  1  0  0  0  0
 17 18  2  0  0  0  0
 17 35  1  0  0  0  0
 18 19  1  0  0  0  0
 18 36  1  0  0  0  0
 19 20  2  0  0  0  0
 19 37  1  0  0  0  0
 20 21  1  0  0  0  0
 20 38  1  0  0  0  0
M  END
> <s_m_source_file>
AV-unprocessed.smi

> <i_m_source_file_index>
2573

> <i_lp_mmshare_version>
43012

> <i_f3d_flags>
0

> <s_epik_input>
W2NIXTFbY0hdW2NIXVtjSF1jKGMxMiluKFtDSDJdW0NIMl1bQ0gzXSljKD1PKW4yW0NIMl1bQ0BIXShbT0hdKVtDSDJdQyhGKShGKUY=

> <s_epik_cmdline>
J2VwaWtfcHl0aG9uJywgJy1waCcsICc3LjAnLCAnLXRuJywgJzgnLCAnLW1hJywgJzIwMCcsICctbWV0YWxfYmluZGluZycsICctaW1hZScsICc8aW5maWxlLm1hZT4nLCAnLW9tYWUnLCAnPG91dGZpbGUubWFlPic=

> <r_lp_tautomer_probability>
1

> <r_epik_Ionization_Penalty>
2.4024e-06

> <r_epik_Ionization_Penalty_Charging>
3.10219e-09

> <r_epik_Ionization_Penalty_Neutral>
2.3993e-06

> <r_epik_State_Penalty>
-0

> <r_epik_Charging_Adjusted_Penalty>
3.10219e-09

> <i_epik_Tot_Q>
0

> <i_epik_Tot_abs_Q>
0

> <r_epik_Metal_State_Penalty>
-0

> <b_epik_Metal_Only>
0

> <s_lp_Force_Field>
OPLS_2005

> <r_lp_Energy>
39.6684

> <b_lp_Chiralities_Consistent>
1

> <s_lp_Variant>
AV-unprocessed.smi:2573-2

> <Gold.Version>
5.8.1

> <Gold.Id.Protein>
6NUR|6NUR_protein|mol2

> <Gold.PLP.Fitness>
52.5519

> <Gold.PLP.PLP>
-47.5588

> <Gold.PLP.part.hbond>
-2.0000

> <Gold.PLP.part.metal>
0.0000

> <Gold.PLP.part.buried>
-3.6031

> <Gold.PLP.part.nonpolar>
-41.2829

> <Gold.PLP.part.repulsive>
0.0000

> <Gold.PLP.ligand.clash>
0.0000

> <Gold.PLP.ligand.torsion>
0.5534

> <Gold.PLP.Chemscore.Hbond>
2.0000

> <Gold.PLP.Chemscore.CHOScore>
0.0000

> <Gold.PLP.Chemscore.Metal>
0.0000

> <Gold.Chemscore.Hbonds>
donor molecule, donor type, donor heavy atom, donor atom, acceptor molecule, acceptor atom, score
      L1  H    10    32       P1  8028  1.00
      P1  H  7997  8010       L1     6  1.00

> <Gold.PLP.Chemscore.Internal.Correction>
0.0999

> <Gold.Rescore>
     Score         DG    S(hbond)    S(metal)    S(lipo)     H(rot)  DE(clash)    DE(int)     intcor
     13.91     -17.91       1.84        0.00     107.98       2.48       0.05       3.95       ----

> <Gold.Chemscore.Fitness>
13.9098

> <Gold.Chemscore.DG>
-17.9063

> <Gold.Chemscore.ZeroCoef>
-5.4800

> <Gold.Chemscore.Hbond>
1.8395

> <Gold.Chemscore.Metal>
0.0000

> <Gold.Chemscore.Lipo>
107.9848

> <Gold.Chemscore.Internal_Hbond>
0.0000

> <Gold.Chemscore.DEClash>
0.0469

> <Gold.Chemscore.DEInternal>
3.9496

> <Gold.Chemscore.Rot>
2.4812

> <Gold.Chemscore.Internal.Correction>
   9.000000E+99

> <Gold.Chemscore.Hbonds>
donor molecule, donor type, donor heavy atom, donor atom, acceptor molecule, acceptor atom, score
      L1  H    10    32       P1  8028  0.94
      P1  H  7997  8010       L1     6  0.44

> <Gold.Chemscore.Hbond.Weighted>
-6.1439

> <Gold.Chemscore.Metal.Weighted>
-0.0000

> <Gold.Chemscore.Lipo.Weighted>
-12.6342

> <Gold.Chemscore.Internal_Hbond.Weighted>
0.0000

> <Gold.Chemscore.DEClash.Weighted>
0.0469

> <Gold.Chemscore.DEInternal.Weighted>
3.9496

> <Gold.Chemscore.Rot.Weighted>
6.3518

> <Gold.Chemscore.Internal.Correction.Weighted>
   9.000000E+99

> <Gold.Protein.RotatedTorsions>
[ 6907 6896 6895 6894 ] final    0.19 input  -60.11 | X-H torsion
[ 7974 7965 7964 7962 ] final  -26.30 input  175.53 | X-H torsion
[ 8008 7997 7996 7995 ] final   45.15 input   59.86 | X-H torsion
[ 10167 10162 10161 10158 ] final  -96.45 input  -65.29 | X-H torsion
[ 10718 10713 10712 10709 ] final  -40.97 input   66.30 | X-H torsion
[ 10763 10752 10751 10750 ] final   75.98 input  -60.55 | X-H torsion
[ 11005 11000 10999 10996 ] final   43.44 input  -57.11 | X-H torsion

> <Gold.Protein.ActiveResidues>
 VAL166  LYS551  ARG553  GLY616  TRP617  ASP618  TYR619  PRO620  LYS621  CYS622 
 ASP623  PHE694  ASN695  SER759  ASP760  ASP761  ALA762  ILE779  LEU786  VAL792 
 PHE793  MET794  SER795  GLU796  ALA797  LYS798  CYS799  TRP800  GLU811  SER814 

> <Gold.Protein.RotatedAtoms>
  151.5724  135.1062  159.9998 H   0  0  0  0  0  0  0  0  0  0  0  0  # atno 6907 bound_to 6896
  152.4394  133.7416  159.6655 H   0  0  0  0  0  0  0  0  0  0  0  0  # atno 6908 bound_to 6896
  150.8297  133.8043  159.3127 H   0  0  0  0  0  0  0  0  0  0  0  0  # atno 6909 bound_to 6896
  146.1434  140.5001  142.8642 H   0  0  0  0  0  0  0  0  0  0  0  0  # atno 7974 bound_to 7965
  155.3311  140.3402  155.4239 H   0  0  0  0  0  0  0  0  0  0  0  0  # atno 8008 bound_to 7997
  156.1861  140.1681  156.8219 H   0  0  0  0  0  0  0  0  0  0  0  0  # atno 8009 bound_to 7997
  154.5388  140.0729  156.8456 H   0  0  0  0  0  0  0  0  0  0  0  0  # atno 8010 bound_to 7997
  140.2936  143.3206  152.0320 H   0  0  0  0  0  0  0  0  0  0  0  0  # atno 10167 bound_to 10162
  156.2754  130.4211  149.8393 H   0  0  0  0  0  0  0  0  0  0  0  0  # atno 10718 bound_to 10713
  153.0693  135.4968  154.8269 H   0  0  0  0  0  0  0  0  0  0  0  0  # atno 10763 bound_to 10752
  154.6999  135.3000  154.9358 H   0  0  0  0  0  0  0  0  0  0  0  0  # atno 10764 bound_to 10752
  154.0086  135.6757  153.4816 H   0  0  0  0  0  0  0  0  0  0  0  0  # atno 10765 bound_to 10752
  140.1645  134.4300  155.8296 H   0  0  0  0  0  0  0  0  0  0  0  0  # atno 11005 bound_to 11000
  144.7819  140.5857  143.6600 LP  0  0  0  0  0  0  0  0  0  0  0  0  # atno 17320 bound_to 7965
  145.4993  139.1484  143.3666 LP  0  0  0  0  0  0  0  0  0  0  0  0  # atno 17321 bound_to 7965
  139.4932  144.6507  151.6682 LP  0  0  0  0  0  0  0  0  0  0  0  0  # atno 17342 bound_to 10162
  140.5711  144.0107  150.6217 LP  0  0  0  0  0  0  0  0  0  0  0  0  # atno 17343 bound_to 10162
  156.5859  130.8485  151.3395 LP  0  0  0  0  0  0  0  0  0  0  0  0  # atno 17370 bound_to 10713
  157.7297  130.9675  150.1802 LP  0  0  0  0  0  0  0  0  0  0  0  0  # atno 17371 bound_to 10713
  141.2212  133.6928  156.7653 LP  0  0  0  0  0  0  0  0  0  0  0  0  # atno 17394 bound_to 11000
  140.2450  134.8584  157.3612 LP  0  0  0  0  0  0  0  0  0  0  0  0  # atno 17395 bound_to 11000

$$$$
