#       Name:                AV-unprocessed.smi:3105
#       Creating user name   scv26
#       Creation time:       Fri Mar 27 17:19:12 2020


#       File generated by GOLD software.
#

@<TRIPOS>MOLECULE
AV-unprocessed.smi:3105
    37    37     1
SMALL
NO_CHARGES


@<TRIPOS>ATOM
      1 ****        -1.6930  -0.7970  -1.8689 C.3            1 S1                 0.0000
      2 ****        -1.2164  -0.1596  -0.5490 C.3            1 S1                 0.0000
      3 ****         0.2378   0.1172  -0.6197 N.4            1 S1                 1.0000
      4 ****         0.6194   1.3362  -1.3669 C.3            1 S1                 0.0000
      5 ****         2.1455   1.5533  -1.3711 C.3            1 S1                 0.0000
      6 ****         2.9388   0.4954  -2.1509 C.2            1 S1                 0.0000
      7 ****         4.2586   0.6787  -2.2304 N.am           1 S1                 0.0000
      8 ****         2.3819  -0.4695  -2.6722 O.2            1 S1                 0.0000
      9 ****        -1.5218  -1.0545   0.6840 C.3            1 S1                 0.0000
     10 ****        -3.0245  -1.3274   0.8828 C.3            1 S1                 0.0000
     11 ****        -0.9655  -0.4953   1.9119 N.pl3          1 S1                 0.0000
     12 ****        -0.1536  -1.1160   2.8390 C.2            1 S1                 0.0000
     13 ****         0.0999  -0.2128   3.8311 C.2            1 S1                 0.0000
     14 ****        -0.6194   0.9455   3.4262 C.2            1 S1                 0.0000
     15 ****        -1.2575   0.7731   2.2803 N.2            1 S1                 0.0000
     16 ****        -2.7730  -0.9395  -1.8800 H              1 S1                 0.0000
     17 ****        -1.2263  -1.7690  -2.0308 H              1 S1                 0.0000
     18 ****        -1.4573  -0.1715  -2.7294 H              1 S1                 0.0000
     19 ****        -1.7374   0.7904  -0.4191 H              1 S1                 0.0000
     20 ****         0.5688   0.2349   0.3275 H              1 S1                 0.0000
     21 ****         0.2497   1.2853  -2.3911 H              1 S1                 0.0000
     22 ****         0.1363   2.1964  -0.9023 H              1 S1                 0.0000
     23 ****         2.3629   2.5274  -1.8114 H              1 S1                 0.0000
     24 ****         2.5172   1.5888  -0.3460 H              1 S1                 0.0000
     25 ****         4.8349   0.0133  -2.7255 H              1 S1                 0.0000
     26 ****         4.6803   1.4833  -1.7882 H              1 S1                 0.0000
     27 ****        -1.0327  -2.0176   0.5291 H              1 S1                 0.0000
     28 ****        -3.4435  -1.9083   0.0619 H              1 S1                 0.0000
     29 ****        -3.5916  -0.3993   0.9615 H              1 S1                 0.0000
     30 ****        -3.1990  -1.8994   1.7948 H              1 S1                 0.0000
     31 ****         0.1739  -2.1382   2.7179 H              1 S1                 0.0000
     32 ****         0.7020  -0.3593   4.7155 H              1 S1                 0.0000
     33 ****        -0.6977   1.8988   3.9281 H              1 S1                 0.0000
     34 ****         0.7040  -0.6820  -1.0255 H              1 S1                 0.0000
     35 ****         1.3909  -0.5778  -2.5929 LP             1 S1                 0.0000
     36 ****         2.9201  -1.1457  -3.1752 LP             1 S1                 0.0000
     37 ****        -1.8291   1.4340   1.7941 LP             1 S1                 0.0000
@<TRIPOS>BOND
    1    1    2 1     
    2    1   16 1     
    3    1   17 1     
    4    1   18 1     
    5    2    3 1     
    6    2    9 1     
    7    2   19 1     
    8    3    4 1     
    9    3   20 1     
   10    3   34 1     
   11    4    5 1     
   12    4   21 1     
   13    4   22 1     
   14    5    6 1     
   15    5   23 1     
   16    5   24 1     
   17    6    7 am    
   18    6    8 2     
   19    7   25 1     
   20    7   26 1     
   21    9   10 1     
   22    9   11 1     
   23    9   27 1     
   24   10   28 1     
   25   10   29 1     
   26   10   30 1     
   27   11   15 1     
   28   11   12 1     
   29   12   13 2     
   30   12   31 1     
   31   13   14 1     
   32   13   32 1     
   33   14   15 2     
   34   14   33 1     
   35    8   35 1     
   36    8   36 1     
   37   15   37 1     
@<TRIPOS>SUBSTRUCTURE
      1 S1             1
@<TRIPOS>SET
LONE_PAIRS      STATIC     ATOMS    <user>   **** ""
3 35 36 37
DONOR_HYDROGENS      STATIC     ATOMS    <user>   **** ""
4 20 34 25 26
ATOM$BLUE        STATIC     ATOMS    COLORGROUP SYSTEM
3 35 36 37
ATOM$RED        STATIC     ATOMS    COLORGROUP SYSTEM
4 20 34 25 26
