AV-unprocessed.smi:739|AV-procd|sdf|3545|dock7
  -GOLD-   22720 0543D 1   1.00000     0.00000
 Structure written by MMmdl.
 33 35  0  0  0  0  0  0  0  0  2 V2000
  150.3477  140.2421  154.1693 O   0  0  0  0  0  0  0  0  0  0  0  0
  149.7826  140.6140  155.4119 C   0  0  1  0  0  0  0  0  0  0  0  0
  150.7092  141.6204  156.1223 C   0  0  0  0  0  0  0  0  0  0  0  0
  151.5266  140.9999  157.1728 N   0  0  0  0  0  0  0  0  0  0  0  0
  152.1650  139.7984  157.1892 C   0  0  0  0  0  0  0  0  0  0  0  0
  152.7878  139.6815  158.3951 N   0  3  0  0  0  0  0  0  0  0  0  0
  152.5429  140.8248  159.1595 C   0  0  0  0  0  0  0  0  0  0  0  0
  152.9572  141.1724  160.4414 C   0  0  0  0  0  0  0  0  0  0  0  0
  152.5268  142.4236  160.9307 C   0  0  0  0  0  0  0  0  0  0  0  0
  152.9027  142.8123  162.1720 F   0  0  0  0  0  0  0  0  0  0  0  0
  151.7142  143.2762  160.1531 C   0  0  0  0  0  0  0  0  0  0  0  0
  151.3232  144.4690  160.6611 F   0  0  0  0  0  0  0  0  0  0  0  0
  151.2998  142.9124  158.8548 C   0  0  0  0  0  0  0  0  0  0  0  0
  151.7319  141.6754  158.3796 C   0  0  0  0  0  0  0  0  0  0  0  0
  148.3758  141.1709  155.2627 C   0  0  0  0  0  0  0  0  0  0  0  0
  147.6031  141.4482  156.4110 C   0  0  0  0  0  0  0  0  0  0  0  0
  146.3023  141.9727  156.2822 C   0  0  0  0  0  0  0  0  0  0  0  0
  145.7675  142.2259  155.0044 C   0  0  0  0  0  0  0  0  0  0  0  0
  144.5171  142.7303  154.8814 F   0  0  0  0  0  0  0  0  0  0  0  0
  146.5349  141.9555  153.8551 C   0  0  0  0  0  0  0  0  0  0  0  0
  147.8354  141.4301  153.9834 C   0  0  0  0  0  0  0  0  0  0  0  0
  149.6819  139.8105  153.6554 H   0  0  0  0  0  0  0  0  0  0  0  0
  149.7254  139.7034  156.0095 H   0  0  0  0  0  0  0  0  0  0  0  0
  151.3915  142.0818  155.4068 H   0  0  0  0  0  0  0  0  0  0  0  0
  150.1343  142.4330  156.5685 H   0  0  0  0  0  0  0  0  0  0  0  0
  152.1724  139.0689  156.3917 H   0  0  0  0  0  0  0  0  0  0  0  0
  153.5786  140.5225  161.0399 H   0  0  0  0  0  0  0  0  0  0  0  0
  150.6773  143.5715  158.2682 H   0  0  0  0  0  0  0  0  0  0  0  0
  148.0048  141.2606  157.3962 H   0  0  0  0  0  0  0  0  0  0  0  0
  145.7149  142.1820  157.1641 H   0  0  0  0  0  0  0  0  0  0  0  0
  146.1265  142.1521  152.8749 H   0  0  0  0  0  0  0  0  0  0  0  0
  148.4171  141.2293  153.0955 H   0  0  0  0  0  0  0  0  0  0  0  0
  153.3380  138.8783  158.6722 H   0  0  0  0  0  0  0  0  0  0  0  0
  1  2  1  0  0  0  0
  1 22  1  0  0  0  0
  2  3  1  0  0  0  0
  2 15  1  0  0  0  0
  2 23  1  0  0  0  0
  3  4  1  0  0  0  0
  3 24  1  0  0  0  0
  3 25  1  0  0  0  0
  4 14  1  0  0  0  0
  4  5  1  0  0  0  0
  5  6  2  0  0  0  0
  5 26  1  0  0  0  0
  6  7  1  0  0  0  0
  6 33  1  0  0  0  0
  7 14  2  0  0  0  0
  7  8  1  0  0  0  0
  8  9  2  0  0  0  0
  8 27  1  0  0  0  0
  9 10  1  0  0  0  0
  9 11  1  0  0  0  0
 11 12  1  0  0  0  0
 11 13  2  0  0  0  0
 13 14  1  0  0  0  0
 13 28  1  0  0  0  0
 15 21  1  0  0  0  0
 15 16  2  0  0  0  0
 16 17  1  0  0  0  0
 16 29  1  0  0  0  0
 17 18  2  0  0  0  0
 17 30  1  0  0  0  0
 18 19  1  0  0  0  0
 18 20  1  0  0  0  0
 20 21  2  0  0  0  0
 20 31  1  0  0  0  0
 21 32  1  0  0  0  0
M  CHG  1   6   1
M  END
> <s_m_source_file>
AV-unprocessed.smi

> <i_m_source_file_index>
739

> <i_lp_mmshare_version>
43012

> <i_f3d_flags>
0

> <s_epik_input>
W2NIXTFbY0hdYyhGKVtjSF1bY0hdYzFbQ0BIXShbT0hdKVtDSDJdbihbY0hdbjIpYyhjMjMpW2NIXWMoRiljKEYpW2NIXTM=

> <s_epik_cmdline>
J2VwaWtfcHl0aG9uJywgJy1waCcsICc3LjAnLCAnLXRuJywgJzgnLCAnLW1hJywgJzIwMCcsICctbWV0YWxfYmluZGluZycsICctaW1hZScsICc8aW5maWxlLm1hZT4nLCAnLW9tYWUnLCAnPG91dGZpbGUubWFlPic=

> <r_epik_Ionization_Penalty>
2.16139

> <r_epik_Ionization_Penalty_Charging>
2.16138

> <r_epik_Ionization_Penalty_Neutral>
1.79538e-06

> <r_epik_State_Penalty>
2.30198

> <r_epik_Charging_Adjusted_Penalty>
4.46337

> <i_epik_Tot_Q>
1

> <i_epik_Tot_abs_Q>
1

> <r_epik_Metal_State_Penalty>
6.38245

> <b_epik_Metal_Only>
0

> <s_lp_Force_Field>
OPLS_2005

> <r_lp_Energy>
14.9103

> <b_lp_Chiralities_Consistent>
1

> <s_lp_Variant>
AV-unprocessed.smi:739-4

> <Gold.Version>
5.8.1

> <Gold.Id.Protein>
6NUR|6NUR_protein|mol2

> <Gold.PLP.Fitness>
51.2724

> <Gold.PLP.PLP>
-50.1841

> <Gold.PLP.part.hbond>
-1.6737

> <Gold.PLP.part.metal>
0.0000

> <Gold.PLP.part.buried>
-7.0651

> <Gold.PLP.part.nonpolar>
-40.8521

> <Gold.PLP.part.repulsive>
0.0953

> <Gold.PLP.ligand.clash>
0.0000

> <Gold.PLP.ligand.torsion>
0.9663

> <Gold.PLP.Chemscore.Hbond>
1.0000

> <Gold.PLP.Chemscore.CHOScore>
0.0000

> <Gold.PLP.Chemscore.Metal>
0.0000

> <Gold.Chemscore.Hbonds>
donor molecule, donor type, donor heavy atom, donor atom, acceptor molecule, acceptor atom, score
      P1  H  7989  7998       L1     1  1.00

> <Gold.PLP.Chemscore.Internal.Correction>
0.0210

> <Gold.Rescore>
     Score         DG    S(hbond)    S(metal)    S(lipo)     H(rot)  DE(clash)    DE(int)     intcor
     13.52     -14.40       0.96        0.00      95.24       2.12       0.04       0.84       ----

> <Gold.Chemscore.Fitness>
13.5170

> <Gold.Chemscore.DG>
-14.3956

> <Gold.Chemscore.ZeroCoef>
-5.4800

> <Gold.Chemscore.Hbond>
0.9561

> <Gold.Chemscore.Metal>
0.0000

> <Gold.Chemscore.Lipo>
95.2422

> <Gold.Chemscore.Internal_Hbond>
0.0000

> <Gold.Chemscore.DEClash>
0.0427

> <Gold.Chemscore.DEInternal>
0.8359

> <Gold.Chemscore.Rot>
2.1176

> <Gold.Chemscore.Internal.Correction>
   9.000000E+99

> <Gold.Chemscore.Hbonds>
donor molecule, donor type, donor heavy atom, donor atom, acceptor molecule, acceptor atom, score
      L1  H     1    22       P1  7957  0.01
      P1  H  7989  7998       L1     1  0.91

> <Gold.Chemscore.Hbond.Weighted>
-3.1933

> <Gold.Chemscore.Metal.Weighted>
-0.0000

> <Gold.Chemscore.Lipo.Weighted>
-11.1433

> <Gold.Chemscore.Internal_Hbond.Weighted>
0.0000

> <Gold.Chemscore.DEClash.Weighted>
0.0427

> <Gold.Chemscore.DEInternal.Weighted>
0.8359

> <Gold.Chemscore.Rot.Weighted>
5.4211

> <Gold.Chemscore.Internal.Correction.Weighted>
   9.000000E+99

> <Gold.Protein.RotatedTorsions>
[ 6907 6896 6895 6894 ] final -179.50 input  -60.11 | X-H torsion
[ 7974 7965 7964 7962 ] final  127.52 input  175.53 | X-H torsion
[ 8008 7997 7996 7995 ] final  -98.35 input   59.86 | X-H torsion
[ 10167 10162 10161 10158 ] final  -19.56 input  -65.29 | X-H torsion
[ 10718 10713 10712 10709 ] final  160.11 input   66.30 | X-H torsion
[ 10763 10752 10751 10750 ] final  -58.45 input  -60.55 | X-H torsion
[ 11005 11000 10999 10996 ] final   35.44 input  -57.11 | X-H torsion

> <Gold.Protein.ActiveResidues>
 VAL166  LYS551  ARG553  GLY616  TRP617  ASP618  TYR619  PRO620  LYS621  CYS622 
 ASP623  PHE694  ASN695  SER759  ASP760  ASP761  ALA762  ILE779  LEU786  VAL792 
 PHE793  MET794  SER795  GLU796  ALA797  LYS798  CYS799  TRP800  GLU811  SER814 

> <Gold.Protein.RotatedAtoms>
  151.6544  133.3319  159.3159 H   0  0  0  0  0  0  0  0  0  0  0  0  # atno 6907 bound_to 6896
  150.7944  134.6996  159.6552 H   0  0  0  0  0  0  0  0  0  0  0  0  # atno 6908 bound_to 6896
  152.4029  134.6260  160.0114 H   0  0  0  0  0  0  0  0  0  0  0  0  # atno 6909 bound_to 6896
  145.0497  139.3893  143.5060 H   0  0  0  0  0  0  0  0  0  0  0  0  # atno 7974 bound_to 7965
  154.8000  140.0456  157.1266 H   0  0  0  0  0  0  0  0  0  0  0  0  # atno 8008 bound_to 7997
  154.9490  140.3062  155.5064 H   0  0  0  0  0  0  0  0  0  0  0  0  # atno 8009 bound_to 7997
  156.2960  140.2291  156.4566 H   0  0  0  0  0  0  0  0  0  0  0  0  # atno 8010 bound_to 7997
  140.7269  143.4807  151.0121 H   0  0  0  0  0  0  0  0  0  0  0  0  # atno 10167 bound_to 10162
  157.1549  131.0573  151.2261 H   0  0  0  0  0  0  0  0  0  0  0  0  # atno 10718 bound_to 10713
  154.2382  135.6348  153.5198 H   0  0  0  0  0  0  0  0  0  0  0  0  # atno 10763 bound_to 10752
  152.9935  135.5536  154.5939 H   0  0  0  0  0  0  0  0  0  0  0  0  # atno 10764 bound_to 10752
  154.5438  135.2896  155.1046 H   0  0  0  0  0  0  0  0  0  0  0  0  # atno 10765 bound_to 10752
  140.2426  134.3397  155.7920 H   0  0  0  0  0  0  0  0  0  0  0  0  # atno 11005 bound_to 11000
  146.3517  140.0141  142.8664 LP  0  0  0  0  0  0  0  0  0  0  0  0  # atno 17320 bound_to 7965
  145.1543  140.9639  143.4415 LP  0  0  0  0  0  0  0  0  0  0  0  0  # atno 17321 bound_to 7965
  139.8506  143.7444  152.3178 LP  0  0  0  0  0  0  0  0  0  0  0  0  # atno 17342 bound_to 10162
  139.7624  144.7502  151.0344 LP  0  0  0  0  0  0  0  0  0  0  0  0  # atno 17343 bound_to 10162
  157.4186  130.7425  149.6895 LP  0  0  0  0  0  0  0  0  0  0  0  0  # atno 17370 bound_to 10713
  155.9764  130.4076  150.3784 LP  0  0  0  0  0  0  0  0  0  0  0  0  # atno 17371 bound_to 10713
  141.2209  133.7307  156.8910 LP  0  0  0  0  0  0  0  0  0  0  0  0  # atno 17394 bound_to 11000
  140.1638  134.9147  157.2748 LP  0  0  0  0  0  0  0  0  0  0  0  0  # atno 17395 bound_to 11000

$$$$
