AV-unprocessed.smi:1824|AV-procd|sdf|7407|dock10
  -GOLD-   22720 9 83D 1   1.00000     0.00000
 Structure written by MMmdl.
 45 47  0  0  0  0  0  0  0  0  2 V2000
  147.7270  136.0538  157.4383 C   0  0  0  0  0  0  0  0  0  0  0  0
  149.0987  135.7604  158.0696 C   0  0  2  0  0  0  0  0  0  0  0  0
  150.1897  136.7676  157.6528 C   0  0  0  0  0  0  0  0  0  0  0  0
  150.6468  136.5698  156.2781 N   0  0  0  0  0  0  0  0  0  0  0  0
  151.7059  137.5044  155.8927 C   0  0  0  0  0  0  0  0  0  0  0  0
  151.2763  138.9796  155.7651 C   0  0  2  0  0  0  0  0  0  0  0  0
  151.2556  139.3199  154.3928 O   0  0  0  0  0  0  0  0  0  0  0  0
  152.2459  139.9148  156.5139 C   0  0  0  0  0  0  0  0  0  0  0  0
  151.6111  141.1669  156.9514 N   0  0  0  0  0  0  0  0  0  0  0  0
  150.6890  141.9399  156.3161 C   0  0  0  0  0  0  0  0  0  0  0  0
  150.4091  142.9975  157.1271 N   0  3  0  0  0  0  0  0  0  0  0  0
  151.1651  142.9008  158.2974 C   0  0  0  0  0  0  0  0  0  0  0  0
  151.2285  143.7307  159.4121 C   0  0  0  0  0  0  0  0  0  0  0  0
  152.1125  143.3455  160.4413 C   0  0  0  0  0  0  0  0  0  0  0  0
  152.2136  144.1182  161.5486 F   0  0  0  0  0  0  0  0  0  0  0  0
  152.8925  142.1743  160.3386 C   0  0  0  0  0  0  0  0  0  0  0  0
  153.7307  141.8422  161.3488 F   0  0  0  0  0  0  0  0  0  0  0  0
  152.8181  141.3401  159.2038 C   0  0  0  0  0  0  0  0  0  0  0  0
  151.9408  141.7273  158.1914 C   0  0  0  0  0  0  0  0  0  0  0  0
  151.0919  135.1902  156.1249 C   0  0  0  0  0  0  0  0  0  0  0  0
  149.9820  134.1831  156.4751 C   0  0  1  0  0  0  0  0  0  0  0  0
  150.4723  132.7336  156.3943 C   0  0  0  0  0  0  0  0  0  0  0  0
  149.5284  134.4241  157.8056 O   0  0  0  0  0  0  0  0  0  0  0  0
  147.3619  137.0346  157.7437 H   0  0  0  0  0  0  0  0  0  0  0  0
  146.9894  135.3147  157.7513 H   0  0  0  0  0  0  0  0  0  0  0  0
  147.7662  136.0466  156.3494 H   0  0  0  0  0  0  0  0  0  0  0  0
  148.9725  135.8329  159.1501 H   0  0  0  0  0  0  0  0  0  0  0  0
  149.8028  137.7762  157.7906 H   0  0  0  0  0  0  0  0  0  0  0  0
  151.0372  136.6679  158.3328 H   0  0  0  0  0  0  0  0  0  0  0  0
  152.5240  137.4292  156.6107 H   0  0  0  0  0  0  0  0  0  0  0  0
  152.1273  137.1954  154.9347 H   0  0  0  0  0  0  0  0  0  0  0  0
  150.2767  139.1297  156.1711 H   0  0  0  0  0  0  0  0  0  0  0  0
  151.0805  138.5345  153.8961 H   0  0  0  0  0  0  0  0  0  0  0  0
  152.6187  139.4177  157.4104 H   0  0  0  0  0  0  0  0  0  0  0  0
  153.1226  140.1465  155.9084 H   0  0  0  0  0  0  0  0  0  0  0  0
  150.2569  141.7484  155.3444 H   0  0  0  0  0  0  0  0  0  0  0  0
  150.6345  144.6291  159.4942 H   0  0  0  0  0  0  0  0  0  0  0  0
  153.4249  140.4499  159.1339 H   0  0  0  0  0  0  0  0  0  0  0  0
  151.4158  135.0197  155.0976 H   0  0  0  0  0  0  0  0  0  0  0  0
  151.9617  135.0108  156.7592 H   0  0  0  0  0  0  0  0  0  0  0  0
  149.1495  134.3023  155.7810 H   0  0  0  0  0  0  0  0  0  0  0  0
  150.8229  132.4931  155.3904 H   0  0  0  0  0  0  0  0  0  0  0  0
  149.6710  132.0371  156.6421 H   0  0  0  0  0  0  0  0  0  0  0  0
  151.2942  132.5561  157.0883 H   0  0  0  0  0  0  0  0  0  0  0  0
  149.7506  143.7304  156.8955 H   0  0  0  0  0  0  0  0  0  0  0  0
  1  2  1  0  0  0  0
  1 24  1  0  0  0  0
  1 25  1  0  0  0  0
  1 26  1  0  0  0  0
  2 23  1  0  0  0  0
  2  3  1  0  0  0  0
  2 27  1  0  0  0  0
  3  4  1  0  0  0  0
  3 28  1  0  0  0  0
  3 29  1  0  0  0  0
  4  5  1  0  0  0  0
  4 20  1  0  0  0  0
  5  6  1  0  0  0  0
  5 30  1  0  0  0  0
  5 31  1  0  0  0  0
  6  7  1  0  0  0  0
  6  8  1  0  0  0  0
  6 32  1  0  0  0  0
  7 33  1  0  0  0  0
  8  9  1  0  0  0  0
  8 34  1  0  0  0  0
  8 35  1  0  0  0  0
  9 19  1  0  0  0  0
  9 10  1  0  0  0  0
 10 11  2  0  0  0  0
 10 36  1  0  0  0  0
 11 12  1  0  0  0  0
 11 45  1  0  0  0  0
 12 19  2  0  0  0  0
 12 13  1  0  0  0  0
 13 14  2  0  0  0  0
 13 37  1  0  0  0  0
 14 15  1  0  0  0  0
 14 16  1  0  0  0  0
 16 17  1  0  0  0  0
 16 18  2  0  0  0  0
 18 19  1  0  0  0  0
 18 38  1  0  0  0  0
 20 21  1  0  0  0  0
 20 39  1  0  0  0  0
 20 40  1  0  0  0  0
 21 22  1  0  0  0  0
 21 23  1  0  0  0  0
 21 41  1  0  0  0  0
 22 42  1  0  0  0  0
 22 43  1  0  0  0  0
 22 44  1  0  0  0  0
M  CHG  1  11   1
M  END
> <s_m_source_file>
AV-unprocessed.smi

> <i_m_source_file_index>
1824

> <i_lp_mmshare_version>
43012

> <i_f3d_flags>
0

> <s_epik_input>
W0NIM11bQ0BASF0xW0NIMl1OKFtDSDJdW0NASF0oTzEpW0NIM10pW0NIMl1bQ0BIXShbT0hdKVtDSDJdbihbY0hdbjIpYyhjMjMpW2NIXWMoRiljKEYpW2NIXTM=

> <s_epik_cmdline>
J2VwaWtfcHl0aG9uJywgJy1waCcsICc3LjAnLCAnLXRuJywgJzgnLCAnLW1hJywgJzIwMCcsICctbWV0YWxfYmluZGluZycsICctaW1hZScsICc8aW5maWxlLm1hZT4nLCAnLW9tYWUnLCAnPG91dGZpbGUubWFlPic=

> <r_epik_Ionization_Penalty>
2.58709

> <r_epik_Ionization_Penalty_Charging>
2.37273

> <r_epik_Ionization_Penalty_Neutral>
0.214359

> <r_epik_State_Penalty>
2.71799

> <r_epik_Charging_Adjusted_Penalty>
5.09071

> <i_epik_Tot_Q>
1

> <i_epik_Tot_abs_Q>
1

> <r_epik_Metal_State_Penalty>
6.80217

> <b_epik_Metal_Only>
0

> <s_lp_Force_Field>
OPLS_2005

> <r_lp_Energy>
35.5782

> <b_lp_Chiralities_Consistent>
1

> <s_lp_Variant>
AV-unprocessed.smi:1824-15

> <Gold.Version>
5.8.1

> <Gold.Id.Protein>
6NUR|6NUR_protein|mol2

> <Gold.PLP.Fitness>
51.7217

> <Gold.PLP.PLP>
-42.4299

> <Gold.PLP.part.hbond>
-3.0000

> <Gold.PLP.part.metal>
0.0000

> <Gold.PLP.part.buried>
-4.5941

> <Gold.PLP.part.nonpolar>
-33.9496

> <Gold.PLP.part.repulsive>
0.0263

> <Gold.PLP.ligand.clash>
0.0000

> <Gold.PLP.ligand.torsion>
1.3399

> <Gold.PLP.Chemscore.Hbond>
3.9840

> <Gold.PLP.Chemscore.CHOScore>
0.0000

> <Gold.PLP.Chemscore.Metal>
0.0000

> <Gold.Chemscore.Hbonds>
donor molecule, donor type, donor heavy atom, donor atom, acceptor molecule, acceptor atom, score
      L1  H    11    45       P1  8028  2.00
      P1  H  6896  6909       L1    23  1.00
      P1  H  7989  7998       L1     7  1.00

> <Gold.PLP.Chemscore.Internal.Correction>
0.0197

> <Gold.Rescore>
     Score         DG    S(hbond)    S(metal)    S(lipo)     H(rot)  DE(clash)    DE(int)     intcor
     18.31     -19.93       2.69        0.00      97.60       2.32       0.34       1.28       ----

> <Gold.Chemscore.Fitness>
18.3096

> <Gold.Chemscore.DG>
-19.9280

> <Gold.Chemscore.ZeroCoef>
-5.4800

> <Gold.Chemscore.Hbond>
2.6857

> <Gold.Chemscore.Metal>
0.0000

> <Gold.Chemscore.Lipo>
97.6017

> <Gold.Chemscore.Internal_Hbond>
0.0000

> <Gold.Chemscore.DEClash>
0.3382

> <Gold.Chemscore.DEInternal>
1.2801

> <Gold.Chemscore.Rot>
2.3210

> <Gold.Chemscore.Internal.Correction>
   9.000000E+99

> <Gold.Chemscore.Hbonds>
donor molecule, donor type, donor heavy atom, donor atom, acceptor molecule, acceptor atom, score
      L1  H    11    45       P1  8028  0.93
      P1  H  6896  6909       L1    23  0.46
      P1  H  7989  7998       L1     7  0.96

> <Gold.Chemscore.Hbond.Weighted>
-8.9702

> <Gold.Chemscore.Metal.Weighted>
-0.0000

> <Gold.Chemscore.Lipo.Weighted>
-11.4194

> <Gold.Chemscore.Internal_Hbond.Weighted>
0.0000

> <Gold.Chemscore.DEClash.Weighted>
0.3382

> <Gold.Chemscore.DEInternal.Weighted>
1.2801

> <Gold.Chemscore.Rot.Weighted>
5.9416

> <Gold.Chemscore.Internal.Correction.Weighted>
   9.000000E+99

> <Gold.Protein.RotatedTorsions>
[ 6907 6896 6895 6894 ] final    9.77 input  -60.11 | X-H torsion
[ 7974 7965 7964 7962 ] final   50.15 input  175.53 | X-H torsion
[ 8008 7997 7996 7995 ] final -162.13 input   59.86 | X-H torsion
[ 10167 10162 10161 10158 ] final -124.60 input  -65.29 | X-H torsion
[ 10718 10713 10712 10709 ] final -121.54 input   66.30 | X-H torsion
[ 10763 10752 10751 10750 ] final   84.72 input  -60.55 | X-H torsion
[ 11005 11000 10999 10996 ] final  -94.09 input  -57.11 | X-H torsion

> <Gold.Protein.ActiveResidues>
 VAL166  LYS551  ARG553  GLY616  TRP617  ASP618  TYR619  PRO620  LYS621  CYS622 
 ASP623  PHE694  ASN695  SER759  ASP760  ASP761  ALA762  ILE779  LEU786  VAL792 
 PHE793  MET794  SER795  GLU796  ALA797  LYS798  CYS799  TRP800  GLU811  SER814 

> <Gold.Protein.RotatedAtoms>
  151.7275  135.0881  160.0294 H   0  0  0  0  0  0  0  0  0  0  0  0  # atno 6907 bound_to 6896
  152.3562  133.6236  159.5990 H   0  0  0  0  0  0  0  0  0  0  0  0  # atno 6908 bound_to 6896
  150.7573  133.9412  159.3498 H   0  0  0  0  0  0  0  0  0  0  0  0  # atno 6909 bound_to 6896
  146.0040  139.4470  142.9997 H   0  0  0  0  0  0  0  0  0  0  0  0  # atno 7974 bound_to 7965
  155.8023  140.0893  157.1950 H   0  0  0  0  0  0  0  0  0  0  0  0  # atno 8008 bound_to 7997
  154.3981  140.1470  156.3348 H   0  0  0  0  0  0  0  0  0  0  0  0  # atno 8009 bound_to 7997
  155.8450  140.3437  155.5659 H   0  0  0  0  0  0  0  0  0  0  0  0  # atno 8010 bound_to 7997
  139.9910  143.5641  152.2342 H   0  0  0  0  0  0  0  0  0  0  0  0  # atno 10167 bound_to 10162
  156.1346  130.6420  150.9675 H   0  0  0  0  0  0  0  0  0  0  0  0  # atno 10718 bound_to 10713
  153.1408  135.4644  154.9492 H   0  0  0  0  0  0  0  0  0  0  0  0  # atno 10763 bound_to 10752
  154.7745  135.3169  154.8123 H   0  0  0  0  0  0  0  0  0  0  0  0  # atno 10764 bound_to 10752
  153.8647  135.6909  153.4834 H   0  0  0  0  0  0  0  0  0  0  0  0  # atno 10765 bound_to 10752
  141.1480  133.7932  157.0250 H   0  0  0  0  0  0  0  0  0  0  0  0  # atno 11005 bound_to 11000
  145.7445  140.9996  143.1283 LP  0  0  0  0  0  0  0  0  0  0  0  0  # atno 17320 bound_to 7965
  144.6929  139.9139  143.7465 LP  0  0  0  0  0  0  0  0  0  0  0  0  # atno 17321 bound_to 7965
  139.6340  144.7648  151.2477 LP  0  0  0  0  0  0  0  0  0  0  0  0  # atno 17342 bound_to 10162
  140.7454  143.6430  150.8317 LP  0  0  0  0  0  0  0  0  0  0  0  0  # atno 17343 bound_to 10162
  157.6520  131.0895  150.8031 LP  0  0  0  0  0  0  0  0  0  0  0  0  # atno 17370 bound_to 10713
  156.8112  130.4953  149.5355 LP  0  0  0  0  0  0  0  0  0  0  0  0  # atno 17371 bound_to 10713
  140.0791  134.9658  157.1594 LP  0  0  0  0  0  0  0  0  0  0  0  0  # atno 17394 bound_to 11000
  140.3602  134.2502  155.7188 LP  0  0  0  0  0  0  0  0  0  0  0  0  # atno 17395 bound_to 11000

$$$$
