AV-unprocessed.smi:160|AV-procd|sdf|1350|dock3
  -GOLD-   2262019 53D 1   1.00000     0.00000
 Structure written by MMmdl.
 29 30  0  0  0  0  0  0  0  0  1 V2000
  149.0218  137.1393  159.2895 N   0  0  0  0  0  0  0  0  0  0  0  0
  149.2514  136.2569  158.3114 C   0  0  0  0  0  0  0  0  0  0  0  0
  149.0721  135.0490  158.4589 O   0  0  0  0  0  0  0  0  0  0  0  0
  149.7476  136.8223  157.0095 C   0  0  0  0  0  0  0  0  0  0  0  0
  149.6571  136.1085  155.8485 N   0  0  0  0  0  0  0  0  0  0  0  0
  150.1972  136.9919  155.0188 C   0  0  0  0  0  0  0  0  0  0  0  0
  150.5893  138.1279  155.6050 N   0  0  0  0  0  0  0  0  0  0  0  0
  151.2142  139.3513  154.9996 C   0  0  1  0  0  0  0  0  0  0  0  0
  150.2697  139.9241  154.1496 O   0  0  0  0  0  0  0  0  0  0  0  0
  149.7346  141.1292  154.6998 C   0  0  1  0  0  0  0  0  0  0  0  0
  148.1984  141.0911  154.6527 C   0  0  0  0  0  0  0  0  0  0  0  0
  147.6647  142.2377  155.2798 O   0  0  0  0  0  0  0  0  0  0  0  0
  150.2999  141.2339  156.1258 C   0  0  2  0  0  0  0  0  0  0  0  0
  150.5868  142.5810  156.4454 O   0  0  0  0  0  0  0  0  0  0  0  0
  151.5795  140.4146  156.0487 C   0  0  1  0  0  0  0  0  0  0  0  0
  151.9364  139.8797  157.3106 O   0  0  0  0  0  0  0  0  0  0  0  0
  150.2876  138.0389  156.9250 N   0  0  0  0  0  0  0  0  0  0  0  0
  152.0728  138.9698  154.4457 H   0  0  0  0  0  0  0  0  0  0  0  0
  150.1166  141.9570  154.0990 H   0  0  0  0  0  0  0  0  0  0  0  0
  149.6057  140.8129  156.8545 H   0  0  0  0  0  0  0  0  0  0  0  0
  152.3984  141.0120  155.6452 H   0  0  0  0  0  0  0  0  0  0  0  0
  148.6894  136.8204  160.1877 H   0  0  0  0  0  0  0  0  0  0  0  0
  149.1853  138.1216  159.1220 H   0  0  0  0  0  0  0  0  0  0  0  0
  150.3099  136.8064  153.9606 H   0  0  0  0  0  0  0  0  0  0  0  0
  147.8314  141.0128  153.6291 H   0  0  0  0  0  0  0  0  0  0  0  0
  147.8280  140.2216  155.1966 H   0  0  0  0  0  0  0  0  0  0  0  0
  148.3055  142.9308  155.2352 H   0  0  0  0  0  0  0  0  0  0  0  0
  149.8125  143.0990  156.2880 H   0  0  0  0  0  0  0  0  0  0  0  0
  151.4887  139.0557  157.4266 H   0  0  0  0  0  0  0  0  0  0  0  0
  1  2  1  0  0  0  0
  1 22  1  0  0  0  0
  1 23  1  0  0  0  0
  2  3  2  0  0  0  0
  2  4  1  0  0  0  0
  4 17  2  0  0  0  0
  4  5  1  0  0  0  0
  5  6  2  0  0  0  0
  6  7  1  0  0  0  0
  6 24  1  0  0  0  0
  7  8  1  0  0  0  0
  7 17  1  0  0  0  0
  8 18  1  0  0  0  0
  8 15  1  0  0  0  0
  8  9  1  0  0  0  0
  9 10  1  0  0  0  0
 10 19  1  0  0  0  0
 10 11  1  0  0  0  0
 10 13  1  0  0  0  0
 11 12  1  0  0  0  0
 11 25  1  0  0  0  0
 11 26  1  0  0  0  0
 12 27  1  0  0  0  0
 13 20  1  0  0  0  0
 13 14  1  0  0  0  0
 13 15  1  0  0  0  0
 14 28  1  0  0  0  0
 15 21  1  0  0  0  0
 15 16  1  0  0  0  0
 16 29  1  0  0  0  0
M  END
> <s_m_source_file>
AV-unprocessed.smi

> <i_m_source_file_index>
160

> <i_lp_mmshare_version>
43012

> <i_f3d_flags>
0

> <s_epik_input>
W05IMl1DKD1PKWMxbltjSF1uKG4xKVtDQEBIXTJPW0NASF0oW0NIMl1bT0hdKVtDQEBIXShbT0hdKVtDQEhdMltPSF0=

> <s_epik_cmdline>
J2VwaWtfcHl0aG9uJywgJy1waCcsICc3LjAnLCAnLXRuJywgJzgnLCAnLW1hJywgJzIwMCcsICctbWV0YWxfYmluZGluZycsICctaW1hZScsICc8aW5maWxlLm1hZT4nLCAnLW9tYWUnLCAnPG91dGZpbGUubWFlPic=

> <r_lp_tautomer_probability>
1

> <r_epik_Ionization_Penalty>
1.06932e-05

> <r_epik_Ionization_Penalty_Charging>
0

> <r_epik_Ionization_Penalty_Neutral>
1.06932e-05

> <r_epik_State_Penalty>
-0

> <r_epik_Charging_Adjusted_Penalty>
0

> <i_epik_Tot_Q>
0

> <i_epik_Tot_abs_Q>
0

> <r_epik_Metal_State_Penalty>
0.0142097

> <b_epik_Metal_Only>
0

> <s_epik_Chemistry_Notes>
This compound contains an acetal/aminal-like group ( X-CH(R)-Y where X, Y are N, S, or O) that may be acid/base labile, releasing an aldehyde.

> <s_lp_Force_Field>
OPLS_2005

> <r_lp_Energy>
40.695

> <b_lp_Chiralities_Consistent>
1

> <s_lp_Variant>
AV-unprocessed.smi:160-8

> <Gold.Version>
5.8.1

> <Gold.Id.Protein>
6NUR|6NUR_protein|mol2

> <Gold.PLP.Fitness>
34.1164

> <Gold.PLP.PLP>
-22.0253

> <Gold.PLP.part.hbond>
-4.0000

> <Gold.PLP.part.metal>
0.0000

> <Gold.PLP.part.buried>
-3.0970

> <Gold.PLP.part.nonpolar>
-15.6033

> <Gold.PLP.part.repulsive>
0.8861

> <Gold.PLP.ligand.clash>
0.0000

> <Gold.PLP.ligand.torsion>
0.2194

> <Gold.PLP.Chemscore.Hbond>
3.1575

> <Gold.PLP.Chemscore.CHOScore>
1.0154

> <Gold.PLP.Chemscore.Metal>
0.0000

> <Gold.Chemscore.Hbonds>
donor molecule, donor type, donor heavy atom, donor atom, acceptor molecule, acceptor atom, score
      L1  H    12    27       P1  8028  1.00
      L1  H    14    28       P1  8028  1.00
      P1  H  6896  6907       L1     3  1.00
      P1  H  7989  7998       L1     9  0.14
      L1  C     6    24       P1  7948  0.85
      L1  C     6    24       P1  7949  0.17

> <Gold.PLP.Chemscore.Internal.Correction>
0.0110

> <Gold.Rescore>
     Score         DG    S(hbond)    S(metal)    S(lipo)     H(rot)  DE(clash)    DE(int)     intcor
      5.58      -7.90       2.85        0.00      28.08       4.06       0.33       1.99       ----

> <Gold.Chemscore.Fitness>
5.5842

> <Gold.Chemscore.DG>
-7.8990

> <Gold.Chemscore.ZeroCoef>
-5.4800

> <Gold.Chemscore.Hbond>
2.8525

> <Gold.Chemscore.Metal>
0.0000

> <Gold.Chemscore.Lipo>
28.0796

> <Gold.Chemscore.Internal_Hbond>
0.0000

> <Gold.Chemscore.DEClash>
0.3267

> <Gold.Chemscore.DEInternal>
1.9881

> <Gold.Chemscore.Rot>
4.0600

> <Gold.Chemscore.Internal.Correction>
   9.000000E+99

> <Gold.Chemscore.Hbonds>
donor molecule, donor type, donor heavy atom, donor atom, acceptor molecule, acceptor atom, score
      L1  H    12    27       P1  8028  0.94
      L1  H    14    28       P1  8028  0.95
      P1  H  6896  6907       L1     3  0.71

> <Gold.Chemscore.Hbond.Weighted>
-9.5273

> <Gold.Chemscore.Metal.Weighted>
-0.0000

> <Gold.Chemscore.Lipo.Weighted>
-3.2853

> <Gold.Chemscore.Internal_Hbond.Weighted>
0.0000

> <Gold.Chemscore.DEClash.Weighted>
0.3267

> <Gold.Chemscore.DEInternal.Weighted>
1.9881

> <Gold.Chemscore.Rot.Weighted>
10.3936

> <Gold.Chemscore.Internal.Correction.Weighted>
   9.000000E+99

> <Gold.Protein.RotatedTorsions>
[ 6907 6896 6895 6894 ] final  -93.90 input  -60.11 | X-H torsion
[ 7974 7965 7964 7962 ] final   60.42 input  175.53 | X-H torsion
[ 8008 7997 7996 7995 ] final   75.27 input   59.86 | X-H torsion
[ 10167 10162 10161 10158 ] final    3.56 input  -65.29 | X-H torsion
[ 10718 10713 10712 10709 ] final -125.00 input   66.30 | X-H torsion
[ 10763 10752 10751 10750 ] final   94.25 input  -60.55 | X-H torsion
[ 11005 11000 10999 10996 ] final   13.12 input  -57.11 | X-H torsion

> <Gold.Protein.ActiveResidues>
 VAL166  LYS551  ARG553  GLY616  TRP617  ASP618  TYR619  PRO620  LYS621  CYS622 
 ASP623  PHE694  ASN695  SER759  ASP760  ASP761  ALA762  ILE779  LEU786  VAL792 
 PHE793  MET794  SER795  GLU796  ALA797  LYS798  CYS799  TRP800  GLU811  SER814 

> <Gold.Protein.RotatedAtoms>
  150.6931  134.1895  159.4279 H   0  0  0  0  0  0  0  0  0  0  0  0  # atno 6907 bound_to 6896
  151.9866  134.9998  160.0569 H   0  0  0  0  0  0  0  0  0  0  0  0  # atno 6908 bound_to 6896
  152.1706  133.4606  159.4944 H   0  0  0  0  0  0  0  0  0  0  0  0  # atno 6909 bound_to 6896
  145.8962  139.3547  143.0619 H   0  0  0  0  0  0  0  0  0  0  0  0  # atno 7974 bound_to 7965
  155.8104  140.3473  155.5454 H   0  0  0  0  0  0  0  0  0  0  0  0  # atno 8008 bound_to 7997
  155.8446  140.0947  157.1733 H   0  0  0  0  0  0  0  0  0  0  0  0  # atno 8009 bound_to 7997
  154.4006  140.1388  156.3758 H   0  0  0  0  0  0  0  0  0  0  0  0  # atno 8010 bound_to 7997
  140.6580  143.7378  150.7687 H   0  0  0  0  0  0  0  0  0  0  0  0  # atno 10167 bound_to 10162
  156.1637  130.6620  151.0085 H   0  0  0  0  0  0  0  0  0  0  0  0  # atno 10718 bound_to 10713
  153.2395  135.4296  155.0682 H   0  0  0  0  0  0  0  0  0  0  0  0  # atno 10763 bound_to 10752
  154.8334  135.3399  154.6670 H   0  0  0  0  0  0  0  0  0  0  0  0  # atno 10764 bound_to 10752
  153.7094  135.7023  153.5098 H   0  0  0  0  0  0  0  0  0  0  0  0  # atno 10765 bound_to 10752
  140.4844  134.0903  155.7757 H   0  0  0  0  0  0  0  0  0  0  0  0  # atno 11005 bound_to 11000
  145.8847  140.9341  143.0583 LP  0  0  0  0  0  0  0  0  0  0  0  0  # atno 17320 bound_to 7965
  144.6733  140.0826  143.7468 LP  0  0  0  0  0  0  0  0  0  0  0  0  # atno 17321 bound_to 7965
  140.1042  143.4760  152.2408 LP  0  0  0  0  0  0  0  0  0  0  0  0  # atno 17342 bound_to 10162
  139.5806  144.7509  151.3649 LP  0  0  0  0  0  0  0  0  0  0  0  0  # atno 17343 bound_to 10162
  157.6752  131.0852  150.7513 LP  0  0  0  0  0  0  0  0  0  0  0  0  # atno 17370 bound_to 10713
  156.7574  130.4788  149.5444 LP  0  0  0  0  0  0  0  0  0  0  0  0  # atno 17371 bound_to 10713
  141.1515  133.8959  157.2085 LP  0  0  0  0  0  0  0  0  0  0  0  0  # atno 17394 bound_to 11000
  139.9807  135.0099  156.9742 LP  0  0  0  0  0  0  0  0  0  0  0  0  # atno 17395 bound_to 11000

$$$$
