#       Name:                AV-unprocessed.smi:54
#       Creating user name   scv26
#       Creation time:       Thu Mar 26 16:41:02 2020


#       File generated by GOLD software.
#

@<TRIPOS>MOLECULE
AV-unprocessed.smi:54
    58    60     1
SMALL
NO_CHARGES


@<TRIPOS>ATOM
      1 ****        -0.8455   5.6959  -0.9167 C.3            1 S1                 0.0000
      2 ****        -1.1186   4.9769   0.4139 C.3            1 S1                 0.0000
      3 ****        -0.2850   5.5817   1.5557 C.3            1 S1                 0.0000
      4 ****        -0.8457   3.4743   0.2815 C.2            1 S1                 0.0000
      5 ****         0.2834   3.0323   0.0657 O.2            1 S1                 0.0000
      6 ****        -2.0083   2.6156   0.4228 N.am           1 S1                 0.0000
      7 ****        -2.0424   1.2640   0.3653 C.2            1 S1                 0.0000
      8 ****        -0.9527   0.5098   0.3897 N.2            1 S1                 0.0000
      9 ****        -1.1907  -0.8352   0.3341 C.2            1 S1                 0.0000
     10 ****        -2.4228  -1.4503   0.2614 C.2            1 S1                 0.0000
     11 ****        -2.2674  -2.8312   0.2197 N.2            1 S1                 0.0000
     12 ****        -0.9760  -3.0056   0.2677 C.2            1 S1                 0.0000
     13 ****        -0.2474  -1.8405   0.3308 N.pl3          1 S1                 0.0000
     14 ****         1.2377  -1.6501   0.3976 C.3            1 S1                 0.0000
     15 ****         1.7812  -2.8030   0.9691 O.3            1 S1                 0.0000
     16 ****         2.7053  -3.4306   0.0802 C.3            1 S1                 0.0000
     17 ****         2.6855  -4.9598   0.2516 C.3            1 S1                 0.0000
     18 ****         3.4689  -5.3323   1.3649 O.3            1 S1                 0.0000
     19 ****         2.3270  -2.9136  -1.3154 C.3            1 S1                 0.0000
     20 ****         1.3117  -3.7060  -1.9097 O.3            1 S1                 0.0000
     21 ****         1.8605  -1.4990  -1.0026 C.3            1 S1                 0.0000
     22 ****         1.0095  -0.9581  -1.9987 O.3            1 S1                 0.0000
     23 ****        -3.6119  -0.6485   0.2412 C.2            1 S1                 0.0000
     24 ****        -4.7815  -1.0215   0.1823 O.2            1 S1                 0.0000
     25 ****        -3.3260   0.7218   0.2990 N.am           1 S1                 0.0000
     26 ****         1.3791  -0.7801   1.0398 H              1 S1                 0.0000
     27 ****         3.6990  -3.0438   0.3141 H              1 S1                 0.0000
     28 ****         3.1861  -2.9126  -1.9872 H              1 S1                 0.0000
     29 ****         2.7343  -0.8541  -0.8996 H              1 S1                 0.0000
     30 ****        -1.4363   5.2681  -1.7277 H              1 S1                 0.0000
     31 ****         0.2060   5.6302  -1.1999 H              1 S1                 0.0000
     32 ****        -1.1031   6.7531  -0.8478 H              1 S1                 0.0000
     33 ****        -2.1728   5.1105   0.6608 H              1 S1                 0.0000
     34 ****        -0.4647   5.0619   2.4977 H              1 S1                 0.0000
     35 ****        -0.5377   6.6312   1.7086 H              1 S1                 0.0000
     36 ****         0.7837   5.5277   1.3445 H              1 S1                 0.0000
     37 ****        -2.8909   3.0863   0.5569 H              1 S1                 0.0000
     38 ****        -0.5254  -3.9870   0.2571 H              1 S1                 0.0000
     39 ****         1.6679  -5.3350   0.3629 H              1 S1                 0.0000
     40 ****         3.1176  -5.4424  -0.6257 H              1 S1                 0.0000
     41 ****         3.4388  -6.2728   1.4520 H              1 S1                 0.0000
     42 ****         1.0818  -3.3200  -2.7413 H              1 S1                 0.0000
     43 ****         0.2067  -1.4573  -2.0033 H              1 S1                 0.0000
     44 ****        -4.1175   1.3480   0.2888 H              1 S1                 0.0000
     45 ****         1.0563   3.6597  -0.0286 LP             1 S1                 0.0000
     46 ****         0.4272   2.0460  -0.0153 LP             1 S1                 0.0000
     47 ****        -0.0310   0.8937   0.4443 LP             1 S1                 0.0000
     48 ****        -2.9812  -3.5295   0.1654 LP             1 S1                 0.0000
     49 ****         1.0422  -3.4436   1.1777 LP             1 S1                 0.0000
     50 ****         2.2566  -2.5560   1.8135 LP             1 S1                 0.0000
     51 ****         3.1039  -4.9051   2.1921 LP             1 S1                 0.0000
     52 ****         4.4140  -5.0365   1.2262 LP             1 S1                 0.0000
     53 ****         0.5087  -3.7288  -1.3142 LP             1 S1                 0.0000
     54 ****         1.6486  -4.6369  -2.0508 LP             1 S1                 0.0000
     55 ****         1.4524  -1.0207  -2.8931 LP             1 S1                 0.0000
     56 ****         0.8114  -0.0001  -1.7913 LP             1 S1                 0.0000
     57 ****        -4.9935  -1.9979   0.1410 LP             1 S1                 0.0000
     58 ****        -5.5212  -0.3486   0.1755 LP             1 S1                 0.0000
@<TRIPOS>BOND
    1    1    2 1     
    2    1   30 1     
    3    1   31 1     
    4    1   32 1     
    5    2    3 1     
    6    2    4 1     
    7    2   33 1     
    8    3   34 1     
    9    3   35 1     
   10    3   36 1     
   11    4    5 2     
   12    4    6 am    
   13    6   37 1     
   14    6    7 1     
   15    7   25 1     
   16    7    8 2     
   17    8    9 1     
   18    9   13 1     
   19    9   10 2     
   20   10   11 1     
   21   10   23 1     
   22   11   12 2     
   23   12   13 1     
   24   12   38 1     
   25   13   14 1     
   26   14   26 1     
   27   14   21 1     
   28   14   15 1     
   29   15   16 1     
   30   16   27 1     
   31   16   17 1     
   32   16   19 1     
   33   17   18 1     
   34   17   39 1     
   35   17   40 1     
   36   18   41 1     
   37   19   28 1     
   38   19   20 1     
   39   19   21 1     
   40   20   42 1     
   41   21   29 1     
   42   21   22 1     
   43   22   43 1     
   44   23   24 2     
   45   23   25 am    
   46   25   44 1     
   47    5   45 1     
   48    5   46 1     
   49    8   47 1     
   50   11   48 1     
   51   15   49 1     
   52   15   50 1     
   53   18   51 1     
   54   18   52 1     
   55   20   53 1     
   56   20   54 1     
   57   22   55 1     
   58   22   56 1     
   59   24   57 1     
   60   24   58 1     
@<TRIPOS>SUBSTRUCTURE
      1 S1             1
@<TRIPOS>SET
LONE_PAIRS      STATIC     ATOMS    <user>   **** ""
14 45 46 47 48 49 50 51 52 53 54 55 56 57 58
DONOR_HYDROGENS      STATIC     ATOMS    <user>   **** ""
5 37 41 42 43 44
ATOM$BLUE        STATIC     ATOMS    COLORGROUP SYSTEM
14 45 46 47 48 49 50 51 52 53 54 55 56 57 58
ATOM$RED        STATIC     ATOMS    COLORGROUP SYSTEM
5 37 41 42 43 44
