AV-unprocessed.smi:560|AV-procd|sdf|2934|dock10
  -GOLD-   2262023433D 1   1.00000     0.00000
 Structure written by MMmdl.
 41 42  0  0  0  0  0  0  0  0  3 V2000
  151.9817  139.6689  158.9527 C   0  0  0  0  0  0  0  0  0  0  0  0
  151.2487  140.5804  157.9476 C   0  0  2  0  0  0  0  0  0  0  0  0
  151.4143  140.1190  156.4904 C   0  0  0  0  0  0  0  0  0  0  0  0
  152.5210  140.1159  155.9504 O   0  0  0  0  0  0  0  0  0  0  0  0
  150.2944  139.7227  155.8646 N   0  0  0  0  0  0  0  0  0  0  0  0
  150.2151  139.2575  154.4811 C   0  0  2  0  0  0  0  0  0  0  0  0
  148.7867  138.7899  154.1541 C   0  0  0  0  0  0  0  0  0  0  0  0
  148.4335  137.4701  154.8645 C   0  0  0  0  0  0  0  0  0  0  0  0
  149.4213  136.4063  154.5521 N   0  3  2  0  0  0  0  0  0  0  0  0
  149.0287  135.0921  155.1191 C   0  0  0  0  0  0  0  0  0  0  0  0
  147.7270  134.6045  154.4741 C   0  0  0  0  0  0  0  0  0  0  0  0
  147.9032  134.1942  153.2035 N   0  5  0  0  0  0  0  0  0  0  0  0
  146.6810  134.6379  155.1194 O   0  0  0  0  0  0  0  0  0  0  0  0
  150.8040  136.8137  154.9211 C   0  0  0  0  0  0  0  0  0  0  0  0
  151.2097  138.1132  154.2043 C   0  0  0  0  0  0  0  0  0  0  0  0
  151.6406  141.9783  158.0894 N   0  0  0  0  0  0  0  0  0  0  0  0
  151.1531  143.0706  157.4005 C   0  0  0  0  0  0  0  0  0  0  0  0
  151.8322  144.1705  157.8401 C   0  0  0  0  0  0  0  0  0  0  0  0
  152.7359  143.6460  158.8055 C   0  0  0  0  0  0  0  0  0  0  0  0
  152.6250  142.3355  158.9469 N   0  0  0  0  0  0  0  0  0  0  0  0
  151.6365  138.6375  158.8730 H   0  0  0  0  0  0  0  0  0  0  0  0
  151.7988  139.9952  159.9768 H   0  0  0  0  0  0  0  0  0  0  0  0
  153.0610  139.6687  158.7951 H   0  0  0  0  0  0  0  0  0  0  0  0
  150.1842  140.5210  158.1803 H   0  0  0  0  0  0  0  0  0  0  0  0
  149.4292  139.7609  156.3834 H   0  0  0  0  0  0  0  0  0  0  0  0
  150.4533  140.0993  153.8283 H   0  0  0  0  0  0  0  0  0  0  0  0
  148.0648  139.5637  154.4188 H   0  0  0  0  0  0  0  0  0  0  0  0
  148.6957  138.6475  153.0762 H   0  0  0  0  0  0  0  0  0  0  0  0
  148.3880  137.6189  155.9444 H   0  0  0  0  0  0  0  0  0  0  0  0
  147.4397  137.1517  154.5478 H   0  0  0  0  0  0  0  0  0  0  0  0
  149.8467  134.3748  155.0197 H   0  0  0  0  0  0  0  0  0  0  0  0
  148.8317  135.1909  156.1874 H   0  0  0  0  0  0  0  0  0  0  0  0
  148.1256  134.8900  152.4816 H   0  0  0  0  0  0  0  0  0  0  0  0
  150.8729  136.9406  156.0026 H   0  0  0  0  0  0  0  0  0  0  0  0
  151.5127  136.0294  154.6542 H   0  0  0  0  0  0  0  0  0  0  0  0
  151.2503  137.9277  153.1301 H   0  0  0  0  0  0  0  0  0  0  0  0
  152.2202  138.4013  154.4961 H   0  0  0  0  0  0  0  0  0  0  0  0
  150.3705  142.9758  156.6624 H   0  0  0  0  0  0  0  0  0  0  0  0
  151.7051  145.1939  157.5198 H   0  0  0  0  0  0  0  0  0  0  0  0
  153.4662  144.1742  159.4007 H   0  0  0  0  0  0  0  0  0  0  0  0
  149.4070  136.2877  153.5488 H   0  0  0  0  0  0  0  0  0  0  0  0
  1  2  1  0  0  0  0
  1 21  1  0  0  0  0
  1 22  1  0  0  0  0
  1 23  1  0  0  0  0
  2  3  1  0  0  0  0
  2 16  1  0  0  0  0
  2 24  1  0  0  0  0
  3  4  2  0  0  0  0
  3  5  1  0  0  0  0
  5  6  1  0  0  0  0
  5 25  1  0  0  0  0
  6 15  1  0  0  0  0
  6  7  1  0  0  0  0
  6 26  1  0  0  0  0
  7  8  1  0  0  0  0
  7 27  1  0  0  0  0
  7 28  1  0  0  0  0
  8  9  1  0  0  0  0
  8 29  1  0  0  0  0
  8 30  1  0  0  0  0
  9 10  1  0  0  0  0
  9 14  1  0  0  0  0
  9 41  1  0  0  0  0
 10 11  1  0  0  0  0
 10 31  1  0  0  0  0
 10 32  1  0  0  0  0
 11 12  1  0  0  0  0
 11 13  2  0  0  0  0
 12 33  1  0  0  0  0
 14 15  1  0  0  0  0
 14 34  1  0  0  0  0
 14 35  1  0  0  0  0
 15 36  1  0  0  0  0
 15 37  1  0  0  0  0
 16 20  1  0  0  0  0
 16 17  1  0  0  0  0
 17 18  2  0  0  0  0
 17 38  1  0  0  0  0
 18 19  1  0  0  0  0
 18 39  1  0  0  0  0
 19 20  2  0  0  0  0
 19 40  1  0  0  0  0
M  CHG  1   9   1
M  CHG  1  12  -1
M  END
> <s_m_source_file>
AV-unprocessed.smi

> <i_m_source_file_index>
560

> <i_lp_mmshare_version>
43012

> <i_f3d_flags>
0

> <s_epik_input>
bjFbY0hdW2NIXVtjSF1uMVtDQEhdKFtDSDNdKUMoPU8pW05IXVtDSF0yW0NIMl1bQ0gyXU4oW0NIMl1bQ0gyXTIpW0NIMl1DKD1PKVtOSDJd

> <s_epik_cmdline>
J2VwaWtfcHl0aG9uJywgJy1waCcsICc3LjAnLCAnLXRuJywgJzgnLCAnLW1hJywgJzIwMCcsICctbWV0YWxfYmluZGluZycsICctaW1hZScsICc8aW5maWxlLm1hZT4nLCAnLW9tYWUnLCAnPG91dGZpbGUubWFlPic=

> <r_lp_tautomer_probability>
1

> <r_epik_Ionization_Penalty>
5.71084

> <r_epik_Ionization_Penalty_Charging>
5.71081

> <r_epik_Ionization_Penalty_Neutral>
3.04611e-05

> <r_epik_State_Penalty>
6.71277

> <r_epik_Charging_Adjusted_Penalty>
12.4236

> <i_epik_Tot_Q>
0

> <i_epik_Tot_abs_Q>
2

> <r_epik_Metal_State_Penalty>
2.67562

> <b_epik_Metal_Only>
1

> <s_lp_Force_Field>
OPLS_2005

> <r_lp_Energy>
9.92131

> <b_lp_Chiralities_Consistent>
1

> <s_lp_Variant>
AV-unprocessed.smi:560-9

> <Gold.Version>
5.8.1

> <Gold.Id.Protein>
6NUR|6NUR_protein|mol2

> <Gold.PLP.Fitness>
48.7909

> <Gold.PLP.PLP>
-34.1900

> <Gold.PLP.part.hbond>
-3.0000

> <Gold.PLP.part.metal>
0.0000

> <Gold.PLP.part.buried>
-2.6786

> <Gold.PLP.part.nonpolar>
-28.4750

> <Gold.PLP.part.repulsive>
0.1130

> <Gold.PLP.ligand.clash>
0.0000

> <Gold.PLP.ligand.torsion>
0.2693

> <Gold.PLP.Chemscore.Hbond>
4.0000

> <Gold.PLP.Chemscore.CHOScore>
0.9982

> <Gold.PLP.Chemscore.Metal>
0.0000

> <Gold.Chemscore.Hbonds>
donor molecule, donor type, donor heavy atom, donor atom, acceptor molecule, acceptor atom, score
      L1  H     9    41       P1  7948  2.00
      L1  H    12    33       P1  7948  1.00
      P1  H  7997  8009       L1     4  1.00
      L1  C    17    38       P1  8028  0.99

> <Gold.PLP.Chemscore.Internal.Correction>
0.1448

> <Gold.Rescore>
     Score         DG    S(hbond)    S(metal)    S(lipo)     H(rot)  DE(clash)    DE(int)     intcor
     16.73     -18.13       2.89        0.00      79.75       2.47       0.02       1.39       ----

> <Gold.Chemscore.Fitness>
16.7292

> <Gold.Chemscore.DG>
-18.1300

> <Gold.Chemscore.ZeroCoef>
-5.4800

> <Gold.Chemscore.Hbond>
2.8894

> <Gold.Chemscore.Metal>
0.0000

> <Gold.Chemscore.Lipo>
79.7536

> <Gold.Chemscore.Internal_Hbond>
0.0000

> <Gold.Chemscore.DEClash>
0.0153

> <Gold.Chemscore.DEInternal>
1.3856

> <Gold.Chemscore.Rot>
2.4734

> <Gold.Chemscore.Internal.Correction>
   9.000000E+99

> <Gold.Chemscore.Hbonds>
donor molecule, donor type, donor heavy atom, donor atom, acceptor molecule, acceptor atom, score
      L1  H     9    41       P1  7948  0.74
      L1  H    12    33       P1  7948  0.64
      P1  H  7997  8009       L1     4  1.00

> <Gold.Chemscore.Hbond.Weighted>
-9.6507

> <Gold.Chemscore.Metal.Weighted>
-0.0000

> <Gold.Chemscore.Lipo.Weighted>
-9.3312

> <Gold.Chemscore.Internal_Hbond.Weighted>
0.0000

> <Gold.Chemscore.DEClash.Weighted>
0.0153

> <Gold.Chemscore.DEInternal.Weighted>
1.3856

> <Gold.Chemscore.Rot.Weighted>
6.3318

> <Gold.Chemscore.Internal.Correction.Weighted>
   9.000000E+99

> <Gold.Protein.RotatedTorsions>
[ 6907 6896 6895 6894 ] final  118.08 input  -60.11 | X-H torsion
[ 7974 7965 7964 7962 ] final  170.73 input  175.53 | X-H torsion
[ 8008 7997 7996 7995 ] final -152.29 input   59.86 | X-H torsion
[ 10167 10162 10161 10158 ] final -109.62 input  -65.29 | X-H torsion
[ 10718 10713 10712 10709 ] final  120.91 input   66.30 | X-H torsion
[ 10763 10752 10751 10750 ] final  121.62 input  -60.55 | X-H torsion
[ 11005 11000 10999 10996 ] final   38.08 input  -57.11 | X-H torsion

> <Gold.Protein.ActiveResidues>
 VAL166  LYS551  ARG553  GLY616  TRP617  ASP618  TYR619  PRO620  LYS621  CYS622 
 ASP623  PHE694  ASN695  SER759  ASP760  ASP761  ALA762  ILE779  LEU786  VAL792 
 PHE793  MET794  SER795  GLU796  ALA797  LYS798  CYS799  TRP800  GLU811  SER814 

> <Gold.Protein.RotatedAtoms>
  152.4568  133.7739  159.6813 H   0  0  0  0  0  0  0  0  0  0  0  0  # atno 6907 bound_to 6896
  150.8496  133.7797  159.3036 H   0  0  0  0  0  0  0  0  0  0  0  0  # atno 6908 bound_to 6896
  151.5396  135.1071  159.9975 H   0  0  0  0  0  0  0  0  0  0  0  0  # atno 6909 bound_to 6896
  144.7315  139.9246  143.6422 H   0  0  0  0  0  0  0  0  0  0  0  0  # atno 7974 bound_to 7965
  155.6529  140.0714  157.2581 H   0  0  0  0  0  0  0  0  0  0  0  0  # atno 8008 bound_to 7997
  154.4159  140.1730  156.1743 H   0  0  0  0  0  0  0  0  0  0  0  0  # atno 8009 bound_to 7997
  155.9762  140.3357  155.6624 H   0  0  0  0  0  0  0  0  0  0  0  0  # atno 8010 bound_to 7997
  140.1533  143.4180  152.1479 H   0  0  0  0  0  0  0  0  0  0  0  0  # atno 10167 bound_to 10162
  157.5856  131.1070  150.8101 H   0  0  0  0  0  0  0  0  0  0  0  0  # atno 10718 bound_to 10713
  153.6169  135.3420  155.2997 H   0  0  0  0  0  0  0  0  0  0  0  0  # atno 10763 bound_to 10752
  154.8608  135.4263  154.2250 H   0  0  0  0  0  0  0  0  0  0  0  0  # atno 10764 bound_to 10752
  153.3113  135.7032  153.7185 H   0  0  0  0  0  0  0  0  0  0  0  0  # atno 10765 bound_to 10752
  140.2162  134.3696  155.8026 H   0  0  0  0  0  0  0  0  0  0  0  0  # atno 11005 bound_to 11000
  146.0904  139.3893  143.0409 LP  0  0  0  0  0  0  0  0  0  0  0  0  # atno 17320 bound_to 7965
  145.7719  140.9893  143.1145 LP  0  0  0  0  0  0  0  0  0  0  0  0  # atno 17321 bound_to 7965
  139.5415  144.7261  151.4718 LP  0  0  0  0  0  0  0  0  0  0  0  0  # atno 17342 bound_to 10162
  140.6689  143.8338  150.6975 LP  0  0  0  0  0  0  0  0  0  0  0  0  # atno 17343 bound_to 10162
  156.8536  130.5089  149.5309 LP  0  0  0  0  0  0  0  0  0  0  0  0  # atno 17370 bound_to 10713
  156.0905  130.5892  150.9725 LP  0  0  0  0  0  0  0  0  0  0  0  0  # atno 17371 bound_to 10713
  141.2225  133.7169  156.8500 LP  0  0  0  0  0  0  0  0  0  0  0  0  # atno 17394 bound_to 11000
  140.1898  134.8973  157.3047 LP  0  0  0  0  0  0  0  0  0  0  0  0  # atno 17395 bound_to 11000

$$$$
