#       Name:                AV-unprocessed.smi:1726
#       Creating user name   scv26
#       Creation time:       Fri Mar 27 08:17:49 2020


#       File generated by GOLD software.
#

@<TRIPOS>MOLECULE
AV-unprocessed.smi:1726
    47    48     1
SMALL
NO_CHARGES


@<TRIPOS>ATOM
      1 ****        -3.2097  -0.9617   3.1178 C.3            1 S1                 0.0000
      2 ****        -3.3618  -2.0469   2.0419 C.3            1 S1                 0.0000
      3 ****        -3.0259  -1.5553   0.6814 N.4            1 S1                 1.0000
      4 ****        -3.6163  -2.4096  -0.3818 C.3            1 S1                 0.0000
      5 ****        -3.3717  -1.8133  -1.7780 C.3            1 S1                 0.0000
      6 ****        -1.8747  -1.5915  -2.0276 C.3            1 S1                 0.0000
      7 ****        -1.2798  -0.7256  -0.9067 C.3            1 S1                 0.0000
      8 ****         0.1559  -0.5616  -1.1131 N.am           1 S1                 0.0000
      9 ****         0.8993   0.4305  -0.6020 C.2            1 S1                 0.0000
     10 ****         0.4330   1.3198   0.1104 O.2            1 S1                 0.0000
     11 ****         2.1900   0.2936  -0.9545 N.am           1 S1                 0.0000
     12 ****         3.2871   1.1171  -0.6501 C.2            1 S1                 0.0000
     13 ****         3.1948   2.4064  -0.2214 C.2            1 S1                 0.0000
     14 ****         4.3704   3.2181   0.0675 C.2            1 S1                 0.0000
     15 ****         4.3072   4.6791   0.4763 C.3            1 S1                 0.0000
     16 ****         5.3204   5.3679  -0.0498 F              1 S1                 0.0000
     17 ****         3.1655   5.2392   0.0765 F              1 S1                 0.0000
     18 ****         4.3792   4.7826   1.8024 F              1 S1                 0.0000
     19 ****         5.5488   2.5398  -0.1763 C.2            1 S1                 0.0000
     20 ****         5.7271   1.2673  -0.5939 N.pl3          1 S1                -1.0000
     21 ****         4.6208   0.5136  -0.8503 C.2            1 S1                 0.0000
     22 ****         4.7102  -0.6511  -1.2407 O.2            1 S1                 0.0000
     23 ****        -1.5668  -1.3562   0.4728 C.3            1 S1                 0.0000
     24 ****        -3.5685  -1.3260   4.0807 H              1 S1                 0.0000
     25 ****        -3.7888  -0.0727   2.8658 H              1 S1                 0.0000
     26 ****        -2.1715  -0.6611   3.2557 H              1 S1                 0.0000
     27 ****        -2.7547  -2.9199   2.2861 H              1 S1                 0.0000
     28 ****        -4.4002  -2.3805   2.0542 H              1 S1                 0.0000
     29 ****        -3.1913  -3.4128  -0.3211 H              1 S1                 0.0000
     30 ****        -4.6905  -2.5101  -0.2210 H              1 S1                 0.0000
     31 ****        -3.7828  -2.4732  -2.5424 H              1 S1                 0.0000
     32 ****        -3.9033  -0.8651  -1.8698 H              1 S1                 0.0000
     33 ****        -1.3635  -2.5545  -2.0695 H              1 S1                 0.0000
     34 ****        -1.7249  -1.1146  -2.9971 H              1 S1                 0.0000
     35 ****        -1.7531   0.2576  -0.9510 H              1 S1                 0.0000
     36 ****         0.6183  -1.2534  -1.6852 H              1 S1                 0.0000
     37 ****         2.4290  -0.5340  -1.4814 H              1 S1                 0.0000
     38 ****         2.2351   2.8799  -0.0965 H              1 S1                 0.0000
     39 ****         6.4904   3.1065  -0.0143 H              1 S1                 0.0000
     40 ****        -1.1675  -0.7077   1.2519 H              1 S1                 0.0000
     41 ****        -1.0520  -2.3140   0.5665 H              1 S1                 0.0000
     42 ****        -3.4615  -0.6486   0.5892 H              1 S1                 0.0000
     43 ****        -0.5422   1.3234   0.3317 LP             1 S1                 0.0000
     44 ****         1.0294   2.0386   0.4676 LP             1 S1                 0.0000
     45 ****         6.6452   0.8890  -0.7116 LP             1 S1                 0.0000
     46 ****         3.8827  -1.1831  -1.4205 LP             1 S1                 0.0000
     47 ****         5.6102  -1.0647  -1.3780 LP             1 S1                 0.0000
@<TRIPOS>BOND
    1    1    2 1     
    2    1   24 1     
    3    1   25 1     
    4    1   26 1     
    5    2    3 1     
    6    2   27 1     
    7    2   28 1     
    8    3   23 1     
    9    3    4 1     
   10    3   42 1     
   11    4    5 1     
   12    4   29 1     
   13    4   30 1     
   14    5    6 1     
   15    5   31 1     
   16    5   32 1     
   17    6    7 1     
   18    6   33 1     
   19    6   34 1     
   20    7    8 1     
   21    7   23 1     
   22    7   35 1     
   23    8    9 am    
   24    8   36 1     
   25    9   10 2     
   26    9   11 am    
   27   11   12 1     
   28   11   37 1     
   29   12   21 1     
   30   12   13 2     
   31   13   14 1     
   32   13   38 1     
   33   14   15 1     
   34   14   19 2     
   35   15   16 1     
   36   15   17 1     
   37   15   18 1     
   38   19   20 1     
   39   19   39 1     
   40   20   21 1     
   41   21   22 2     
   42   23   40 1     
   43   23   41 1     
   44   10   43 1     
   45   10   44 1     
   46   20   45 1     
   47   22   46 1     
   48   22   47 1     
@<TRIPOS>SUBSTRUCTURE
      1 S1             1
@<TRIPOS>SET
LONE_PAIRS      STATIC     ATOMS    <user>   **** ""
5 43 44 45 46 47
DONOR_HYDROGENS      STATIC     ATOMS    <user>   **** ""
3 42 36 37
ATOM$BLUE        STATIC     ATOMS    COLORGROUP SYSTEM
5 43 44 45 46 47
ATOM$RED        STATIC     ATOMS    COLORGROUP SYSTEM
3 42 36 37
