AV-unprocessed.smi:843|AV-procd|sdf|3922|dock3
  -GOLD-   22720 1383D 1   1.00000     0.00000
 Structure written by MMmdl.
 46 47  0  0  0  0  0  0  0  0  2 V2000
  146.6058  129.6639  151.6491 C   0  0  0  0  0  0  0  0  0  0  0  0
  145.3904  130.5229  152.0287 C   0  0  0  0  0  0  0  0  0  0  0  0
  145.3794  131.8390  151.3408 N   0  3  2  0  0  0  0  0  0  0  0  0
  146.6045  132.6289  151.6308 C   0  0  0  0  0  0  0  0  0  0  0  0
  146.6364  133.9393  150.8216 C   0  0  0  0  0  0  0  0  0  0  0  0
  145.3787  134.7983  151.0503 C   0  0  2  0  0  0  0  0  0  0  0  0
  145.3858  135.4842  152.4374 C   0  0  0  0  0  0  0  0  0  0  0  0
  146.5473  136.3496  152.6238 N   0  0  0  0  0  0  0  0  0  0  0  0
  146.5434  137.5332  153.2543 C   0  0  0  0  0  0  0  0  0  0  0  0
  145.5376  138.0244  153.7656 O   0  0  0  0  0  0  0  0  0  0  0  0
  147.7676  138.0879  153.2484 N   0  0  0  0  0  0  0  0  0  0  0  0
  148.1889  139.3448  153.7671 C   0  0  0  0  0  0  0  0  0  0  0  0
  147.3699  140.4999  153.8131 C   0  0  0  0  0  0  0  0  0  0  0  0
  147.9009  141.6944  154.3335 C   0  0  0  0  0  0  0  0  0  0  0  0
  149.2334  141.6961  154.7834 C   0  0  0  0  0  0  0  0  0  0  0  0
  150.0297  140.6088  154.7349 N   0  0  0  0  0  0  0  0  0  0  0  0
  149.5203  139.4558  154.2332 C   0  0  0  0  0  0  0  0  0  0  0  0
  150.3418  138.3459  154.1768 O   0  0  0  0  0  0  0  0  0  0  0  0
  151.6886  138.4735  154.6202 C   0  0  0  0  0  0  0  0  0  0  0  0
  144.1367  133.9261  150.7733 C   0  0  0  0  0  0  0  0  0  0  0  0
  144.1454  132.6274  151.5980 C   0  0  0  0  0  0  0  0  0  0  0  0
  146.6378  128.7587  152.2558 H   0  0  0  0  0  0  0  0  0  0  0  0
  147.5384  130.2041  151.8145 H   0  0  0  0  0  0  0  0  0  0  0  0
  146.5772  129.3490  150.6065 H   0  0  0  0  0  0  0  0  0  0  0  0
  144.4620  129.9867  151.8268 H   0  0  0  0  0  0  0  0  0  0  0  0
  145.4251  130.6856  153.1067 H   0  0  0  0  0  0  0  0  0  0  0  0
  146.6619  132.8362  152.7001 H   0  0  0  0  0  0  0  0  0  0  0  0
  147.4867  132.0385  151.3807 H   0  0  0  0  0  0  0  0  0  0  0  0
  147.5336  134.5086  151.0671 H   0  0  0  0  0  0  0  0  0  0  0  0
  146.7156  133.6975  149.7608 H   0  0  0  0  0  0  0  0  0  0  0  0
  145.3906  135.5971  150.3071 H   0  0  0  0  0  0  0  0  0  0  0  0
  144.4612  136.0356  152.6112 H   0  0  0  0  0  0  0  0  0  0  0  0
  145.4255  134.7227  153.2168 H   0  0  0  0  0  0  0  0  0  0  0  0
  147.4220  136.0223  152.2400 H   0  0  0  0  0  0  0  0  0  0  0  0
  148.5049  137.5251  152.8495 H   0  0  0  0  0  0  0  0  0  0  0  0
  146.3545  140.5041  153.4507 H   0  0  0  0  0  0  0  0  0  0  0  0
  147.3003  142.5906  154.3819 H   0  0  0  0  0  0  0  0  0  0  0  0
  149.6738  142.5957  155.1871 H   0  0  0  0  0  0  0  0  0  0  0  0
  152.2004  137.5190  154.4990 H   0  0  0  0  0  0  0  0  0  0  0  0
  151.7372  138.7432  155.6762 H   0  0  0  0  0  0  0  0  0  0  0  0
  152.2331  139.2160  154.0349 H   0  0  0  0  0  0  0  0  0  0  0  0
  143.2175  134.4818  150.9548 H   0  0  0  0  0  0  0  0  0  0  0  0
  144.1146  133.6672  149.7138 H   0  0  0  0  0  0  0  0  0  0  0  0
  143.2633  132.0457  151.3337 H   0  0  0  0  0  0  0  0  0  0  0  0
  144.0656  132.8480  152.6630 H   0  0  0  0  0  0  0  0  0  0  0  0
  145.4001  131.6433  150.3502 H   0  0  0  0  0  0  0  0  0  0  0  0
  1  2  1  0  0  0  0
  1 22  1  0  0  0  0
  1 23  1  0  0  0  0
  1 24  1  0  0  0  0
  2  3  1  0  0  0  0
  2 25  1  0  0  0  0
  2 26  1  0  0  0  0
  3 21  1  0  0  0  0
  3  4  1  0  0  0  0
  3 46  1  0  0  0  0
  4  5  1  0  0  0  0
  4 27  1  0  0  0  0
  4 28  1  0  0  0  0
  5  6  1  0  0  0  0
  5 29  1  0  0  0  0
  5 30  1  0  0  0  0
  6  7  1  0  0  0  0
  6 20  1  0  0  0  0
  6 31  1  0  0  0  0
  7  8  1  0  0  0  0
  7 32  1  0  0  0  0
  7 33  1  0  0  0  0
  8  9  1  0  0  0  0
  8 34  1  0  0  0  0
  9 10  2  0  0  0  0
  9 11  1  0  0  0  0
 11 12  1  0  0  0  0
 11 35  1  0  0  0  0
 12 17  1  0  0  0  0
 12 13  2  0  0  0  0
 13 14  1  0  0  0  0
 13 36  1  0  0  0  0
 14 15  2  0  0  0  0
 14 37  1  0  0  0  0
 15 16  1  0  0  0  0
 15 38  1  0  0  0  0
 16 17  2  0  0  0  0
 17 18  1  0  0  0  0
 18 19  1  0  0  0  0
 19 39  1  0  0  0  0
 19 40  1  0  0  0  0
 19 41  1  0  0  0  0
 20 21  1  0  0  0  0
 20 42  1  0  0  0  0
 20 43  1  0  0  0  0
 21 44  1  0  0  0  0
 21 45  1  0  0  0  0
M  CHG  1   3   1
M  END
> <s_m_source_file>
AV-unprocessed.smi

> <i_m_source_file_index>
843

> <i_lp_mmshare_version>
43012

> <i_f3d_flags>
0

> <s_epik_input>
W0NIM11bQ0gyXU4xW0NIMl1bQ0gyXVtDSF0oW0NIMl1bQ0gyXTEpW0NIMl1bTkhdQyg9TylbTkhdYzJbY0hdW2NIXVtjSF1uYzJPW0NIM10=

> <s_epik_cmdline>
J2VwaWtfcHl0aG9uJywgJy1waCcsICc3LjAnLCAnLXRuJywgJzgnLCAnLW1hJywgJzIwMCcsICctbWV0YWxfYmluZGluZycsICctaW1hZScsICc8aW5maWxlLm1hZT4nLCAnLW9tYWUnLCAnPG91dGZpbGUubWFlPic=

> <r_lp_tautomer_probability>
1

> <r_epik_Ionization_Penalty>
0.00115026

> <r_epik_Ionization_Penalty_Charging>
0.00106265

> <r_epik_Ionization_Penalty_Neutral>
8.76119e-05

> <r_epik_State_Penalty>
0.000695551

> <r_epik_Charging_Adjusted_Penalty>
0.0017582

> <i_epik_Tot_Q>
1

> <i_epik_Tot_abs_Q>
1

> <r_epik_Metal_State_Penalty>
-0

> <b_epik_Metal_Only>
0

> <s_lp_Force_Field>
OPLS_2005

> <r_lp_Energy>
22.0854

> <b_lp_Chiralities_Consistent>
1

> <s_lp_Variant>
AV-unprocessed.smi:843-2

> <Gold.Version>
5.8.1

> <Gold.Id.Protein>
6NUR|6NUR_protein|mol2

> <Gold.PLP.Fitness>
47.2905

> <Gold.PLP.PLP>
-36.3937

> <Gold.PLP.part.hbond>
-3.0000

> <Gold.PLP.part.metal>
0.0000

> <Gold.PLP.part.buried>
-1.1364

> <Gold.PLP.part.nonpolar>
-31.3062

> <Gold.PLP.part.repulsive>
0.6149

> <Gold.PLP.ligand.clash>
0.0000

> <Gold.PLP.ligand.torsion>
0.3669

> <Gold.PLP.Chemscore.Hbond>
2.8564

> <Gold.PLP.Chemscore.CHOScore>
1.0000

> <Gold.PLP.Chemscore.Metal>
0.0000

> <Gold.Chemscore.Hbonds>
donor molecule, donor type, donor heavy atom, donor atom, acceptor molecule, acceptor atom, score
      L1  H     8    34       P1  7948  1.00
      L1  H    11    35       P1  7948  0.99
      P1  H  7989  7998       L1    16  0.86
      L1  C    15    38       P1  8028  1.00

> <Gold.PLP.Chemscore.Internal.Correction>
0.0613

> <Gold.Rescore>
     Score         DG    S(hbond)    S(metal)    S(lipo)     H(rot)  DE(clash)    DE(int)     intcor
     17.69     -18.73       2.11        0.00      89.06       1.65       0.04       1.01       ----

> <Gold.Chemscore.Fitness>
17.6896

> <Gold.Chemscore.DG>
-18.7342

> <Gold.Chemscore.ZeroCoef>
-5.4800

> <Gold.Chemscore.Hbond>
2.1126

> <Gold.Chemscore.Metal>
0.0000

> <Gold.Chemscore.Lipo>
89.0588

> <Gold.Chemscore.Internal_Hbond>
0.0000

> <Gold.Chemscore.DEClash>
0.0385

> <Gold.Chemscore.DEInternal>
1.0061

> <Gold.Chemscore.Rot>
1.6492

> <Gold.Chemscore.Internal.Correction>
   9.000000E+99

> <Gold.Chemscore.Hbonds>
donor molecule, donor type, donor heavy atom, donor atom, acceptor molecule, acceptor atom, score
      L1  H     8    34       P1  7948  0.94
      L1  H    11    35       P1  7948  0.93
      P1  H  7989  7998       L1    16  0.19

> <Gold.Chemscore.Hbond.Weighted>
-7.0562

> <Gold.Chemscore.Metal.Weighted>
-0.0000

> <Gold.Chemscore.Lipo.Weighted>
-10.4199

> <Gold.Chemscore.Internal_Hbond.Weighted>
0.0000

> <Gold.Chemscore.DEClash.Weighted>
0.0385

> <Gold.Chemscore.DEInternal.Weighted>
1.0061

> <Gold.Chemscore.Rot.Weighted>
4.2219

> <Gold.Chemscore.Internal.Correction.Weighted>
   9.000000E+99

> <Gold.Protein.RotatedTorsions>
[ 6907 6896 6895 6894 ] final  128.46 input  -60.11 | X-H torsion
[ 7974 7965 7964 7962 ] final  -36.26 input  175.53 | X-H torsion
[ 8008 7997 7996 7995 ] final  122.86 input   59.86 | X-H torsion
[ 10167 10162 10161 10158 ] final    7.30 input  -65.29 | X-H torsion
[ 10718 10713 10712 10709 ] final  -31.71 input   66.30 | X-H torsion
[ 10763 10752 10751 10750 ] final  -42.77 input  -60.55 | X-H torsion
[ 11005 11000 10999 10996 ] final -170.37 input  -57.11 | X-H torsion

> <Gold.Protein.ActiveResidues>
 VAL166  LYS551  ARG553  GLY616  TRP617  ASP618  TYR619  PRO620  LYS621  CYS622 
 ASP623  PHE694  ASN695  SER759  ASP760  ASP761  ALA762  ILE779  LEU786  VAL792 
 PHE793  MET794  SER795  GLU796  ALA797  LYS798  CYS799  TRP800  GLU811  SER814 

> <Gold.Protein.RotatedAtoms>
  152.3717  133.6427  159.6091 H   0  0  0  0  0  0  0  0  0  0  0  0  # atno 6907 bound_to 6896
  150.7673  133.9259  159.3421 H   0  0  0  0  0  0  0  0  0  0  0  0  # atno 6908 bound_to 6896
  151.7081  135.0919  160.0314 H   0  0  0  0  0  0  0  0  0  0  0  0  # atno 6909 bound_to 6896
  146.0676  140.6258  142.8967 H   0  0  0  0  0  0  0  0  0  0  0  0  # atno 7974 bound_to 7965
  156.2744  140.2776  156.1534 H   0  0  0  0  0  0  0  0  0  0  0  0  # atno 8008 bound_to 7997
  155.0829  140.0388  157.2662 H   0  0  0  0  0  0  0  0  0  0  0  0  # atno 8009 bound_to 7997
  154.6950  140.2637  155.6781 H   0  0  0  0  0  0  0  0  0  0  0  0  # atno 8010 bound_to 7997
  140.6380  143.7842  150.7386 H   0  0  0  0  0  0  0  0  0  0  0  0  # atno 10167 bound_to 10162
  156.3838  130.4361  149.7448 H   0  0  0  0  0  0  0  0  0  0  0  0  # atno 10718 bound_to 10713
  153.9845  135.6713  153.4751 H   0  0  0  0  0  0  0  0  0  0  0  0  # atno 10763 bound_to 10752
  153.0733  135.4962  154.8348 H   0  0  0  0  0  0  0  0  0  0  0  0  # atno 10764 bound_to 10752
  154.7145  135.3104  154.9107 H   0  0  0  0  0  0  0  0  0  0  0  0  # atno 10765 bound_to 10752
  140.5203  134.5716  157.5046 H   0  0  0  0  0  0  0  0  0  0  0  0  # atno 11005 bound_to 11000
  144.7212  140.4379  143.7007 LP  0  0  0  0  0  0  0  0  0  0  0  0  # atno 17320 bound_to 7965
  145.6449  139.1555  143.2895 LP  0  0  0  0  0  0  0  0  0  0  0  0  # atno 17321 bound_to 7965
  140.1467  143.4393  152.2158 LP  0  0  0  0  0  0  0  0  0  0  0  0  # atno 17342 bound_to 10162
  139.5589  144.7392  151.4212 LP  0  0  0  0  0  0  0  0  0  0  0  0  # atno 17343 bound_to 10162
  156.4528  130.7914  151.2936 LP  0  0  0  0  0  0  0  0  0  0  0  0  # atno 17370 bound_to 10713
  157.7494  131.0090  150.3251 LP  0  0  0  0  0  0  0  0  0  0  0  0  # atno 17371 bound_to 10713
  139.9610  134.7453  156.0238 LP  0  0  0  0  0  0  0  0  0  0  0  0  # atno 17394 bound_to 11000
  141.1338  133.6580  156.3536 LP  0  0  0  0  0  0  0  0  0  0  0  0  # atno 17395 bound_to 11000

$$$$
