AV-unprocessed.smi:1198|AV-procd|sdf|5010|dock10
  -GOLD-   22720 4 23D 1   1.00000     0.00000
 Structure written by MMmdl.
 40 41  0  0  0  0  0  0  0  0  2 V2000
  150.9948  142.1281  157.7106 C   0  0  0  0  0  0  0  0  0  0  0  0
  151.0202  141.8814  156.3091 O   0  0  0  0  0  0  0  0  0  0  0  0
  150.7217  140.6107  155.8616 C   0  0  0  0  0  0  0  0  0  0  0  0
  150.7278  139.5509  156.7900 C   0  0  0  0  0  0  0  0  0  0  0  0
  150.4232  138.2509  156.3429 C   0  0  0  0  0  0  0  0  0  0  0  0
  150.1283  138.0502  154.9731 C   0  0  0  0  0  0  0  0  0  0  0  0
  149.7840  136.7949  154.4024 N   0  0  0  0  0  0  0  0  0  0  0  0
  149.8088  135.5789  154.9740 C   0  0  0  0  0  0  0  0  0  0  0  0
  150.2023  135.3341  156.1142 O   0  0  0  0  0  0  0  0  0  0  0  0
  149.3586  134.6383  154.1315 N   0  0  0  0  0  0  0  0  0  0  0  0
  149.2746  133.2122  154.4303 C   0  0  0  0  0  0  0  0  0  0  0  0
  148.6689  132.4001  153.2681 C   0  0  2  0  0  0  0  0  0  0  0  0
  147.1948  132.7000  153.0041 C   0  0  0  0  0  0  0  0  0  0  0  0
  146.6860  131.4638  152.2523 C   0  0  0  0  0  0  0  0  0  0  0  0
  147.6534  130.3738  152.5207 N   0  3  2  0  0  0  0  0  0  0  0  0
  147.0377  129.0893  152.9138 C   0  0  0  0  0  0  0  0  0  0  0  0
  148.6551  130.8851  153.4785 C   0  0  0  0  0  0  0  0  0  0  0  0
  150.1375  139.1796  154.1284 C   0  0  0  0  0  0  0  0  0  0  0  0
  150.4288  140.4280  154.5503 N   0  0  0  0  0  0  0  0  0  0  0  0
  151.2510  143.1707  157.8981 H   0  0  0  0  0  0  0  0  0  0  0  0
  151.7217  141.5091  158.2383 H   0  0  0  0  0  0  0  0  0  0  0  0
  150.0028  141.9512  158.1284 H   0  0  0  0  0  0  0  0  0  0  0  0
  150.9574  139.7327  157.8296 H   0  0  0  0  0  0  0  0  0  0  0  0
  150.4084  137.4445  157.0593 H   0  0  0  0  0  0  0  0  0  0  0  0
  149.5235  136.8221  153.4274 H   0  0  0  0  0  0  0  0  0  0  0  0
  149.0666  134.9281  153.2094 H   0  0  0  0  0  0  0  0  0  0  0  0
  150.2819  132.8571  154.6498 H   0  0  0  0  0  0  0  0  0  0  0  0
  148.6906  133.0629  155.3399 H   0  0  0  0  0  0  0  0  0  0  0  0
  149.2218  132.6130  152.3515 H   0  0  0  0  0  0  0  0  0  0  0  0
  146.6583  132.7965  153.9493 H   0  0  0  0  0  0  0  0  0  0  0  0
  147.0467  133.6233  152.4432 H   0  0  0  0  0  0  0  0  0  0  0  0
  145.6723  131.2085  152.5651 H   0  0  0  0  0  0  0  0  0  0  0  0
  146.6636  131.6454  151.1775 H   0  0  0  0  0  0  0  0  0  0  0  0
  146.4725  129.1923  153.8411 H   0  0  0  0  0  0  0  0  0  0  0  0
  147.8052  128.3289  153.0612 H   0  0  0  0  0  0  0  0  0  0  0  0
  146.3596  128.7384  152.1353 H   0  0  0  0  0  0  0  0  0  0  0  0
  149.6317  130.4287  153.3135 H   0  0  0  0  0  0  0  0  0  0  0  0
  148.3428  130.6551  154.4988 H   0  0  0  0  0  0  0  0  0  0  0  0
  149.9059  139.0800  153.0779 H   0  0  0  0  0  0  0  0  0  0  0  0
  148.1445  130.2178  151.6517 H   0  0  0  0  0  0  0  0  0  0  0  0
  1  2  1  0  0  0  0
  1 20  1  0  0  0  0
  1 21  1  0  0  0  0
  1 22  1  0  0  0  0
  2  3  1  0  0  0  0
  3 19  1  0  0  0  0
  3  4  2  0  0  0  0
  4  5  1  0  0  0  0
  4 23  1  0  0  0  0
  5  6  2  0  0  0  0
  5 24  1  0  0  0  0
  6  7  1  0  0  0  0
  6 18  1  0  0  0  0
  7  8  1  0  0  0  0
  7 25  1  0  0  0  0
  8  9  2  0  0  0  0
  8 10  1  0  0  0  0
 10 11  1  0  0  0  0
 10 26  1  0  0  0  0
 11 12  1  0  0  0  0
 11 27  1  0  0  0  0
 11 28  1  0  0  0  0
 12 17  1  0  0  0  0
 12 13  1  0  0  0  0
 12 29  1  0  0  0  0
 13 14  1  0  0  0  0
 13 30  1  0  0  0  0
 13 31  1  0  0  0  0
 14 15  1  0  0  0  0
 14 32  1  0  0  0  0
 14 33  1  0  0  0  0
 15 16  1  0  0  0  0
 15 17  1  0  0  0  0
 15 40  1  0  0  0  0
 16 34  1  0  0  0  0
 16 35  1  0  0  0  0
 16 36  1  0  0  0  0
 17 37  1  0  0  0  0
 17 38  1  0  0  0  0
 18 19  2  0  0  0  0
 18 39  1  0  0  0  0
M  CHG  1  15   1
M  END
> <s_m_source_file>
AV-unprocessed.smi

> <i_m_source_file_index>
1198

> <i_lp_mmshare_version>
43012

> <i_f3d_flags>
0

> <s_epik_input>
W0NIM11PYzFbY0hdW2NIXWMoW2NIXW4xKVtOSF1DKD1PKVtOSF1bQ0gyXVtDQEBIXTJbQ0gyXVtDSDJdTihbQ0gzXSlbQ0gyXTI=

> <s_epik_cmdline>
J2VwaWtfcHl0aG9uJywgJy1waCcsICc3LjAnLCAnLXRuJywgJzgnLCAnLW1hJywgJzIwMCcsICctbWV0YWxfYmluZGluZycsICctaW1hZScsICc8aW5maWxlLm1hZT4nLCAnLW9tYWUnLCAnPG91dGZpbGUubWFlPic=

> <r_lp_tautomer_probability>
1

> <r_epik_Ionization_Penalty>
0.00131396

> <r_epik_Ionization_Penalty_Charging>
0.0012301

> <r_epik_Ionization_Penalty_Neutral>
8.38549e-05

> <r_epik_State_Penalty>
0.00081314

> <r_epik_Charging_Adjusted_Penalty>
0.00204324

> <i_epik_Tot_Q>
1

> <i_epik_Tot_abs_Q>
1

> <r_epik_Metal_State_Penalty>
-0

> <b_epik_Metal_Only>
0

> <s_lp_Force_Field>
OPLS_2005

> <r_lp_Energy>
30.1161

> <b_lp_Chiralities_Consistent>
1

> <s_lp_Variant>
AV-unprocessed.smi:1198-1

> <Gold.Version>
5.8.1

> <Gold.Id.Protein>
6NUR|6NUR_protein|mol2

> <Gold.PLP.Fitness>
44.5922

> <Gold.PLP.PLP>
-30.0525

> <Gold.PLP.part.hbond>
-4.0000

> <Gold.PLP.part.metal>
0.0000

> <Gold.PLP.part.buried>
-2.0884

> <Gold.PLP.part.nonpolar>
-22.9018

> <Gold.PLP.part.repulsive>
0.2631

> <Gold.PLP.ligand.clash>
0.0091

> <Gold.PLP.ligand.torsion>
0.2271

> <Gold.PLP.Chemscore.Hbond>
4.0000

> <Gold.PLP.Chemscore.CHOScore>
1.0000

> <Gold.PLP.Chemscore.Metal>
0.0000

> <Gold.Chemscore.Hbonds>
donor molecule, donor type, donor heavy atom, donor atom, acceptor molecule, acceptor atom, score
      L1  H     7    25       P1  7948  1.00
      L1  H    10    26       P1  7948  0.80
      L1  H    15    40       P1 10747  1.00
      P1  H  7989  7998       L1    19  1.00
      L1  C    18    39       P1  7957  1.00

> <Gold.PLP.Chemscore.Internal.Correction>
0.0029

> <Gold.Rescore>
     Score         DG    S(hbond)    S(metal)    S(lipo)     H(rot)  DE(clash)    DE(int)     intcor
     18.73     -20.01       3.32        0.00      62.69       1.51       0.02       1.25       ----

> <Gold.Chemscore.Fitness>
18.7331

> <Gold.Chemscore.DG>
-20.0114

> <Gold.Chemscore.ZeroCoef>
-5.4800

> <Gold.Chemscore.Hbond>
3.3158

> <Gold.Chemscore.Metal>
0.0000

> <Gold.Chemscore.Lipo>
62.6910

> <Gold.Chemscore.Internal_Hbond>
0.0000

> <Gold.Chemscore.DEClash>
0.0234

> <Gold.Chemscore.DEInternal>
1.2548

> <Gold.Chemscore.Rot>
1.5149

> <Gold.Chemscore.Internal.Correction>
   9.000000E+99

> <Gold.Chemscore.Hbonds>
donor molecule, donor type, donor heavy atom, donor atom, acceptor molecule, acceptor atom, score
      L1  H     7    25       P1  7948  0.78
      L1  H    10    26       P1  7948  0.11
      L1  H    15    40       P1 10747  0.92
      P1  H  7989  7998       L1    19  0.30

> <Gold.Chemscore.Hbond.Weighted>
-11.0747

> <Gold.Chemscore.Metal.Weighted>
-0.0000

> <Gold.Chemscore.Lipo.Weighted>
-7.3348

> <Gold.Chemscore.Internal_Hbond.Weighted>
0.0000

> <Gold.Chemscore.DEClash.Weighted>
0.0234

> <Gold.Chemscore.DEInternal.Weighted>
1.2548

> <Gold.Chemscore.Rot.Weighted>
3.8781

> <Gold.Chemscore.Internal.Correction.Weighted>
   9.000000E+99

> <Gold.Protein.RotatedTorsions>
[ 6907 6896 6895 6894 ] final   45.68 input  -60.11 | X-H torsion
[ 7974 7965 7964 7962 ] final   14.29 input  175.53 | X-H torsion
[ 8008 7997 7996 7995 ] final -156.60 input   59.86 | X-H torsion
[ 10167 10162 10161 10158 ] final   61.07 input  -65.29 | X-H torsion
[ 10718 10713 10712 10709 ] final   33.27 input   66.30 | X-H torsion
[ 10763 10752 10751 10750 ] final   73.61 input  -60.55 | X-H torsion
[ 11005 11000 10999 10996 ] final   76.08 input  -57.11 | X-H torsion

> <Gold.Protein.ActiveResidues>
 VAL166  LYS551  ARG553  GLY616  TRP617  ASP618  TYR619  PRO620  LYS621  CYS622 
 ASP623  PHE694  ASN695  SER759  ASP760  ASP761  ALA762  ILE779  LEU786  VAL792 
 PHE793  MET794  SER795  GLU796  ALA797  LYS798  CYS799  TRP800  GLU811  SER814 

> <Gold.Protein.RotatedAtoms>
  152.2474  134.8167  160.0450 H   0  0  0  0  0  0  0  0  0  0  0  0  # atno 6907 bound_to 6896
  151.8859  133.3500  159.3790 H   0  0  0  0  0  0  0  0  0  0  0  0  # atno 6908 bound_to 6896
  150.7073  134.4898  159.5554 H   0  0  0  0  0  0  0  0  0  0  0  0  # atno 6909 bound_to 6896
  146.2308  139.9063  142.8531 H   0  0  0  0  0  0  0  0  0  0  0  0  # atno 7974 bound_to 7965
  155.7197  140.0788  157.2336 H   0  0  0  0  0  0  0  0  0  0  0  0  # atno 8008 bound_to 7997
  154.4047  140.1615  156.2442 H   0  0  0  0  0  0  0  0  0  0  0  0  # atno 8009 bound_to 7997
  155.9208  140.3398  155.6174 H   0  0  0  0  0  0  0  0  0  0  0  0  # atno 8010 bound_to 7997
  140.1587  144.4392  150.6721 H   0  0  0  0  0  0  0  0  0  0  0  0  # atno 10167 bound_to 10162
  157.2958  130.7325  149.6637 H   0  0  0  0  0  0  0  0  0  0  0  0  # atno 10718 bound_to 10713
  153.0533  135.5056  154.7919 H   0  0  0  0  0  0  0  0  0  0  0  0  # atno 10763 bound_to 10752
  154.6765  135.2961  154.9674 H   0  0  0  0  0  0  0  0  0  0  0  0  # atno 10764 bound_to 10752
  154.0475  135.6708  153.4849 H   0  0  0  0  0  0  0  0  0  0  0  0  # atno 10765 bound_to 10752
  139.9314  134.7571  156.1351 H   0  0  0  0  0  0  0  0  0  0  0  0  # atno 11005 bound_to 11000
  145.2274  140.9959  143.4010 LP  0  0  0  0  0  0  0  0  0  0  0  0  # atno 17320 bound_to 7965
  144.9559  139.4032  143.6379 LP  0  0  0  0  0  0  0  0  0  0  0  0  # atno 17321 bound_to 7965
  140.6657  143.2267  151.5749 LP  0  0  0  0  0  0  0  0  0  0  0  0  # atno 17342 bound_to 10162
  139.5391  144.2697  152.1314 LP  0  0  0  0  0  0  0  0  0  0  0  0  # atno 17343 bound_to 10162
  155.9669  130.4295  150.4835 LP  0  0  0  0  0  0  0  0  0  0  0  0  # atno 17370 bound_to 10713
  157.2806  131.0606  151.2200 LP  0  0  0  0  0  0  0  0  0  0  0  0  # atno 17371 bound_to 10713
  141.0905  133.6716  156.2530 LP  0  0  0  0  0  0  0  0  0  0  0  0  # atno 17394 bound_to 11000
  140.6191  134.5380  157.5545 LP  0  0  0  0  0  0  0  0  0  0  0  0  # atno 17395 bound_to 11000

$$$$
