AV-unprocessed.smi:2012|AV-procd|sdf|8155|dock1
  -GOLD-   2272010393D 1   1.00000     0.00000
 Structure written by MMmdl.
 50 51  0  0  0  0  0  0  0  0  1 V2000
  144.7277  137.0665  158.4474 C   0  0  0  0  0  0  0  0  0  0  0  0
  145.8255  137.2796  159.4831 C   0  0  0  0  0  0  0  0  0  0  0  0
  145.7257  138.1862  160.3093 O   0  0  0  0  0  0  0  0  0  0  0  0
  146.8702  136.4374  159.4242 N   0  0  0  0  0  0  0  0  0  0  0  0
  148.0521  136.4865  160.2884 C   0  0  2  0  0  0  0  0  0  0  0  0
  149.2983  136.4679  159.3843 C   0  0  0  0  0  0  0  0  0  0  0  0
  149.4563  135.5712  158.5541 O   0  0  0  0  0  0  0  0  0  0  0  0
  150.1668  137.4774  159.5490 N   0  0  0  0  0  0  0  0  0  0  0  0
  151.3549  137.7001  158.7297 C   0  0  0  0  0  0  0  0  0  0  0  0
  152.3179  138.7543  159.2674 C   0  0  0  0  0  0  0  0  0  0  0  0
  153.5509  138.3528  159.8168 C   0  0  0  0  0  0  0  0  0  0  0  0
  154.4294  139.3437  160.2940 C   0  0  0  0  0  0  0  0  0  0  0  0
  154.1507  140.6633  160.2527 N   0  0  0  0  0  0  0  0  0  0  0  0
  152.9629  141.0657  159.7372 C   0  0  0  0  0  0  0  0  0  0  0  0
  152.6870  142.4496  159.6852 N   0  0  0  0  0  0  0  0  0  0  0  0
  152.1166  143.0902  160.8684 C   0  0  0  0  0  0  0  0  0  0  0  0
  152.2177  144.6206  160.7466 C   0  0  0  0  0  0  0  0  0  0  0  0
  151.6091  145.0505  159.5332 O   0  0  0  0  0  0  0  0  0  0  0  0
  152.2538  144.4964  158.3907 C   0  0  0  0  0  0  0  0  0  0  0  0
  152.1476  142.9627  158.4280 C   0  0  0  0  0  0  0  0  0  0  0  0
  152.0202  140.1357  159.2403 C   0  0  0  0  0  0  0  0  0  0  0  0
  148.0480  135.2440  161.2268 C   0  0  0  0  0  0  0  0  0  0  0  0
  147.8122  133.9371  160.4447 C   0  0  0  0  0  0  0  0  0  0  0  0
  147.0041  135.3497  162.3582 C   0  0  0  0  0  0  0  0  0  0  0  0
  145.0940  137.3162  157.4515 H   0  0  0  0  0  0  0  0  0  0  0  0
  143.8646  137.6977  158.6618 H   0  0  0  0  0  0  0  0  0  0  0  0
  144.3980  136.0271  158.4457 H   0  0  0  0  0  0  0  0  0  0  0  0
  146.8644  135.7263  158.7075 H   0  0  0  0  0  0  0  0  0  0  0  0
  148.0365  137.3973  160.8910 H   0  0  0  0  0  0  0  0  0  0  0  0
  149.9614  138.1706  160.2538 H   0  0  0  0  0  0  0  0  0  0  0  0
  151.8927  136.7551  158.6529 H   0  0  0  0  0  0  0  0  0  0  0  0
  151.0551  137.9680  157.7151 H   0  0  0  0  0  0  0  0  0  0  0  0
  153.8238  137.3089  159.8655 H   0  0  0  0  0  0  0  0  0  0  0  0
  155.3847  139.0689  160.7163 H   0  0  0  0  0  0  0  0  0  0  0  0
  151.0732  142.7896  160.9730 H   0  0  0  0  0  0  0  0  0  0  0  0
  152.6424  142.7666  161.7675 H   0  0  0  0  0  0  0  0  0  0  0  0
  151.7122  145.0977  161.5862 H   0  0  0  0  0  0  0  0  0  0  0  0
  153.2595  144.9442  160.7766 H   0  0  0  0  0  0  0  0  0  0  0  0
  151.7759  144.8835  157.4909 H   0  0  0  0  0  0  0  0  0  0  0  0
  153.2980  144.8125  158.3573 H   0  0  0  0  0  0  0  0  0  0  0  0
  152.6624  142.5539  157.5608 H   0  0  0  0  0  0  0  0  0  0  0  0
  151.1030  142.6598  158.3456 H   0  0  0  0  0  0  0  0  0  0  0  0
  151.0902  140.4812  158.8185 H   0  0  0  0  0  0  0  0  0  0  0  0
  149.0288  135.1599  161.6986 H   0  0  0  0  0  0  0  0  0  0  0  0
  146.8581  133.9600  159.9174 H   0  0  0  0  0  0  0  0  0  0  0  0
  147.7993  133.0761  161.1136 H   0  0  0  0  0  0  0  0  0  0  0  0
  148.5951  133.7544  159.7084 H   0  0  0  0  0  0  0  0  0  0  0  0
  145.9990  135.4808  161.9558 H   0  0  0  0  0  0  0  0  0  0  0  0
  147.2061  136.1850  163.0290 H   0  0  0  0  0  0  0  0  0  0  0  0
  146.9992  134.4485  162.9719 H   0  0  0  0  0  0  0  0  0  0  0  0
  1  2  1  0  0  0  0
  1 25  1  0  0  0  0
  1 26  1  0  0  0  0
  1 27  1  0  0  0  0
  2  3  2  0  0  0  0
  2  4  1  0  0  0  0
  4  5  1  0  0  0  0
  4 28  1  0  0  0  0
  5  6  1  0  0  0  0
  5 22  1  0  0  0  0
  5 29  1  0  0  0  0
  6  7  2  0  0  0  0
  6  8  1  0  0  0  0
  8  9  1  0  0  0  0
  8 30  1  0  0  0  0
  9 10  1  0  0  0  0
  9 31  1  0  0  0  0
  9 32  1  0  0  0  0
 10 21  1  0  0  0  0
 10 11  2  0  0  0  0
 11 12  1  0  0  0  0
 11 33  1  0  0  0  0
 12 13  2  0  0  0  0
 12 34  1  0  0  0  0
 13 14  1  0  0  0  0
 14 15  1  0  0  0  0
 14 21  2  0  0  0  0
 15 20  1  0  0  0  0
 15 16  1  0  0  0  0
 16 17  1  0  0  0  0
 16 35  1  0  0  0  0
 16 36  1  0  0  0  0
 17 18  1  0  0  0  0
 17 37  1  0  0  0  0
 17 38  1  0  0  0  0
 18 19  1  0  0  0  0
 19 20  1  0  0  0  0
 19 39  1  0  0  0  0
 19 40  1  0  0  0  0
 20 41  1  0  0  0  0
 20 42  1  0  0  0  0
 21 43  1  0  0  0  0
 22 23  1  0  0  0  0
 22 24  1  0  0  0  0
 22 44  1  0  0  0  0
 23 45  1  0  0  0  0
 23 46  1  0  0  0  0
 23 47  1  0  0  0  0
 24 48  1  0  0  0  0
 24 49  1  0  0  0  0
 24 50  1  0  0  0  0
M  END
> <s_m_source_file>
AV-unprocessed.smi

> <i_m_source_file_index>
2012

> <i_lp_mmshare_version>
43012

> <i_f3d_flags>
0

> <s_epik_input>
W0NIM11DKD1PKVtOSF1bQ0BASF0oW0NIXShbQ0gzXSlbQ0gzXSlDKD1PKVtOSF1bQ0gyXWMxW2NIXVtjSF1uYyhbY0hdMSlOMltDSDJdW0NIMl1PW0NIMl1bQ0gyXTI=

> <s_epik_cmdline>
J2VwaWtfcHl0aG9uJywgJy1waCcsICc3LjAnLCAnLXRuJywgJzgnLCAnLW1hJywgJzIwMCcsICctbWV0YWxfYmluZGluZycsICctaW1hZScsICc8aW5maWxlLm1hZT4nLCAnLW9tYWUnLCAnPG91dGZpbGUubWFlPic=

> <r_lp_tautomer_probability>
1

> <r_epik_Ionization_Penalty>
0.00518786

> <r_epik_Ionization_Penalty_Charging>
0

> <r_epik_Ionization_Penalty_Neutral>
0.00518786

> <r_epik_State_Penalty>
0.00378052

> <r_epik_Charging_Adjusted_Penalty>
0.00378052

> <i_epik_Tot_Q>
0

> <i_epik_Tot_abs_Q>
0

> <r_epik_Metal_State_Penalty>
-0

> <b_epik_Metal_Only>
0

> <s_lp_Force_Field>
OPLS_2005

> <r_lp_Energy>
14.5368

> <b_lp_Chiralities_Consistent>
1

> <s_lp_Variant>
AV-unprocessed.smi:2012-1

> <Gold.Version>
5.8.1

> <Gold.Id.Protein>
6NUR|6NUR_protein|mol2

> <Gold.PLP.Fitness>
43.9527

> <Gold.PLP.PLP>
-40.2302

> <Gold.PLP.part.hbond>
-2.0000

> <Gold.PLP.part.metal>
0.0000

> <Gold.PLP.part.buried>
-8.4060

> <Gold.PLP.part.nonpolar>
-31.1562

> <Gold.PLP.part.repulsive>
1.1236

> <Gold.PLP.ligand.clash>
0.0000

> <Gold.PLP.ligand.torsion>
0.9501

> <Gold.PLP.Chemscore.Hbond>
1.6880

> <Gold.PLP.Chemscore.CHOScore>
0.0000

> <Gold.PLP.Chemscore.Metal>
0.0000

> <Gold.Chemscore.Hbonds>
donor molecule, donor type, donor heavy atom, donor atom, acceptor molecule, acceptor atom, score
      P1  H  6896  6908       L1     7  1.00
      P1  H  6934  6947       L1     3  0.80

> <Gold.PLP.Chemscore.Internal.Correction>
0.5587

> <Gold.Rescore>
     Score         DG    S(hbond)    S(metal)    S(lipo)     H(rot)  DE(clash)    DE(int)     intcor
     14.95     -18.09       1.66        0.00     108.16       2.18       1.23       1.91       ----

> <Gold.Chemscore.Fitness>
14.9480

> <Gold.Chemscore.DG>
-18.0885

> <Gold.Chemscore.ZeroCoef>
-5.4800

> <Gold.Chemscore.Hbond>
1.6579

> <Gold.Chemscore.Metal>
0.0000

> <Gold.Chemscore.Lipo>
108.1646

> <Gold.Chemscore.Internal_Hbond>
0.0000

> <Gold.Chemscore.DEClash>
1.2280

> <Gold.Chemscore.DEInternal>
1.9125

> <Gold.Chemscore.Rot>
2.1813

> <Gold.Chemscore.Internal.Correction>
   9.000000E+99

> <Gold.Chemscore.Hbonds>
donor molecule, donor type, donor heavy atom, donor atom, acceptor molecule, acceptor atom, score
      P1  H  6896  6908       L1     7  0.30
      P1  H  6934  6947       L1     3  0.79

> <Gold.Chemscore.Hbond.Weighted>
-5.5375

> <Gold.Chemscore.Metal.Weighted>
-0.0000

> <Gold.Chemscore.Lipo.Weighted>
-12.6553

> <Gold.Chemscore.Internal_Hbond.Weighted>
0.0000

> <Gold.Chemscore.DEClash.Weighted>
1.2280

> <Gold.Chemscore.DEInternal.Weighted>
1.9125

> <Gold.Chemscore.Rot.Weighted>
5.5842

> <Gold.Chemscore.Internal.Correction.Weighted>
   9.000000E+99

> <Gold.Protein.RotatedTorsions>
[ 6907 6896 6895 6894 ] final  158.23 input  -60.11 | X-H torsion
[ 7974 7965 7964 7962 ] final -138.13 input  175.53 | X-H torsion
[ 8008 7997 7996 7995 ] final   65.23 input   59.86 | X-H torsion
[ 10167 10162 10161 10158 ] final -121.66 input  -65.29 | X-H torsion
[ 10718 10713 10712 10709 ] final -176.83 input   66.30 | X-H torsion
[ 10763 10752 10751 10750 ] final  -27.53 input  -60.55 | X-H torsion
[ 11005 11000 10999 10996 ] final  115.57 input  -57.11 | X-H torsion

> <Gold.Protein.ActiveResidues>
 VAL166  LYS551  ARG553  GLY616  TRP617  ASP618  TYR619  PRO620  LYS621  CYS622 
 ASP623  PHE694  ASN695  SER759  ASP760  ASP761  ALA762  ILE779  LEU786  VAL792 
 PHE793  MET794  SER795  GLU796  ALA797  LYS798  CYS799  TRP800  GLU811  SER814 

> <Gold.Protein.RotatedAtoms>
  152.0035  133.3834  159.4190 H   0  0  0  0  0  0  0  0  0  0  0  0  # atno 6907 bound_to 6896
  150.6907  134.3808  159.5042 H   0  0  0  0  0  0  0  0  0  0  0  0  # atno 6908 bound_to 6896
  152.1559  134.8951  160.0595 H   0  0  0  0  0  0  0  0  0  0  0  0  # atno 6909 bound_to 6896
  144.8784  140.6471  143.5222 H   0  0  0  0  0  0  0  0  0  0  0  0  # atno 7974 bound_to 7965
  155.6584  140.3497  155.4773 H   0  0  0  0  0  0  0  0  0  0  0  0  # atno 8008 bound_to 7997
  155.9789  140.1170  157.0768 H   0  0  0  0  0  0  0  0  0  0  0  0  # atno 8009 bound_to 7997
  154.4186  140.1142  156.5394 H   0  0  0  0  0  0  0  0  0  0  0  0  # atno 8010 bound_to 7997
  140.0226  143.5328  152.2213 H   0  0  0  0  0  0  0  0  0  0  0  0  # atno 10167 bound_to 10162
  156.8204  130.9618  151.3112 H   0  0  0  0  0  0  0  0  0  0  0  0  # atno 10718 bound_to 10713
  153.7337  135.6937  153.4983 H   0  0  0  0  0  0  0  0  0  0  0  0  # atno 10763 bound_to 10752
  153.2118  135.4400  155.0387 H   0  0  0  0  0  0  0  0  0  0  0  0  # atno 10764 bound_to 10752
  154.8244  135.3438  154.6865 H   0  0  0  0  0  0  0  0  0  0  0  0  # atno 10765 bound_to 10752
  139.9014  134.9586  156.7065 H   0  0  0  0  0  0  0  0  0  0  0  0  # atno 11005 bound_to 11000
  145.4000  139.1599  143.4183 LP  0  0  0  0  0  0  0  0  0  0  0  0  # atno 17320 bound_to 7965
  146.2978  140.4096  142.8715 LP  0  0  0  0  0  0  0  0  0  0  0  0  # atno 17321 bound_to 7965
  139.6129  144.7613  151.2911 LP  0  0  0  0  0  0  0  0  0  0  0  0  # atno 17342 bound_to 10162
  140.7336  143.6791  150.8016 LP  0  0  0  0  0  0  0  0  0  0  0  0  # atno 17343 bound_to 10162
  157.6459  130.8844  149.9538 LP  0  0  0  0  0  0  0  0  0  0  0  0  # atno 17370 bound_to 10713
  156.0992  130.3657  150.0250 LP  0  0  0  0  0  0  0  0  0  0  0  0  # atno 17371 bound_to 10713
  140.7109  133.9224  155.8084 LP  0  0  0  0  0  0  0  0  0  0  0  0  # atno 17394 bound_to 11000
  141.0301  134.0768  157.4024 LP  0  0  0  0  0  0  0  0  0  0  0  0  # atno 17395 bound_to 11000

$$$$
