AV-unprocessed.smi:2492|AV-procd|sdf|9815|dock2
  -GOLD-   2272013443D 1   1.00000     0.00000
 Structure written by MMmdl.
 32 33  0  0  0  0  0  0  0  0  2 V2000
  151.8623  144.7531  158.1083 C   0  0  0  0  0  0  0  0  0  0  0  0
  151.8004  144.8156  159.9185 S   0  0  0  0  0  0  0  0  0  0  0  0
  152.0517  143.0591  160.3050 C   0  0  2  0  0  0  0  0  0  0  0  0
  153.1591  142.8361  161.3313 C   0  0  0  0  0  0  0  0  0  0  0  0
  153.5448  141.3659  161.1559 C   0  0  0  0  0  0  0  0  0  0  0  0
  153.2661  141.0241  159.6792 C   0  0  1  0  0  0  0  0  0  0  0  0
  152.4849  139.7937  159.5705 N   0  0  0  0  0  0  0  0  0  0  0  0
  152.7314  138.7757  158.7330 C   0  0  0  0  0  0  0  0  0  0  0  0
  153.6895  138.8349  157.9589 O   0  0  0  0  0  0  0  0  0  0  0  0
  151.8514  137.7547  158.8433 N   0  5  0  0  0  0  0  0  0  0  0  0
  151.6589  136.9202  157.8086 C   0  0  0  0  0  0  0  0  0  0  0  0
  150.9440  135.7944  157.8322 N   0  0  0  0  0  0  0  0  0  0  0  0
  151.0656  135.3593  156.5496 C   0  0  0  0  0  0  0  0  0  0  0  0
  150.4309  134.1050  156.0551 C   0  0  0  0  0  0  0  0  0  0  0  0
  151.7843  136.1278  155.7448 N   0  0  0  0  0  0  0  0  0  0  0  0
  152.1824  137.1796  156.5821 O   0  0  0  0  0  0  0  0  0  0  0  0
  152.5052  142.2330  159.0988 C   0  0  0  0  0  0  0  0  0  0  0  0
  151.6948  145.7468  157.6931 H   0  0  0  0  0  0  0  0  0  0  0  0
  151.0929  144.0835  157.7238 H   0  0  0  0  0  0  0  0  0  0  0  0
  152.8354  144.3982  157.7687 H   0  0  0  0  0  0  0  0  0  0  0  0
  151.1211  142.6456  160.6970 H   0  0  0  0  0  0  0  0  0  0  0  0
  154.0180  143.4673  161.0978 H   0  0  0  0  0  0  0  0  0  0  0  0
  152.8424  143.0670  162.3486 H   0  0  0  0  0  0  0  0  0  0  0  0
  154.5837  141.1828  161.4316 H   0  0  0  0  0  0  0  0  0  0  0  0
  152.9257  140.7560  161.8161 H   0  0  0  0  0  0  0  0  0  0  0  0
  154.2127  140.9001  159.1500 H   0  0  0  0  0  0  0  0  0  0  0  0
  151.6907  139.7023  160.1869 H   0  0  0  0  0  0  0  0  0  0  0  0
  149.5492  134.3403  155.4590 H   0  0  0  0  0  0  0  0  0  0  0  0
  150.1259  133.4736  156.8902 H   0  0  0  0  0  0  0  0  0  0  0  0
  151.1303  133.5420  155.4365 H   0  0  0  0  0  0  0  0  0  0  0  0
  151.6689  141.9506  158.4579 H   0  0  0  0  0  0  0  0  0  0  0  0
  153.1907  142.8210  158.4870 H   0  0  0  0  0  0  0  0  0  0  0  0
  1  2  1  0  0  0  0
  1 18  1  0  0  0  0
  1 19  1  0  0  0  0
  1 20  1  0  0  0  0
  2  3  1  0  0  0  0
  3 17  1  0  0  0  0
  3  4  1  0  0  0  0
  3 21  1  0  0  0  0
  4  5  1  0  0  0  0
  4 22  1  0  0  0  0
  4 23  1  0  0  0  0
  5  6  1  0  0  0  0
  5 24  1  0  0  0  0
  5 25  1  0  0  0  0
  6  7  1  0  0  0  0
  6 17  1  0  0  0  0
  6 26  1  0  0  0  0
  7  8  1  0  0  0  0
  7 27  1  0  0  0  0
  8  9  2  0  0  0  0
  8 10  1  0  0  0  0
 10 11  1  0  0  0  0
 11 16  1  0  0  0  0
 11 12  2  0  0  0  0
 12 13  1  0  0  0  0
 13 14  1  0  0  0  0
 13 15  2  0  0  0  0
 14 28  1  0  0  0  0
 14 29  1  0  0  0  0
 14 30  1  0  0  0  0
 15 16  1  0  0  0  0
 17 31  1  0  0  0  0
 17 32  1  0  0  0  0
M  CHG  1  10  -1
M  END
> <s_m_source_file>
AV-unprocessed.smi

> <i_m_source_file_index>
2492

> <i_lp_mmshare_version>
43012

> <i_f3d_flags>
0

> <s_epik_input>
W0NIM11TW0NAQEhdMVtDSDJdW0NIMl1bQ0BIXShbQ0gyXTEpW05IXUMoPU8pW05IXWMybmMoW0NIM10pbm8y

> <s_epik_cmdline>
J2VwaWtfcHl0aG9uJywgJy1waCcsICc3LjAnLCAnLXRuJywgJzgnLCAnLW1hJywgJzIwMCcsICctbWV0YWxfYmluZGluZycsICctaW1hZScsICc8aW5maWxlLm1hZT4nLCAnLW9tYWUnLCAnPG91dGZpbGUubWFlPic=

> <r_lp_tautomer_probability>
1

> <r_epik_Ionization_Penalty>
6.26454

> <r_epik_Ionization_Penalty_Charging>
6.26445

> <r_epik_Ionization_Penalty_Neutral>
9.05726e-05

> <r_epik_State_Penalty>
6.26444

> <r_epik_Charging_Adjusted_Penalty>
12.5289

> <i_epik_Tot_Q>
-1

> <i_epik_Tot_abs_Q>
1

> <r_epik_Metal_State_Penalty>
2.20125

> <b_epik_Metal_Only>
1

> <s_lp_Force_Field>
OPLS_2005

> <r_lp_Energy>
10.5247

> <b_lp_Chiralities_Consistent>
1

> <s_lp_Variant>
AV-unprocessed.smi:2492-5

> <Gold.Version>
5.8.1

> <Gold.Id.Protein>
6NUR|6NUR_protein|mol2

> <Gold.PLP.Fitness>
38.6838

> <Gold.PLP.PLP>
-33.6655

> <Gold.PLP.part.hbond>
-3.0000

> <Gold.PLP.part.metal>
0.0000

> <Gold.PLP.part.buried>
-5.1190

> <Gold.PLP.part.nonpolar>
-25.8134

> <Gold.PLP.part.repulsive>
0.1777

> <Gold.PLP.ligand.clash>
0.0000

> <Gold.PLP.ligand.torsion>
0.9791

> <Gold.PLP.Chemscore.Hbond>
2.3196

> <Gold.PLP.Chemscore.CHOScore>
0.0000

> <Gold.PLP.Chemscore.Metal>
0.0000

> <Gold.Chemscore.Hbonds>
donor molecule, donor type, donor heavy atom, donor atom, acceptor molecule, acceptor atom, score
      P1  H  6896  6908       L1    12  0.40
      P1  H  7997  8010       L1     9  1.00
      P1  H 10752 10764       L1    15  1.00

> <Gold.PLP.Chemscore.Internal.Correction>
0.0178

> <Gold.Rescore>
     Score         DG    S(hbond)    S(metal)    S(lipo)     H(rot)  DE(clash)    DE(int)     intcor
     17.54     -20.04       2.40        0.00      83.75       1.27       0.06       2.45       ----

> <Gold.Chemscore.Fitness>
17.5356

> <Gold.Chemscore.DG>
-20.0380

> <Gold.Chemscore.ZeroCoef>
-5.4800

> <Gold.Chemscore.Hbond>
2.3993

> <Gold.Chemscore.Metal>
0.0000

> <Gold.Chemscore.Lipo>
83.7495

> <Gold.Chemscore.Internal_Hbond>
0.0000

> <Gold.Chemscore.DEClash>
0.0553

> <Gold.Chemscore.DEInternal>
2.4471

> <Gold.Chemscore.Rot>
1.2712

> <Gold.Chemscore.Internal.Correction>
   9.000000E+99

> <Gold.Chemscore.Hbonds>
donor molecule, donor type, donor heavy atom, donor atom, acceptor molecule, acceptor atom, score
      P1  H  6896  6908       L1    12  0.35
      P1  H  7997  8010       L1     9  1.00
      P1  H 10752 10764       L1    15  0.87

> <Gold.Chemscore.Hbond.Weighted>
-8.0135

> <Gold.Chemscore.Metal.Weighted>
-0.0000

> <Gold.Chemscore.Lipo.Weighted>
-9.7987

> <Gold.Chemscore.Internal_Hbond.Weighted>
0.0000

> <Gold.Chemscore.DEClash.Weighted>
0.0553

> <Gold.Chemscore.DEInternal.Weighted>
2.4471

> <Gold.Chemscore.Rot.Weighted>
3.2542

> <Gold.Chemscore.Internal.Correction.Weighted>
   9.000000E+99

> <Gold.Protein.RotatedTorsions>
[ 6907 6896 6895 6894 ] final -175.32 input  -60.11 | X-H torsion
[ 7974 7965 7964 7962 ] final   14.66 input  175.53 | X-H torsion
[ 8008 7997 7996 7995 ] final   40.37 input   59.86 | X-H torsion
[ 10167 10162 10161 10158 ] final   83.80 input  -65.29 | X-H torsion
[ 10718 10713 10712 10709 ] final -130.70 input   66.30 | X-H torsion
[ 10763 10752 10751 10750 ] final  -60.86 input  -60.55 | X-H torsion
[ 11005 11000 10999 10996 ] final   49.54 input  -57.11 | X-H torsion

> <Gold.Protein.ActiveResidues>
 VAL166  LYS551  ARG553  GLY616  TRP617  ASP618  TYR619  PRO620  LYS621  CYS622 
 ASP623  PHE694  ASN695  SER759  ASP760  ASP761  ALA762  ILE779  LEU786  VAL792 
 PHE793  MET794  SER795  GLU796  ALA797  LYS798  CYS799  TRP800  GLU811  SER814 

> <Gold.Protein.RotatedAtoms>
  151.5866  133.3371  159.3018 H   0  0  0  0  0  0  0  0  0  0  0  0  # atno 6907 bound_to 6896
  150.8283  134.7528  159.6843 H   0  0  0  0  0  0  0  0  0  0  0  0  # atno 6908 bound_to 6896
  152.4370  134.5673  159.9962 H   0  0  0  0  0  0  0  0  0  0  0  0  # atno 6909 bound_to 6896
  146.2299  139.9009  142.8539 H   0  0  0  0  0  0  0  0  0  0  0  0  # atno 7974 bound_to 7965
  155.2520  140.3353  155.4281 H   0  0  0  0  0  0  0  0  0  0  0  0  # atno 8008 bound_to 7997
  156.2212  140.1809  156.7517 H   0  0  0  0  0  0  0  0  0  0  0  0  # atno 8009 bound_to 7997
  154.5828  140.0651  156.9113 H   0  0  0  0  0  0  0  0  0  0  0  0  # atno 8010 bound_to 7997
  139.9146  144.6251  150.8502 H   0  0  0  0  0  0  0  0  0  0  0  0  # atno 10167 bound_to 10162
  156.2170  130.6955  151.0714 H   0  0  0  0  0  0  0  0  0  0  0  0  # atno 10718 bound_to 10713
  154.2757  135.6282  153.5327 H   0  0  0  0  0  0  0  0  0  0  0  0  # atno 10763 bound_to 10752
  152.9873  135.5621  154.5551 H   0  0  0  0  0  0  0  0  0  0  0  0  # atno 10764 bound_to 10752
  154.5131  135.2878  155.1301 H   0  0  0  0  0  0  0  0  0  0  0  0  # atno 10765 bound_to 10752
  140.1094  134.4975  155.8691 H   0  0  0  0  0  0  0  0  0  0  0  0  # atno 11005 bound_to 11000
  145.2324  140.9978  143.3983 LP  0  0  0  0  0  0  0  0  0  0  0  0  # atno 17320 bound_to 7965
  144.9519  139.4073  143.6398 LP  0  0  0  0  0  0  0  0  0  0  0  0  # atno 17321 bound_to 7965
  140.7677  143.3341  151.2347 LP  0  0  0  0  0  0  0  0  0  0  0  0  # atno 17342 bound_to 10162
  139.6913  143.9687  152.2861 LP  0  0  0  0  0  0  0  0  0  0  0  0  # atno 17343 bound_to 10162
  157.7068  131.0752  150.6638 LP  0  0  0  0  0  0  0  0  0  0  0  0  # atno 17370 bound_to 10713
  156.6700  130.4537  149.5660 LP  0  0  0  0  0  0  0  0  0  0  0  0  # atno 17371 bound_to 10713
  141.2126  133.6722  156.6675 LP  0  0  0  0  0  0  0  0  0  0  0  0  # atno 17394 bound_to 11000
  140.3111  134.8085  157.4177 LP  0  0  0  0  0  0  0  0  0  0  0  0  # atno 17395 bound_to 11000

$$$$
