AV-unprocessed.smi:2547|AV-procd|sdf|10002|dock3
  -GOLD-   2272014 53D 1   1.00000     0.00000
 Structure written by MMmdl.
 44 45  0  0  0  0  0  0  0  0  2 V2000
  148.2746  135.6264  155.1597 C   0  0  0  0  0  0  0  0  0  0  0  0
  148.9776  136.8185  154.6395 N   0  3  2  0  0  0  0  0  0  0  0  0
  150.3583  136.9368  155.1706 C   0  0  0  0  0  0  0  0  0  0  0  0
  151.1077  138.1112  154.5145 C   0  0  0  0  0  0  0  0  0  0  0  0
  150.3434  139.4392  154.6610 C   0  0  2  0  0  0  0  0  0  0  0  0
  150.3939  139.9094  156.0453 N   0  0  0  0  0  0  0  0  0  0  0  0
  151.5110  140.0516  156.7740 C   0  0  0  0  0  0  0  0  0  0  0  0
  152.6373  139.8069  156.3404 O   0  0  0  0  0  0  0  0  0  0  0  0
  151.2311  140.4916  158.0136 N   0  0  0  0  0  0  0  0  0  0  0  0
  152.1390  140.7677  159.0705 C   0  0  0  0  0  0  0  0  0  0  0  0
  153.2363  139.8869  159.1665 C   0  0  0  0  0  0  0  0  0  0  0  0
  154.1867  140.0838  160.1841 C   0  0  0  0  0  0  0  0  0  0  0  0
  154.0166  141.1553  161.0787 C   0  0  0  0  0  0  0  0  0  0  0  0
  152.8932  142.0030  160.9266 C   0  0  0  0  0  0  0  0  0  0  0  0
  152.6670  143.0958  161.7942 N   0  0  0  0  0  0  0  0  0  0  0  0
  151.9797  144.2840  161.2976 C   0  0  0  0  0  0  0  0  0  0  0  0
  153.2211  143.0873  163.1422 C   0  0  0  0  0  0  0  0  0  0  0  0
  151.9876  141.7957  159.9398 N   0  0  0  0  0  0  0  0  0  0  0  0
  148.8930  139.2637  154.1662 C   0  0  0  0  0  0  0  0  0  0  0  0
  148.1967  138.0651  154.8349 C   0  0  0  0  0  0  0  0  0  0  0  0
  148.1395  135.6918  156.2402 H   0  0  0  0  0  0  0  0  0  0  0  0
  148.8390  134.7197  154.9394 H   0  0  0  0  0  0  0  0  0  0  0  0
  147.2922  135.5259  154.6969 H   0  0  0  0  0  0  0  0  0  0  0  0
  150.3234  137.0663  156.2534 H   0  0  0  0  0  0  0  0  0  0  0  0
  150.9021  136.0105  154.9814 H   0  0  0  0  0  0  0  0  0  0  0  0
  152.1091  138.2015  154.9373 H   0  0  0  0  0  0  0  0  0  0  0  0
  151.2464  137.8950  153.4542 H   0  0  0  0  0  0  0  0  0  0  0  0
  150.8403  140.1840  154.0363 H   0  0  0  0  0  0  0  0  0  0  0  0
  149.5123  140.1287  156.4853 H   0  0  0  0  0  0  0  0  0  0  0  0
  150.2576  140.6474  158.2280 H   0  0  0  0  0  0  0  0  0  0  0  0
  153.3533  139.0681  158.4716 H   0  0  0  0  0  0  0  0  0  0  0  0
  155.0348  139.4217  160.2776 H   0  0  0  0  0  0  0  0  0  0  0  0
  154.7466  141.3037  161.8599 H   0  0  0  0  0  0  0  0  0  0  0  0
  152.5537  144.7513  160.4970 H   0  0  0  0  0  0  0  0  0  0  0  0
  151.8418  145.0234  162.0865 H   0  0  0  0  0  0  0  0  0  0  0  0
  150.9936  144.0248  160.9107 H   0  0  0  0  0  0  0  0  0  0  0  0
  154.3053  142.9757  163.1110 H   0  0  0  0  0  0  0  0  0  0  0  0
  152.8010  142.2665  163.7242 H   0  0  0  0  0  0  0  0  0  0  0  0
  152.9978  144.0153  163.6687 H   0  0  0  0  0  0  0  0  0  0  0  0
  148.3148  140.1733  154.3331 H   0  0  0  0  0  0  0  0  0  0  0  0
  148.9020  139.1106  153.0862 H   0  0  0  0  0  0  0  0  0  0  0  0
  147.2005  137.9419  154.4083 H   0  0  0  0  0  0  0  0  0  0  0  0
  148.0622  138.2513  155.9017 H   0  0  0  0  0  0  0  0  0  0  0  0
  149.0632  136.6868  153.6416 H   0  0  0  0  0  0  0  0  0  0  0  0
  1  2  1  0  0  0  0
  1 21  1  0  0  0  0
  1 22  1  0  0  0  0
  1 23  1  0  0  0  0
  2 20  1  0  0  0  0
  2  3  1  0  0  0  0
  2 44  1  0  0  0  0
  3  4  1  0  0  0  0
  3 24  1  0  0  0  0
  3 25  1  0  0  0  0
  4  5  1  0  0  0  0
  4 26  1  0  0  0  0
  4 27  1  0  0  0  0
  5  6  1  0  0  0  0
  5 19  1  0  0  0  0
  5 28  1  0  0  0  0
  6  7  1  0  0  0  0
  6 29  1  0  0  0  0
  7  8  2  0  0  0  0
  7  9  1  0  0  0  0
  9 10  1  0  0  0  0
  9 30  1  0  0  0  0
 10 18  1  0  0  0  0
 10 11  2  0  0  0  0
 11 12  1  0  0  0  0
 11 31  1  0  0  0  0
 12 13  2  0  0  0  0
 12 32  1  0  0  0  0
 13 14  1  0  0  0  0
 13 33  1  0  0  0  0
 14 15  1  0  0  0  0
 14 18  2  0  0  0  0
 15 16  1  0  0  0  0
 15 17  1  0  0  0  0
 16 34  1  0  0  0  0
 16 35  1  0  0  0  0
 16 36  1  0  0  0  0
 17 37  1  0  0  0  0
 17 38  1  0  0  0  0
 17 39  1  0  0  0  0
 19 20  1  0  0  0  0
 19 40  1  0  0  0  0
 19 41  1  0  0  0  0
 20 42  1  0  0  0  0
 20 43  1  0  0  0  0
M  CHG  1   2   1
M  END
> <s_m_source_file>
AV-unprocessed.smi

> <i_m_source_file_index>
2547

> <i_lp_mmshare_version>
43012

> <i_f3d_flags>
0

> <s_epik_input>
W0NIM11OMVtDSDJdW0NIMl1bQ0hdKFtDSDJdW0NIMl0xKVtOSF1DKD1PKVtOSF1jMltjSF1bY0hdW2NIXWMobjIpTihbQ0gzXSlbQ0gzXQ==

> <s_epik_cmdline>
J2VwaWtfcHl0aG9uJywgJy1waCcsICc3LjAnLCAnLXRuJywgJzgnLCAnLW1hJywgJzIwMCcsICctbWV0YWxfYmluZGluZycsICctaW1hZScsICc8aW5maWxlLm1hZT4nLCAnLW9tYWUnLCAnPG91dGZpbGUubWFlPic=

> <r_lp_tautomer_probability>
1

> <r_epik_Ionization_Penalty>
0.0212039

> <r_epik_Ionization_Penalty_Charging>
0.00366825

> <r_epik_Ionization_Penalty_Neutral>
0.0175357

> <r_epik_State_Penalty>
0.0137702

> <r_epik_Charging_Adjusted_Penalty>
0.0174385

> <i_epik_Tot_Q>
1

> <i_epik_Tot_abs_Q>
1

> <r_epik_Metal_State_Penalty>
0.0148742

> <b_epik_Metal_Only>
0

> <s_lp_Force_Field>
OPLS_2005

> <r_lp_Energy>
18.1173

> <b_lp_Chiralities_Consistent>
1

> <s_lp_Variant>
AV-unprocessed.smi:2547-2

> <Gold.Version>
5.8.1

> <Gold.Id.Protein>
6NUR|6NUR_protein|mol2

> <Gold.PLP.Fitness>
48.8286

> <Gold.PLP.PLP>
-41.1083

> <Gold.PLP.part.hbond>
-2.0000

> <Gold.PLP.part.metal>
0.0000

> <Gold.PLP.part.buried>
-4.8659

> <Gold.PLP.part.nonpolar>
-34.8411

> <Gold.PLP.part.repulsive>
0.1686

> <Gold.PLP.ligand.clash>
0.0000

> <Gold.PLP.ligand.torsion>
0.6497

> <Gold.PLP.Chemscore.Hbond>
3.0000

> <Gold.PLP.Chemscore.CHOScore>
0.0000

> <Gold.PLP.Chemscore.Metal>
0.0000

> <Gold.Chemscore.Hbonds>
donor molecule, donor type, donor heavy atom, donor atom, acceptor molecule, acceptor atom, score
      L1  H     2    44       P1  7948  2.00
      P1  H  7997  8008       L1     8  0.93

> <Gold.PLP.Chemscore.Internal.Correction>
0.0197

> <Gold.Rescore>
     Score         DG    S(hbond)    S(metal)    S(lipo)     H(rot)  DE(clash)    DE(int)     intcor
     16.18     -19.02       1.96        0.00      81.67       1.00       0.91       1.93       ----

> <Gold.Chemscore.Fitness>
16.1769

> <Gold.Chemscore.DG>
-19.0177

> <Gold.Chemscore.ZeroCoef>
-5.4800

> <Gold.Chemscore.Hbond>
1.9588

> <Gold.Chemscore.Metal>
0.0000

> <Gold.Chemscore.Lipo>
81.6684

> <Gold.Chemscore.Internal_Hbond>
0.0000

> <Gold.Chemscore.DEClash>
0.9117

> <Gold.Chemscore.DEInternal>
1.9292

> <Gold.Chemscore.Rot>
1.0000

> <Gold.Chemscore.Internal.Correction>
   9.000000E+99

> <Gold.Chemscore.Hbonds>
donor molecule, donor type, donor heavy atom, donor atom, acceptor molecule, acceptor atom, score
      L1  H     2    44       P1  7948  1.00
      P1  H  7997  8008       L1     8  0.90

> <Gold.Chemscore.Hbond.Weighted>
-6.5425

> <Gold.Chemscore.Metal.Weighted>
-0.0000

> <Gold.Chemscore.Lipo.Weighted>
-9.5552

> <Gold.Chemscore.Internal_Hbond.Weighted>
0.0000

> <Gold.Chemscore.DEClash.Weighted>
0.9117

> <Gold.Chemscore.DEInternal.Weighted>
1.9292

> <Gold.Chemscore.Rot.Weighted>
2.5600

> <Gold.Chemscore.Internal.Correction.Weighted>
   9.000000E+99

> <Gold.Protein.RotatedTorsions>
[ 6907 6896 6895 6894 ] final  -41.25 input  -60.11 | X-H torsion
[ 7974 7965 7964 7962 ] final  -98.92 input  175.53 | X-H torsion
[ 8008 7997 7996 7995 ] final  -66.11 input   59.86 | X-H torsion
[ 10167 10162 10161 10158 ] final   87.65 input  -65.29 | X-H torsion
[ 10718 10713 10712 10709 ] final -124.57 input   66.30 | X-H torsion
[ 10763 10752 10751 10750 ] final -130.19 input  -60.55 | X-H torsion
[ 11005 11000 10999 10996 ] final -116.05 input  -57.11 | X-H torsion

> <Gold.Protein.ActiveResidues>
 VAL166  LYS551  ARG553  GLY616  TRP617  ASP618  TYR619  PRO620  LYS621  CYS622 
 ASP623  PHE694  ASN695  SER759  ASP760  ASP761  ALA762  ILE779  LEU786  VAL792 
 PHE793  MET794  SER795  GLU796  ALA797  LYS798  CYS799  TRP800  GLU811  SER814 

> <Gold.Protein.RotatedAtoms>
  150.9690  134.9066  159.7776 H   0  0  0  0  0  0  0  0  0  0  0  0  # atno 6907 bound_to 6896
  152.5183  134.3567  159.9280 H   0  0  0  0  0  0  0  0  0  0  0  0  # atno 6908 bound_to 6896
  151.3577  133.3860  159.2721 H   0  0  0  0  0  0  0  0  0  0  0  0  # atno 6909 bound_to 6896
  145.3143  140.9407  143.2752 H   0  0  0  0  0  0  0  0  0  0  0  0  # atno 7974 bound_to 7965
  154.4714  140.0919  156.7154 H   0  0  0  0  0  0  0  0  0  0  0  0  # atno 8008 bound_to 7997
  155.4714  140.3464  155.4308 H   0  0  0  0  0  0  0  0  0  0  0  0  # atno 8009 bound_to 7997
  156.1045  140.1431  156.9411 H   0  0  0  0  0  0  0  0  0  0  0  0  # atno 8010 bound_to 7997
  139.8752  144.6471  150.8904 H   0  0  0  0  0  0  0  0  0  0  0  0  # atno 10167 bound_to 10162
  156.1599  130.6594  151.0035 H   0  0  0  0  0  0  0  0  0  0  0  0  # atno 10718 bound_to 10713
  154.8756  135.3871  154.4042 H   0  0  0  0  0  0  0  0  0  0  0  0  # atno 10763 bound_to 10752
  153.4763  135.7030  153.5969 H   0  0  0  0  0  0  0  0  0  0  0  0  # atno 10764 bound_to 10752
  153.4404  135.3857  155.2192 H   0  0  0  0  0  0  0  0  0  0  0  0  # atno 10765 bound_to 10752
  141.0448  133.9780  157.2936 H   0  0  0  0  0  0  0  0  0  0  0  0  # atno 11005 bound_to 11000
  144.8990  139.4674  143.6641 LP  0  0  0  0  0  0  0  0  0  0  0  0  # atno 17320 bound_to 7965
  146.3106  139.7733  142.9022 LP  0  0  0  0  0  0  0  0  0  0  0  0  # atno 17321 bound_to 7965
  140.7754  143.3631  151.1791 LP  0  0  0  0  0  0  0  0  0  0  0  0  # atno 17342 bound_to 10162
  139.7247  143.9168  152.2998 LP  0  0  0  0  0  0  0  0  0  0  0  0  # atno 17343 bound_to 10162
  157.6724  131.0858  150.7578 LP  0  0  0  0  0  0  0  0  0  0  0  0  # atno 17370 bound_to 10713
  156.7641  130.4808  149.5431 LP  0  0  0  0  0  0  0  0  0  0  0  0  # atno 17371 bound_to 10713
  139.9303  135.0200  156.8377 LP  0  0  0  0  0  0  0  0  0  0  0  0  # atno 17394 bound_to 11000
  140.6167  134.0031  155.7600 LP  0  0  0  0  0  0  0  0  0  0  0  0  # atno 17395 bound_to 11000

$$$$
