AV-unprocessed.smi:3181|AV-procd|sdf|12139|dock9
  -GOLD-   2272017583D 1   1.00000     0.00000
 Structure written by MMmdl.
 42 43  0  0  0  0  0  0  0  0  2 V2000
  151.6969  139.0248  157.0202 C   0  0  0  0  0  0  0  0  0  0  0  0
  150.9191  140.1014  157.7975 C   0  0  2  0  0  0  0  0  0  0  0  0
  150.6581  141.3719  156.9642 C   0  0  0  0  0  0  0  0  0  0  0  0
  149.7903  141.1316  155.8260 N   0  0  0  0  0  0  0  0  0  0  0  0
  148.6449  141.7158  155.4702 C   0  0  0  0  0  0  0  0  0  0  0  0
  148.1210  141.2299  154.3539 N   0  0  0  0  0  0  0  0  0  0  0  0
  149.0629  140.2877  154.0502 C   0  0  0  0  0  0  0  0  0  0  0  0
  150.0851  140.1889  154.9004 N   0  0  0  0  0  0  0  0  0  0  0  0
  151.6561  140.4660  159.0287 N   0  3  0  0  0  0  0  0  0  0  0  0
  152.8527  141.3219  158.8459 C   0  0  2  0  0  0  0  0  0  0  0  0
  153.9924  140.8577  159.7678 C   0  0  0  0  0  0  0  0  0  0  0  0
  153.7046  141.1723  161.2443 C   0  0  0  0  0  0  0  0  0  0  0  0
  153.4107  142.6683  161.4759 C   0  0  2  0  0  0  0  0  0  0  0  0
  153.1394  142.9195  162.9699 C   0  0  0  0  0  0  0  0  0  0  0  0
  152.2516  143.1466  160.5621 C   0  0  1  0  0  0  0  0  0  0  0  0
  151.9528  144.6492  160.7093 C   0  0  0  0  0  0  0  0  0  0  0  0
  152.5512  142.8162  159.0832 C   0  0  0  0  0  0  0  0  0  0  0  0
  151.1420  138.6815  156.1470 H   0  0  0  0  0  0  0  0  0  0  0  0
  151.8902  138.1489  157.6396 H   0  0  0  0  0  0  0  0  0  0  0  0
  152.6591  139.4042  156.6744 H   0  0  0  0  0  0  0  0  0  0  0  0
  149.9490  139.6824  158.0696 H   0  0  0  0  0  0  0  0  0  0  0  0
  150.1913  142.1382  157.5847 H   0  0  0  0  0  0  0  0  0  0  0  0
  151.5997  141.7924  156.6063 H   0  0  0  0  0  0  0  0  0  0  0  0
  148.1837  142.5095  156.0399 H   0  0  0  0  0  0  0  0  0  0  0  0
  148.9925  139.6553  153.1773 H   0  0  0  0  0  0  0  0  0  0  0  0
  151.0222  140.9200  159.6708 H   0  0  0  0  0  0  0  0  0  0  0  0
  153.1896  141.1893  157.8166 H   0  0  0  0  0  0  0  0  0  0  0  0
  154.1722  139.7892  159.6403 H   0  0  0  0  0  0  0  0  0  0  0  0
  154.9166  141.3570  159.4736 H   0  0  0  0  0  0  0  0  0  0  0  0
  152.8604  140.5735  161.5892 H   0  0  0  0  0  0  0  0  0  0  0  0
  154.5597  140.8655  161.8478 H   0  0  0  0  0  0  0  0  0  0  0  0
  154.3083  143.2275  161.2070 H   0  0  0  0  0  0  0  0  0  0  0  0
  152.2116  142.4449  163.2905 H   0  0  0  0  0  0  0  0  0  0  0  0
  153.0686  143.9830  163.1962 H   0  0  0  0  0  0  0  0  0  0  0  0
  153.9453  142.5193  163.5859 H   0  0  0  0  0  0  0  0  0  0  0  0
  151.3479  142.6083  160.8511 H   0  0  0  0  0  0  0  0  0  0  0  0
  152.8397  145.2521  160.5116 H   0  0  0  0  0  0  0  0  0  0  0  0
  151.5950  144.8954  161.7088 H   0  0  0  0  0  0  0  0  0  0  0  0
  151.1763  144.9639  160.0115 H   0  0  0  0  0  0  0  0  0  0  0  0
  153.4157  143.3989  158.7610 H   0  0  0  0  0  0  0  0  0  0  0  0
  151.7278  143.1439  158.4484 H   0  0  0  0  0  0  0  0  0  0  0  0
  151.9687  139.6042  159.4529 H   0  0  0  0  0  0  0  0  0  0  0  0
  1  2  1  0  0  0  0
  1 18  1  0  0  0  0
  1 19  1  0  0  0  0
  1 20  1  0  0  0  0
  2  3  1  0  0  0  0
  2  9  1  0  0  0  0
  2 21  1  0  0  0  0
  3  4  1  0  0  0  0
  3 22  1  0  0  0  0
  3 23  1  0  0  0  0
  4  8  1  0  0  0  0
  4  5  1  0  0  0  0
  5  6  2  0  0  0  0
  5 24  1  0  0  0  0
  6  7  1  0  0  0  0
  7  8  2  0  0  0  0
  7 25  1  0  0  0  0
  9 10  1  0  0  0  0
  9 26  1  0  0  0  0
  9 42  1  0  0  0  0
 10 17  1  0  0  0  0
 10 11  1  0  0  0  0
 10 27  1  0  0  0  0
 11 12  1  0  0  0  0
 11 28  1  0  0  0  0
 11 29  1  0  0  0  0
 12 13  1  0  0  0  0
 12 30  1  0  0  0  0
 12 31  1  0  0  0  0
 13 14  1  0  0  0  0
 13 15  1  0  0  0  0
 13 32  1  0  0  0  0
 14 33  1  0  0  0  0
 14 34  1  0  0  0  0
 14 35  1  0  0  0  0
 15 16  1  0  0  0  0
 15 17  1  0  0  0  0
 15 36  1  0  0  0  0
 16 37  1  0  0  0  0
 16 38  1  0  0  0  0
 16 39  1  0  0  0  0
 17 40  1  0  0  0  0
 17 41  1  0  0  0  0
M  CHG  1   9   1
M  END
> <s_m_source_file>
AV-unprocessed.smi

> <i_m_source_file_index>
3181

> <i_lp_mmshare_version>
43012

> <i_f3d_flags>
0

> <s_epik_input>
bjFbY0hdbltjSF1uMVtDSDJdW0NAQEhdKFtDSDNdKVtOSF1bQ0BASF0yW0NIMl1bQ0gyXVtDQEBIXShbQ0gzXSlbQ0BASF0oW0NIM10pW0NIMl0y

> <s_epik_cmdline>
J2VwaWtfcHl0aG9uJywgJy1waCcsICc3LjAnLCAnLXRuJywgJzgnLCAnLW1hJywgJzIwMCcsICctbWV0YWxfYmluZGluZycsICctaW1hZScsICc8aW5maWxlLm1hZT4nLCAnLW9tYWUnLCAnPG91dGZpbGUubWFlPic=

> <r_lp_tautomer_probability>
1

> <r_epik_Ionization_Penalty>
0.000617007

> <r_epik_Ionization_Penalty_Charging>
0.000616215

> <r_epik_Ionization_Penalty_Neutral>
7.92544e-07

> <r_epik_State_Penalty>
0.000388807

> <r_epik_Charging_Adjusted_Penalty>
0.00100502

> <i_epik_Tot_Q>
1

> <i_epik_Tot_abs_Q>
1

> <r_epik_Metal_State_Penalty>
-0

> <b_epik_Metal_Only>
0

> <s_lp_Force_Field>
OPLS_2005

> <r_lp_Energy>
23.3583

> <b_lp_Chiralities_Consistent>
1

> <s_lp_Variant>
AV-unprocessed.smi:3181-5

> <Gold.Version>
5.8.1

> <Gold.Id.Protein>
6NUR|6NUR_protein|mol2

> <Gold.PLP.Fitness>
42.8735

> <Gold.PLP.PLP>
-36.7753

> <Gold.PLP.part.hbond>
-1.0000

> <Gold.PLP.part.metal>
0.0000

> <Gold.PLP.part.buried>
-1.6817

> <Gold.PLP.part.nonpolar>
-34.2306

> <Gold.PLP.part.repulsive>
0.3746

> <Gold.PLP.ligand.clash>
0.0000

> <Gold.PLP.ligand.torsion>
0.6652

> <Gold.PLP.Chemscore.Hbond>
0.6370

> <Gold.PLP.Chemscore.CHOScore>
1.8350

> <Gold.PLP.Chemscore.Metal>
0.0000

> <Gold.Chemscore.Hbonds>
donor molecule, donor type, donor heavy atom, donor atom, acceptor molecule, acceptor atom, score
      P1  H  7989  7998       L1     8  0.48
      L1  C     5    24       P1  8028  0.78
      L1  C     7    25       P1  7957  1.00

> <Gold.PLP.Chemscore.Internal.Correction>
0.0128

> <Gold.Rescore>
     Score         DG    S(hbond)    S(metal)    S(lipo)     H(rot)  DE(clash)    DE(int)     intcor
     11.58     -13.47       0.35        0.00     104.30       2.11       0.22       1.67       ----

> <Gold.Chemscore.Fitness>
11.5766

> <Gold.Chemscore.DG>
-13.4667

> <Gold.Chemscore.ZeroCoef>
-5.4800

> <Gold.Chemscore.Hbond>
0.3545

> <Gold.Chemscore.Metal>
0.0000

> <Gold.Chemscore.Lipo>
104.3002

> <Gold.Chemscore.Internal_Hbond>
0.0000

> <Gold.Chemscore.DEClash>
0.2189

> <Gold.Chemscore.DEInternal>
1.6712

> <Gold.Chemscore.Rot>
2.1095

> <Gold.Chemscore.Internal.Correction>
   9.000000E+99

> <Gold.Chemscore.Hbonds>
donor molecule, donor type, donor heavy atom, donor atom, acceptor molecule, acceptor atom, score
      P1  H  7989  7998       L1     8  0.06

> <Gold.Chemscore.Hbond.Weighted>
-1.1839

> <Gold.Chemscore.Metal.Weighted>
-0.0000

> <Gold.Chemscore.Lipo.Weighted>
-12.2031

> <Gold.Chemscore.Internal_Hbond.Weighted>
0.0000

> <Gold.Chemscore.DEClash.Weighted>
0.2189

> <Gold.Chemscore.DEInternal.Weighted>
1.6712

> <Gold.Chemscore.Rot.Weighted>
5.4003

> <Gold.Chemscore.Internal.Correction.Weighted>
   9.000000E+99

> <Gold.Protein.RotatedTorsions>
[ 6907 6896 6895 6894 ] final -132.24 input  -60.11 | X-H torsion
[ 7974 7965 7964 7962 ] final  -93.84 input  175.53 | X-H torsion
[ 8008 7997 7996 7995 ] final -142.79 input   59.86 | X-H torsion
[ 10167 10162 10161 10158 ] final  102.31 input  -65.29 | X-H torsion
[ 10718 10713 10712 10709 ] final  -21.16 input   66.30 | X-H torsion
[ 10763 10752 10751 10750 ] final   88.98 input  -60.55 | X-H torsion
[ 11005 11000 10999 10996 ] final   64.02 input  -57.11 | X-H torsion

> <Gold.Protein.ActiveResidues>
 VAL166  LYS551  ARG553  GLY616  TRP617  ASP618  TYR619  PRO620  LYS621  CYS622 
 ASP623  PHE694  ASN695  SER759  ASP760  ASP761  ALA762  ILE779  LEU786  VAL792 
 PHE793  MET794  SER795  GLU796  ALA797  LYS798  CYS799  TRP800  GLU811  SER814 

> <Gold.Protein.RotatedAtoms>
  150.9601  133.6454  159.2755 H   0  0  0  0  0  0  0  0  0  0  0  0  # atno 6907 bound_to 6896
  151.3779  135.0933  159.9496 H   0  0  0  0  0  0  0  0  0  0  0  0  # atno 6908 bound_to 6896
  152.5144  133.9142  159.7557 H   0  0  0  0  0  0  0  0  0  0  0  0  # atno 6909 bound_to 6896
  145.3812  140.9518  143.2392 H   0  0  0  0  0  0  0  0  0  0  0  0  # atno 7974 bound_to 7965
  155.5000  140.0575  157.2940 H   0  0  0  0  0  0  0  0  0  0  0  0  # atno 8008 bound_to 7997
  154.4590  140.1987  156.0246 H   0  0  0  0  0  0  0  0  0  0  0  0  # atno 8009 bound_to 7997
  156.0855  140.3241  155.7752 H   0  0  0  0  0  0  0  0  0  0  0  0  # atno 8010 bound_to 7997
  139.7361  144.7023  151.0646 H   0  0  0  0  0  0  0  0  0  0  0  0  # atno 10167 bound_to 10162
  156.5220  130.4634  149.6592 H   0  0  0  0  0  0  0  0  0  0  0  0  # atno 10718 bound_to 10713
  153.1824  135.4487  155.0044 H   0  0  0  0  0  0  0  0  0  0  0  0  # atno 10763 bound_to 10752
  154.8038  135.3266  154.7485 H   0  0  0  0  0  0  0  0  0  0  0  0  # atno 10764 bound_to 10752
  153.7948  135.6967  153.4920 H   0  0  0  0  0  0  0  0  0  0  0  0  # atno 10765 bound_to 10752
  139.9986  134.6478  155.9968 H   0  0  0  0  0  0  0  0  0  0  0  0  # atno 11005 bound_to 11000
  144.8506  139.5327  143.6858 LP  0  0  0  0  0  0  0  0  0  0  0  0  # atno 17320 bound_to 7965
  146.2841  139.6956  142.9208 LP  0  0  0  0  0  0  0  0  0  0  0  0  # atno 17321 bound_to 7965
  140.7779  143.4982  150.9805 LP  0  0  0  0  0  0  0  0  0  0  0  0  # atno 17342 bound_to 10162
  139.8670  143.7241  152.3169 LP  0  0  0  0  0  0  0  0  0  0  0  0  # atno 17343 bound_to 10162
  156.3140  130.7244  151.2143 LP  0  0  0  0  0  0  0  0  0  0  0  0  # atno 17370 bound_to 10713
  157.7435  131.0473  150.4939 LP  0  0  0  0  0  0  0  0  0  0  0  0  # atno 17371 bound_to 10713
  141.1624  133.6538  156.4364 LP  0  0  0  0  0  0  0  0  0  0  0  0  # atno 17394 bound_to 11000
  140.4770  134.6700  157.5154 LP  0  0  0  0  0  0  0  0  0  0  0  0  # atno 17395 bound_to 11000

$$$$
