AV-unprocessed.smi:2437|AV-procd|sdf|9594|dock5
  -GOLD-   2272013223D 1   1.00000     0.00000
 Structure written by MMmdl.
 34 35  0  0  0  0  0  0  0  0  3 V2000
  151.2348  141.4408  158.7572 O   0  0  0  0  0  0  0  0  0  0  0  0
  150.5668  141.9472  157.8543 C   0  0  0  0  0  0  0  0  0  0  0  0
  149.6279  141.0943  156.9885 C   0  0  0  0  0  0  0  0  0  0  0  0
  150.3004  139.9590  156.3342 N   0  0  0  0  0  0  0  0  0  0  0  0
  150.8066  138.9461  157.1725 C   0  0  0  0  0  0  0  0  0  0  0  0
  151.4469  137.8658  156.6841 C   0  0  0  0  0  0  0  0  0  0  0  0
  151.9601  136.8352  157.5599 N   0  3  0  0  0  0  0  0  0  0  0  0
  151.5717  136.8047  158.7232 O   0  0  0  0  0  0  0  0  0  0  0  0
  152.7681  136.0245  157.1165 O   0  5  0  0  0  0  0  0  0  0  0  0
  151.6074  137.7701  155.2461 C   0  0  0  0  0  0  0  0  0  0  0  0
  151.1272  138.7363  154.4388 C   0  0  0  0  0  0  0  0  0  0  0  0
  150.4296  139.9107  154.9727 C   0  0  0  0  0  0  0  0  0  0  0  0
  149.9893  140.7972  154.2407 O   0  0  0  0  0  0  0  0  0  0  0  0
  150.5933  143.2576  157.5691 N   0  0  0  0  0  0  0  0  0  0  0  0
  151.4153  144.2519  158.2543 C   0  0  0  0  0  0  0  0  0  0  0  0
  152.8109  143.6955  158.6038 C   0  0  0  0  0  0  0  0  0  0  0  0
  152.8240  143.5117  160.1215 C   0  0  0  0  0  0  0  0  0  0  0  0
  151.8890  144.6011  160.6363 C   0  0  0  0  0  0  0  0  0  0  0  0
  150.7727  144.6654  159.5925 C   0  0  0  0  0  0  0  0  0  0  0  0
  148.8107  140.7409  157.6189 H   0  0  0  0  0  0  0  0  0  0  0  0
  149.1535  141.7333  156.2412 H   0  0  0  0  0  0  0  0  0  0  0  0
  150.6427  139.1138  158.2272 H   0  0  0  0  0  0  0  0  0  0  0  0
  152.1157  136.9246  154.8063 H   0  0  0  0  0  0  0  0  0  0  0  0
  151.2596  138.6459  153.3707 H   0  0  0  0  0  0  0  0  0  0  0  0
  150.0069  143.5914  156.8179 H   0  0  0  0  0  0  0  0  0  0  0  0
  151.5242  145.1325  157.6182 H   0  0  0  0  0  0  0  0  0  0  0  0
  153.0579  142.7715  158.0795 H   0  0  0  0  0  0  0  0  0  0  0  0
  153.5671  144.4306  158.3255 H   0  0  0  0  0  0  0  0  0  0  0  0
  152.4219  142.5304  160.3773 H   0  0  0  0  0  0  0  0  0  0  0  0
  153.8261  143.5829  160.5450 H   0  0  0  0  0  0  0  0  0  0  0  0
  151.5157  144.3954  161.6399 H   0  0  0  0  0  0  0  0  0  0  0  0
  152.4194  145.5539  160.6664 H   0  0  0  0  0  0  0  0  0  0  0  0
  150.3185  145.6556  159.5429 H   0  0  0  0  0  0  0  0  0  0  0  0
  149.9847  143.9650  159.8744 H   0  0  0  0  0  0  0  0  0  0  0  0
  1  2  2  0  0  0  0
  2  3  1  0  0  0  0
  2 14  1  0  0  0  0
  3  4  1  0  0  0  0
  3 20  1  0  0  0  0
  3 21  1  0  0  0  0
  4 12  1  0  0  0  0
  4  5  1  0  0  0  0
  5  6  2  0  0  0  0
  5 22  1  0  0  0  0
  6  7  1  0  0  0  0
  6 10  1  0  0  0  0
  7  8  2  0  0  0  0
  7  9  1  0  0  0  0
 10 11  2  0  0  0  0
 10 23  1  0  0  0  0
 11 12  1  0  0  0  0
 11 24  1  0  0  0  0
 12 13  2  0  0  0  0
 14 15  1  0  0  0  0
 14 25  1  0  0  0  0
 15 19  1  0  0  0  0
 15 16  1  0  0  0  0
 15 26  1  0  0  0  0
 16 17  1  0  0  0  0
 16 27  1  0  0  0  0
 16 28  1  0  0  0  0
 17 18  1  0  0  0  0
 17 29  1  0  0  0  0
 17 30  1  0  0  0  0
 18 19  1  0  0  0  0
 18 31  1  0  0  0  0
 18 32  1  0  0  0  0
 19 33  1  0  0  0  0
 19 34  1  0  0  0  0
M  CHG  1   7   1
M  CHG  1   9  -1
M  END
> <s_m_source_file>
AV-unprocessed.smi

> <i_m_source_file_index>
2437

> <i_lp_mmshare_version>
43012

> <i_f3d_flags>
0

> <s_epik_input>
W0NIMl0xW0NIMl1bQ0gyXVtDSDJdW0NIXTFbTkhdQyg9TylbQ0gyXW4yW2NIXWMoW04rXSg9TylbTy1dKVtjSF1bY0hdYzI9Tw==

> <s_epik_cmdline>
J2VwaWtfcHl0aG9uJywgJy1waCcsICc3LjAnLCAnLXRuJywgJzgnLCAnLW1hJywgJzIwMCcsICctbWV0YWxfYmluZGluZycsICctaW1hZScsICc8aW5maWxlLm1hZT4nLCAnLW9tYWUnLCAnPG91dGZpbGUubWFlPic=

> <r_lp_tautomer_probability>
1

> <r_epik_Ionization_Penalty>
1.93821e-08

> <r_epik_Ionization_Penalty_Charging>
8.03436e-11

> <r_epik_Ionization_Penalty_Neutral>
1.93017e-08

> <r_epik_State_Penalty>
-0

> <r_epik_Charging_Adjusted_Penalty>
8.03436e-11

> <i_epik_Tot_Q>
0

> <i_epik_Tot_abs_Q>
2

> <r_epik_Metal_State_Penalty>
-0

> <b_epik_Metal_Only>
0

> <s_lp_Force_Field>
OPLS_2005

> <r_lp_Energy>
29.2975

> <b_lp_Chiralities_Consistent>
1

> <s_lp_Variant>
AV-unprocessed.smi:2437-1

> <Gold.Version>
5.8.1

> <Gold.Id.Protein>
6NUR|6NUR_protein|mol2

> <Gold.PLP.Fitness>
45.3796

> <Gold.PLP.PLP>
-36.8558

> <Gold.PLP.part.hbond>
-3.9722

> <Gold.PLP.part.metal>
0.0000

> <Gold.PLP.part.buried>
-5.4158

> <Gold.PLP.part.nonpolar>
-28.0769

> <Gold.PLP.part.repulsive>
0.1563

> <Gold.PLP.ligand.clash>
0.0000

> <Gold.PLP.ligand.torsion>
0.4503

> <Gold.PLP.Chemscore.Hbond>
3.1342

> <Gold.PLP.Chemscore.CHOScore>
0.0000

> <Gold.PLP.Chemscore.Metal>
0.0000

> <Gold.Chemscore.Hbonds>
donor molecule, donor type, donor heavy atom, donor atom, acceptor molecule, acceptor atom, score
      L1  H    14    25       P1  8028  1.00
      P1  H  6896  6909       L1     8  0.81
      P1  H  7989  7998       L1    13  0.26
      P1  H 10752 10764       L1     9  0.98

> <Gold.PLP.Chemscore.Internal.Correction>
0.0217

> <Gold.Rescore>
     Score         DG    S(hbond)    S(metal)    S(lipo)     H(rot)  DE(clash)    DE(int)     intcor
     16.70     -20.79       2.70        0.00      88.38       1.58       0.02       4.06       ----

> <Gold.Chemscore.Fitness>
16.7038

> <Gold.Chemscore.DG>
-20.7861

> <Gold.Chemscore.ZeroCoef>
-5.4800

> <Gold.Chemscore.Hbond>
2.7000

> <Gold.Chemscore.Metal>
0.0000

> <Gold.Chemscore.Lipo>
88.3833

> <Gold.Chemscore.Internal_Hbond>
0.0000

> <Gold.Chemscore.DEClash>
0.0216

> <Gold.Chemscore.DEInternal>
4.0608

> <Gold.Chemscore.Rot>
1.5831

> <Gold.Chemscore.Internal.Correction>
   9.000000E+99

> <Gold.Chemscore.Hbonds>
donor molecule, donor type, donor heavy atom, donor atom, acceptor molecule, acceptor atom, score
      L1  H    14    25       P1  8028  0.98
      P1  H  6896  6909       L1     8  0.76
      P1  H  7989  7998       L1    13  0.01
      P1  H  8011  8017       L1    13  0.01
      P1  H 10752 10764       L1     9  0.91

> <Gold.Chemscore.Hbond.Weighted>
-9.0180

> <Gold.Chemscore.Metal.Weighted>
-0.0000

> <Gold.Chemscore.Lipo.Weighted>
-10.3408

> <Gold.Chemscore.Internal_Hbond.Weighted>
0.0000

> <Gold.Chemscore.DEClash.Weighted>
0.0216

> <Gold.Chemscore.DEInternal.Weighted>
4.0608

> <Gold.Chemscore.Rot.Weighted>
4.0527

> <Gold.Chemscore.Internal.Correction.Weighted>
   9.000000E+99

> <Gold.Protein.RotatedTorsions>
[ 6907 6896 6895 6894 ] final  110.80 input  -60.11 | X-H torsion
[ 7974 7965 7964 7962 ] final   28.78 input  175.53 | X-H torsion
[ 8008 7997 7996 7995 ] final  -50.44 input   59.86 | X-H torsion
[ 10167 10162 10161 10158 ] final    5.12 input  -65.29 | X-H torsion
[ 10718 10713 10712 10709 ] final -110.57 input   66.30 | X-H torsion
[ 10763 10752 10751 10750 ] final    0.37 input  -60.55 | X-H torsion
[ 11005 11000 10999 10996 ] final   61.77 input  -57.11 | X-H torsion

> <Gold.Protein.ActiveResidues>
 VAL166  LYS551  ARG553  GLY616  TRP617  ASP618  TYR619  PRO620  LYS621  CYS622 
 ASP623  PHE694  ASN695  SER759  ASP760  ASP761  ALA762  ILE779  LEU786  VAL792 
 PHE793  MET794  SER795  GLU796  ALA797  LYS798  CYS799  TRP800  GLU811  SER814 

> <Gold.Protein.RotatedAtoms>
  152.5001  133.8748  159.7316 H   0  0  0  0  0  0  0  0  0  0  0  0  # atno 6907 bound_to 6896
  150.9225  133.6854  159.2835 H   0  0  0  0  0  0  0  0  0  0  0  0  # atno 6908 bound_to 6896
  151.4226  135.1004  159.9671 H   0  0  0  0  0  0  0  0  0  0  0  0  # atno 6909 bound_to 6896
  146.1709  139.7010  142.8968 H   0  0  0  0  0  0  0  0  0  0  0  0  # atno 7974 bound_to 7965
  154.4062  140.1272  156.4666 H   0  0  0  0  0  0  0  0  0  0  0  0  # atno 8008 bound_to 7997
  155.7221  140.3492  155.5001 H   0  0  0  0  0  0  0  0  0  0  0  0  # atno 8009 bound_to 7997
  155.9205  140.1052  157.1200 H   0  0  0  0  0  0  0  0  0  0  0  0  # atno 8010 bound_to 7997
  140.6499  143.7571  150.7558 H   0  0  0  0  0  0  0  0  0  0  0  0  # atno 10167 bound_to 10162
  156.0598  130.5822  150.8255 H   0  0  0  0  0  0  0  0  0  0  0  0  # atno 10718 bound_to 10713
  153.3216  135.6969  153.7026 H   0  0  0  0  0  0  0  0  0  0  0  0  # atno 10763 bound_to 10752
  153.5864  135.3488  155.2895 H   0  0  0  0  0  0  0  0  0  0  0  0  # atno 10764 bound_to 10752
  154.8599  135.4307  154.2381 H   0  0  0  0  0  0  0  0  0  0  0  0  # atno 10765 bound_to 10752
  140.0138  134.6256  155.9740 H   0  0  0  0  0  0  0  0  0  0  0  0  # atno 11005 bound_to 11000
  145.4342  141.0417  143.2893 LP  0  0  0  0  0  0  0  0  0  0  0  0  # atno 17320 bound_to 7965
  144.8162  139.5873  143.7007 LP  0  0  0  0  0  0  0  0  0  0  0  0  # atno 17321 bound_to 7965
  140.1220  143.4603  152.2307 LP  0  0  0  0  0  0  0  0  0  0  0  0  # atno 17342 bound_to 10162
  139.5713  144.7464  151.3884 LP  0  0  0  0  0  0  0  0  0  0  0  0  # atno 17343 bound_to 10162
  157.5598  131.0945  150.9576 LP  0  0  0  0  0  0  0  0  0  0  0  0  # atno 17370 bound_to 10713
  156.9816  130.5529  149.5297 LP  0  0  0  0  0  0  0  0  0  0  0  0  # atno 17371 bound_to 10713
  141.1729  133.6538  156.4718 LP  0  0  0  0  0  0  0  0  0  0  0  0  # atno 17394 bound_to 11000
  140.4507  134.6931  157.5038 LP  0  0  0  0  0  0  0  0  0  0  0  0  # atno 17395 bound_to 11000

$$$$
