AV-unprocessed.smi:3336|AV-procd|sdf|12859|dock4
  -GOLD-   2272019253D 1   1.00000     0.00000
 Structure written by MMmdl.
 41 42  0  0  0  0  0  0  0  0  1 V2000
  149.3505  142.2334  158.2548 C   0  0  0  0  0  0  0  0  0  0  0  0
  150.6303  142.2205  157.4032 C   0  0  2  0  0  0  0  0  0  0  0  0
  151.5208  143.4394  157.7155 C   0  0  0  0  0  0  0  0  0  0  0  0
  151.9817  143.4459  159.0928 N   0  0  0  0  0  0  0  0  0  0  0  0
  152.7741  142.5188  159.7371 C   0  0  0  0  0  0  0  0  0  0  0  0
  152.9275  142.9420  161.0262 C   0  0  0  0  0  0  0  0  0  0  0  0
  152.1819  144.1531  161.0752 C   0  0  0  0  0  0  0  0  0  0  0  0
  151.6194  144.4540  159.9158 N   0  0  0  0  0  0  0  0  0  0  0  0
  150.2626  142.2563  155.9868 N   0  0  0  0  0  0  0  0  0  0  0  0
  149.5748  141.0478  155.4914 C   0  0  1  0  0  0  0  0  0  0  0  0
  148.6635  141.4351  154.3153 C   0  0  0  0  0  0  0  0  0  0  0  0
  150.5489  139.9259  155.0572 C   0  0  0  0  0  0  0  0  0  0  0  0
  151.7557  140.1769  155.0485 O   0  0  0  0  0  0  0  0  0  0  0  0
  150.0740  138.7065  154.6974 N   0  0  0  0  0  0  0  0  0  0  0  0
  148.6404  138.3966  154.6549 C   0  0  0  0  0  0  0  0  0  0  0  0
  148.3382  137.3130  155.7042 C   0  0  0  0  0  0  0  0  0  0  0  0
  149.1248  136.1568  155.4316 O   0  0  0  0  0  0  0  0  0  0  0  0
  150.5240  136.4239  155.4435 C   0  0  0  0  0  0  0  0  0  0  0  0
  150.8621  137.5041  154.3992 C   0  0  0  0  0  0  0  0  0  0  0  0
  149.5923  142.2328  159.3181 H   0  0  0  0  0  0  0  0  0  0  0  0
  148.7300  141.3575  158.0662 H   0  0  0  0  0  0  0  0  0  0  0  0
  148.7473  143.1197  158.0545 H   0  0  0  0  0  0  0  0  0  0  0  0
  151.1955  141.3190  157.6425 H   0  0  0  0  0  0  0  0  0  0  0  0
  152.3875  143.4703  157.0535 H   0  0  0  0  0  0  0  0  0  0  0  0
  150.9667  144.3632  157.5420 H   0  0  0  0  0  0  0  0  0  0  0  0
  153.1525  141.6426  159.2316 H   0  0  0  0  0  0  0  0  0  0  0  0
  153.4840  142.4581  161.8150 H   0  0  0  0  0  0  0  0  0  0  0  0
  152.0340  144.8182  161.9133 H   0  0  0  0  0  0  0  0  0  0  0  0
  149.7406  143.0983  155.7918 H   0  0  0  0  0  0  0  0  0  0  0  0
  148.9486  140.6939  156.3077 H   0  0  0  0  0  0  0  0  0  0  0  0
  148.0998  140.5798  153.9421 H   0  0  0  0  0  0  0  0  0  0  0  0
  149.2391  141.8398  153.4814 H   0  0  0  0  0  0  0  0  0  0  0  0
  147.9394  142.1932  154.6152 H   0  0  0  0  0  0  0  0  0  0  0  0
  148.0068  139.2664  154.8331 H   0  0  0  0  0  0  0  0  0  0  0  0
  148.3796  138.0368  153.6584 H   0  0  0  0  0  0  0  0  0  0  0  0
  148.5437  137.6772  156.7122 H   0  0  0  0  0  0  0  0  0  0  0  0
  147.2838  137.0388  155.6711 H   0  0  0  0  0  0  0  0  0  0  0  0
  150.8341  136.7382  156.4413 H   0  0  0  0  0  0  0  0  0  0  0  0
  151.0598  135.5013  155.2191 H   0  0  0  0  0  0  0  0  0  0  0  0
  150.6122  137.1506  153.3980 H   0  0  0  0  0  0  0  0  0  0  0  0
  151.9380  137.6582  154.4025 H   0  0  0  0  0  0  0  0  0  0  0  0
  1  2  1  0  0  0  0
  1 20  1  0  0  0  0
  1 21  1  0  0  0  0
  1 22  1  0  0  0  0
  2  3  1  0  0  0  0
  2  9  1  0  0  0  0
  2 23  1  0  0  0  0
  3  4  1  0  0  0  0
  3 24  1  0  0  0  0
  3 25  1  0  0  0  0
  4  8  1  0  0  0  0
  4  5  1  0  0  0  0
  5  6  2  0  0  0  0
  5 26  1  0  0  0  0
  6  7  1  0  0  0  0
  6 27  1  0  0  0  0
  7  8  2  0  0  0  0
  7 28  1  0  0  0  0
  9 10  1  0  0  0  0
  9 29  1  0  0  0  0
 10 11  1  0  0  0  0
 10 12  1  0  0  0  0
 10 30  1  0  0  0  0
 11 31  1  0  0  0  0
 11 32  1  0  0  0  0
 11 33  1  0  0  0  0
 12 13  2  0  0  0  0
 12 14  1  0  0  0  0
 14 19  1  0  0  0  0
 14 15  1  0  0  0  0
 15 16  1  0  0  0  0
 15 34  1  0  0  0  0
 15 35  1  0  0  0  0
 16 17  1  0  0  0  0
 16 36  1  0  0  0  0
 16 37  1  0  0  0  0
 17 18  1  0  0  0  0
 18 19  1  0  0  0  0
 18 38  1  0  0  0  0
 18 39  1  0  0  0  0
 19 40  1  0  0  0  0
 19 41  1  0  0  0  0
M  END
> <s_m_source_file>
AV-unprocessed.smi

> <i_m_source_file_index>
3336

> <i_lp_mmshare_version>
43012

> <i_f3d_flags>
0

> <s_epik_input>
bjFbY0hdW2NIXVtjSF1uMVtDSDJdW0NAQEhdKFtDSDNdKVtOSF1bQ0BIXShbQ0gzXSlDKD1PKU4yW0NIMl1bQ0gyXU9bQ0gyXVtDSDJdMg==

> <s_epik_cmdline>
J2VwaWtfcHl0aG9uJywgJy1waCcsICc3LjAnLCAnLXRuJywgJzgnLCAnLW1hJywgJzIwMCcsICctbWV0YWxfYmluZGluZycsICctaW1hZScsICc8aW5maWxlLm1hZT4nLCAnLW9tYWUnLCAnPG91dGZpbGUubWFlPic=

> <r_lp_tautomer_probability>
1

> <r_epik_Ionization_Penalty>
0.739958

> <r_epik_Ionization_Penalty_Charging>
0

> <r_epik_Ionization_Penalty_Neutral>
0.739958

> <r_epik_State_Penalty>
0.765967

> <r_epik_Charging_Adjusted_Penalty>
0.765967

> <i_epik_Tot_Q>
0

> <i_epik_Tot_abs_Q>
0

> <r_epik_Metal_State_Penalty>
0.765947

> <b_epik_Metal_Only>
0

> <s_lp_Force_Field>
OPLS_2005

> <r_lp_Energy>
28.023

> <b_lp_Chiralities_Consistent>
1

> <s_lp_Variant>
AV-unprocessed.smi:3336-7

> <Gold.Version>
5.8.1

> <Gold.Id.Protein>
6NUR|6NUR_protein|mol2

> <Gold.PLP.Fitness>
45.0254

> <Gold.PLP.PLP>
-40.9284

> <Gold.PLP.part.hbond>
-2.0000

> <Gold.PLP.part.metal>
0.0000

> <Gold.PLP.part.buried>
-5.2436

> <Gold.PLP.part.nonpolar>
-34.3274

> <Gold.PLP.part.repulsive>
0.2054

> <Gold.PLP.ligand.clash>
0.0000

> <Gold.PLP.ligand.torsion>
0.4137

> <Gold.PLP.Chemscore.Hbond>
1.5928

> <Gold.PLP.Chemscore.CHOScore>
0.0000

> <Gold.PLP.Chemscore.Metal>
0.0000

> <Gold.Chemscore.Hbonds>
donor molecule, donor type, donor heavy atom, donor atom, acceptor molecule, acceptor atom, score
      L1  H     9    29       P1  8028  1.00
      P1  H  7989  7998       L1    13  0.55

> <Gold.PLP.Chemscore.Internal.Correction>
0.1460

> <Gold.Rescore>
     Score         DG    S(hbond)    S(metal)    S(lipo)     H(rot)  DE(clash)    DE(int)     intcor
     16.52     -17.03       1.90        0.00      83.64       1.79       0.02       0.49       ----

> <Gold.Chemscore.Fitness>
16.5155

> <Gold.Chemscore.DG>
-17.0313

> <Gold.Chemscore.ZeroCoef>
-5.4800

> <Gold.Chemscore.Hbond>
1.9032

> <Gold.Chemscore.Metal>
0.0000

> <Gold.Chemscore.Lipo>
83.6387

> <Gold.Chemscore.Internal_Hbond>
0.0000

> <Gold.Chemscore.DEClash>
0.0208

> <Gold.Chemscore.DEInternal>
0.4949

> <Gold.Chemscore.Rot>
1.7935

> <Gold.Chemscore.Internal.Correction>
   9.000000E+99

> <Gold.Chemscore.Hbonds>
donor molecule, donor type, donor heavy atom, donor atom, acceptor molecule, acceptor atom, score
      L1  H     9    29       P1  8028  1.00
      P1  H  7989  7998       L1    13  0.04

> <Gold.Chemscore.Hbond.Weighted>
-6.3568

> <Gold.Chemscore.Metal.Weighted>
-0.0000

> <Gold.Chemscore.Lipo.Weighted>
-9.7857

> <Gold.Chemscore.Internal_Hbond.Weighted>
0.0000

> <Gold.Chemscore.DEClash.Weighted>
0.0208

> <Gold.Chemscore.DEInternal.Weighted>
0.4949

> <Gold.Chemscore.Rot.Weighted>
4.5912

> <Gold.Chemscore.Internal.Correction.Weighted>
   9.000000E+99

> <Gold.Protein.RotatedTorsions>
[ 6907 6896 6895 6894 ] final -116.88 input  -60.11 | X-H torsion
[ 7974 7965 7964 7962 ] final -174.84 input  175.53 | X-H torsion
[ 8008 7997 7996 7995 ] final  160.81 input   59.86 | X-H torsion
[ 10167 10162 10161 10158 ] final  -71.39 input  -65.29 | X-H torsion
[ 10718 10713 10712 10709 ] final  173.82 input   66.30 | X-H torsion
[ 10763 10752 10751 10750 ] final -138.49 input  -60.55 | X-H torsion
[ 11005 11000 10999 10996 ] final   39.67 input  -57.11 | X-H torsion

> <Gold.Protein.ActiveResidues>
 VAL166  LYS551  ARG553  GLY616  TRP617  ASP618  TYR619  PRO620  LYS621  CYS622 
 ASP623  PHE694  ASN695  SER759  ASP760  ASP761  ALA762  ILE779  LEU786  VAL792 
 PHE793  MET794  SER795  GLU796  ALA797  LYS798  CYS799  TRP800  GLU811  SER814 

> <Gold.Protein.RotatedAtoms>
  150.8092  133.8454  159.3190 H   0  0  0  0  0  0  0  0  0  0  0  0  # atno 6907 bound_to 6896
  151.6244  135.1027  160.0118 H   0  0  0  0  0  0  0  0  0  0  0  0  # atno 6908 bound_to 6896
  152.4183  133.7034  159.6494 H   0  0  0  0  0  0  0  0  0  0  0  0  # atno 6909 bound_to 6896
  144.7130  140.1410  143.6391 H   0  0  0  0  0  0  0  0  0  0  0  0  # atno 7974 bound_to 7965
  156.2147  140.1794  156.7616 H   0  0  0  0  0  0  0  0  0  0  0  0  # atno 8008 bound_to 7997
  154.5773  140.0672  156.9083 H   0  0  0  0  0  0  0  0  0  0  0  0  # atno 8009 bound_to 7997
  155.2564  140.3332  155.4279 H   0  0  0  0  0  0  0  0  0  0  0  0  # atno 8010 bound_to 7997
  140.5277  143.2324  151.7318 H   0  0  0  0  0  0  0  0  0  0  0  0  # atno 10167 bound_to 10162
  156.9587  131.0054  151.2932 H   0  0  0  0  0  0  0  0  0  0  0  0  # atno 10718 bound_to 10713
  154.8635  135.3610  154.5393 H   0  0  0  0  0  0  0  0  0  0  0  0  # atno 10763 bound_to 10752
  153.6016  135.7012  153.5387 H   0  0  0  0  0  0  0  0  0  0  0  0  # atno 10764 bound_to 10752
  153.3286  135.4131  155.1438 H   0  0  0  0  0  0  0  0  0  0  0  0  # atno 10765 bound_to 10752
  140.2005  134.3876  155.8098 H   0  0  0  0  0  0  0  0  0  0  0  0  # atno 11005 bound_to 11000
  145.9202  139.2541  143.1386 LP  0  0  0  0  0  0  0  0  0  0  0  0  # atno 17320 bound_to 7965
  145.9628  140.8822  143.0202 LP  0  0  0  0  0  0  0  0  0  0  0  0  # atno 17321 bound_to 7965
  139.4943  144.4161  152.0028 LP  0  0  0  0  0  0  0  0  0  0  0  0  # atno 17342 bound_to 10162
  140.3262  144.3370  150.5998 LP  0  0  0  0  0  0  0  0  0  0  0  0  # atno 17343 bound_to 10162
  157.5672  130.8286  149.8344 LP  0  0  0  0  0  0  0  0  0  0  0  0  # atno 17370 bound_to 10713
  156.0331  130.3759  150.1632 LP  0  0  0  0  0  0  0  0  0  0  0  0  # atno 17371 bound_to 10713
  141.2227  133.7092  156.8250 LP  0  0  0  0  0  0  0  0  0  0  0  0  # atno 17394 bound_to 11000
  140.2059  134.8863  157.3221 LP  0  0  0  0  0  0  0  0  0  0  0  0  # atno 17395 bound_to 11000

$$$$
