AV-unprocessed.smi:306|AV-procd|sdf|2282|dock3
  -GOLD-   2262022183D 1   1.00000     0.00000
 Structure written by MMmdl.
 47 49  0  0  0  0  0  0  0  0  1 V2000
  152.5180  143.5863  161.5288 C   0  0  0  0  0  0  0  0  0  0  0  0
  152.4822  143.2014  160.0453 C   0  0  0  0  0  0  0  0  0  0  0  0
  152.6670  141.7243  159.8416 C   0  0  0  0  0  0  0  0  0  0  0  0
  153.7722  140.9156  160.2285 C   0  0  0  0  0  0  0  0  0  0  0  0
  153.4366  139.6595  159.8081 C   0  0  0  0  0  0  0  0  0  0  0  0
  154.1893  138.3713  159.9283 C   0  0  0  0  0  0  0  0  0  0  0  0
  153.4878  137.3428  160.8218 C   0  0  0  0  0  0  0  0  0  0  0  0
  152.1959  139.7603  159.2043 N   0  0  0  0  0  0  0  0  0  0  0  0
  151.4277  138.7379  158.6137 C   0  0  0  0  0  0  0  0  0  0  0  0
  150.3800  138.1601  159.2059 N   0  0  0  0  0  0  0  0  0  0  0  0
  149.9891  137.2118  158.2716 C   0  0  0  0  0  0  0  0  0  0  0  0
  150.7947  137.2440  157.1782 C   0  0  0  0  0  0  0  0  0  0  0  0
  150.6248  136.3239  156.0459 C   0  0  0  0  0  0  0  0  0  0  0  0
  151.3493  136.3263  155.0531 O   0  0  0  0  0  0  0  0  0  0  0  0
  149.5902  135.4643  156.2117 N   0  0  0  0  0  0  0  0  0  0  0  0
  148.7409  135.3807  157.2810 C   0  0  0  0  0  0  0  0  0  0  0  0
  147.8450  134.5367  157.2902 O   0  0  0  0  0  0  0  0  0  0  0  0
  148.9322  136.2585  158.3175 N   0  0  0  0  0  0  0  0  0  0  0  0
  148.0546  136.2129  159.4886 C   0  0  0  0  0  0  0  0  0  0  0  0
  151.7371  138.2517  157.3860 N   0  0  0  0  0  0  0  0  0  0  0  0
  152.8215  138.6790  156.5071 C   0  0  0  0  0  0  0  0  0  0  0  0
  152.3318  138.9792  155.0835 C   0  0  0  0  0  0  0  0  0  0  0  0
  151.1409  139.7481  155.1327 O   0  0  0  0  0  0  0  0  0  0  0  0
  151.2692  140.8972  155.9500 C   0  0  0  0  0  0  0  0  0  0  0  0
  151.7249  141.0247  159.2301 N   0  0  0  0  0  0  0  0  0  0  0  0
  149.4305  134.8074  155.4619 H   0  0  0  0  0  0  0  0  0  0  0  0
  152.3761  144.6599  161.6540 H   0  0  0  0  0  0  0  0  0  0  0  0
  153.4738  143.3219  161.9823 H   0  0  0  0  0  0  0  0  0  0  0  0
  151.7299  143.0787  162.0857 H   0  0  0  0  0  0  0  0  0  0  0  0
  151.5321  143.5177  159.6135 H   0  0  0  0  0  0  0  0  0  0  0  0
  153.2552  143.7523  159.5084 H   0  0  0  0  0  0  0  0  0  0  0  0
  154.6755  141.2131  160.7400 H   0  0  0  0  0  0  0  0  0  0  0  0
  154.3500  137.9398  158.9396 H   0  0  0  0  0  0  0  0  0  0  0  0
  155.1831  138.5733  160.3283 H   0  0  0  0  0  0  0  0  0  0  0  0
  154.0716  136.4249  160.8889 H   0  0  0  0  0  0  0  0  0  0  0  0
  152.5041  137.0825  160.4314 H   0  0  0  0  0  0  0  0  0  0  0  0
  153.3547  137.7281  161.8330 H   0  0  0  0  0  0  0  0  0  0  0  0
  147.0070  136.2762  159.1912 H   0  0  0  0  0  0  0  0  0  0  0  0
  148.2403  137.0320  160.1830 H   0  0  0  0  0  0  0  0  0  0  0  0
  148.1985  135.2797  160.0342 H   0  0  0  0  0  0  0  0  0  0  0  0
  153.3099  139.5537  156.9326 H   0  0  0  0  0  0  0  0  0  0  0  0
  153.5878  137.9044  156.4815 H   0  0  0  0  0  0  0  0  0  0  0  0
  153.1040  139.5191  154.5339 H   0  0  0  0  0  0  0  0  0  0  0  0
  152.1497  138.0461  154.5492 H   0  0  0  0  0  0  0  0  0  0  0  0
  150.3262  141.4434  155.9634 H   0  0  0  0  0  0  0  0  0  0  0  0
  152.0411  141.5669  155.5692 H   0  0  0  0  0  0  0  0  0  0  0  0
  151.5157  140.6254  156.9772 H   0  0  0  0  0  0  0  0  0  0  0  0
  1  2  1  0  0  0  0
  1 27  1  0  0  0  0
  1 28  1  0  0  0  0
  1 29  1  0  0  0  0
  2  3  1  0  0  0  0
  2 30  1  0  0  0  0
  2 31  1  0  0  0  0
  3 25  2  0  0  0  0
  3  4  1  0  0  0  0
  4  5  2  0  0  0  0
  4 32  1  0  0  0  0
  5  6  1  0  0  0  0
  5  8  1  0  0  0  0
  6  7  1  0  0  0  0
  6 33  1  0  0  0  0
  6 34  1  0  0  0  0
  7 35  1  0  0  0  0
  7 36  1  0  0  0  0
  7 37  1  0  0  0  0
  8  9  1  0  0  0  0
  8 25  1  0  0  0  0
  9 20  1  0  0  0  0
  9 10  2  0  0  0  0
 10 11  1  0  0  0  0
 11 18  1  0  0  0  0
 11 12  2  0  0  0  0
 12 13  1  0  0  0  0
 12 20  1  0  0  0  0
 13 14  2  0  0  0  0
 13 15  1  0  0  0  0
 15 26  1  0  0  0  0
 15 16  1  0  0  0  0
 16 17  2  0  0  0  0
 16 18  1  0  0  0  0
 18 19  1  0  0  0  0
 19 38  1  0  0  0  0
 19 39  1  0  0  0  0
 19 40  1  0  0  0  0
 20 21  1  0  0  0  0
 21 22  1  0  0  0  0
 21 41  1  0  0  0  0
 21 42  1  0  0  0  0
 22 23  1  0  0  0  0
 22 43  1  0  0  0  0
 22 44  1  0  0  0  0
 23 24  1  0  0  0  0
 24 45  1  0  0  0  0
 24 46  1  0  0  0  0
 24 47  1  0  0  0  0
M  END
> <s_m_source_file>
AV-unprocessed.smi

> <i_m_source_file_index>
306

> <i_lp_mmshare_version>
43012

> <i_f3d_flags>
0

> <s_epik_input>
W0NIM11bQ0gyXWMxW2NIXWMoW0NIMl1bQ0gzXSluKG4xKS1jKG4yKW4oW0NIMl1bQ0gyXU9bQ0gzXSljKGMyMyljKD1PKVtuSF1jKD1PKW4zW0NIM10=

> <s_epik_cmdline>
J2VwaWtfcHl0aG9uJywgJy1waCcsICc3LjAnLCAnLXRuJywgJzgnLCAnLW1hJywgJzIwMCcsICctbWV0YWxfYmluZGluZycsICctaW1hZScsICc8aW5maWxlLm1hZT4nLCAnLW9tYWUnLCAnPG91dGZpbGUubWFlPic=

> <r_lp_tautomer_probability>
1

> <r_epik_Ionization_Penalty>
0.00167575

> <r_epik_Ionization_Penalty_Charging>
0.000731299

> <r_epik_Ionization_Penalty_Neutral>
0.000944451

> <r_epik_State_Penalty>
-0

> <r_epik_Charging_Adjusted_Penalty>
0.000731299

> <i_epik_Tot_Q>
0

> <i_epik_Tot_abs_Q>
0

> <r_epik_Metal_State_Penalty>
0.260571

> <b_epik_Metal_Only>
0

> <s_lp_Force_Field>
OPLS_2005

> <r_lp_Energy>
22.9752

> <b_lp_Chiralities_Consistent>
1

> <s_lp_Variant>
AV-unprocessed.smi:306-1

> <Gold.Version>
5.8.1

> <Gold.Id.Protein>
6NUR|6NUR_protein|mol2

> <Gold.PLP.Fitness>
41.5836

> <Gold.PLP.PLP>
-39.8064

> <Gold.PLP.part.hbond>
-2.8725

> <Gold.PLP.part.metal>
0.0000

> <Gold.PLP.part.buried>
-5.3374

> <Gold.PLP.part.nonpolar>
-30.7088

> <Gold.PLP.part.repulsive>
0.2103

> <Gold.PLP.ligand.clash>
0.0000

> <Gold.PLP.ligand.torsion>
1.5995

> <Gold.PLP.Chemscore.Hbond>
1.4125

> <Gold.PLP.Chemscore.CHOScore>
0.0000

> <Gold.PLP.Chemscore.Metal>
0.0000

> <Gold.Chemscore.Hbonds>
donor molecule, donor type, donor heavy atom, donor atom, acceptor molecule, acceptor atom, score
      P1  H  7989  7998       L1    23  0.34
      P1  H 10752 10763       L1    14  1.00

> <Gold.PLP.Chemscore.Internal.Correction>
0.7388

> <Gold.Rescore>
     Score         DG    S(hbond)    S(metal)    S(lipo)     H(rot)  DE(clash)    DE(int)     intcor
     12.07     -14.66       1.00        0.00      90.40       1.85       0.02       2.57       ----

> <Gold.Chemscore.Fitness>
12.0657

> <Gold.Chemscore.DG>
-14.6583

> <Gold.Chemscore.ZeroCoef>
-5.4800

> <Gold.Chemscore.Hbond>
0.9978

> <Gold.Chemscore.Metal>
0.0000

> <Gold.Chemscore.Lipo>
90.3956

> <Gold.Chemscore.Internal_Hbond>
0.0000

> <Gold.Chemscore.DEClash>
0.0234

> <Gold.Chemscore.DEInternal>
2.5691

> <Gold.Chemscore.Rot>
1.8480

> <Gold.Chemscore.Internal.Correction>
   9.000000E+99

> <Gold.Chemscore.Hbonds>
donor molecule, donor type, donor heavy atom, donor atom, acceptor molecule, acceptor atom, score
      P1  H 10752 10763       L1    14  1.00

> <Gold.Chemscore.Hbond.Weighted>
-3.3327

> <Gold.Chemscore.Metal.Weighted>
-0.0000

> <Gold.Chemscore.Lipo.Weighted>
-10.5763

> <Gold.Chemscore.Internal_Hbond.Weighted>
0.0000

> <Gold.Chemscore.DEClash.Weighted>
0.0234

> <Gold.Chemscore.DEInternal.Weighted>
2.5691

> <Gold.Chemscore.Rot.Weighted>
4.7308

> <Gold.Chemscore.Internal.Correction.Weighted>
   9.000000E+99

> <Gold.Protein.RotatedTorsions>
[ 6907 6896 6895 6894 ] final   -0.67 input  -60.11 | X-H torsion
[ 7974 7965 7964 7962 ] final  -53.91 input  175.53 | X-H torsion
[ 8008 7997 7996 7995 ] final   36.60 input   59.86 | X-H torsion
[ 10167 10162 10161 10158 ] final  134.96 input  -65.29 | X-H torsion
[ 10718 10713 10712 10709 ] final -161.14 input   66.30 | X-H torsion
[ 10763 10752 10751 10750 ] final   57.38 input  -60.55 | X-H torsion
[ 11005 11000 10999 10996 ] final  100.54 input  -57.11 | X-H torsion

> <Gold.Protein.ActiveResidues>
 VAL166  LYS551  ARG553  GLY616  TRP617  ASP618  TYR619  PRO620  LYS621  CYS622 
 ASP623  PHE694  ASN695  SER759  ASP760  ASP761  ALA762  ILE779  LEU786  VAL792 
 PHE793  MET794  SER795  GLU796  ALA797  LYS798  CYS799  TRP800  GLU811  SER814 

> <Gold.Protein.RotatedAtoms>
  151.5585  135.1066  159.9966 H   0  0  0  0  0  0  0  0  0  0  0  0  # atno 6907 bound_to 6896
  152.4458  133.7529  159.6714 H   0  0  0  0  0  0  0  0  0  0  0  0  # atno 6908 bound_to 6896
  150.8373  133.7925  159.3098 H   0  0  0  0  0  0  0  0  0  0  0  0  # atno 6909 bound_to 6896
  145.8915  140.8066  142.9789 H   0  0  0  0  0  0  0  0  0  0  0  0  # atno 7974 bound_to 7965
  155.1901  140.3307  155.4360 H   0  0  0  0  0  0  0  0  0  0  0  0  # atno 8008 bound_to 7997
  156.2445  140.1912  156.6944 H   0  0  0  0  0  0  0  0  0  0  0  0  # atno 8009 bound_to 7997
  154.6212  140.0595  156.9603 H   0  0  0  0  0  0  0  0  0  0  0  0  # atno 8010 bound_to 7997
  139.5235  144.6541  151.5215 H   0  0  0  0  0  0  0  0  0  0  0  0  # atno 10167 bound_to 10162
  156.5920  130.8774  151.2892 H   0  0  0  0  0  0  0  0  0  0  0  0  # atno 10718 bound_to 10713
  152.9849  135.5643  154.5382 H   0  0  0  0  0  0  0  0  0  0  0  0  # atno 10763 bound_to 10752
  154.4841  135.2790  155.1550 H   0  0  0  0  0  0  0  0  0  0  0  0  # atno 10764 bound_to 10752
  154.3046  135.6300  153.5492 H   0  0  0  0  0  0  0  0  0  0  0  0  # atno 10765 bound_to 10752
  139.8771  134.9144  156.4771 H   0  0  0  0  0  0  0  0  0  0  0  0  # atno 11005 bound_to 11000
  144.6731  140.1537  143.7428 LP  0  0  0  0  0  0  0  0  0  0  0  0  # atno 17320 bound_to 7965
  145.8902  139.2371  143.1554 LP  0  0  0  0  0  0  0  0  0  0  0  0  # atno 17321 bound_to 7965
  140.6359  143.8985  150.6647 LP  0  0  0  0  0  0  0  0  0  0  0  0  # atno 17342 bound_to 10162
  140.2304  143.3740  152.1570 LP  0  0  0  0  0  0  0  0  0  0  0  0  # atno 17343 bound_to 10162
  157.7301  130.9681  150.1818 LP  0  0  0  0  0  0  0  0  0  0  0  0  # atno 17370 bound_to 10713
  156.2541  130.3703  149.8200 LP  0  0  0  0  0  0  0  0  0  0  0  0  # atno 17371 bound_to 10713
  140.8754  133.7957  155.9409 LP  0  0  0  0  0  0  0  0  0  0  0  0  # atno 17394 bound_to 11000
  140.8910  134.2496  157.5094 LP  0  0  0  0  0  0  0  0  0  0  0  0  # atno 17395 bound_to 11000

$$$$
