AV-unprocessed.smi:1684|AV-procd|sdf|6754|dock8
  -GOLD-   22720 7513D 1   1.00000     0.00000
 Structure written by MMmdl.
 42 43  0  0  0  0  0  0  0  0  1 V2000
  147.7611  133.0868  152.2941 C   0  0  0  0  0  0  0  0  0  0  0  0
  146.4617  133.1371  151.5069 C   0  0  0  0  0  0  0  0  0  0  0  0
  145.9315  131.9432  150.9732 C   0  0  0  0  0  0  0  0  0  0  0  0
  144.7310  131.9915  150.2442 C   0  0  0  0  0  0  0  0  0  0  0  0
  144.1081  133.2402  150.0778 C   0  0  0  0  0  0  0  0  0  0  0  0
  144.6074  134.3858  150.5848 N   0  0  0  0  0  0  0  0  0  0  0  0
  145.7651  134.3568  151.2917 C   0  0  0  0  0  0  0  0  0  0  0  0
  146.3472  135.5244  151.8608 N   0  0  0  0  0  0  0  0  0  0  0  0
  145.7588  136.4740  152.6091 C   0  0  0  0  0  0  0  0  0  0  0  0
  144.5675  136.4990  152.9200 O   0  0  0  0  0  0  0  0  0  0  0  0
  146.6430  137.4145  152.9743 N   0  0  0  0  0  0  0  0  0  0  0  0
  146.3424  138.6184  153.7480 C   0  0  1  0  0  0  0  0  0  0  0  0
  146.2950  138.2643  155.2405 C   0  0  0  0  0  0  0  0  0  0  0  0
  147.3971  139.7077  153.4608 C   0  0  0  0  0  0  0  0  0  0  0  0
  148.5061  139.7830  154.4136 N   0  0  0  0  0  0  0  0  0  0  0  0
  149.6002  138.8718  154.0834 C   0  0  0  0  0  0  0  0  0  0  0  0
  150.7598  138.9823  155.0886 C   0  0  0  0  0  0  0  0  0  0  0  0
  151.2181  140.3293  155.1459 O   0  0  0  0  0  0  0  0  0  0  0  0
  150.1894  141.2439  155.5098 C   0  0  0  0  0  0  0  0  0  0  0  0
  149.0297  141.1413  154.5042 C   0  0  0  0  0  0  0  0  0  0  0  0
  148.1494  132.0698  152.3550 H   0  0  0  0  0  0  0  0  0  0  0  0
  147.6057  133.4478  153.3111 H   0  0  0  0  0  0  0  0  0  0  0  0
  148.5200  133.7074  151.8170 H   0  0  0  0  0  0  0  0  0  0  0  0
  146.4368  130.9998  151.1193 H   0  0  0  0  0  0  0  0  0  0  0  0
  144.2992  131.0954  149.8234 H   0  0  0  0  0  0  0  0  0  0  0  0
  143.1846  133.3224  149.5242 H   0  0  0  0  0  0  0  0  0  0  0  0
  147.3307  135.6506  151.6737 H   0  0  0  0  0  0  0  0  0  0  0  0
  147.5983  137.3069  152.6669 H   0  0  0  0  0  0  0  0  0  0  0  0
  145.3572  139.0051  153.4859 H   0  0  0  0  0  0  0  0  0  0  0  0
  146.0487  139.1394  155.8423 H   0  0  0  0  0  0  0  0  0  0  0  0
  147.2534  137.8792  155.5902 H   0  0  0  0  0  0  0  0  0  0  0  0
  145.5378  137.5051  155.4396 H   0  0  0  0  0  0  0  0  0  0  0  0
  147.7925  139.5704  152.4531 H   0  0  0  0  0  0  0  0  0  0  0  0
  146.8837  140.6703  153.4475 H   0  0  0  0  0  0  0  0  0  0  0  0
  149.2474  137.8413  154.0754 H   0  0  0  0  0  0  0  0  0  0  0  0
  149.9702  139.0851  153.0795 H   0  0  0  0  0  0  0  0  0  0  0  0
  150.4424  138.6555  156.0800 H   0  0  0  0  0  0  0  0  0  0  0  0
  151.5853  138.3369  154.7874 H   0  0  0  0  0  0  0  0  0  0  0  0
  149.8434  141.0296  156.5223 H   0  0  0  0  0  0  0  0  0  0  0  0
  150.5966  142.2551  155.5167 H   0  0  0  0  0  0  0  0  0  0  0  0
  149.3734  141.4720  153.5227 H   0  0  0  0  0  0  0  0  0  0  0  0
  148.2345  141.8256  154.8024 H   0  0  0  0  0  0  0  0  0  0  0  0
  1  2  1  0  0  0  0
  1 21  1  0  0  0  0
  1 22  1  0  0  0  0
  1 23  1  0  0  0  0
  2  7  1  0  0  0  0
  2  3  2  0  0  0  0
  3  4  1  0  0  0  0
  3 24  1  0  0  0  0
  4  5  2  0  0  0  0
  4 25  1  0  0  0  0
  5  6  1  0  0  0  0
  5 26  1  0  0  0  0
  6  7  2  0  0  0  0
  7  8  1  0  0  0  0
  8  9  1  0  0  0  0
  8 27  1  0  0  0  0
  9 10  2  0  0  0  0
  9 11  1  0  0  0  0
 11 12  1  0  0  0  0
 11 28  1  0  0  0  0
 12 13  1  0  0  0  0
 12 14  1  0  0  0  0
 12 29  1  0  0  0  0
 13 30  1  0  0  0  0
 13 31  1  0  0  0  0
 13 32  1  0  0  0  0
 14 15  1  0  0  0  0
 14 33  1  0  0  0  0
 14 34  1  0  0  0  0
 15 20  1  0  0  0  0
 15 16  1  0  0  0  0
 16 17  1  0  0  0  0
 16 35  1  0  0  0  0
 16 36  1  0  0  0  0
 17 18  1  0  0  0  0
 17 37  1  0  0  0  0
 17 38  1  0  0  0  0
 18 19  1  0  0  0  0
 19 20  1  0  0  0  0
 19 39  1  0  0  0  0
 19 40  1  0  0  0  0
 20 41  1  0  0  0  0
 20 42  1  0  0  0  0
M  END
> <s_m_source_file>
AV-unprocessed.smi

> <i_m_source_file_index>
1684

> <i_lp_mmshare_version>
43012

> <i_f3d_flags>
0

> <s_epik_input>
W0NIM11jMVtjSF1bY0hdW2NIXW5jMVtOSF1DKD1PKVtOSF1bQ0BIXShbQ0gzXSlbQ0gyXU4yW0NIMl1bQ0gyXU9bQ0gyXVtDSDJdMg==

> <s_epik_cmdline>
J2VwaWtfcHl0aG9uJywgJy1waCcsICc3LjAnLCAnLXRuJywgJzgnLCAnLW1hJywgJzIwMCcsICctbWV0YWxfYmluZGluZycsICctaW1hZScsICc8aW5maWxlLm1hZT4nLCAnLW9tYWUnLCAnPG91dGZpbGUubWFlPic=

> <r_epik_Ionization_Penalty>
0.26605

> <r_epik_Ionization_Penalty_Charging>
0

> <r_epik_Ionization_Penalty_Neutral>
0.26605

> <r_epik_State_Penalty>
0.257924

> <r_epik_Charging_Adjusted_Penalty>
0.257924

> <i_epik_Tot_Q>
0

> <i_epik_Tot_abs_Q>
0

> <r_epik_Metal_State_Penalty>
0.257922

> <b_epik_Metal_Only>
0

> <s_lp_Force_Field>
OPLS_2005

> <r_lp_Energy>
28.5554

> <b_lp_Chiralities_Consistent>
1

> <s_lp_Variant>
AV-unprocessed.smi:1684-2

> <Gold.Version>
5.8.1

> <Gold.Id.Protein>
6NUR|6NUR_protein|mol2

> <Gold.PLP.Fitness>
43.7955

> <Gold.PLP.PLP>
-34.8466

> <Gold.PLP.part.hbond>
-3.0000

> <Gold.PLP.part.metal>
0.0000

> <Gold.PLP.part.buried>
-5.0912

> <Gold.PLP.part.nonpolar>
-28.0751

> <Gold.PLP.part.repulsive>
0.5768

> <Gold.PLP.ligand.clash>
0.0000

> <Gold.PLP.ligand.torsion>
1.5497

> <Gold.PLP.Chemscore.Hbond>
3.0000

> <Gold.PLP.Chemscore.CHOScore>
1.0000

> <Gold.PLP.Chemscore.Metal>
0.0000

> <Gold.Chemscore.Hbonds>
donor molecule, donor type, donor heavy atom, donor atom, acceptor molecule, acceptor atom, score
      L1  H     8    27       P1  7948  1.00
      L1  H    11    28       P1  7948  0.99
      P1  H  7989  7998       L1    18  1.00
      L1  C     5    26       P1 10186  1.00

> <Gold.PLP.Chemscore.Internal.Correction>
0.0483

> <Gold.Rescore>
     Score         DG    S(hbond)    S(metal)    S(lipo)     H(rot)  DE(clash)    DE(int)     intcor
     18.00     -19.74       2.50        0.00      82.46       1.46       0.17       1.58       ----

> <Gold.Chemscore.Fitness>
17.9953

> <Gold.Chemscore.DG>
-19.7380

> <Gold.Chemscore.ZeroCoef>
-5.4800

> <Gold.Chemscore.Hbond>
2.4978

> <Gold.Chemscore.Metal>
0.0000

> <Gold.Chemscore.Lipo>
82.4624

> <Gold.Chemscore.Internal_Hbond>
0.0000

> <Gold.Chemscore.DEClash>
0.1659

> <Gold.Chemscore.DEInternal>
1.5768

> <Gold.Chemscore.Rot>
1.4581

> <Gold.Chemscore.Internal.Correction>
   9.000000E+99

> <Gold.Chemscore.Hbonds>
donor molecule, donor type, donor heavy atom, donor atom, acceptor molecule, acceptor atom, score
      L1  H     8    27       P1  7948  0.99
      L1  H    11    28       P1  7948  0.94
      P1  H  7989  7998       L1    18  0.25

> <Gold.Chemscore.Hbond.Weighted>
-8.3426

> <Gold.Chemscore.Metal.Weighted>
-0.0000

> <Gold.Chemscore.Lipo.Weighted>
-9.6481

> <Gold.Chemscore.Internal_Hbond.Weighted>
0.0000

> <Gold.Chemscore.DEClash.Weighted>
0.1659

> <Gold.Chemscore.DEInternal.Weighted>
1.5768

> <Gold.Chemscore.Rot.Weighted>
3.7327

> <Gold.Chemscore.Internal.Correction.Weighted>
   9.000000E+99

> <Gold.Protein.RotatedTorsions>
[ 6907 6896 6895 6894 ] final  -35.40 input  -60.11 | X-H torsion
[ 7974 7965 7964 7962 ] final -176.13 input  175.53 | X-H torsion
[ 8008 7997 7996 7995 ] final -123.52 input   59.86 | X-H torsion
[ 10167 10162 10161 10158 ] final  107.66 input  -65.29 | X-H torsion
[ 10718 10713 10712 10709 ] final -144.36 input   66.30 | X-H torsion
[ 10763 10752 10751 10750 ] final -105.64 input  -60.55 | X-H torsion
[ 11005 11000 10999 10996 ] final -138.10 input  -57.11 | X-H torsion

> <Gold.Protein.ActiveResidues>
 VAL166  LYS551  ARG553  GLY616  TRP617  ASP618  TYR619  PRO620  LYS621  CYS622 
 ASP623  PHE694  ASN695  SER759  ASP760  ASP761  ALA762  ILE779  LEU786  VAL792 
 PHE793  MET794  SER795  GLU796  ALA797  LYS798  CYS799  TRP800  GLU811  SER814 

> <Gold.Protein.RotatedAtoms>
  151.0403  134.9602  159.8157 H   0  0  0  0  0  0  0  0  0  0  0  0  # atno 6907 bound_to 6896
  152.5363  134.2667  159.8966 H   0  0  0  0  0  0  0  0  0  0  0  0  # atno 6908 bound_to 6896
  151.2679  133.4227  159.2653 H   0  0  0  0  0  0  0  0  0  0  0  0  # atno 6909 bound_to 6896
  144.7127  140.1216  143.6405 H   0  0  0  0  0  0  0  0  0  0  0  0  # atno 7974 bound_to 7965
  155.1820  140.0411  157.2884 H   0  0  0  0  0  0  0  0  0  0  0  0  # atno 8008 bound_to 7997
  154.6197  140.2497  155.7537 H   0  0  0  0  0  0  0  0  0  0  0  0  # atno 8009 bound_to 7997
  156.2427  140.2897  156.0499 H   0  0  0  0  0  0  0  0  0  0  0  0  # atno 8010 bound_to 7997
  139.6909  144.7108  151.1350 H   0  0  0  0  0  0  0  0  0  0  0  0  # atno 10167 bound_to 10162
  156.3691  130.7779  151.1957 H   0  0  0  0  0  0  0  0  0  0  0  0  # atno 10718 bound_to 10713
  154.7960  135.4741  154.0162 H   0  0  0  0  0  0  0  0  0  0  0  0  # atno 10763 bound_to 10752
  153.1704  135.6824  153.8623 H   0  0  0  0  0  0  0  0  0  0  0  0  # atno 10764 bound_to 10752
  153.8207  135.3204  155.3388 H   0  0  0  0  0  0  0  0  0  0  0  0  # atno 10765 bound_to 10752
  140.8648  134.2124  157.4686 H   0  0  0  0  0  0  0  0  0  0  0  0  # atno 11005 bound_to 11000
  145.9366  139.2641  143.1294 LP  0  0  0  0  0  0  0  0  0  0  0  0  # atno 17320 bound_to 7965
  145.9468  140.8939  143.0280 LP  0  0  0  0  0  0  0  0  0  0  0  0  # atno 17321 bound_to 7965
  140.7682  143.5561  150.9150 LP  0  0  0  0  0  0  0  0  0  0  0  0  # atno 17342 bound_to 10162
  139.9238  143.6574  152.3091 LP  0  0  0  0  0  0  0  0  0  0  0  0  # atno 17343 bound_to 10162
  157.7482  131.0377  150.4470 LP  0  0  0  0  0  0  0  0  0  0  0  0  # atno 17370 bound_to 10713
  156.4694  130.4049  149.6527 LP  0  0  0  0  0  0  0  0  0  0  0  0  # atno 17371 bound_to 10713
  139.8708  134.9747  156.4855 LP  0  0  0  0  0  0  0  0  0  0  0  0  # atno 17394 bound_to 11000
  140.8641  133.8037  155.9296 LP  0  0  0  0  0  0  0  0  0  0  0  0  # atno 17395 bound_to 11000

$$$$
