#       Name:                AV-unprocessed.smi:287
#       Creating user name   scv26
#       Creation time:       Thu Mar 26 21:56:33 2020


#       File generated by GOLD software.
#

@<TRIPOS>MOLECULE
AV-unprocessed.smi:287
    70    73     1
SMALL
NO_CHARGES


@<TRIPOS>ATOM
      1 ****        -1.8683   3.7657   4.1447 C.3            1 S1                 0.0000
      2 ****        -2.3205   3.6760   2.7275 C.2            1 S1                 0.0000
      3 ****        -2.7506   2.6513   1.9355 C.2            1 S1                 0.0000
      4 ****        -3.0364   3.1981   0.6483 C.2            1 S1                 0.0000
      5 ****        -3.5525   2.4365  -0.5657 C.3            1 S1                 0.0000
      6 ****        -5.0784   2.2786  -0.4672 C.3            1 S1                 0.0000
      7 ****        -3.3213   3.1274  -1.7784 O.3            1 S1                 0.0000
      8 ****        -2.8869   1.0513  -0.7392 C.3            1 S1                 0.0000
      9 ****        -1.4401   1.0861  -0.5527 N.pl3          1 S1                 0.0000
     10 ****        -0.7136  -0.0451  -0.6670 C.ar           1 S1                 0.0000
     11 ****        -1.2946  -1.2172  -1.0341 N.ar           1 S1                 0.0000
     12 ****        -0.5520  -2.3225  -1.1481 C.ar           1 S1                 0.0000
     13 ****         0.7588  -2.4714  -0.9444 N.ar           1 S1                 0.0000
     14 ****         1.3457  -1.2974  -0.5709 C.ar           1 S1                 0.0000
     15 ****         0.6816  -0.0495  -0.4112 C.ar           1 S1                 0.0000
     16 ****         1.5933   0.9238  -0.0244 N.2            1 S1                 0.0000
     17 ****         2.7304   0.2841   0.0364 C.2            1 S1                 0.0000
     18 ****         2.6717  -1.0564  -0.2749 N.pl3          1 S1                 0.0000
     19 ****         3.7981  -2.0363  -0.2978 C.3            1 S1                 0.0000
     20 ****         3.7094  -2.7687  -1.4783 O.3            1 S1                 0.0000
     21 ****         4.1682  -4.0872  -1.2252 C.3            1 S1                 0.0000
     22 ****         3.7418  -5.0486  -2.3490 C.3            1 S1                 0.0000
     23 ****         4.3256  -6.3192  -2.1543 O.3            1 S1                 0.0000
     24 ****         3.6493  -4.3855   0.1901 C.3            1 S1                 0.0000
     25 ****         2.3218  -4.8748   0.1679 O.3            1 S1                 0.0000
     26 ****         3.7049  -3.0235   0.8813 C.3            1 S1                 0.0000
     27 ****         4.8615  -2.9543   1.6911 O.3            1 S1                 0.0000
     28 ****        -2.7720   4.5407   0.7728 C.2            1 S1                 0.0000
     29 ****        -2.8745   5.7062  -0.1548 C.3            1 S1                 0.0000
     30 ****        -2.3302   4.8373   2.0268 O.3            1 S1                 0.0000
     31 ****         4.7051  -1.4294  -0.2930 H              1 S1                 0.0000
     32 ****         5.2585  -4.0391  -1.1935 H              1 S1                 0.0000
     33 ****         4.2657  -5.1357   0.6877 H              1 S1                 0.0000
     34 ****         2.8241  -2.8301   1.4963 H              1 S1                 0.0000
     35 ****        -1.8902   2.7866   4.6236 H              1 S1                 0.0000
     36 ****        -2.5128   4.4353   4.7144 H              1 S1                 0.0000
     37 ****        -0.8486   4.1469   4.2018 H              1 S1                 0.0000
     38 ****        -2.8440   1.6203   2.2431 H              1 S1                 0.0000
     39 ****        -5.3599   1.7238   0.4287 H              1 S1                 0.0000
     40 ****        -5.4819   1.7400  -1.3256 H              1 S1                 0.0000
     41 ****        -5.5759   3.2483  -0.4217 H              1 S1                 0.0000
     42 ****        -3.6514   2.6013  -2.4904 H              1 S1                 0.0000
     43 ****        -3.2877   0.3718   0.0144 H              1 S1                 0.0000
     44 ****        -3.1380   0.6217  -1.7105 H              1 S1                 0.0000
     45 ****        -1.0477   1.9793  -0.2904 H              1 S1                 0.0000
     46 ****        -1.0831  -3.2140  -1.4477 H              1 S1                 0.0000
     47 ****         3.6504   0.7778   0.3132 H              1 S1                 0.0000
     48 ****         2.6575  -5.1434  -2.4104 H              1 S1                 0.0000
     49 ****         4.0787  -4.6638  -3.3118 H              1 S1                 0.0000
     50 ****         4.0506  -6.8871  -2.8579 H              1 S1                 0.0000
     51 ****         1.7763  -4.2375  -0.2692 H              1 S1                 0.0000
     52 ****         4.8880  -2.1045   2.1035 H              1 S1                 0.0000
     53 ****        -3.8521   5.7319  -0.6363 H              1 S1                 0.0000
     54 ****        -2.1141   5.6484  -0.9335 H              1 S1                 0.0000
     55 ****        -2.7397   6.6477   0.3782 H              1 S1                 0.0000
     56 ****        -2.3402   3.2798  -1.8981 LP             1 S1                 0.0000
     57 ****        -3.7957   4.0075  -1.7610 LP             1 S1                 0.0000
     58 ****        -2.2767  -1.2528  -1.2187 LP             1 S1                 0.0000
     59 ****         1.2498  -3.3359  -1.0521 LP             1 S1                 0.0000
     60 ****         1.4196   1.8904   0.1640 LP             1 S1                 0.0000
     61 ****         4.2775  -2.3433  -2.1828 LP             1 S1                 0.0000
     62 ****         2.7590  -2.7959  -1.7879 LP             1 S1                 0.0000
     63 ****         4.0255  -6.6976  -1.2786 LP             1 S1                 0.0000
     64 ****         5.3222  -6.2365  -2.1576 LP             1 S1                 0.0000
     65 ****         1.9969  -5.0126   1.1036 LP             1 S1                 0.0000
     66 ****         2.2901  -5.7431  -0.3272 LP             1 S1                 0.0000
     67 ****         5.6770  -3.0808   1.1263 LP             1 S1                 0.0000
     68 ****         4.8267  -3.6680   2.3908 LP             1 S1                 0.0000
     69 ****        -1.4076   5.2207   1.9844 LP             1 S1                 0.0000
     70 ****        -2.9451   5.4955   2.4611 LP             1 S1                 0.0000
@<TRIPOS>BOND
    1    1    2 1     
    2    1   35 1     
    3    1   36 1     
    4    1   37 1     
    5    2   30 1     
    6    2    3 2     
    7    3    4 1     
    8    3   38 1     
    9    4    5 1     
   10    4   28 2     
   11    5    6 1     
   12    5    7 1     
   13    5    8 1     
   14    6   39 1     
   15    6   40 1     
   16    6   41 1     
   17    7   42 1     
   18    8    9 1     
   19    8   43 1     
   20    8   44 1     
   21    9   10 1     
   22    9   45 1     
   23   10   15 ar    
   24   10   11 ar    
   25   11   12 ar    
   26   12   13 ar    
   27   12   46 1     
   28   13   14 ar    
   29   14   18 1     
   30   14   15 ar    
   31   15   16 1     
   32   16   17 2     
   33   17   18 1     
   34   17   47 1     
   35   18   19 1     
   36   19   31 1     
   37   19   26 1     
   38   19   20 1     
   39   20   21 1     
   40   21   32 1     
   41   21   22 1     
   42   21   24 1     
   43   22   23 1     
   44   22   48 1     
   45   22   49 1     
   46   23   50 1     
   47   24   33 1     
   48   24   25 1     
   49   24   26 1     
   50   25   51 1     
   51   26   34 1     
   52   26   27 1     
   53   27   52 1     
   54   28   29 1     
   55   28   30 1     
   56   29   53 1     
   57   29   54 1     
   58   29   55 1     
   59    7   56 1     
   60    7   57 1     
   61   11   58 1     
   62   13   59 1     
   63   16   60 1     
   64   20   61 1     
   65   20   62 1     
   66   23   63 1     
   67   23   64 1     
   68   25   65 1     
   69   25   66 1     
   70   27   67 1     
   71   27   68 1     
   72   30   69 1     
   73   30   70 1     
@<TRIPOS>SUBSTRUCTURE
      1 S1             1
@<TRIPOS>SET
LONE_PAIRS      STATIC     ATOMS    <user>   **** ""
15 56 57 58 59 60 61 62 63 64 65 66 67 68 69 70
DONOR_HYDROGENS      STATIC     ATOMS    <user>   **** ""
5 42 45 50 51 52
ATOM$BLUE        STATIC     ATOMS    COLORGROUP SYSTEM
15 56 57 58 59 60 61 62 63 64 65 66 67 68 69 70
ATOM$RED        STATIC     ATOMS    COLORGROUP SYSTEM
5 42 45 50 51 52
