AV-unprocessed.smi:517|AV-procd|sdf|2788|dock2
  -GOLD-   2262023263D 1   1.00000     0.00000
 Structure written by MMmdl.
 35 36  0  0  0  0  0  0  0  0  1 V2000
  148.9772  141.3544  154.4529 C   0  0  0  0  0  0  0  0  0  0  0  0
  149.6306  139.9897  154.6817 C   0  0  0  0  0  0  0  0  0  0  0  0
  151.0197  140.1820  154.8806 O   0  0  0  0  0  0  0  0  0  0  0  0
  151.3119  141.0340  155.9759 C   0  0  0  0  0  0  0  0  0  0  0  0
  151.4246  140.1952  157.2571 C   0  0  0  0  0  0  0  0  0  0  0  0
  151.9972  140.9543  158.3603 N   0  0  0  0  0  0  0  0  0  0  0  0
  152.8250  140.5186  159.3449 C   0  0  0  0  0  0  0  0  0  0  0  0
  153.2793  139.0873  159.4363 C   0  0  2  0  0  0  0  0  0  0  0  0
  154.1100  138.8321  160.7013 C   0  0  0  0  0  0  0  0  0  0  0  0
  154.0496  138.6942  158.3182 O   0  0  0  0  0  0  0  0  0  0  0  0
  153.1816  141.4377  160.2455 N   0  0  0  0  0  0  0  0  0  0  0  0
  152.5465  142.5761  159.7913 C   0  0  0  0  0  0  0  0  0  0  0  0
  152.5391  143.8917  160.3076 C   0  0  0  0  0  0  0  0  0  0  0  0
  151.8082  144.9088  159.6595 C   0  0  0  0  0  0  0  0  0  0  0  0
  151.0746  144.6253  158.4894 C   0  0  0  0  0  0  0  0  0  0  0  0
  151.0656  143.3203  157.9608 C   0  0  0  0  0  0  0  0  0  0  0  0
  151.7977  142.3087  158.6110 C   0  0  0  0  0  0  0  0  0  0  0  0
  147.9053  141.2507  154.2842 H   0  0  0  0  0  0  0  0  0  0  0  0
  149.4071  141.8527  153.5838 H   0  0  0  0  0  0  0  0  0  0  0  0
  149.1192  142.0051  155.3159 H   0  0  0  0  0  0  0  0  0  0  0  0
  149.1871  139.5050  155.5527 H   0  0  0  0  0  0  0  0  0  0  0  0
  149.4601  139.3441  153.8190 H   0  0  0  0  0  0  0  0  0  0  0  0
  152.2494  141.5619  155.7959 H   0  0  0  0  0  0  0  0  0  0  0  0
  150.5291  141.7861  156.0849 H   0  0  0  0  0  0  0  0  0  0  0  0
  150.4372  139.8417  157.5560 H   0  0  0  0  0  0  0  0  0  0  0  0
  152.0224  139.3013  157.0809 H   0  0  0  0  0  0  0  0  0  0  0  0
  152.4082  138.4331  159.4435 H   0  0  0  0  0  0  0  0  0  0  0  0
  153.5396  139.0702  161.5994 H   0  0  0  0  0  0  0  0  0  0  0  0
  155.0143  139.4417  160.7119 H   0  0  0  0  0  0  0  0  0  0  0  0
  154.4116  137.7866  160.7707 H   0  0  0  0  0  0  0  0  0  0  0  0
  154.1808  137.7593  158.3599 H   0  0  0  0  0  0  0  0  0  0  0  0
  153.0982  144.1187  161.2032 H   0  0  0  0  0  0  0  0  0  0  0  0
  151.8113  145.9114  160.0613 H   0  0  0  0  0  0  0  0  0  0  0  0
  150.5192  145.4102  157.9972 H   0  0  0  0  0  0  0  0  0  0  0  0
  150.5072  143.1004  157.0630 H   0  0  0  0  0  0  0  0  0  0  0  0
  1  2  1  0  0  0  0
  1 18  1  0  0  0  0
  1 19  1  0  0  0  0
  1 20  1  0  0  0  0
  2  3  1  0  0  0  0
  2 21  1  0  0  0  0
  2 22  1  0  0  0  0
  3  4  1  0  0  0  0
  4  5  1  0  0  0  0
  4 23  1  0  0  0  0
  4 24  1  0  0  0  0
  5  6  1  0  0  0  0
  5 25  1  0  0  0  0
  5 26  1  0  0  0  0
  6 17  1  0  0  0  0
  6  7  1  0  0  0  0
  7  8  1  0  0  0  0
  7 11  2  0  0  0  0
  8  9  1  0  0  0  0
  8 10  1  0  0  0  0
  8 27  1  0  0  0  0
  9 28  1  0  0  0  0
  9 29  1  0  0  0  0
  9 30  1  0  0  0  0
 10 31  1  0  0  0  0
 11 12  1  0  0  0  0
 12 17  2  0  0  0  0
 12 13  1  0  0  0  0
 13 14  2  0  0  0  0
 13 32  1  0  0  0  0
 14 15  1  0  0  0  0
 14 33  1  0  0  0  0
 15 16  2  0  0  0  0
 15 34  1  0  0  0  0
 16 17  1  0  0  0  0
 16 35  1  0  0  0  0
M  END
> <s_m_source_file>
AV-unprocessed.smi

> <i_m_source_file_index>
517

> <i_lp_mmshare_version>
43012

> <i_f3d_flags>
0

> <s_epik_input>
W0NIM11bQ0gyXU9bQ0gyXVtDSDJdbihjKG4xKVtDQEhdKFtDSDNdKVtPSF0pYyhjMTIpW2NIXVtjSF1bY0hdW2NIXTI=

> <s_epik_cmdline>
J2VwaWtfcHl0aG9uJywgJy1waCcsICc3LjAnLCAnLXRuJywgJzgnLCAnLW1hJywgJzIwMCcsICctbWV0YWxfYmluZGluZycsICctaW1hZScsICc8aW5maWxlLm1hZT4nLCAnLW9tYWUnLCAnPG91dGZpbGUubWFlPic=

> <r_epik_Ionization_Penalty>
0.0517997

> <r_epik_Ionization_Penalty_Charging>
0

> <r_epik_Ionization_Penalty_Neutral>
0.0517997

> <r_epik_State_Penalty>
0.0443961

> <r_epik_Charging_Adjusted_Penalty>
0.0443961

> <i_epik_Tot_Q>
0

> <i_epik_Tot_abs_Q>
0

> <r_epik_Metal_State_Penalty>
4.60999e-05

> <b_epik_Metal_Only>
0

> <s_lp_Force_Field>
OPLS_2005

> <r_lp_Energy>
5.78947

> <b_lp_Chiralities_Consistent>
1

> <s_lp_Variant>
AV-unprocessed.smi:517-1

> <Gold.Version>
5.8.1

> <Gold.Id.Protein>
6NUR|6NUR_protein|mol2

> <Gold.PLP.Fitness>
44.8803

> <Gold.PLP.PLP>
-40.0177

> <Gold.PLP.part.hbond>
-2.0000

> <Gold.PLP.part.metal>
0.0000

> <Gold.PLP.part.buried>
-5.1741

> <Gold.PLP.part.nonpolar>
-32.0433

> <Gold.PLP.part.repulsive>
0.0640

> <Gold.PLP.ligand.clash>
0.0000

> <Gold.PLP.ligand.torsion>
0.5828

> <Gold.PLP.Chemscore.Hbond>
2.0000

> <Gold.PLP.Chemscore.CHOScore>
0.0000

> <Gold.PLP.Chemscore.Metal>
0.0000

> <Gold.Chemscore.Hbonds>
donor molecule, donor type, donor heavy atom, donor atom, acceptor molecule, acceptor atom, score
      P1  H  7989  7998       L1     3  1.00
      P1  H  7997  8008       L1    10  1.00

> <Gold.PLP.Chemscore.Internal.Correction>
0.0283

> <Gold.Rescore>
     Score         DG    S(hbond)    S(metal)    S(lipo)     H(rot)  DE(clash)    DE(int)     intcor
     16.70     -18.24       1.88        0.00     101.40       2.11       0.00       1.54       ----

> <Gold.Chemscore.Fitness>
16.6989

> <Gold.Chemscore.DG>
-18.2403

> <Gold.Chemscore.ZeroCoef>
-5.4800

> <Gold.Chemscore.Hbond>
1.8820

> <Gold.Chemscore.Metal>
0.0000

> <Gold.Chemscore.Lipo>
101.4015

> <Gold.Chemscore.Internal_Hbond>
0.0000

> <Gold.Chemscore.DEClash>
0.0000

> <Gold.Chemscore.DEInternal>
1.5414

> <Gold.Chemscore.Rot>
2.1052

> <Gold.Chemscore.Internal.Correction>
   9.000000E+99

> <Gold.Chemscore.Hbonds>
donor molecule, donor type, donor heavy atom, donor atom, acceptor molecule, acceptor atom, score
      P1  H  7989  7998       L1     3  0.42
      P1  H  7997  8008       L1    10  0.98

> <Gold.Chemscore.Hbond.Weighted>
-6.2857

> <Gold.Chemscore.Metal.Weighted>
-0.0000

> <Gold.Chemscore.Lipo.Weighted>
-11.8640

> <Gold.Chemscore.Internal_Hbond.Weighted>
0.0000

> <Gold.Chemscore.DEClash.Weighted>
0.0000

> <Gold.Chemscore.DEInternal.Weighted>
1.5414

> <Gold.Chemscore.Rot.Weighted>
5.3894

> <Gold.Chemscore.Internal.Correction.Weighted>
   9.000000E+99

> <Gold.Protein.RotatedTorsions>
[ 6907 6896 6895 6894 ] final -101.99 input  -60.11 | X-H torsion
[ 7974 7965 7964 7962 ] final   41.33 input  175.53 | X-H torsion
[ 8008 7997 7996 7995 ] final -100.95 input   59.86 | X-H torsion
[ 10167 10162 10161 10158 ] final -174.28 input  -65.29 | X-H torsion
[ 10718 10713 10712 10709 ] final  132.70 input   66.30 | X-H torsion
[ 10763 10752 10751 10750 ] final  -70.53 input  -60.55 | X-H torsion
[ 11005 11000 10999 10996 ] final -138.03 input  -57.11 | X-H torsion

> <Gold.Protein.ActiveResidues>
 VAL166  LYS551  ARG553  GLY616  TRP617  ASP618  TYR619  PRO620  LYS621  CYS622 
 ASP623  PHE694  ASN695  SER759  ASP760  ASP761  ALA762  ILE779  LEU786  VAL792 
 PHE793  MET794  SER795  GLU796  ALA797  LYS798  CYS799  TRP800  GLU811  SER814 

> <Gold.Protein.RotatedAtoms>
  150.7177  134.0649  159.3843 H   0  0  0  0  0  0  0  0  0  0  0  0  # atno 6907 bound_to 6896
  151.8630  135.0515  160.0480 H   0  0  0  0  0  0  0  0  0  0  0  0  # atno 6908 bound_to 6896
  152.2703  133.5340  159.5471 H   0  0  0  0  0  0  0  0  0  0  0  0  # atno 6909 bound_to 6896
  146.0832  139.5428  142.9523 H   0  0  0  0  0  0  0  0  0  0  0  0  # atno 7974 bound_to 7965
  154.8358  140.0437  157.1508 H   0  0  0  0  0  0  0  0  0  0  0  0  # atno 8008 bound_to 7997
  154.9101  140.3012  155.5250 H   0  0  0  0  0  0  0  0  0  0  0  0  # atno 8009 bound_to 7997
  156.2989  140.2359  156.4140 H   0  0  0  0  0  0  0  0  0  0  0  0  # atno 8010 bound_to 7997
  139.5642  144.1796  152.1286 H   0  0  0  0  0  0  0  0  0  0  0  0  # atno 10167 bound_to 10162
  157.4846  131.1087  150.9637 H   0  0  0  0  0  0  0  0  0  0  0  0  # atno 10718 bound_to 10713
  154.4190  135.5991  153.5998 H   0  0  0  0  0  0  0  0  0  0  0  0  # atno 10763 bound_to 10752
  152.9793  135.5947  154.3978 H   0  0  0  0  0  0  0  0  0  0  0  0  # atno 10764 bound_to 10752
  154.3801  135.2841  155.2194 H   0  0  0  0  0  0  0  0  0  0  0  0  # atno 10765 bound_to 10752
  140.8655  134.2116  157.4682 H   0  0  0  0  0  0  0  0  0  0  0  0  # atno 11005 bound_to 11000
  145.6178  141.0328  143.1931 LP  0  0  0  0  0  0  0  0  0  0  0  0  # atno 17320 bound_to 7965
  144.7308  139.7733  143.7348 LP  0  0  0  0  0  0  0  0  0  0  0  0  # atno 17321 bound_to 7965
  140.1315  144.5284  150.6799 LP  0  0  0  0  0  0  0  0  0  0  0  0  # atno 17342 bound_to 10162
  140.6924  143.2384  151.5093 LP  0  0  0  0  0  0  0  0  0  0  0  0  # atno 17343 bound_to 10162
  157.0359  130.5730  149.5349 LP  0  0  0  0  0  0  0  0  0  0  0  0  # atno 17370 bound_to 10713
  156.0140  130.5233  150.8076 LP  0  0  0  0  0  0  0  0  0  0  0  0  # atno 17371 bound_to 10713
  139.8709  134.9750  156.4866 LP  0  0  0  0  0  0  0  0  0  0  0  0  # atno 17394 bound_to 11000
  140.8634  133.8043  155.9288 LP  0  0  0  0  0  0  0  0  0  0  0  0  # atno 17395 bound_to 11000

$$$$
