#       Name:                AV-unprocessed.smi:1626
#       Creating user name   scv26
#       Creation time:       Fri Mar 27 07:17:31 2020


#       File generated by GOLD software.
#

@<TRIPOS>MOLECULE
AV-unprocessed.smi:1626
    53    55     1
SMALL
NO_CHARGES


@<TRIPOS>ATOM
      1 ****        -3.5022   4.8838  -2.2486 C.3            1 S1                 0.0000
      2 ****        -3.1552   3.6842  -1.3843 C.ar           1 S1                 0.0000
      3 ****        -3.4801   3.7116  -0.0094 C.ar           1 S1                 0.0000
      4 ****        -3.1767   2.6164   0.8282 C.ar           1 S1                 0.0000
      5 ****        -3.4001   2.4306   2.1817 N.2            1 S1                 0.0000
      6 ****        -2.8983   1.2141   2.3723 C.2            1 S1                 0.0000
      7 ****        -2.3684   0.5912   1.3018 N.pl3          1 S1                 0.0000
      8 ****        -1.7674  -0.7299   1.2642 C.3            1 S1                 0.0000
      9 ****        -0.2296  -0.6780   1.1818 C.3            1 S1                 0.0000
     10 ****         0.2767   0.0134   2.3075 O.3            1 S1                 0.0000
     11 ****         0.3851  -2.0911   1.1534 C.3            1 S1                 0.0000
     12 ****         1.8564  -2.0712   0.9479 N.4            1 S1                 1.0000
     13 ****         2.2489  -1.8394  -0.4687 C.3            1 S1                 0.0000
     14 ****         3.7744  -1.7023  -0.6088 C.3            1 S1                 0.0000
     15 ****         4.4882  -2.9383  -0.0429 C.3            1 S1                 0.0000
     16 ****         5.8861  -2.7494  -0.0922 O.3            1 S1                 0.0000
     17 ****         4.0498  -3.1706   1.4099 C.3            1 S1                 0.0000
     18 ****         2.5190  -3.2773   1.5096 C.3            1 S1                 0.0000
     19 ****        -2.5340   1.4836   0.2483 C.ar           1 S1                 0.0000
     20 ****        -2.2063   1.4438  -1.1184 C.ar           1 S1                 0.0000
     21 ****        -2.5164   2.5470  -1.9411 C.ar           1 S1                 0.0000
     22 ****        -2.1586   2.4958  -3.4159 C.3            1 S1                 0.0000
     23 ****        -3.9485   5.6843  -1.6578 H              1 S1                 0.0000
     24 ****        -4.2153   4.6015  -3.0233 H              1 S1                 0.0000
     25 ****        -2.6083   5.2827  -2.7285 H              1 S1                 0.0000
     26 ****        -3.9680   4.5769   0.4147 H              1 S1                 0.0000
     27 ****        -2.9131   0.7503   3.3481 H              1 S1                 0.0000
     28 ****        -2.0851  -1.2838   2.1489 H              1 S1                 0.0000
     29 ****        -2.1731  -1.2606   0.4019 H              1 S1                 0.0000
     30 ****         0.0512  -0.1214   0.2883 H              1 S1                 0.0000
     31 ****        -0.1021   0.8799   2.3234 H              1 S1                 0.0000
     32 ****         0.1492  -2.5861   2.0969 H              1 S1                 0.0000
     33 ****        -0.0778  -2.6962   0.3722 H              1 S1                 0.0000
     34 ****         1.8910  -2.6653  -1.0857 H              1 S1                 0.0000
     35 ****         1.7778  -0.9353  -0.8521 H              1 S1                 0.0000
     36 ****         4.0390  -1.5626  -1.6576 H              1 S1                 0.0000
     37 ****         4.1069  -0.8060  -0.0828 H              1 S1                 0.0000
     38 ****         4.2406  -3.8139  -0.6444 H              1 S1                 0.0000
     39 ****         6.1494  -2.6582  -0.9955 H              1 S1                 0.0000
     40 ****         4.5108  -4.0784   1.8010 H              1 S1                 0.0000
     41 ****         4.3974  -2.3503   2.0397 H              1 S1                 0.0000
     42 ****         2.2397  -3.3971   2.5570 H              1 S1                 0.0000
     43 ****         2.1674  -4.1659   0.9829 H              1 S1                 0.0000
     44 ****        -1.7213   0.5713  -1.5303 H              1 S1                 0.0000
     45 ****        -1.6970   1.5443  -3.6813 H              1 S1                 0.0000
     46 ****        -1.4548   3.2901  -3.6654 H              1 S1                 0.0000
     47 ****        -3.0509   2.6173  -4.0302 H              1 S1                 0.0000
     48 ****         2.2020  -1.2876   1.4844 H              1 S1                 0.0000
     49 ****        -3.8265   3.0486   2.8422 LP             1 S1                 0.0000
     50 ****         1.2722   0.0818   2.2416 LP             1 S1                 0.0000
     51 ****         0.0309  -0.4774   3.1433 LP             1 S1                 0.0000
     52 ****         6.3465  -3.5387   0.3140 LP             1 S1                 0.0000
     53 ****         6.1317  -1.9230   0.4146 LP             1 S1                 0.0000
@<TRIPOS>BOND
    1    1    2 1     
    2    1   23 1     
    3    1   24 1     
    4    1   25 1     
    5    2   21 ar    
    6    2    3 ar    
    7    3    4 ar    
    8    3   26 1     
    9    4   19 ar    
   10    4    5 1     
   11    5    6 2     
   12    6    7 1     
   13    6   27 1     
   14    7    8 1     
   15    7   19 1     
   16    8    9 1     
   17    8   28 1     
   18    8   29 1     
   19    9   10 1     
   20    9   11 1     
   21    9   30 1     
   22   10   31 1     
   23   11   12 1     
   24   11   32 1     
   25   11   33 1     
   26   12   18 1     
   27   12   13 1     
   28   12   48 1     
   29   13   14 1     
   30   13   34 1     
   31   13   35 1     
   32   14   15 1     
   33   14   36 1     
   34   14   37 1     
   35   15   16 1     
   36   15   17 1     
   37   15   38 1     
   38   16   39 1     
   39   17   18 1     
   40   17   40 1     
   41   17   41 1     
   42   18   42 1     
   43   18   43 1     
   44   19   20 ar    
   45   20   21 ar    
   46   20   44 1     
   47   21   22 1     
   48   22   45 1     
   49   22   46 1     
   50   22   47 1     
   51    5   49 1     
   52   10   50 1     
   53   10   51 1     
   54   16   52 1     
   55   16   53 1     
@<TRIPOS>SUBSTRUCTURE
      1 S1             1
@<TRIPOS>SET
LONE_PAIRS      STATIC     ATOMS    <user>   **** ""
5 49 50 51 52 53
DONOR_HYDROGENS      STATIC     ATOMS    <user>   **** ""
3 31 48 39
ATOM$BLUE        STATIC     ATOMS    COLORGROUP SYSTEM
5 49 50 51 52 53
ATOM$RED        STATIC     ATOMS    COLORGROUP SYSTEM
3 31 48 39
