AV-unprocessed.smi:45|AV-procd|sdf|414|dock7
  -GOLD-   2262016283D 1   1.00000     0.00000
 Structure written by MMmdl.
 59 62  0  0  0  0  0  0  0  0  2 V2000
  148.8217  129.1556  153.0118 C   0  0  0  0  0  0  0  0  0  0  0  0
  149.8957  129.9197  153.5401 O   0  0  0  0  0  0  0  0  0  0  0  0
  149.6337  131.2044  153.9697 C   0  0  0  0  0  0  0  0  0  0  0  0
  148.5254  131.9727  153.5307 C   0  0  0  0  0  0  0  0  0  0  0  0
  148.3228  133.2790  154.0156 C   0  0  0  0  0  0  0  0  0  0  0  0
  149.2208  133.8394  154.9454 C   0  0  0  0  0  0  0  0  0  0  0  0
  149.0011  135.2445  155.4691 C   0  0  0  0  0  0  0  0  0  0  0  0
  147.7258  135.8137  155.0604 N   0  0  0  0  0  0  0  0  0  0  0  0
  147.6367  137.1228  154.5575 C   0  0  0  0  0  0  0  0  0  0  0  0
  148.6821  137.9554  154.7807 N   0  0  0  0  0  0  0  0  0  0  0  0
  148.6098  139.1951  154.2931 C   0  0  0  0  0  0  0  0  0  0  0  0
  149.6901  140.0190  154.5684 N   0  0  0  0  0  0  0  0  0  0  0  0
  149.4649  141.2878  155.2572 C   0  0  0  0  0  0  0  0  0  0  0  0
  150.6528  141.5046  156.2035 C   0  0  0  0  0  0  0  0  0  0  0  0
  151.7355  140.5865  155.6480 C   0  0  0  0  0  0  0  0  0  0  0  0
  150.9053  139.4199  155.1097 C   0  0  2  0  0  0  0  0  0  0  0  0
  151.6333  138.4700  154.1353 C   0  0  0  0  0  0  0  0  0  0  0  0
  150.9424  137.2473  153.9791 O   0  0  0  0  0  0  0  0  0  0  0  0
  147.5929  139.7126  153.5994 N   0  0  0  0  0  0  0  0  0  0  0  0
  146.5412  138.8994  153.3636 C   0  0  0  0  0  0  0  0  0  0  0  0
  146.4997  137.5611  153.8239 C   0  0  0  0  0  0  0  0  0  0  0  0
  145.2918  136.6928  153.5756 C   0  0  0  0  0  0  0  0  0  0  0  0
  144.1959  137.0714  154.0045 O   0  0  0  0  0  0  0  0  0  0  0  0
  145.6167  135.5546  152.9031 N   0  5  0  0  0  0  0  0  0  0  0  0
  145.6369  135.4372  151.4452 C   0  0  0  0  0  0  0  0  0  0  0  0
  145.1945  134.0533  150.9914 C   0  0  0  0  0  0  0  0  0  0  0  0
  146.1482  133.2356  150.5277 N   0  0  0  0  0  0  0  0  0  0  0  0
  145.7644  131.9969  150.1514 C   0  0  0  0  0  0  0  0  0  0  0  0
  144.4217  131.5781  150.2377 C   0  0  0  0  0  0  0  0  0  0  0  0
  143.5044  132.5248  150.7360 C   0  0  0  0  0  0  0  0  0  0  0  0
  143.8929  133.7627  151.1109 N   0  0  0  0  0  0  0  0  0  0  0  0
  150.3239  133.0827  155.3863 C   0  0  0  0  0  0  0  0  0  0  0  0
  150.5293  131.7765  154.9011 C   0  0  0  0  0  0  0  0  0  0  0  0
  151.8939  130.8770  155.4606 Cl  0  0  0  0  0  0  0  0  0  0  0  0
  150.5918  138.8196  155.9657 H   0  0  0  0  0  0  0  0  0  0  0  0
  149.1883  128.1688  152.7295 H   0  0  0  0  0  0  0  0  0  0  0  0
  148.4031  129.6197  152.1177 H   0  0  0  0  0  0  0  0  0  0  0  0
  148.0317  129.0148  153.7506 H   0  0  0  0  0  0  0  0  0  0  0  0
  147.8132  131.5825  152.8196 H   0  0  0  0  0  0  0  0  0  0  0  0
  147.4742  133.8520  153.6710 H   0  0  0  0  0  0  0  0  0  0  0  0
  149.0520  135.2189  156.5582 H   0  0  0  0  0  0  0  0  0  0  0  0
  149.8086  135.8924  155.1259 H   0  0  0  0  0  0  0  0  0  0  0  0
  146.8902  135.2494  155.1266 H   0  0  0  0  0  0  0  0  0  0  0  0
  149.4371  142.0760  154.5045 H   0  0  0  0  0  0  0  0  0  0  0  0
  148.5178  141.3189  155.7969 H   0  0  0  0  0  0  0  0  0  0  0  0
  150.9657  142.5473  156.2593 H   0  0  0  0  0  0  0  0  0  0  0  0
  150.3816  141.1817  157.2094 H   0  0  0  0  0  0  0  0  0  0  0  0
  152.2704  141.0951  154.8449 H   0  0  0  0  0  0  0  0  0  0  0  0
  152.4615  140.2798  156.4014 H   0  0  0  0  0  0  0  0  0  0  0  0
  151.7073  138.9404  153.1546 H   0  0  0  0  0  0  0  0  0  0  0  0
  152.6542  138.2721  154.4619 H   0  0  0  0  0  0  0  0  0  0  0  0
  151.0341  136.9643  153.0823 H   0  0  0  0  0  0  0  0  0  0  0  0
  145.7199  139.3340  152.8124 H   0  0  0  0  0  0  0  0  0  0  0  0
  144.9857  136.1798  150.9813 H   0  0  0  0  0  0  0  0  0  0  0  0
  146.6260  135.6281  151.0242 H   0  0  0  0  0  0  0  0  0  0  0  0
  146.5331  131.3355  149.7800 H   0  0  0  0  0  0  0  0  0  0  0  0
  144.1130  130.5877  149.9386 H   0  0  0  0  0  0  0  0  0  0  0  0
  142.4555  132.2879  150.8346 H   0  0  0  0  0  0  0  0  0  0  0  0
  151.0189  133.5041  156.0980 H   0  0  0  0  0  0  0  0  0  0  0  0
  1  2  1  0  0  0  0
  1 36  1  0  0  0  0
  1 37  1  0  0  0  0
  1 38  1  0  0  0  0
  2  3  1  0  0  0  0
  3 33  1  0  0  0  0
  3  4  2  0  0  0  0
  4  5  1  0  0  0  0
  4 39  1  0  0  0  0
  5  6  2  0  0  0  0
  5 40  1  0  0  0  0
  6  7  1  0  0  0  0
  6 32  1  0  0  0  0
  7  8  1  0  0  0  0
  7 41  1  0  0  0  0
  7 42  1  0  0  0  0
  8  9  1  0  0  0  0
  8 43  1  0  0  0  0
  9 21  1  0  0  0  0
  9 10  2  0  0  0  0
 10 11  1  0  0  0  0
 11 12  1  0  0  0  0
 11 19  2  0  0  0  0
 12 16  1  0  0  0  0
 12 13  1  0  0  0  0
 13 14  1  0  0  0  0
 13 44  1  0  0  0  0
 13 45  1  0  0  0  0
 14 15  1  0  0  0  0
 14 46  1  0  0  0  0
 14 47  1  0  0  0  0
 15 16  1  0  0  0  0
 15 48  1  0  0  0  0
 15 49  1  0  0  0  0
 16 35  1  0  0  0  0
 16 17  1  0  0  0  0
 17 18  1  0  0  0  0
 17 50  1  0  0  0  0
 17 51  1  0  0  0  0
 18 52  1  0  0  0  0
 19 20  1  0  0  0  0
 20 21  2  0  0  0  0
 20 53  1  0  0  0  0
 21 22  1  0  0  0  0
 22 23  2  0  0  0  0
 22 24  1  0  0  0  0
 24 25  1  0  0  0  0
 25 26  1  0  0  0  0
 25 54  1  0  0  0  0
 25 55  1  0  0  0  0
 26 31  1  0  0  0  0
 26 27  2  0  0  0  0
 27 28  1  0  0  0  0
 28 29  2  0  0  0  0
 28 56  1  0  0  0  0
 29 30  1  0  0  0  0
 29 57  1  0  0  0  0
 30 31  2  0  0  0  0
 30 58  1  0  0  0  0
 32 33  2  0  0  0  0
 32 59  1  0  0  0  0
 33 34  1  0  0  0  0
M  CHG  1  24  -1
M  END
> <s_m_source_file>
AV-unprocessed.smi

> <i_m_source_file_index>
45

> <i_lp_mmshare_version>
43012

> <i_f3d_flags>
0

> <s_epik_input>
W0NIM11PYzFbY0hdW2NIXWMoW2NIXWMxQ2wpW0NIMl1bTkhdYzJuYyhOM1tDSDJdW0NIMl1bQ0gyXVtDQEhdM1tDSDJdW09IXSluW2NIXWMyQyg9TylbTkhdW0NIMl1jNG5bY0hdW2NIXVtjSF1uNA==

> <s_epik_cmdline>
J2VwaWtfcHl0aG9uJywgJy1waCcsICc3LjAnLCAnLXRuJywgJzgnLCAnLW1hJywgJzIwMCcsICctbWV0YWxfYmluZGluZycsICctaW1hZScsICc8aW5maWxlLm1hZT4nLCAnLW9tYWUnLCAnPG91dGZpbGUubWFlPic=

> <r_lp_tautomer_probability>
1

> <r_epik_Ionization_Penalty>
7.35269

> <r_epik_Ionization_Penalty_Charging>
6.82087

> <r_epik_Ionization_Penalty_Neutral>
0.53182

> <r_epik_State_Penalty>
6.85781

> <r_epik_Charging_Adjusted_Penalty>
13.6787

> <i_epik_Tot_Q>
-1

> <i_epik_Tot_abs_Q>
1

> <r_epik_Metal_State_Penalty>
2.8146

> <b_epik_Metal_Only>
1

> <s_epik_Chemistry_Notes>
This compound contains an electron-poor aromatic ring that is susceptible to covalent hydrolysis at low pH, typically resulting in measured values for nitrogen ring protonation that are around two units higher than predicted values.

> <s_lp_Force_Field>
OPLS_2005

> <r_lp_Energy>
50.4559

> <b_lp_Chiralities_Consistent>
1

> <s_lp_Variant>
AV-unprocessed.smi:45-8

> <Gold.Version>
5.8.1

> <Gold.Id.Protein>
6NUR|6NUR_protein|mol2

> <Gold.PLP.Fitness>
56.3836

> <Gold.PLP.PLP>
-49.6921

> <Gold.PLP.part.hbond>
-2.1777

> <Gold.PLP.part.metal>
0.0000

> <Gold.PLP.part.buried>
-4.3214

> <Gold.PLP.part.nonpolar>
-46.4315

> <Gold.PLP.part.repulsive>
2.7646

> <Gold.PLP.ligand.clash>
0.0000

> <Gold.PLP.ligand.torsion>
2.9340

> <Gold.PLP.Chemscore.Hbond>
1.0000

> <Gold.PLP.Chemscore.CHOScore>
2.9040

> <Gold.PLP.Chemscore.Metal>
0.0000

> <Gold.Chemscore.Hbonds>
donor molecule, donor type, donor heavy atom, donor atom, acceptor molecule, acceptor atom, score
      L1  H    18    52       P1  7949  1.00
      L1  C    20    53       P1 10175  1.00
      L1  C    28    56       P1 10747  1.00
      L1  C    30    58       P1 10186  0.08
      L1  C    30    58       P1 10952  0.27

> <Gold.PLP.Chemscore.Internal.Correction>
0.8474

> <Gold.Rescore>
     Score         DG    S(hbond)    S(metal)    S(lipo)     H(rot)  DE(clash)    DE(int)     intcor
      8.66     -13.22       0.51        0.00     119.55       3.11       0.06       4.50       ----

> <Gold.Chemscore.Fitness>
8.6561

> <Gold.Chemscore.DG>
-13.2152

> <Gold.Chemscore.ZeroCoef>
-5.4800

> <Gold.Chemscore.Hbond>
0.5101

> <Gold.Chemscore.Metal>
0.0000

> <Gold.Chemscore.Lipo>
119.5491

> <Gold.Chemscore.Internal_Hbond>
0.0000

> <Gold.Chemscore.DEClash>
0.0628

> <Gold.Chemscore.DEInternal>
4.4963

> <Gold.Chemscore.Rot>
3.1077

> <Gold.Chemscore.Internal.Correction>
   9.000000E+99

> <Gold.Chemscore.Hbonds>
donor molecule, donor type, donor heavy atom, donor atom, acceptor molecule, acceptor atom, score
      L1  H    18    52       P1  7949  0.30

> <Gold.Chemscore.Hbond.Weighted>
-1.7036

> <Gold.Chemscore.Metal.Weighted>
-0.0000

> <Gold.Chemscore.Lipo.Weighted>
-13.9872

> <Gold.Chemscore.Internal_Hbond.Weighted>
0.0000

> <Gold.Chemscore.DEClash.Weighted>
0.0628

> <Gold.Chemscore.DEInternal.Weighted>
4.4963

> <Gold.Chemscore.Rot.Weighted>
7.9557

> <Gold.Chemscore.Internal.Correction.Weighted>
   9.000000E+99

> <Gold.Protein.RotatedTorsions>
[ 6907 6896 6895 6894 ] final -129.28 input  -60.11 | X-H torsion
[ 7974 7965 7964 7962 ] final  -48.64 input  175.53 | X-H torsion
[ 8008 7997 7996 7995 ] final -122.34 input   59.86 | X-H torsion
[ 10167 10162 10161 10158 ] final  -75.40 input  -65.29 | X-H torsion
[ 10718 10713 10712 10709 ] final  170.15 input   66.30 | X-H torsion
[ 10763 10752 10751 10750 ] final  134.26 input  -60.55 | X-H torsion
[ 11005 11000 10999 10996 ] final   -0.60 input  -57.11 | X-H torsion

> <Gold.Protein.ActiveResidues>
 VAL166  LYS551  ARG553  GLY616  TRP617  ASP618  TYR619  PRO620  LYS621  CYS622 
 ASP623  PHE694  ASN695  SER759  ASP760  ASP761  ALA762  ILE779  LEU786  VAL792 
 PHE793  MET794  SER795  GLU796  ALA797  LYS798  CYS799  TRP800  GLU811  SER814 

> <Gold.Protein.RotatedAtoms>
  150.9270  133.6811  159.2818 H   0  0  0  0  0  0  0  0  0  0  0  0  # atno 6907 bound_to 6896
  151.4246  135.1001  159.9634 H   0  0  0  0  0  0  0  0  0  0  0  0  # atno 6908 bound_to 6896
  152.5008  133.8714  159.7355 H   0  0  0  0  0  0  0  0  0  0  0  0  # atno 6909 bound_to 6896
  145.9490  140.7590  142.9514 H   0  0  0  0  0  0  0  0  0  0  0  0  # atno 7974 bound_to 7965
  155.1626  140.0406  157.2846 H   0  0  0  0  0  0  0  0  0  0  0  0  # atno 8008 bound_to 7997
  154.6325  140.2527  155.7389 H   0  0  0  0  0  0  0  0  0  0  0  0  # atno 8009 bound_to 7997
  156.2492  140.2872  156.0684 H   0  0  0  0  0  0  0  0  0  0  0  0  # atno 8010 bound_to 7997
  140.4946  143.2373  151.7852 H   0  0  0  0  0  0  0  0  0  0  0  0  # atno 10167 bound_to 10162
  157.0124  131.0208  151.2799 H   0  0  0  0  0  0  0  0  0  0  0  0  # atno 10718 bound_to 10713
  153.8206  135.3117  155.3410 H   0  0  0  0  0  0  0  0  0  0  0  0  # atno 10763 bound_to 10752
  154.8014  135.4724  154.0288 H   0  0  0  0  0  0  0  0  0  0  0  0  # atno 10764 bound_to 10752
  153.1696  135.6875  153.8716 H   0  0  0  0  0  0  0  0  0  0  0  0  # atno 10765 bound_to 10752
  140.6381  133.9514  155.8311 H   0  0  0  0  0  0  0  0  0  0  0  0  # atno 11005 bound_to 11000
  144.6792  140.2403  143.7344 LP  0  0  0  0  0  0  0  0  0  0  0  0  # atno 17320 bound_to 7965
  145.8197  139.2038  143.1945 LP  0  0  0  0  0  0  0  0  0  0  0  0  # atno 17321 bound_to 7965
  139.4858  144.4604  151.9548 LP  0  0  0  0  0  0  0  0  0  0  0  0  # atno 17342 bound_to 10162
  140.3691  144.2877  150.5922 LP  0  0  0  0  0  0  0  0  0  0  0  0  # atno 17343 bound_to 10162
  157.5311  130.8059  149.7918 LP  0  0  0  0  0  0  0  0  0  0  0  0  # atno 17370 bound_to 10713
  156.0131  130.3824  150.2198 LP  0  0  0  0  0  0  0  0  0  0  0  0  # atno 17371 bound_to 10713
  141.0627  134.0323  157.3637 LP  0  0  0  0  0  0  0  0  0  0  0  0  # atno 17394 bound_to 11000
  139.9090  135.0186  156.7612 LP  0  0  0  0  0  0  0  0  0  0  0  0  # atno 17395 bound_to 11000

$$$$
