AV-unprocessed.smi:35|AV-procd|sdf|249|dock6
  -GOLD-   2262016 13D 1   1.00000     0.00000
 Structure written by MMmdl.
 29 30  0  0  0  0  0  0  0  0  1 V2000
  140.5941  134.9639  153.8257 O   0  0  0  0  0  0  0  0  0  0  0  0
  141.7172  135.3542  153.5143 C   0  0  0  0  0  0  0  0  0  0  0  0
  142.8041  134.4754  153.5449 N   0  0  0  0  0  0  0  0  0  0  0  0
  144.1217  134.8006  153.2146 C   0  0  0  0  0  0  0  0  0  0  0  0
  144.9957  133.9365  153.2643 O   0  0  0  0  0  0  0  0  0  0  0  0
  144.3768  136.1350  152.8246 N   0  0  0  0  0  0  0  0  0  0  0  0
  145.7794  136.5588  152.4544 C   0  0  2  0  0  0  0  0  0  0  0  0
  146.5032  136.7484  153.6333 O   0  0  0  0  0  0  0  0  0  0  0  0
  147.2088  137.9821  153.5761 C   0  0  2  0  0  0  0  0  0  0  0  0
  147.4421  138.4923  155.0067 C   0  0  0  0  0  0  0  0  0  0  0  0
  146.2175  138.6113  155.6984 O   0  0  0  0  0  0  0  0  0  0  0  0
  146.3068  138.8679  152.7126 C   0  0  1  0  0  0  0  0  0  0  0  0
  146.9928  139.9632  152.1353 O   0  0  0  0  0  0  0  0  0  0  0  0
  145.7576  137.8875  151.6789 C   0  0  1  0  0  0  0  0  0  0  0  0
  146.5649  137.8105  150.5175 O   0  0  0  0  0  0  0  0  0  0  0  0
  143.3267  137.0413  152.7714 C   0  0  0  0  0  0  0  0  0  0  0  0
  142.0545  136.7087  153.0910 C   0  0  0  0  0  0  0  0  0  0  0  0
  140.7011  138.1481  152.9480 Br  0  0  0  0  0  0  0  0  0  0  0  0
  142.6202  133.5233  153.8267 H   0  0  0  0  0  0  0  0  0  0  0  0
  146.2389  135.7363  151.9037 H   0  0  0  0  0  0  0  0  0  0  0  0
  148.1586  137.7977  153.0703 H   0  0  0  0  0  0  0  0  0  0  0  0
  148.1121  137.8296  155.5554 H   0  0  0  0  0  0  0  0  0  0  0  0
  147.9138  139.4748  154.9790 H   0  0  0  0  0  0  0  0  0  0  0  0
  145.9897  139.5273  155.7511 H   0  0  0  0  0  0  0  0  0  0  0  0
  145.4824  139.2503  153.3156 H   0  0  0  0  0  0  0  0  0  0  0  0
  147.8781  139.6931  151.9425 H   0  0  0  0  0  0  0  0  0  0  0  0
  144.7428  138.1478  151.3743 H   0  0  0  0  0  0  0  0  0  0  0  0
  146.0247  137.9956  149.7646 H   0  0  0  0  0  0  0  0  0  0  0  0
  143.5224  138.0572  152.4619 H   0  0  0  0  0  0  0  0  0  0  0  0
  1  2  2  0  0  0  0
  2 17  1  0  0  0  0
  2  3  1  0  0  0  0
  3 19  1  0  0  0  0
  3  4  1  0  0  0  0
  4  5  2  0  0  0  0
  4  6  1  0  0  0  0
  6  7  1  0  0  0  0
  6 16  1  0  0  0  0
  7 14  1  0  0  0  0
  7  8  1  0  0  0  0
  7 20  1  0  0  0  0
  8  9  1  0  0  0  0
  9 10  1  0  0  0  0
  9 12  1  0  0  0  0
  9 21  1  0  0  0  0
 10 11  1  0  0  0  0
 10 22  1  0  0  0  0
 10 23  1  0  0  0  0
 11 24  1  0  0  0  0
 12 13  1  0  0  0  0
 12 14  1  0  0  0  0
 12 25  1  0  0  0  0
 13 26  1  0  0  0  0
 14 15  1  0  0  0  0
 14 27  1  0  0  0  0
 15 28  1  0  0  0  0
 16 17  2  0  0  0  0
 16 29  1  0  0  0  0
 17 18  1  0  0  0  0
M  END
> <s_m_source_file>
AV-unprocessed.smi

> <i_m_source_file_index>
35

> <i_lp_mmshare_version>
43012

> <i_f3d_flags>
0

> <s_epik_input>
Tz1jMVtuSF1jKD1PKW4oW2NIXWMxQnIpW0NAQEhdMk9bQ0BASF0oW0NIMl1bT0hdKVtDQEBIXShbT0hdKVtDQEhdMltPSF0=

> <s_epik_cmdline>
J2VwaWtfcHl0aG9uJywgJy1waCcsICc3LjAnLCAnLXRuJywgJzgnLCAnLW1hJywgJzIwMCcsICctbWV0YWxfYmluZGluZycsICctaW1hZScsICc8aW5maWxlLm1hZT4nLCAnLW9tYWUnLCAnPG91dGZpbGUubWFlPic=

> <r_lp_tautomer_probability>
0.999537

> <r_epik_Ionization_Penalty>
0.10812

> <r_epik_Ionization_Penalty_Charging>
0.108119

> <r_epik_Ionization_Penalty_Neutral>
4.93006e-07

> <r_epik_State_Penalty>
0.0979238

> <r_epik_Charging_Adjusted_Penalty>
0.206043

> <i_epik_Tot_Q>
0

> <i_epik_Tot_abs_Q>
0

> <r_epik_Metal_State_Penalty>
3.07911

> <b_epik_Metal_Only>
0

> <s_epik_Chemistry_Notes>
This compound contains an acetal/aminal-like group ( X-CH(R)-Y where X, Y are N, S, or O) that may be acid/base labile, releasing an aldehyde.

> <s_lp_Force_Field>
OPLS_2005

> <r_lp_Energy>
30.5202

> <b_lp_Chiralities_Consistent>
1

> <s_lp_Variant>
AV-unprocessed.smi:35-3

> <Gold.Version>
5.8.1

> <Gold.Id.Protein>
6NUR|6NUR_protein|mol2

> <Gold.PLP.Fitness>
39.3642

> <Gold.PLP.PLP>
-23.1229

> <Gold.PLP.part.hbond>
-6.7293

> <Gold.PLP.part.metal>
0.0000

> <Gold.PLP.part.buried>
0.1170

> <Gold.PLP.part.nonpolar>
-16.8546

> <Gold.PLP.part.repulsive>
0.8284

> <Gold.PLP.ligand.clash>
0.0000

> <Gold.PLP.ligand.torsion>
0.4639

> <Gold.PLP.Chemscore.Hbond>
4.2854

> <Gold.PLP.Chemscore.CHOScore>
1.4350

> <Gold.PLP.Chemscore.Metal>
0.0000

> <Gold.Chemscore.Hbonds>
donor molecule, donor type, donor heavy atom, donor atom, acceptor molecule, acceptor atom, score
      L1  H     3    19       P1 10957  1.00
      L1  H    13    26       P1  7957  1.00
      L1  H    15    28       P1 10171  0.31
      P1  H  7954  7966       L1    15  0.98
      P1  H 11000 11005       L1     1  1.00
      L1  C    16    29       P1 10171  0.44
      L1  C    16    29       P1 10175  1.00

> <Gold.PLP.Chemscore.Internal.Correction>
0.0080

> <Gold.Rescore>
     Score         DG    S(hbond)    S(metal)    S(lipo)     H(rot)  DE(clash)    DE(int)     intcor
     12.11     -14.03       4.10        0.00      36.36       3.67       1.54       0.37       ----

> <Gold.Chemscore.Fitness>
12.1123

> <Gold.Chemscore.DG>
-14.0271

> <Gold.Chemscore.ZeroCoef>
-5.4800

> <Gold.Chemscore.Hbond>
4.0982

> <Gold.Chemscore.Metal>
0.0000

> <Gold.Chemscore.Lipo>
36.3623

> <Gold.Chemscore.Internal_Hbond>
0.0000

> <Gold.Chemscore.DEClash>
1.5435

> <Gold.Chemscore.DEInternal>
0.3712

> <Gold.Chemscore.Rot>
3.6701

> <Gold.Chemscore.Internal.Correction>
   9.000000E+99

> <Gold.Chemscore.Hbonds>
donor molecule, donor type, donor heavy atom, donor atom, acceptor molecule, acceptor atom, score
      L1  H     3    19       P1 10957  0.97
      L1  H    13    26       P1  7957  0.94
      L1  H    15    28       P1 10171  0.30
      P1  H  7954  7966       L1    15  0.37
      P1  H 11000 11005       L1     1  0.89

> <Gold.Chemscore.Hbond.Weighted>
-13.6881

> <Gold.Chemscore.Metal.Weighted>
-0.0000

> <Gold.Chemscore.Lipo.Weighted>
-4.2544

> <Gold.Chemscore.Internal_Hbond.Weighted>
0.0000

> <Gold.Chemscore.DEClash.Weighted>
1.5435

> <Gold.Chemscore.DEInternal.Weighted>
0.3712

> <Gold.Chemscore.Rot.Weighted>
9.3955

> <Gold.Chemscore.Internal.Correction.Weighted>
   9.000000E+99

> <Gold.Protein.RotatedTorsions>
[ 6907 6896 6895 6894 ] final -130.57 input  -60.11 | X-H torsion
[ 7974 7965 7964 7962 ] final  110.66 input  175.53 | X-H torsion
[ 8008 7997 7996 7995 ] final -174.37 input   59.86 | X-H torsion
[ 10167 10162 10161 10158 ] final   96.38 input  -65.29 | X-H torsion
[ 10718 10713 10712 10709 ] final  -25.13 input   66.30 | X-H torsion
[ 10763 10752 10751 10750 ] final  -92.64 input  -60.55 | X-H torsion
[ 11005 11000 10999 10996 ] final   27.36 input  -57.11 | X-H torsion

> <Gold.Protein.ActiveResidues>
 VAL166  LYS551  ARG553  GLY616  TRP617  ASP618  TYR619  PRO620  LYS621  CYS622 
 ASP623  PHE694  ASN695  SER759  ASP760  ASP761  ALA762  ILE779  LEU786  VAL792 
 PHE793  MET794  SER795  GLU796  ALA797  LYS798  CYS799  TRP800  GLU811  SER814 

> <Gold.Protein.RotatedAtoms>
  150.9412  133.6654  159.2790 H   0  0  0  0  0  0  0  0  0  0  0  0  # atno 6907 bound_to 6896
  151.4043  135.0974  159.9575 H   0  0  0  0  0  0  0  0  0  0  0  0  # atno 6908 bound_to 6896
  152.5070  133.8899  159.7443 H   0  0  0  0  0  0  0  0  0  0  0  0  # atno 6909 bound_to 6896
  145.2522  139.2735  143.4061 H   0  0  0  0  0  0  0  0  0  0  0  0  # atno 7974 bound_to 7965
  155.9693  140.1160  157.0827 H   0  0  0  0  0  0  0  0  0  0  0  0  # atno 8008 bound_to 7997
  154.4152  140.1166  156.5352 H   0  0  0  0  0  0  0  0  0  0  0  0  # atno 8009 bound_to 7997
  155.6618  140.3473  155.4787 H   0  0  0  0  0  0  0  0  0  0  0  0  # atno 8010 bound_to 7997
  139.7900  144.6856  150.9906 H   0  0  0  0  0  0  0  0  0  0  0  0  # atno 10167 bound_to 10162
  156.4685  130.4519  149.6884 H   0  0  0  0  0  0  0  0  0  0  0  0  # atno 10718 bound_to 10713
  154.6881  135.5223  153.8354 H   0  0  0  0  0  0  0  0  0  0  0  0  # atno 10763 bound_to 10752
  153.0612  135.6569  154.0468 H   0  0  0  0  0  0  0  0  0  0  0  0  # atno 10764 bound_to 10752
  154.0346  135.2982  155.3343 H   0  0  0  0  0  0  0  0  0  0  0  0  # atno 10765 bound_to 10752
  140.3271  134.2479  155.7708 H   0  0  0  0  0  0  0  0  0  0  0  0  # atno 11005 bound_to 11000
  146.3299  140.2916  142.8615 LP  0  0  0  0  0  0  0  0  0  0  0  0  # atno 17320 bound_to 7965
  144.9493  140.8161  143.5582 LP  0  0  0  0  0  0  0  0  0  0  0  0  # atno 17321 bound_to 7965
  140.7820  143.4391  151.0578 LP  0  0  0  0  0  0  0  0  0  0  0  0  # atno 17342 bound_to 10162
  139.8068  143.8006  152.3168 LP  0  0  0  0  0  0  0  0  0  0  0  0  # atno 17343 bound_to 10162
  156.3643  130.7497  151.2473 LP  0  0  0  0  0  0  0  0  0  0  0  0  # atno 17370 bound_to 10713
  157.7493  131.0341  150.4303 LP  0  0  0  0  0  0  0  0  0  0  0  0  # atno 17371 bound_to 10713
  141.2072  133.7811  157.0129 LP  0  0  0  0  0  0  0  0  0  0  0  0  # atno 17394 bound_to 11000
  140.0892  134.9602  157.1749 LP  0  0  0  0  0  0  0  0  0  0  0  0  # atno 17395 bound_to 11000

$$$$
