AV-unprocessed.smi:2798|AV-procd|sdf|10787|dock3
  -GOLD-   2272015223D 1   1.00000     0.00000
 Structure written by MMmdl.
 29 31  0  0  0  0  0  0  0  0  1 V2000
  151.7957  137.2116  154.2962 N   0  0  0  0  0  0  0  0  0  0  0  0
  151.5538  138.1973  154.8521 C   0  0  0  0  0  0  0  0  0  0  0  0
  151.2507  139.4348  155.5507 C   0  0  0  0  0  0  0  0  0  0  0  0
  151.7873  139.6573  156.8361 C   0  0  0  0  0  0  0  0  0  0  0  0
  151.4814  140.8620  157.4977 C   0  0  0  0  0  0  0  0  0  0  0  0
  150.6473  141.8059  156.8545 C   0  0  0  0  0  0  0  0  0  0  0  0
  150.2799  143.0327  157.4275 N   0  0  0  0  0  0  0  0  0  0  0  0
  150.5604  143.3386  158.8259 C   0  0  2  0  0  0  0  0  0  0  0  0
  150.1621  144.7564  159.2517 C   0  0  0  0  0  0  0  0  0  0  0  0
  151.4673  145.2775  159.8697 C   0  0  2  0  0  0  0  0  0  0  0  0
  152.4948  145.6349  158.7889 C   0  0  0  0  0  0  0  0  0  0  0  0
  152.9156  144.2529  158.2937 C   0  0  0  0  0  0  0  0  0  0  0  0
  152.0602  143.3228  159.1726 C   0  0  1  0  0  0  0  0  0  0  0  0
  152.0304  144.0770  160.3729 O   0  0  0  0  0  0  0  0  0  0  0  0
  150.1673  141.4839  155.5674 C   0  0  0  0  0  0  0  0  0  0  0  0
  150.4557  140.3309  154.9271 N   0  0  0  0  0  0  0  0  0  0  0  0
  152.4221  138.9228  157.3108 H   0  0  0  0  0  0  0  0  0  0  0  0
  151.8900  141.0405  158.4807 H   0  0  0  0  0  0  0  0  0  0  0  0
  149.6673  143.6524  156.9163 H   0  0  0  0  0  0  0  0  0  0  0  0
  150.0578  142.6090  159.4619 H   0  0  0  0  0  0  0  0  0  0  0  0
  149.8246  145.3858  158.4268 H   0  0  0  0  0  0  0  0  0  0  0  0
  149.3656  144.7180  159.9955 H   0  0  0  0  0  0  0  0  0  0  0  0
  151.3234  146.0574  160.6178 H   0  0  0  0  0  0  0  0  0  0  0  0
  152.0709  146.2575  158.0004 H   0  0  0  0  0  0  0  0  0  0  0  0
  153.3460  146.1621  159.2212 H   0  0  0  0  0  0  0  0  0  0  0  0
  152.7434  144.1137  157.2263 H   0  0  0  0  0  0  0  0  0  0  0  0
  153.9769  144.0910  158.4857 H   0  0  0  0  0  0  0  0  0  0  0  0
  152.4749  142.3208  159.2872 H   0  0  0  0  0  0  0  0  0  0  0  0
  149.5277  142.1714  155.0330 H   0  0  0  0  0  0  0  0  0  0  0  0
  1  2  3  0  0  0  0
  2  3  1  0  0  0  0
  3 16  1  0  0  0  0
  3  4  2  0  0  0  0
  4  5  1  0  0  0  0
  4 17  1  0  0  0  0
  5  6  2  0  0  0  0
  5 18  1  0  0  0  0
  6  7  1  0  0  0  0
  6 15  1  0  0  0  0
  7  8  1  0  0  0  0
  7 19  1  0  0  0  0
  8 13  1  0  0  0  0
  8  9  1  0  0  0  0
  8 20  1  0  0  0  0
  9 10  1  0  0  0  0
  9 21  1  0  0  0  0
  9 22  1  0  0  0  0
 10 14  1  0  0  0  0
 10 11  1  0  0  0  0
 10 23  1  0  0  0  0
 11 12  1  0  0  0  0
 11 24  1  0  0  0  0
 11 25  1  0  0  0  0
 12 13  1  0  0  0  0
 12 26  1  0  0  0  0
 12 27  1  0  0  0  0
 13 14  1  0  0  0  0
 13 28  1  0  0  0  0
 15 16  2  0  0  0  0
 15 29  1  0  0  0  0
M  END
> <s_m_source_file>
AV-unprocessed.smi

> <i_m_source_file_index>
2798

> <i_lp_mmshare_version>
43012

> <i_f3d_flags>
0

> <s_epik_input>
TiNDYzFbY0hdW2NIXWMoW2NIXW4xKVtOSF1bQ0BIXShbQ0gyXVtDQEBIXTIzKVtDQEBIXShPMylbQ0gyXVtDSDJdMg==

> <s_epik_cmdline>
J2VwaWtfcHl0aG9uJywgJy1waCcsICc3LjAnLCAnLXRuJywgJzgnLCAnLW1hJywgJzIwMCcsICctbWV0YWxfYmluZGluZycsICctaW1hZScsICc8aW5maWxlLm1hZT4nLCAnLW9tYWUnLCAnPG91dGZpbGUubWFlPic=

> <r_lp_tautomer_probability>
1

> <r_epik_Ionization_Penalty>
2.201e-07

> <r_epik_Ionization_Penalty_Charging>
0

> <r_epik_Ionization_Penalty_Neutral>
2.201e-07

> <r_epik_State_Penalty>
-0

> <r_epik_Charging_Adjusted_Penalty>
0

> <i_epik_Tot_Q>
0

> <i_epik_Tot_abs_Q>
0

> <r_epik_Metal_State_Penalty>
-0

> <b_epik_Metal_Only>
0

> <s_lp_Force_Field>
OPLS_2005

> <r_lp_Energy>
43.8811

> <b_lp_Chiralities_Consistent>
1

> <s_lp_Variant>
AV-unprocessed.smi:2798-3

> <Gold.Version>
5.8.1

> <Gold.Id.Protein>
6NUR|6NUR_protein|mol2

> <Gold.PLP.Fitness>
48.9691

> <Gold.PLP.PLP>
-37.8890

> <Gold.PLP.part.hbond>
-3.0000

> <Gold.PLP.part.metal>
0.0000

> <Gold.PLP.part.buried>
-5.5189

> <Gold.PLP.part.nonpolar>
-29.5506

> <Gold.PLP.part.repulsive>
0.3763

> <Gold.PLP.ligand.clash>
0.0000

> <Gold.PLP.ligand.torsion>
0.0284

> <Gold.PLP.Chemscore.Hbond>
2.8640

> <Gold.PLP.Chemscore.CHOScore>
0.8453

> <Gold.PLP.Chemscore.Metal>
0.0000

> <Gold.Chemscore.Hbonds>
donor molecule, donor type, donor heavy atom, donor atom, acceptor molecule, acceptor atom, score
      L1  H     7    19       P1  8028  1.00
      P1  H  7989  7998       L1    16  1.00
      P1  H 10752 10763       L1     1  0.98
      L1  C    15    29       P1  8028  0.58

> <Gold.PLP.Chemscore.Internal.Correction>
0.0089

> <Gold.Rescore>
     Score         DG    S(hbond)    S(metal)    S(lipo)     H(rot)  DE(clash)    DE(int)     intcor
     21.79     -21.95       2.44        0.00      92.94       1.00       0.14       0.01       ----

> <Gold.Chemscore.Fitness>
21.7928

> <Gold.Chemscore.DG>
-21.9464

> <Gold.Chemscore.ZeroCoef>
-5.4800

> <Gold.Chemscore.Hbond>
2.4409

> <Gold.Chemscore.Metal>
0.0000

> <Gold.Chemscore.Lipo>
92.9382

> <Gold.Chemscore.Internal_Hbond>
0.0000

> <Gold.Chemscore.DEClash>
0.1418

> <Gold.Chemscore.DEInternal>
0.0118

> <Gold.Chemscore.Rot>
1.0000

> <Gold.Chemscore.Internal.Correction>
   9.000000E+99

> <Gold.Chemscore.Hbonds>
donor molecule, donor type, donor heavy atom, donor atom, acceptor molecule, acceptor atom, score
      L1  H     7    19       P1  8028  0.97
      P1  H  7989  7998       L1    16  0.11
      P1  H 10752 10763       L1     1  0.92

> <Gold.Chemscore.Hbond.Weighted>
-8.1526

> <Gold.Chemscore.Metal.Weighted>
-0.0000

> <Gold.Chemscore.Lipo.Weighted>
-10.8738

> <Gold.Chemscore.Internal_Hbond.Weighted>
0.0000

> <Gold.Chemscore.DEClash.Weighted>
0.1418

> <Gold.Chemscore.DEInternal.Weighted>
0.0118

> <Gold.Chemscore.Rot.Weighted>
2.5600

> <Gold.Chemscore.Internal.Correction.Weighted>
   9.000000E+99

> <Gold.Protein.RotatedTorsions>
[ 6907 6896 6895 6894 ] final   41.57 input  -60.11 | X-H torsion
[ 7974 7965 7964 7962 ] final -109.13 input  175.53 | X-H torsion
[ 8008 7997 7996 7995 ] final  122.24 input   59.86 | X-H torsion
[ 10167 10162 10161 10158 ] final  -66.98 input  -65.29 | X-H torsion
[ 10718 10713 10712 10709 ] final -103.72 input   66.30 | X-H torsion
[ 10763 10752 10751 10750 ] final   26.66 input  -60.55 | X-H torsion
[ 11005 11000 10999 10996 ] final  -92.32 input  -57.11 | X-H torsion

> <Gold.Protein.ActiveResidues>
 VAL166  LYS551  ARG553  GLY616  TRP617  ASP618  TYR619  PRO620  LYS621  CYS622 
 ASP623  PHE694  ASN695  SER759  ASP760  ASP761  ALA762  ILE779  LEU786  VAL792 
 PHE793  MET794  SER795  GLU796  ALA797  LYS798  CYS799  TRP800  GLU811  SER814 

> <Gold.Protein.RotatedAtoms>
  152.1970  134.8622  160.0511 H   0  0  0  0  0  0  0  0  0  0  0  0  # atno 6907 bound_to 6896
  151.9489  133.3655  159.4001 H   0  0  0  0  0  0  0  0  0  0  0  0  # atno 6908 bound_to 6896
  150.6946  134.4285  159.5281 H   0  0  0  0  0  0  0  0  0  0  0  0  # atno 6909 bound_to 6896
  145.1843  140.8985  143.3462 H   0  0  0  0  0  0  0  0  0  0  0  0  # atno 7974 bound_to 7965
  156.2719  140.2790  156.1436 H   0  0  0  0  0  0  0  0  0  0  0  0  # atno 8008 bound_to 7997
  155.0928  140.0389  157.2691 H   0  0  0  0  0  0  0  0  0  0  0  0  # atno 8009 bound_to 7997
  154.6876  140.2622  155.6850 H   0  0  0  0  0  0  0  0  0  0  0  0  # atno 8010 bound_to 7997
  140.5616  143.2313  151.6716 H   0  0  0  0  0  0  0  0  0  0  0  0  # atno 10167 bound_to 10162
  156.0276  130.5481  150.7293 H   0  0  0  0  0  0  0  0  0  0  0  0  # atno 10718 bound_to 10713
  153.0608  135.6555  154.0469 H   0  0  0  0  0  0  0  0  0  0  0  0  # atno 10763 bound_to 10752
  154.0137  135.2926  155.3391 H   0  0  0  0  0  0  0  0  0  0  0  0  # atno 10764 bound_to 10752
  154.6945  135.5269  153.8506 H   0  0  0  0  0  0  0  0  0  0  0  0  # atno 10765 bound_to 10752
  141.1524  133.7813  157.0004 H   0  0  0  0  0  0  0  0  0  0  0  0  # atno 11005 bound_to 11000
  145.0105  139.3514  143.6122 LP  0  0  0  0  0  0  0  0  0  0  0  0  # atno 17320 bound_to 7965
  146.3448  139.9365  142.8746 LP  0  0  0  0  0  0  0  0  0  0  0  0  # atno 17321 bound_to 7965
  139.5073  144.3651  152.0524 LP  0  0  0  0  0  0  0  0  0  0  0  0  # atno 17342 bound_to 10162
  140.2778  144.3893  150.6129 LP  0  0  0  0  0  0  0  0  0  0  0  0  # atno 17343 bound_to 10162
  157.4890  131.0909  151.0449 LP  0  0  0  0  0  0  0  0  0  0  0  0  # atno 17370 bound_to 10713
  157.0861  130.5923  149.5430 LP  0  0  0  0  0  0  0  0  0  0  0  0  # atno 17371 bound_to 10713
  140.0944  134.9573  157.1826 LP  0  0  0  0  0  0  0  0  0  0  0  0  # atno 17394 bound_to 11000
  140.3402  134.2712  155.7213 LP  0  0  0  0  0  0  0  0  0  0  0  0  # atno 17395 bound_to 11000

$$$$
