AV-unprocessed.smi:126|AV-procd|sdf|1151|dock6
  -GOLD-   2262018283D 1   1.00000     0.00000
 Structure written by MMmdl.
 40 42  0  0  0  0  0  0  0  0  1 V2000
  147.6239  137.9222  159.2394 O   0  0  0  0  0  0  0  0  0  0  0  0
  148.4722  137.0796  158.9430 C   0  0  0  0  0  0  0  0  0  0  0  0
  149.6253  137.4371  157.9920 C   0  0  0  0  0  0  0  0  0  0  0  0
  150.5067  138.5067  158.5091 N   0  0  0  0  0  0  0  0  0  0  0  0
  151.6722  138.1447  159.2291 C   0  0  0  0  0  0  0  0  0  0  0  0
  151.9555  136.9637  159.4348 O   0  0  0  0  0  0  0  0  0  0  0  0
  152.4968  139.2553  159.6917 C   0  0  0  0  0  0  0  0  0  0  0  0
  153.6180  139.0060  160.3894 F   0  0  0  0  0  0  0  0  0  0  0  0
  152.1526  140.5333  159.4305 C   0  0  0  0  0  0  0  0  0  0  0  0
  151.0169  140.8714  158.7169 N   0  0  0  0  0  0  0  0  0  0  0  0
  150.6537  142.3099  158.4196 C   0  0  2  0  0  0  0  0  0  0  0  0
  151.6884  142.9429  157.4727 C   0  0  0  0  0  0  0  0  0  0  0  0
  152.0178  144.2477  158.1689 C   0  0  0  0  0  0  0  0  0  0  0  0
  151.8238  143.8781  159.6319 C   0  0  0  0  0  0  0  0  0  0  0  0
  150.6631  143.0572  159.6030 O   0  0  0  0  0  0  0  0  0  0  0  0
  150.1664  139.8528  158.2360 C   0  0  0  0  0  0  0  0  0  0  0  0
  149.1562  140.1328  157.5867 O   0  0  0  0  0  0  0  0  0  0  0  0
  148.4606  135.8039  159.3707 N   0  0  0  0  0  0  0  0  0  0  0  0
  147.5495  135.1743  160.2613 C   0  0  0  0  0  0  0  0  0  0  0  0
  147.3052  133.7980  160.0697 C   0  0  0  0  0  0  0  0  0  0  0  0
  146.4291  133.1019  160.9246 C   0  0  0  0  0  0  0  0  0  0  0  0
  145.7978  133.7759  161.9866 C   0  0  0  0  0  0  0  0  0  0  0  0
  146.0486  135.1448  162.1965 C   0  0  0  0  0  0  0  0  0  0  0  0
  146.9245  135.8430  161.3423 C   0  0  0  0  0  0  0  0  0  0  0  0
  150.2041  136.5355  157.7829 H   0  0  0  0  0  0  0  0  0  0  0  0
  149.1980  137.7054  157.0247 H   0  0  0  0  0  0  0  0  0  0  0  0
  152.8049  141.3085  159.8019 H   0  0  0  0  0  0  0  0  0  0  0  0
  149.6378  142.2878  158.0210 H   0  0  0  0  0  0  0  0  0  0  0  0
  152.5762  142.3116  157.4088 H   0  0  0  0  0  0  0  0  0  0  0  0
  151.2754  143.0772  156.4725 H   0  0  0  0  0  0  0  0  0  0  0  0
  153.0224  144.6090  157.9482 H   0  0  0  0  0  0  0  0  0  0  0  0
  151.3031  145.0193  157.8799 H   0  0  0  0  0  0  0  0  0  0  0  0
  152.6776  143.3104  160.0041 H   0  0  0  0  0  0  0  0  0  0  0  0
  151.6831  144.7486  160.2730 H   0  0  0  0  0  0  0  0  0  0  0  0
  149.1580  135.1970  158.9648 H   0  0  0  0  0  0  0  0  0  0  0  0
  147.7864  133.2696  159.2596 H   0  0  0  0  0  0  0  0  0  0  0  0
  146.2430  132.0499  160.7664 H   0  0  0  0  0  0  0  0  0  0  0  0
  145.1271  133.2422  162.6438 H   0  0  0  0  0  0  0  0  0  0  0  0
  145.5731  135.6603  163.0178 H   0  0  0  0  0  0  0  0  0  0  0  0
  147.1126  136.8861  161.5448 H   0  0  0  0  0  0  0  0  0  0  0  0
  1  2  2  0  0  0  0
  2  3  1  0  0  0  0
  2 18  1  0  0  0  0
  3  4  1  0  0  0  0
  3 25  1  0  0  0  0
  3 26  1  0  0  0  0
  4 16  1  0  0  0  0
  4  5  1  0  0  0  0
  5  6  2  0  0  0  0
  5  7  1  0  0  0  0
  7  8  1  0  0  0  0
  7  9  2  0  0  0  0
  9 10  1  0  0  0  0
  9 27  1  0  0  0  0
 10 11  1  0  0  0  0
 10 16  1  0  0  0  0
 11 15  1  0  0  0  0
 11 12  1  0  0  0  0
 11 28  1  0  0  0  0
 12 13  1  0  0  0  0
 12 29  1  0  0  0  0
 12 30  1  0  0  0  0
 13 14  1  0  0  0  0
 13 31  1  0  0  0  0
 13 32  1  0  0  0  0
 14 15  1  0  0  0  0
 14 33  1  0  0  0  0
 14 34  1  0  0  0  0
 16 17  2  0  0  0  0
 18 19  1  0  0  0  0
 18 35  1  0  0  0  0
 19 24  1  0  0  0  0
 19 20  2  0  0  0  0
 20 21  1  0  0  0  0
 20 36  1  0  0  0  0
 21 22  2  0  0  0  0
 21 37  1  0  0  0  0
 22 23  1  0  0  0  0
 22 38  1  0  0  0  0
 23 24  2  0  0  0  0
 23 39  1  0  0  0  0
 24 40  1  0  0  0  0
M  END
> <s_m_source_file>
AV-unprocessed.smi

> <i_m_source_file_index>
126

> <i_lp_mmshare_version>
43012

> <i_f3d_flags>
0

> <s_epik_input>
W2NIXTFbY0hdW2NIXVtjSF1bY0hdYzFbTkhdQyg9TylbQ0gyXW4yYyg9TyljKEYpW2NIXW4oYzI9TylbQ0BASF0zW0NIMl1bQ0gyXVtDSDJdTzM=

> <s_epik_cmdline>
J2VwaWtfcHl0aG9uJywgJy1waCcsICc3LjAnLCAnLXRuJywgJzgnLCAnLW1hJywgJzIwMCcsICctbWV0YWxfYmluZGluZycsICctaW1hZScsICc8aW5maWxlLm1hZT4nLCAnLW9tYWUnLCAnPG91dGZpbGUubWFlPic=

> <r_lp_tautomer_probability>
1

> <r_epik_Ionization_Penalty>
1.86934e-06

> <r_epik_Ionization_Penalty_Charging>
3.88729e-08

> <r_epik_Ionization_Penalty_Neutral>
1.83046e-06

> <r_epik_State_Penalty>
-0

> <r_epik_Charging_Adjusted_Penalty>
3.88729e-08

> <i_epik_Tot_Q>
0

> <i_epik_Tot_abs_Q>
0

> <r_epik_Metal_State_Penalty>
-0

> <b_epik_Metal_Only>
0

> <s_epik_Chemistry_Notes>
This compound contains an acetal/aminal-like group ( X-CH(R)-Y where X, Y are N, S, or O) that may be acid/base labile, releasing an aldehyde.

> <s_lp_Force_Field>
OPLS_2005

> <r_lp_Energy>
33.0924

> <b_lp_Chiralities_Consistent>
1

> <s_lp_Variant>
AV-unprocessed.smi:126-1

> <Gold.Version>
5.8.1

> <Gold.Id.Protein>
6NUR|6NUR_protein|mol2

> <Gold.PLP.Fitness>
47.8068

> <Gold.PLP.PLP>
-44.6230

> <Gold.PLP.part.hbond>
-3.3782

> <Gold.PLP.part.metal>
0.0000

> <Gold.PLP.part.buried>
-6.4522

> <Gold.PLP.part.nonpolar>
-36.1450

> <Gold.PLP.part.repulsive>
0.1839

> <Gold.PLP.ligand.clash>
0.0000

> <Gold.PLP.ligand.torsion>
0.6837

> <Gold.PLP.Chemscore.Hbond>
1.5120

> <Gold.PLP.Chemscore.CHOScore>
0.0000

> <Gold.PLP.Chemscore.Metal>
0.0000

> <Gold.Chemscore.Hbonds>
donor molecule, donor type, donor heavy atom, donor atom, acceptor molecule, acceptor atom, score
      P1  H  6896  6909       L1     6  1.00
      P1  H  6934  6947       L1     1  0.48

> <Gold.PLP.Chemscore.Internal.Correction>
0.0153

> <Gold.Rescore>
     Score         DG    S(hbond)    S(metal)    S(lipo)     H(rot)  DE(clash)    DE(int)     intcor
     16.34     -18.32       1.83        0.00      93.75       1.66       0.30       1.68       ----

> <Gold.Chemscore.Fitness>
16.3370

> <Gold.Chemscore.DG>
-18.3150

> <Gold.Chemscore.ZeroCoef>
-5.4800

> <Gold.Chemscore.Hbond>
1.8326

> <Gold.Chemscore.Metal>
0.0000

> <Gold.Chemscore.Lipo>
93.7517

> <Gold.Chemscore.Internal_Hbond>
0.0000

> <Gold.Chemscore.DEClash>
0.2981

> <Gold.Chemscore.DEInternal>
1.6800

> <Gold.Chemscore.Rot>
1.6621

> <Gold.Chemscore.Internal.Correction>
   9.000000E+99

> <Gold.Chemscore.Hbonds>
donor molecule, donor type, donor heavy atom, donor atom, acceptor molecule, acceptor atom, score
      P1  H  6896  6909       L1     6  0.99
      P1  H  6934  6947       L1     1  0.44

> <Gold.Chemscore.Hbond.Weighted>
-6.1210

> <Gold.Chemscore.Metal.Weighted>
-0.0000

> <Gold.Chemscore.Lipo.Weighted>
-10.9690

> <Gold.Chemscore.Internal_Hbond.Weighted>
0.0000

> <Gold.Chemscore.DEClash.Weighted>
0.2981

> <Gold.Chemscore.DEInternal.Weighted>
1.6800

> <Gold.Chemscore.Rot.Weighted>
4.2550

> <Gold.Chemscore.Internal.Correction.Weighted>
   9.000000E+99

> <Gold.Protein.RotatedTorsions>
[ 6907 6896 6895 6894 ] final  125.14 input  -60.11 | X-H torsion
[ 7974 7965 7964 7962 ] final   94.52 input  175.53 | X-H torsion
[ 8008 7997 7996 7995 ] final  138.41 input   59.86 | X-H torsion
[ 10167 10162 10161 10158 ] final -116.58 input  -65.29 | X-H torsion
[ 10718 10713 10712 10709 ] final   81.58 input   66.30 | X-H torsion
[ 10763 10752 10751 10750 ] final  -55.01 input  -60.55 | X-H torsion
[ 11005 11000 10999 10996 ] final  153.71 input  -57.11 | X-H torsion

> <Gold.Protein.ActiveResidues>
 VAL166  LYS551  ARG553  GLY616  TRP617  ASP618  TYR619  PRO620  LYS621  CYS622 
 ASP623  PHE694  ASN695  SER759  ASP760  ASP761  ALA762  ILE779  LEU786  VAL792 
 PHE793  MET794  SER795  GLU796  ALA797  LYS798  CYS799  TRP800  GLU811  SER814 

> <Gold.Protein.RotatedAtoms>
  152.4018  133.6829  159.6322 H   0  0  0  0  0  0  0  0  0  0  0  0  # atno 6907 bound_to 6896
  150.7908  133.8778  159.3286 H   0  0  0  0  0  0  0  0  0  0  0  0  # atno 6908 bound_to 6896
  151.6542  135.0999  160.0218 H   0  0  0  0  0  0  0  0  0  0  0  0  # atno 6909 bound_to 6896
  145.4644  139.2285  143.2969 H   0  0  0  0  0  0  0  0  0  0  0  0  # atno 7974 bound_to 7965
  156.2997  140.2394  156.4069 H   0  0  0  0  0  0  0  0  0  0  0  0  # atno 8008 bound_to 7997
  154.8476  140.0425  157.1603 H   0  0  0  0  0  0  0  0  0  0  0  0  # atno 8009 bound_to 7997
  154.9033  140.2980  155.5309 H   0  0  0  0  0  0  0  0  0  0  0  0  # atno 8010 bound_to 7997
  140.0777  143.4817  152.1944 H   0  0  0  0  0  0  0  0  0  0  0  0  # atno 10167 bound_to 10162
  157.6836  131.0010  150.2247 H   0  0  0  0  0  0  0  0  0  0  0  0  # atno 10718 bound_to 10713
  154.1840  135.6438  153.5041 H   0  0  0  0  0  0  0  0  0  0  0  0  # atno 10763 bound_to 10752
  153.0052  135.5412  154.6485 H   0  0  0  0  0  0  0  0  0  0  0  0  # atno 10764 bound_to 10752
  154.5856  135.2929  155.0660 H   0  0  0  0  0  0  0  0  0  0  0  0  # atno 10765 bound_to 10752
  140.1423  134.8731  157.2347 H   0  0  0  0  0  0  0  0  0  0  0  0  # atno 11005 bound_to 11000
  146.2433  140.5416  142.8925 LP  0  0  0  0  0  0  0  0  0  0  0  0  # atno 17320 bound_to 7965
  144.7983  140.6165  143.6495 LP  0  0  0  0  0  0  0  0  0  0  0  0  # atno 17321 bound_to 7965
  139.5798  144.7505  151.3669 LP  0  0  0  0  0  0  0  0  0  0  0  0  # atno 17342 bound_to 10162
  140.7094  143.7431  150.7539 LP  0  0  0  0  0  0  0  0  0  0  0  0  # atno 17343 bound_to 10162
  156.2891  130.3743  149.7859 LP  0  0  0  0  0  0  0  0  0  0  0  0  # atno 17370 bound_to 10713
  156.5524  130.8347  151.3303 LP  0  0  0  0  0  0  0  0  0  0  0  0  # atno 17371 bound_to 10713
  140.2707  134.3463  155.7374 LP  0  0  0  0  0  0  0  0  0  0  0  0  # atno 17394 bound_to 11000
  141.2187  133.7422  156.9219 LP  0  0  0  0  0  0  0  0  0  0  0  0  # atno 17395 bound_to 11000

$$$$
