AV-unprocessed.smi:2032|AV-procd|sdf|8246|dock4
  -GOLD-   2272010513D 1   1.00000     0.00000
 Structure written by MMmdl.
 41 42  0  0  0  0  0  0  0  0  2 V2000
  151.6130  145.3042  159.1444 C   0  0  0  0  0  0  0  0  0  0  0  0
  151.6220  143.9325  159.8273 C   0  0  1  0  0  0  0  0  0  0  0  0
  152.1244  142.8189  158.8886 C   0  0  0  0  0  0  0  0  0  0  0  0
  152.2153  141.5116  159.5478 N   0  0  0  0  0  0  0  0  0  0  0  0
  152.7162  140.4532  158.6387 C   0  0  2  0  0  0  0  0  0  0  0  0
  151.8538  140.3091  157.3585 C   0  0  0  0  0  0  0  0  0  0  0  0
  152.8415  139.0603  159.3242 C   0  0  0  0  0  0  0  0  0  0  0  0
  153.4970  138.0528  158.4935 N   0  0  0  0  0  0  0  0  0  0  0  0
  153.8469  136.8174  158.8797 C   0  0  0  0  0  0  0  0  0  0  0  0
  153.6094  136.4414  160.0299 O   0  0  0  0  0  0  0  0  0  0  0  0
  154.4541  136.0975  157.9089 N   0  5  0  0  0  0  0  0  0  0  0  0
  155.4943  136.6152  157.2355 C   0  0  0  0  0  0  0  0  0  0  0  0
  155.8215  136.2363  155.9946 N   0  0  0  0  0  0  0  0  0  0  0  0
  156.9280  136.9148  155.4804 C   0  0  0  0  0  0  0  0  0  0  0  0
  157.4501  137.8384  156.3465 C   0  0  0  0  0  0  0  0  0  0  0  0
  156.5636  137.8822  157.8439 S   0  0  0  0  0  0  0  0  0  0  0  0
  153.0434  141.6692  160.7480 C   0  0  0  0  0  0  0  0  0  0  0  0
  152.5359  142.7833  161.6836 C   0  0  1  0  0  0  0  0  0  0  0  0
  153.4522  142.9840  162.8953 C   0  0  0  0  0  0  0  0  0  0  0  0
  152.4743  144.0075  160.9629 O   0  0  0  0  0  0  0  0  0  0  0  0
  150.9653  145.3021  158.2672 H   0  0  0  0  0  0  0  0  0  0  0  0
  152.6143  145.5903  158.8209 H   0  0  0  0  0  0  0  0  0  0  0  0
  151.2495  146.0751  159.8241 H   0  0  0  0  0  0  0  0  0  0  0  0
  150.6083  143.7005  160.1590 H   0  0  0  0  0  0  0  0  0  0  0  0
  151.4344  142.7763  158.0482 H   0  0  0  0  0  0  0  0  0  0  0  0
  153.0995  143.0948  158.4842 H   0  0  0  0  0  0  0  0  0  0  0  0
  153.7172  140.7410  158.3140 H   0  0  0  0  0  0  0  0  0  0  0  0
  152.2012  139.5049  156.7111 H   0  0  0  0  0  0  0  0  0  0  0  0
  151.8829  141.2015  156.7357 H   0  0  0  0  0  0  0  0  0  0  0  0
  150.8122  140.1034  157.6066 H   0  0  0  0  0  0  0  0  0  0  0  0
  153.4076  139.1128  160.2533 H   0  0  0  0  0  0  0  0  0  0  0  0
  151.8517  138.6863  159.5870 H   0  0  0  0  0  0  0  0  0  0  0  0
  153.7105  138.3165  157.5428 H   0  0  0  0  0  0  0  0  0  0  0  0
  157.2743  136.6782  154.4855 H   0  0  0  0  0  0  0  0  0  0  0  0
  158.2952  138.4929  156.1964 H   0  0  0  0  0  0  0  0  0  0  0  0
  153.0522  140.7501  161.3302 H   0  0  0  0  0  0  0  0  0  0  0  0
  154.0757  141.8736  160.4596 H   0  0  0  0  0  0  0  0  0  0  0  0
  151.5357  142.5316  162.0408 H   0  0  0  0  0  0  0  0  0  0  0  0
  153.5216  142.0723  163.4891 H   0  0  0  0  0  0  0  0  0  0  0  0
  153.0734  143.7747  163.5434 H   0  0  0  0  0  0  0  0  0  0  0  0
  154.4608  143.2602  162.5861 H   0  0  0  0  0  0  0  0  0  0  0  0
  1  2  1  0  0  0  0
  1 21  1  0  0  0  0
  1 22  1  0  0  0  0
  1 23  1  0  0  0  0
  2 20  1  0  0  0  0
  2  3  1  0  0  0  0
  2 24  1  0  0  0  0
  3  4  1  0  0  0  0
  3 25  1  0  0  0  0
  3 26  1  0  0  0  0
  4  5  1  0  0  0  0
  4 17  1  0  0  0  0
  5  6  1  0  0  0  0
  5  7  1  0  0  0  0
  5 27  1  0  0  0  0
  6 28  1  0  0  0  0
  6 29  1  0  0  0  0
  6 30  1  0  0  0  0
  7  8  1  0  0  0  0
  7 31  1  0  0  0  0
  7 32  1  0  0  0  0
  8  9  1  0  0  0  0
  8 33  1  0  0  0  0
  9 10  2  0  0  0  0
  9 11  1  0  0  0  0
 11 12  1  0  0  0  0
 12 16  1  0  0  0  0
 12 13  2  0  0  0  0
 13 14  1  0  0  0  0
 14 15  2  0  0  0  0
 14 34  1  0  0  0  0
 15 16  1  0  0  0  0
 15 35  1  0  0  0  0
 17 18  1  0  0  0  0
 17 36  1  0  0  0  0
 17 37  1  0  0  0  0
 18 19  1  0  0  0  0
 18 20  1  0  0  0  0
 18 38  1  0  0  0  0
 19 39  1  0  0  0  0
 19 40  1  0  0  0  0
 19 41  1  0  0  0  0
M  CHG  1  11  -1
M  END
> <s_m_source_file>
AV-unprocessed.smi

> <i_m_source_file_index>
2032

> <i_lp_mmshare_version>
43012

> <i_f3d_flags>
0

> <s_epik_input>
W0NIM11bQ0BASF0xW0NIMl1OKFtDSDJdW0NASF0oTzEpW0NIM10pW0NASF0oW0NIM10pW0NIMl1bTkhdQyg9TylbTkhdYzJuW2NIXVtjSF1zMg==

> <s_epik_cmdline>
J2VwaWtfcHl0aG9uJywgJy1waCcsICc3LjAnLCAnLXRuJywgJzgnLCAnLW1hJywgJzIwMCcsICctbWV0YWxfYmluZGluZycsICctaW1hZScsICc8aW5maWxlLm1hZT4nLCAnLW9tYWUnLCAnPG91dGZpbGUubWFlPic=

> <r_lp_tautomer_probability>
0.999

> <r_epik_Ionization_Penalty>
7.22375

> <r_epik_Ionization_Penalty_Charging>
5.82415

> <r_epik_Ionization_Penalty_Neutral>
1.39959

> <r_epik_State_Penalty>
6.03347

> <r_epik_Charging_Adjusted_Penalty>
11.8576

> <i_epik_Tot_Q>
-1

> <i_epik_Tot_abs_Q>
1

> <r_epik_Metal_State_Penalty>
2.01024

> <b_epik_Metal_Only>
1

> <s_lp_Force_Field>
OPLS_2005

> <r_lp_Energy>
22.7494

> <b_lp_Chiralities_Consistent>
1

> <s_lp_Variant>
AV-unprocessed.smi:2032-16

> <Gold.Version>
5.8.1

> <Gold.Id.Protein>
6NUR|6NUR_protein|mol2

> <Gold.PLP.Fitness>
39.5845

> <Gold.PLP.PLP>
-34.7566

> <Gold.PLP.part.hbond>
-2.0000

> <Gold.PLP.part.metal>
0.0000

> <Gold.PLP.part.buried>
-2.3794

> <Gold.PLP.part.nonpolar>
-29.9169

> <Gold.PLP.part.repulsive>
0.1917

> <Gold.PLP.ligand.clash>
0.0000

> <Gold.PLP.ligand.torsion>
0.6316

> <Gold.PLP.Chemscore.Hbond>
2.0000

> <Gold.PLP.Chemscore.CHOScore>
0.0000

> <Gold.PLP.Chemscore.Metal>
0.0000

> <Gold.Chemscore.Hbonds>
donor molecule, donor type, donor heavy atom, donor atom, acceptor molecule, acceptor atom, score
      P1  H  6896  6909       L1    10  0.89
      P1  H 10752 10764       L1    13  1.00

> <Gold.PLP.Chemscore.Internal.Correction>
0.0911

> <Gold.Rescore>
     Score         DG    S(hbond)    S(metal)    S(lipo)     H(rot)  DE(clash)    DE(int)     intcor
     19.10     -19.72       1.92        0.00     100.73       1.54       0.02       0.61       ----

> <Gold.Chemscore.Fitness>
19.0982

> <Gold.Chemscore.DG>
-19.7232

> <Gold.Chemscore.ZeroCoef>
-5.4800

> <Gold.Chemscore.Hbond>
1.9186

> <Gold.Chemscore.Metal>
0.0000

> <Gold.Chemscore.Lipo>
100.7295

> <Gold.Chemscore.Internal_Hbond>
0.0000

> <Gold.Chemscore.DEClash>
0.0174

> <Gold.Chemscore.DEInternal>
0.6076

> <Gold.Chemscore.Rot>
1.5431

> <Gold.Chemscore.Internal.Correction>
   9.000000E+99

> <Gold.Chemscore.Hbonds>
donor molecule, donor type, donor heavy atom, donor atom, acceptor molecule, acceptor atom, score
      P1  H  6896  6909       L1    10  0.67
      P1  H 10752 10764       L1    13  0.96

> <Gold.Chemscore.Hbond.Weighted>
-6.4081

> <Gold.Chemscore.Metal.Weighted>
-0.0000

> <Gold.Chemscore.Lipo.Weighted>
-11.7853

> <Gold.Chemscore.Internal_Hbond.Weighted>
0.0000

> <Gold.Chemscore.DEClash.Weighted>
0.0174

> <Gold.Chemscore.DEInternal.Weighted>
0.6076

> <Gold.Chemscore.Rot.Weighted>
3.9503

> <Gold.Chemscore.Internal.Correction.Weighted>
   9.000000E+99

> <Gold.Protein.RotatedTorsions>
[ 6907 6896 6895 6894 ] final  174.03 input  -60.11 | X-H torsion
[ 7974 7965 7964 7962 ] final -120.11 input  175.53 | X-H torsion
[ 8008 7997 7996 7995 ] final  -69.87 input   59.86 | X-H torsion
[ 10167 10162 10161 10158 ] final -100.95 input  -65.29 | X-H torsion
[ 10718 10713 10712 10709 ] final  -53.65 input   66.30 | X-H torsion
[ 10763 10752 10751 10750 ] final   75.38 input  -60.55 | X-H torsion
[ 11005 11000 10999 10996 ] final   79.53 input  -57.11 | X-H torsion

> <Gold.Protein.ActiveResidues>
 VAL166  LYS551  ARG553  GLY616  TRP617  ASP618  TYR619  PRO620  LYS621  CYS622 
 ASP623  PHE694  ASN695  SER759  ASP760  ASP761  ALA762  ILE779  LEU786  VAL792 
 PHE793  MET794  SER795  GLU796  ALA797  LYS798  CYS799  TRP800  GLU811  SER814 

> <Gold.Protein.RotatedAtoms>
  151.7588  133.3332  159.3411 H   0  0  0  0  0  0  0  0  0  0  0  0  # atno 6907 bound_to 6896
  150.7506  134.6124  159.6102 H   0  0  0  0  0  0  0  0  0  0  0  0  # atno 6908 bound_to 6896
  152.3419  134.7125  160.0313 H   0  0  0  0  0  0  0  0  0  0  0  0  # atno 6909 bound_to 6896
  145.0550  140.8247  143.4187 H   0  0  0  0  0  0  0  0  0  0  0  0  # atno 7974 bound_to 7965
  154.4970  140.0845  156.7718 H   0  0  0  0  0  0  0  0  0  0  0  0  # atno 8008 bound_to 7997
  155.4092  140.3440  155.4244 H   0  0  0  0  0  0  0  0  0  0  0  0  # atno 8009 bound_to 7997
  156.1407  140.1528  156.8913 H   0  0  0  0  0  0  0  0  0  0  0  0  # atno 8010 bound_to 7997
  140.2465  143.3502  152.0754 H   0  0  0  0  0  0  0  0  0  0  0  0  # atno 10167 bound_to 10162
  156.1517  130.4151  149.9935 H   0  0  0  0  0  0  0  0  0  0  0  0  # atno 10718 bound_to 10713
  153.0651  135.4991  154.8181 H   0  0  0  0  0  0  0  0  0  0  0  0  # atno 10763 bound_to 10752
  154.6941  135.2989  154.9440 H   0  0  0  0  0  0  0  0  0  0  0  0  # atno 10764 bound_to 10752
  154.0185  135.6745  153.4823 H   0  0  0  0  0  0  0  0  0  0  0  0  # atno 10765 bound_to 10752
  139.9169  134.7850  156.1791 H   0  0  0  0  0  0  0  0  0  0  0  0  # atno 11005 bound_to 11000
  145.1480  139.2531  143.5456 LP  0  0  0  0  0  0  0  0  0  0  0  0  # atno 17320 bound_to 7965
  146.3520  140.1175  142.8601 LP  0  0  0  0  0  0  0  0  0  0  0  0  # atno 17321 bound_to 7965
  139.5060  144.6805  151.6020 LP  0  0  0  0  0  0  0  0  0  0  0  0  # atno 17342 bound_to 10162
  140.6073  143.9500  150.6428 LP  0  0  0  0  0  0  0  0  0  0  0  0  # atno 17343 bound_to 10162
  156.7791  130.9214  151.3645 LP  0  0  0  0  0  0  0  0  0  0  0  0  # atno 17370 bound_to 10713
  157.6662  130.9010  149.9937 LP  0  0  0  0  0  0  0  0  0  0  0  0  # atno 17371 bound_to 10713
  141.0653  133.6822  156.2033 LP  0  0  0  0  0  0  0  0  0  0  0  0  # atno 17394 bound_to 11000
  140.6594  134.4983  157.5582 LP  0  0  0  0  0  0  0  0  0  0  0  0  # atno 17395 bound_to 11000

$$$$
