#       Name:                AV-unprocessed.smi:2335
#       Creating user name   scv26
#       Creation time:       Fri Mar 27 12:54:34 2020


#       File generated by GOLD software.
#

@<TRIPOS>MOLECULE
AV-unprocessed.smi:2335
    48    49     1
SMALL
NO_CHARGES


@<TRIPOS>ATOM
      1 ****        -6.9547   3.1537   0.1333 C.3            1 S1                 0.0000
      2 ****        -5.6182   3.6387  -0.4387 C.3            1 S1                 0.0000
      3 ****        -4.4457   2.9808   0.2087 C.2            1 S1                 0.0000
      4 ****        -3.8658   3.4571   1.3136 N.2            1 S1                 0.0000
      5 ****        -2.8192   2.6538   1.7425 N.2            1 S1                 0.0000
      6 ****        -2.6250   1.5820   0.9611 C.2            1 S1                 0.0000
      7 ****        -1.6665   0.6737   1.2062 N.pl3          1 S1                -1.0000
      8 ****        -0.4861   0.7430   0.5504 C.2            1 S1                 0.0000
      9 ****        -0.1564   1.6007  -0.2717 O.2            1 S1                 0.0000
     10 ****         0.3607  -0.2474   0.8635 N.am           1 S1                 0.0000
     11 ****         1.6940  -0.4523   0.3001 C.3            1 S1                 0.0000
     12 ****         2.5782  -1.2399   1.2463 C.3            1 S1                 0.0000
     13 ****         3.6290  -1.8521   0.3132 C.3            1 S1                 0.0000
     14 ****         4.8436  -0.9264   0.1275 C.3            1 S1                 0.0000
     15 ****         4.0687  -3.2515   0.7700 C.3            1 S1                 0.0000
     16 ****         2.9863  -1.9704  -0.9549 O.3            1 S1                 0.0000
     17 ****         1.7125  -1.3254  -0.9748 C.3            1 S1                 0.0000
     18 ****         0.6548  -2.4486  -0.9917 C.3            1 S1                 0.0000
     19 ****         1.6341  -0.4874  -2.2609 C.3            1 S1                 0.0000
     20 ****        -3.7629   1.4750  -0.3815 S.3            1 S1                 0.0000
     21 ****        -7.7912   3.6483  -0.3605 H              1 S1                 0.0000
     22 ****        -7.0250   3.3635   1.2010 H              1 S1                 0.0000
     23 ****        -7.0736   2.0786  -0.0050 H              1 S1                 0.0000
     24 ****        -5.5802   3.4423  -1.5105 H              1 S1                 0.0000
     25 ****        -5.5294   4.7189  -0.3160 H              1 S1                 0.0000
     26 ****         0.0455  -0.9249   1.5420 H              1 S1                 0.0000
     27 ****         2.1763   0.5082   0.1080 H              1 S1                 0.0000
     28 ****         3.0103  -0.6232   2.0350 H              1 S1                 0.0000
     29 ****         1.9968  -2.0271   1.7296 H              1 S1                 0.0000
     30 ****         5.3698  -0.7721   1.0700 H              1 S1                 0.0000
     31 ****         4.5471   0.0523  -0.2505 H              1 S1                 0.0000
     32 ****         5.5544  -1.3489  -0.5833 H              1 S1                 0.0000
     33 ****         4.5472  -3.2138   1.7489 H              1 S1                 0.0000
     34 ****         4.7791  -3.6896   0.0682 H              1 S1                 0.0000
     35 ****         3.2178  -3.9300   0.8403 H              1 S1                 0.0000
     36 ****        -0.3567  -2.0462  -1.0567 H              1 S1                 0.0000
     37 ****         0.7105  -3.0671  -0.0957 H              1 S1                 0.0000
     38 ****         0.7979  -3.1054  -1.8501 H              1 S1                 0.0000
     39 ****         0.6721   0.0179  -2.3469 H              1 S1                 0.0000
     40 ****         1.7576  -1.1124  -3.1457 H              1 S1                 0.0000
     41 ****         2.4141   0.2738  -2.2856 H              1 S1                 0.0000
     42 ****        -4.1527   4.2952   1.7777 LP             1 S1                 0.0000
     43 ****        -2.2665   2.8538   2.5515 LP             1 S1                 0.0000
     44 ****        -1.8259  -0.0537   1.8736 LP             1 S1                 0.0000
     45 ****        -0.7909   2.3365  -0.5083 LP             1 S1                 0.0000
     46 ****         0.7454   1.5605  -0.7018 LP             1 S1                 0.0000
     47 ****         2.8597  -2.9403  -1.1628 LP             1 S1                 0.0000
     48 ****         3.5696  -1.5535  -1.6520 LP             1 S1                 0.0000
@<TRIPOS>BOND
    1    1    2 1     
    2    1   21 1     
    3    1   22 1     
    4    1   23 1     
    5    2    3 1     
    6    2   24 1     
    7    2   25 1     
    8    3   20 1     
    9    3    4 2     
   10    4    5 1     
   11    5    6 2     
   12    6    7 1     
   13    6   20 1     
   14    7    8 1     
   15    8    9 2     
   16    8   10 am    
   17   10   11 1     
   18   10   26 1     
   19   11   17 1     
   20   11   12 1     
   21   11   27 1     
   22   12   13 1     
   23   12   28 1     
   24   12   29 1     
   25   13   14 1     
   26   13   15 1     
   27   13   16 1     
   28   14   30 1     
   29   14   31 1     
   30   14   32 1     
   31   15   33 1     
   32   15   34 1     
   33   15   35 1     
   34   16   17 1     
   35   17   18 1     
   36   17   19 1     
   37   18   36 1     
   38   18   37 1     
   39   18   38 1     
   40   19   39 1     
   41   19   40 1     
   42   19   41 1     
   43    4   42 1     
   44    5   43 1     
   45    7   44 1     
   46    9   45 1     
   47    9   46 1     
   48   16   47 1     
   49   16   48 1     
@<TRIPOS>SUBSTRUCTURE
      1 S1             1
@<TRIPOS>SET
LONE_PAIRS      STATIC     ATOMS    <user>   **** ""
7 42 43 44 45 46 47 48
DONOR_HYDROGENS      STATIC     ATOMS    <user>   **** ""
1 26
ATOM$BLUE        STATIC     ATOMS    COLORGROUP SYSTEM
7 42 43 44 45 46 47 48
ATOM$RED        STATIC     ATOMS    COLORGROUP SYSTEM
1 26
