#       Name:                AV-unprocessed.smi:1990
#       Creating user name   scv26
#       Creation time:       Fri Mar 27 10:26:49 2020


#       File generated by GOLD software.
#

@<TRIPOS>MOLECULE
AV-unprocessed.smi:1990
    52    53     1
SMALL
NO_CHARGES


@<TRIPOS>ATOM
      1 ****        -5.3317   1.5928   2.1519 C.3            1 S1                 0.0000
      2 ****        -4.7239   0.8550   0.9549 C.3            1 S1                 0.0000
      3 ****        -3.1836   0.8495   0.9976 C.3            1 S1                 0.0000
      4 ****        -2.6527   0.2248  -0.2070 N.3            1 S1                 0.0000
      5 ****        -1.2593   0.0697  -0.1904 C.ar           1 S1                 0.0000
      6 ****        -0.7166  -1.2314  -0.1739 C.ar           1 S1                 0.0000
      7 ****         0.6830  -1.3846  -0.1594 C.ar           1 S1                 0.0000
      8 ****         1.4979  -0.2273  -0.1703 C.ar           1 S1                 0.0000
      9 ****         2.9180  -0.2480  -0.1366 N.am           1 S1                 0.0000
     10 ****         3.7520  -1.2408  -0.4992 C.2            1 S1                 0.0000
     11 ****         3.3885  -2.3102  -0.9883 O.2            1 S1                 0.0000
     12 ****         5.2480  -0.9599  -0.3000 C.3            1 S1                 0.0000
     13 ****         6.0839  -1.4202  -1.5057 C.3            1 S1                 0.0000
     14 ****         5.8493  -1.7951   1.2424 S.o2           1 S1                 0.0000
     15 ****         4.8674  -0.9766   2.5693 C.3            1 S1                 0.0000
     16 ****         5.4638  -3.2142   1.2006 O.2            1 S1                 0.0000
     17 ****         7.2636  -1.4384   1.4318 O.2            1 S1                 0.0000
     18 ****         0.8546   1.0276  -0.1702 C.ar           1 S1                 0.0000
     19 ****        -0.4862   1.1816  -0.1850 N.ar           1 S1                 0.0000
     20 ****        -3.1545   0.8502  -1.4239 C.3            1 S1                 0.0000
     21 ****        -4.6953   0.8554  -1.4192 C.3            1 S1                 0.0000
     22 ****        -5.2728   1.5942  -2.6309 C.3            1 S1                 0.0000
     23 ****        -5.1549   1.5079  -0.2374 O.3            1 S1                 0.0000
     24 ****        -5.0361   1.1267   3.0920 H              1 S1                 0.0000
     25 ****        -6.4209   1.5815   2.1032 H              1 S1                 0.0000
     26 ****        -5.0101   2.6345   2.1780 H              1 S1                 0.0000
     27 ****        -5.0951  -0.1715   0.9538 H              1 S1                 0.0000
     28 ****        -2.8081   1.8708   1.0785 H              1 S1                 0.0000
     29 ****        -2.8340   0.3065   1.8768 H              1 S1                 0.0000
     30 ****        -1.3598  -2.0993  -0.1677 H              1 S1                 0.0000
     31 ****         1.0984  -2.3796  -0.1254 H              1 S1                 0.0000
     32 ****         3.3550   0.6141   0.1553 H              1 S1                 0.0000
     33 ****         5.3994   0.1116  -0.1639 H              1 S1                 0.0000
     34 ****         5.7182  -0.9802  -2.4342 H              1 S1                 0.0000
     35 ****         6.0645  -2.5050  -1.6170 H              1 S1                 0.0000
     36 ****         7.1258  -1.1212  -1.3905 H              1 S1                 0.0000
     37 ****         5.2066  -1.3365   3.5404 H              1 S1                 0.0000
     38 ****         3.8106  -1.2155   2.4524 H              1 S1                 0.0000
     39 ****         5.0078   0.1026   2.5164 H              1 S1                 0.0000
     40 ****         1.4337   1.9396  -0.1626 H              1 S1                 0.0000
     41 ****        -2.7786   1.8721  -1.4941 H              1 S1                 0.0000
     42 ****        -2.7829   0.3085  -2.2947 H              1 S1                 0.0000
     43 ****        -5.0671  -0.1708  -1.4277 H              1 S1                 0.0000
     44 ****        -4.9540   1.1280  -3.5635 H              1 S1                 0.0000
     45 ****        -4.9493   2.6355  -2.6486 H              1 S1                 0.0000
     46 ****        -6.3628   1.5841  -2.6097 H              1 S1                 0.0000
     47 ****        -3.0091  -0.7096  -0.2114 LP             1 S1                 0.0000
     48 ****         2.4158  -2.4857  -1.1398 LP             1 S1                 0.0000
     49 ****         4.0659  -3.0035  -1.2341 LP             1 S1                 0.0000
     50 ****        -0.8980   2.0929  -0.1918 LP             1 S1                 0.0000
     51 ****        -4.8059   2.4451  -0.2330 LP             1 S1                 0.0000
     52 ****        -6.1547   1.5247  -0.2494 LP             1 S1                 0.0000
@<TRIPOS>BOND
    1    1    2 1     
    2    1   24 1     
    3    1   25 1     
    4    1   26 1     
    5    2   23 1     
    6    2    3 1     
    7    2   27 1     
    8    3    4 1     
    9    3   28 1     
   10    3   29 1     
   11    4    5 1     
   12    4   20 1     
   13    5   19 ar    
   14    5    6 ar    
   15    6    7 ar    
   16    6   30 1     
   17    7    8 ar    
   18    7   31 1     
   19    8    9 1     
   20    8   18 ar    
   21    9   10 am    
   22    9   32 1     
   23   10   11 2     
   24   10   12 1     
   25   12   13 1     
   26   12   14 1     
   27   12   33 1     
   28   13   34 1     
   29   13   35 1     
   30   13   36 1     
   31   14   15 1     
   32   14   16 2     
   33   14   17 2     
   34   15   37 1     
   35   15   38 1     
   36   15   39 1     
   37   18   19 ar    
   38   18   40 1     
   39   20   21 1     
   40   20   41 1     
   41   20   42 1     
   42   21   22 1     
   43   21   23 1     
   44   21   43 1     
   45   22   44 1     
   46   22   45 1     
   47   22   46 1     
   48    4   47 1     
   49   11   48 1     
   50   11   49 1     
   51   19   50 1     
   52   23   51 1     
   53   23   52 1     
@<TRIPOS>SUBSTRUCTURE
      1 S1             1
@<TRIPOS>SET
LONE_PAIRS      STATIC     ATOMS    <user>   **** ""
8 47 48 49 16 17 50 51 52
DONOR_HYDROGENS      STATIC     ATOMS    <user>   **** ""
1 32
ATOM$BLUE        STATIC     ATOMS    COLORGROUP SYSTEM
8 47 48 49 16 17 50 51 52
ATOM$RED        STATIC     ATOMS    COLORGROUP SYSTEM
1 32
