AV-unprocessed.smi:2567|AV-procd|sdf|10085|dock2
  -GOLD-   2272014113D 1   1.00000     0.00000
 Structure written by MMmdl.
 33 34  0  0  0  0  0  0  0  0  3 V2000
  152.3020  144.5255  157.8140 C   0  0  0  0  0  0  0  0  0  0  0  0
  151.6215  143.3595  158.5544 C   0  0  0  0  0  0  0  0  0  0  0  0
  152.5887  142.8465  159.6423 C   0  0  0  0  0  0  0  0  0  0  0  0
  150.3279  143.8307  159.2433 C   0  0  0  0  0  0  0  0  0  0  0  0
  151.2932  142.2465  157.5634 C   0  0  0  0  0  0  0  0  0  0  0  0
  151.8196  141.0067  157.5783 N   0  5  0  0  0  0  0  0  0  0  0  0
  151.3270  140.2921  156.5883 N   0  0  0  0  0  0  0  0  0  0  0  0
  150.4858  141.1130  155.9437 C   0  0  0  0  0  0  0  0  0  0  0  0
  149.6483  140.7142  154.7469 C   0  0  1  0  0  0  0  0  0  0  0  0
  149.8305  139.2198  154.4173 C   0  0  0  0  0  0  0  0  0  0  0  0
  148.9962  138.8468  153.2588 N   0  3  0  0  0  0  0  0  0  0  0  0
  147.5800  139.2016  153.4729 C   0  0  0  0  0  0  0  0  0  0  0  0
  147.4595  140.6917  153.8326 C   0  0  0  0  0  0  0  0  0  0  0  0
  148.2636  140.9736  154.9721 O   0  0  0  0  0  0  0  0  0  0  0  0
  150.4442  142.3127  156.5395 N   0  0  0  0  0  0  0  0  0  0  0  0
  152.5569  145.3356  158.4977 H   0  0  0  0  0  0  0  0  0  0  0  0
  151.6511  144.9409  157.0439 H   0  0  0  0  0  0  0  0  0  0  0  0
  153.2223  144.2017  157.3264 H   0  0  0  0  0  0  0  0  0  0  0  0
  153.5274  142.4986  159.2097 H   0  0  0  0  0  0  0  0  0  0  0  0
  152.1559  142.0156  160.2011 H   0  0  0  0  0  0  0  0  0  0  0  0
  152.8314  143.6305  160.3604 H   0  0  0  0  0  0  0  0  0  0  0  0
  150.5275  144.6210  159.9676 H   0  0  0  0  0  0  0  0  0  0  0  0
  149.8412  143.0112  159.7730 H   0  0  0  0  0  0  0  0  0  0  0  0
  149.6134  144.2239  158.5192 H   0  0  0  0  0  0  0  0  0  0  0  0
  149.9834  141.3188  153.9019 H   0  0  0  0  0  0  0  0  0  0  0  0
  150.8744  138.9997  154.1915 H   0  0  0  0  0  0  0  0  0  0  0  0
  149.5497  138.6052  155.2741 H   0  0  0  0  0  0  0  0  0  0  0  0
  149.3350  139.3441  152.4475 H   0  0  0  0  0  0  0  0  0  0  0  0
  147.0090  138.9752  152.5723 H   0  0  0  0  0  0  0  0  0  0  0  0
  147.1735  138.5860  154.2764 H   0  0  0  0  0  0  0  0  0  0  0  0
  147.7620  141.3219  152.9948 H   0  0  0  0  0  0  0  0  0  0  0  0
  146.4231  140.9410  154.0610 H   0  0  0  0  0  0  0  0  0  0  0  0
  149.0748  137.8535  153.0941 H   0  0  0  0  0  0  0  0  0  0  0  0
  1  2  1  0  0  0  0
  1 16  1  0  0  0  0
  1 17  1  0  0  0  0
  1 18  1  0  0  0  0
  2  3  1  0  0  0  0
  2  4  1  0  0  0  0
  2  5  1  0  0  0  0
  3 19  1  0  0  0  0
  3 20  1  0  0  0  0
  3 21  1  0  0  0  0
  4 22  1  0  0  0  0
  4 23  1  0  0  0  0
  4 24  1  0  0  0  0
  5 15  2  0  0  0  0
  5  6  1  0  0  0  0
  6  7  1  0  0  0  0
  7  8  2  0  0  0  0
  8  9  1  0  0  0  0
  8 15  1  0  0  0  0
  9 14  1  0  0  0  0
  9 10  1  0  0  0  0
  9 25  1  0  0  0  0
 10 11  1  0  0  0  0
 10 26  1  0  0  0  0
 10 27  1  0  0  0  0
 11 12  1  0  0  0  0
 11 28  1  0  0  0  0
 11 33  1  0  0  0  0
 12 13  1  0  0  0  0
 12 29  1  0  0  0  0
 12 30  1  0  0  0  0
 13 14  1  0  0  0  0
 13 31  1  0  0  0  0
 13 32  1  0  0  0  0
M  CHG  1   6  -1
M  CHG  1  11   1
M  END
> <s_m_source_file>
AV-unprocessed.smi

> <i_m_source_file_index>
2567

> <i_lp_mmshare_version>
43012

> <i_f3d_flags>
0

> <s_epik_input>
W0NIM11DKFtDSDNdKShbQ0gzXSljMW5bbkhdYyhuMSlbQ0BASF0yW0NIMl1bTkhdW0NIMl1bQ0gyXU8y

> <s_epik_cmdline>
J2VwaWtfcHl0aG9uJywgJy1waCcsICc3LjAnLCAnLXRuJywgJzgnLCAnLW1hJywgJzIwMCcsICctbWV0YWxfYmluZGluZycsICctaW1hZScsICc8aW5maWxlLm1hZT4nLCAnLW9tYWUnLCAnPG91dGZpbGUubWFlPic=

> <r_lp_tautomer_probability>
0.948284

> <r_epik_Ionization_Penalty>
5.01189

> <r_epik_Ionization_Penalty_Charging>
5.01189

> <r_epik_Ionization_Penalty_Neutral>
8.99859e-14

> <r_epik_State_Penalty>
2.75157

> <r_epik_Charging_Adjusted_Penalty>
7.76346

> <i_epik_Tot_Q>
0

> <i_epik_Tot_abs_Q>
2

> <r_epik_Metal_State_Penalty>
0.54282

> <b_epik_Metal_Only>
1

> <s_lp_Force_Field>
OPLS_2005

> <r_lp_Energy>
6.85935

> <b_lp_Chiralities_Consistent>
1

> <s_lp_Variant>
AV-unprocessed.smi:2567-10

> <Gold.Version>
5.8.1

> <Gold.Id.Protein>
6NUR|6NUR_protein|mol2

> <Gold.PLP.Fitness>
39.0037

> <Gold.PLP.PLP>
-30.3121

> <Gold.PLP.part.hbond>
-1.9601

> <Gold.PLP.part.metal>
0.0000

> <Gold.PLP.part.buried>
-4.7937

> <Gold.PLP.part.nonpolar>
-25.4473

> <Gold.PLP.part.repulsive>
1.1325

> <Gold.PLP.ligand.clash>
0.0000

> <Gold.PLP.ligand.torsion>
0.1008

> <Gold.PLP.Chemscore.Hbond>
2.9590

> <Gold.PLP.Chemscore.CHOScore>
0.0000

> <Gold.PLP.Chemscore.Metal>
0.0000

> <Gold.Chemscore.Hbonds>
donor molecule, donor type, donor heavy atom, donor atom, acceptor molecule, acceptor atom, score
      L1  H    11    28       P1  7957  0.88
      L1  H    11    33       P1  7948  2.00

> <Gold.PLP.Chemscore.Internal.Correction>
0.0163

> <Gold.Rescore>
     Score         DG    S(hbond)    S(metal)    S(lipo)     H(rot)  DE(clash)    DE(int)     intcor
     17.04     -17.14       1.93        0.00      71.95       1.25       0.03       0.07       ----

> <Gold.Chemscore.Fitness>
17.0433

> <Gold.Chemscore.DG>
-17.1395

> <Gold.Chemscore.ZeroCoef>
-5.4800

> <Gold.Chemscore.Hbond>
1.9276

> <Gold.Chemscore.Metal>
0.0000

> <Gold.Chemscore.Lipo>
71.9476

> <Gold.Chemscore.Internal_Hbond>
0.0000

> <Gold.Chemscore.DEClash>
0.0280

> <Gold.Chemscore.DEInternal>
0.0681

> <Gold.Chemscore.Rot>
1.2486

> <Gold.Chemscore.Internal.Correction>
   9.000000E+99

> <Gold.Chemscore.Hbonds>
donor molecule, donor type, donor heavy atom, donor atom, acceptor molecule, acceptor atom, score
      L1  H    11    28       P1  7957  0.85
      L1  H    11    33       P1  7948  0.91

> <Gold.Chemscore.Hbond.Weighted>
-6.4381

> <Gold.Chemscore.Metal.Weighted>
-0.0000

> <Gold.Chemscore.Lipo.Weighted>
-8.4179

> <Gold.Chemscore.Internal_Hbond.Weighted>
0.0000

> <Gold.Chemscore.DEClash.Weighted>
0.0280

> <Gold.Chemscore.DEInternal.Weighted>
0.0681

> <Gold.Chemscore.Rot.Weighted>
3.1964

> <Gold.Chemscore.Internal.Correction.Weighted>
   9.000000E+99

> <Gold.Protein.RotatedTorsions>
[ 6907 6896 6895 6894 ] final   68.46 input  -60.11 | X-H torsion
[ 7974 7965 7964 7962 ] final  -16.36 input  175.53 | X-H torsion
[ 8008 7997 7996 7995 ] final  -84.70 input   59.86 | X-H torsion
[ 10167 10162 10161 10158 ] final -114.30 input  -65.29 | X-H torsion
[ 10718 10713 10712 10709 ] final  -49.63 input   66.30 | X-H torsion
[ 10763 10752 10751 10750 ] final  160.10 input  -60.55 | X-H torsion
[ 11005 11000 10999 10996 ] final -154.29 input  -57.11 | X-H torsion

> <Gold.Protein.ActiveResidues>
 VAL166  LYS551  ARG553  GLY616  TRP617  ASP618  TYR619  PRO620  LYS621  CYS622 
 ASP623  PHE694  ASN695  SER759  ASP760  ASP761  ALA762  ILE779  LEU786  VAL792 
 PHE793  MET794  SER795  GLU796  ALA797  LYS798  CYS799  TRP800  GLU811  SER814 

> <Gold.Protein.RotatedAtoms>
  152.4622  134.5158  159.9767 H   0  0  0  0  0  0  0  0  0  0  0  0  # atno 6907 bound_to 6896
  151.5204  133.3461  159.2908 H   0  0  0  0  0  0  0  0  0  0  0  0  # atno 6908 bound_to 6896
  150.8590  134.7966  159.7130 H   0  0  0  0  0  0  0  0  0  0  0  0  # atno 6909 bound_to 6896
  146.1991  140.3624  142.8430 H   0  0  0  0  0  0  0  0  0  0  0  0  # atno 7974 bound_to 7965
  154.6327  140.0601  156.9751 H   0  0  0  0  0  0  0  0  0  0  0  0  # atno 8008 bound_to 7997
  155.1641  140.3285  155.4387 H   0  0  0  0  0  0  0  0  0  0  0  0  # atno 8009 bound_to 7997
  156.2491  140.1925  156.6746 H   0  0  0  0  0  0  0  0  0  0  0  0  # atno 8010 bound_to 7997
  140.1025  143.4600  152.1803 H   0  0  0  0  0  0  0  0  0  0  0  0  # atno 10167 bound_to 10162
  156.1875  130.4152  149.9419 H   0  0  0  0  0  0  0  0  0  0  0  0  # atno 10718 bound_to 10713
  154.2421  135.2774  155.2849 H   0  0  0  0  0  0  0  0  0  0  0  0  # atno 10763 bound_to 10752
  154.5536  135.5668  153.6947 H   0  0  0  0  0  0  0  0  0  0  0  0  # atno 10764 bound_to 10752
  152.9997  135.6280  154.2566 H   0  0  0  0  0  0  0  0  0  0  0  0  # atno 10765 bound_to 10752
  140.6989  134.3959  157.5212 H   0  0  0  0  0  0  0  0  0  0  0  0  # atno 11005 bound_to 11000
  144.8644  140.7185  143.6087 LP  0  0  0  0  0  0  0  0  0  0  0  0  # atno 17320 bound_to 7965
  145.3544  139.1698  143.4417 LP  0  0  0  0  0  0  0  0  0  0  0  0  # atno 17321 bound_to 7965
  139.5663  144.7437  151.4013 LP  0  0  0  0  0  0  0  0  0  0  0  0  # atno 17342 bound_to 10162
  140.6970  143.7725  150.7342 LP  0  0  0  0  0  0  0  0  0  0  0  0  # atno 17343 bound_to 10162
  156.7169  130.8992  151.3614 LP  0  0  0  0  0  0  0  0  0  0  0  0  # atno 17370 bound_to 10713
  157.6908  130.9231  150.0508 LP  0  0  0  0  0  0  0  0  0  0  0  0  # atno 17371 bound_to 10713
  139.8902  134.8810  156.2381 LP  0  0  0  0  0  0  0  0  0  0  0  0  # atno 17394 bound_to 11000
  141.0180  133.7057  156.1220 LP  0  0  0  0  0  0  0  0  0  0  0  0  # atno 17395 bound_to 11000

$$$$
