#       Name:                AV-unprocessed.smi:2310
#       Creating user name   scv26
#       Creation time:       Fri Mar 27 12:48:15 2020


#       File generated by GOLD software.
#

@<TRIPOS>MOLECULE
AV-unprocessed.smi:2310
    50    51     1
SMALL
NO_CHARGES


@<TRIPOS>ATOM
      1 ****        -4.6530  -2.7950   0.8773 C.3            1 S1                 0.0000
      2 ****        -4.5023  -3.4542  -0.5081 C.3            1 S1                 0.0000
      3 ****        -3.8626  -2.5613  -1.5955 C.3            1 S1                 0.0000
      4 ****        -3.9771  -3.2196  -2.9822 C.3            1 S1                 0.0000
      5 ****        -3.5477  -2.3579  -4.0983 C.1            1 S1                 0.0000
      6 ****        -3.2120  -1.6838  -4.9788 N.1            1 S1                 0.0000
      7 ****        -2.4432  -2.3497  -1.2853 N.pl3          1 S1                -1.0000
      8 ****        -1.9094  -1.1901  -0.8164 C.2            1 S1                 0.0000
      9 ****        -2.5005  -0.1348  -0.5602 O.2            1 S1                 0.0000
     10 ****        -0.5776  -1.2752  -0.6561 N.am           1 S1                 0.0000
     11 ****         0.3215  -0.2883  -0.1688 C.ar           1 S1                 0.0000
     12 ****        -0.0351   0.6359   0.8437 C.ar           1 S1                 0.0000
     13 ****         0.9158   1.5699   1.3004 C.ar           1 S1                 0.0000
     14 ****         2.2169   1.5616   0.7480 C.ar           1 S1                 0.0000
     15 ****         3.2355   2.4431   1.1366 N.3            1 S1                 0.0000
     16 ****         3.6328   2.3334   2.5301 C.3            1 S1                 0.0000
     17 ****         4.4052   3.6178   2.8404 C.3            1 S1                 0.0000
     18 ****         3.9449   4.6216   1.7766 C.3            1 S1                 0.0000
     19 ****         2.9459   3.8495   0.9103 C.3            1 S1                 0.0000
     20 ****         2.5218   0.6525  -0.2029 N.pl3          1 S1                 1.0000
     21 ****         1.6436  -0.2619  -0.6722 C.ar           1 S1                 0.0000
     22 ****         2.1341  -1.2211  -1.7409 C.3            1 S1                 0.0000
     23 ****        -5.1481  -3.4783   1.5674 H              1 S1                 0.0000
     24 ****        -5.2561  -1.8863   0.8365 H              1 S1                 0.0000
     25 ****        -3.6887  -2.5399   1.3201 H              1 S1                 0.0000
     26 ****        -3.9347  -4.3806  -0.4088 H              1 S1                 0.0000
     27 ****        -5.4961  -3.7521  -0.8437 H              1 S1                 0.0000
     28 ****        -4.4259  -1.6275  -1.6339 H              1 S1                 0.0000
     29 ****        -3.3934  -4.1399  -3.0223 H              1 S1                 0.0000
     30 ****        -5.0135  -3.4940  -3.1799 H              1 S1                 0.0000
     31 ****        -0.1537  -2.1253  -0.9977 H              1 S1                 0.0000
     32 ****        -1.0197   0.6316   1.2865 H              1 S1                 0.0000
     33 ****         0.6441   2.2760   2.0711 H              1 S1                 0.0000
     34 ****         2.7569   2.2577   3.1757 H              1 S1                 0.0000
     35 ****         4.2476   1.4476   2.6933 H              1 S1                 0.0000
     36 ****         4.2101   3.9682   3.8544 H              1 S1                 0.0000
     37 ****         5.4785   3.4464   2.7492 H              1 S1                 0.0000
     38 ****         3.4903   5.5108   2.2147 H              1 S1                 0.0000
     39 ****         4.7976   4.9454   1.1786 H              1 S1                 0.0000
     40 ****         3.0516   4.1049  -0.1446 H              1 S1                 0.0000
     41 ****         1.9253   4.0876   1.2124 H              1 S1                 0.0000
     42 ****         2.0603  -2.2506  -1.3886 H              1 S1                 0.0000
     43 ****         3.1741  -1.0261  -2.0049 H              1 S1                 0.0000
     44 ****         1.5310  -1.1220  -2.6440 H              1 S1                 0.0000
     45 ****         3.4663   0.6546  -0.5880 H              1 S1                 0.0000
     46 ****        -2.9223  -1.1020  -5.7388 LP             1 S1                 0.0000
     47 ****        -1.8202  -3.1184  -1.4302 LP             1 S1                 0.0000
     48 ****        -3.4892  -0.0700  -0.6953 LP             1 S1                 0.0000
     49 ****        -1.9899   0.6539  -0.2179 LP             1 S1                 0.0000
     50 ****         3.9781   2.1434   0.5377 LP             1 S1                 0.0000
@<TRIPOS>BOND
    1    1    2 1     
    2    1   23 1     
    3    1   24 1     
    4    1   25 1     
    5    2    3 1     
    6    2   26 1     
    7    2   27 1     
    8    3    4 1     
    9    3    7 1     
   10    3   28 1     
   11    4    5 1     
   12    4   29 1     
   13    4   30 1     
   14    5    6 3     
   15    7    8 1     
   16    8    9 2     
   17    8   10 am    
   18   10   11 1     
   19   10   31 1     
   20   11   21 ar    
   21   11   12 ar    
   22   12   13 ar    
   23   12   32 1     
   24   13   14 ar    
   25   13   33 1     
   26   14   15 1     
   27   14   20 ar    
   28   15   19 1     
   29   15   16 1     
   30   16   17 1     
   31   16   34 1     
   32   16   35 1     
   33   17   18 1     
   34   17   36 1     
   35   17   37 1     
   36   18   19 1     
   37   18   38 1     
   38   18   39 1     
   39   19   40 1     
   40   19   41 1     
   41   20   21 ar    
   42   20   45 1     
   43   21   22 1     
   44   22   42 1     
   45   22   43 1     
   46   22   44 1     
   47    6   46 1     
   48    7   47 1     
   49    9   48 1     
   50    9   49 1     
   51   15   50 1     
@<TRIPOS>SUBSTRUCTURE
      1 S1             1
@<TRIPOS>SET
LONE_PAIRS      STATIC     ATOMS    <user>   **** ""
5 46 47 48 49 50
DONOR_HYDROGENS      STATIC     ATOMS    <user>   **** ""
2 31 45
ATOM$BLUE        STATIC     ATOMS    COLORGROUP SYSTEM
5 46 47 48 49 50
ATOM$RED        STATIC     ATOMS    COLORGROUP SYSTEM
2 31 45
