AV-unprocessed.smi:2424|AV-procd|sdf|9560|dock3
  -GOLD-   2272013193D 1   1.00000     0.00000
 Structure written by MMmdl.
 50 51  0  0  0  0  0  0  0  0  1 V2000
  144.1430  143.9464  162.6893 C   0  0  0  0  0  0  0  0  0  0  0  0
  144.7023  143.4618  161.3423 C   0  0  0  0  0  0  0  0  0  0  0  0
  145.0732  144.5800  160.3410 C   0  0  0  0  0  0  0  0  0  0  0  0
  146.3309  145.3256  160.8614 C   0  0  0  0  0  0  0  0  0  0  0  0
  147.4219  144.4283  161.4689 C   0  0  0  0  0  0  0  0  0  0  0  0
  145.0939  144.1337  158.8539 C   0  0  2  0  0  0  0  0  0  0  0  0
  146.4315  143.9658  158.2914 N   0  0  0  0  0  0  0  0  0  0  0  0
  147.3177  143.0355  158.6701 C   0  0  0  0  0  0  0  0  0  0  0  0
  147.0836  142.1922  159.5347 O   0  0  0  0  0  0  0  0  0  0  0  0
  148.4654  143.1619  157.9797 N   0  0  0  0  0  0  0  0  0  0  0  0
  149.6526  142.4250  158.0922 C   0  0  0  0  0  0  0  0  0  0  0  0
  149.7836  141.3297  157.3240 C   0  0  0  0  0  0  0  0  0  0  0  0
  150.9324  140.5365  157.3678 N   0  0  0  0  0  0  0  0  0  0  0  0
  151.9983  140.7856  158.1617 C   0  0  0  0  0  0  0  0  0  0  0  0
  152.9744  140.0377  158.1466 O   0  0  0  0  0  0  0  0  0  0  0  0
  151.8905  141.9852  159.0079 C   0  0  0  0  0  0  0  0  0  0  0  0
  153.0613  142.3270  159.9125 C   0  0  0  0  0  0  0  0  0  0  0  0
  150.7759  142.7518  158.9652 C   0  0  0  0  0  0  0  0  0  0  0  0
  144.4589  145.4686  158.4558 C   0  0  1  0  0  0  0  0  0  0  0  0
  143.5043  145.5322  157.2700 C   0  0  0  0  0  0  0  0  0  0  0  0
  143.9156  145.5221  159.8928 C   0  0  1  0  0  0  0  0  0  0  0  0
  142.6228  144.9309  159.9600 O   0  0  0  0  0  0  0  0  0  0  0  0
  141.8189  145.4751  160.9932 C   0  0  0  0  0  0  0  0  0  0  0  0
  150.9543  139.7263  156.7655 H   0  0  0  0  0  0  0  0  0  0  0  0
  143.9938  143.1035  163.3640 H   0  0  0  0  0  0  0  0  0  0  0  0
  143.1793  144.4421  162.5793 H   0  0  0  0  0  0  0  0  0  0  0  0
  144.8266  144.6376  163.1801 H   0  0  0  0  0  0  0  0  0  0  0  0
  145.5878  142.8679  161.5690 H   0  0  0  0  0  0  0  0  0  0  0  0
  144.0036  142.7545  160.8982 H   0  0  0  0  0  0  0  0  0  0  0  0
  146.7735  145.9382  160.0765 H   0  0  0  0  0  0  0  0  0  0  0  0
  146.0449  146.0409  161.6322 H   0  0  0  0  0  0  0  0  0  0  0  0
  148.2085  145.0369  161.9153 H   0  0  0  0  0  0  0  0  0  0  0  0
  147.8960  143.7984  160.7169 H   0  0  0  0  0  0  0  0  0  0  0  0
  147.0250  143.7815  162.2511 H   0  0  0  0  0  0  0  0  0  0  0  0
  144.4123  143.3011  158.6635 H   0  0  0  0  0  0  0  0  0  0  0  0
  146.7042  144.6168  157.5698 H   0  0  0  0  0  0  0  0  0  0  0  0
  148.4861  143.8903  157.2813 H   0  0  0  0  0  0  0  0  0  0  0  0
  149.0338  140.9769  156.6307 H   0  0  0  0  0  0  0  0  0  0  0  0
  152.8732  143.2375  160.4824 H   0  0  0  0  0  0  0  0  0  0  0  0
  153.9661  142.4795  159.3232 H   0  0  0  0  0  0  0  0  0  0  0  0
  153.2442  141.5182  160.6207 H   0  0  0  0  0  0  0  0  0  0  0  0
  150.7517  143.6249  159.5959 H   0  0  0  0  0  0  0  0  0  0  0  0
  145.2306  146.2331  158.3492 H   0  0  0  0  0  0  0  0  0  0  0  0
  142.7592  144.7373  157.3096 H   0  0  0  0  0  0  0  0  0  0  0  0
  144.0433  145.4272  156.3285 H   0  0  0  0  0  0  0  0  0  0  0  0
  142.9722  146.4832  157.2427 H   0  0  0  0  0  0  0  0  0  0  0  0
  143.9509  146.5331  160.3021 H   0  0  0  0  0  0  0  0  0  0  0  0
  140.8647  144.9500  161.0295 H   0  0  0  0  0  0  0  0  0  0  0  0
  141.6143  146.5308  160.8116 H   0  0  0  0  0  0  0  0  0  0  0  0
  142.2949  145.3775  161.9690 H   0  0  0  0  0  0  0  0  0  0  0  0
  1  2  1  0  0  0  0
  1 25  1  0  0  0  0
  1 26  1  0  0  0  0
  1 27  1  0  0  0  0
  2  3  1  0  0  0  0
  2 28  1  0  0  0  0
  2 29  1  0  0  0  0
  3 21  1  0  0  0  0
  3  4  1  0  0  0  0
  3  6  1  0  0  0  0
  4  5  1  0  0  0  0
  4 30  1  0  0  0  0
  4 31  1  0  0  0  0
  5 32  1  0  0  0  0
  5 33  1  0  0  0  0
  5 34  1  0  0  0  0
  6  7  1  0  0  0  0
  6 19  1  0  0  0  0
  6 35  1  0  0  0  0
  7  8  1  0  0  0  0
  7 36  1  0  0  0  0
  8  9  2  0  0  0  0
  8 10  1  0  0  0  0
 10 11  1  0  0  0  0
 10 37  1  0  0  0  0
 11 18  1  0  0  0  0
 11 12  2  0  0  0  0
 12 13  1  0  0  0  0
 12 38  1  0  0  0  0
 13 24  1  0  0  0  0
 13 14  1  0  0  0  0
 14 15  2  0  0  0  0
 14 16  1  0  0  0  0
 16 17  1  0  0  0  0
 16 18  2  0  0  0  0
 17 39  1  0  0  0  0
 17 40  1  0  0  0  0
 17 41  1  0  0  0  0
 18 42  1  0  0  0  0
 19 20  1  0  0  0  0
 19 21  1  0  0  0  0
 19 43  1  0  0  0  0
 20 44  1  0  0  0  0
 20 45  1  0  0  0  0
 20 46  1  0  0  0  0
 21 22  1  0  0  0  0
 21 47  1  0  0  0  0
 22 23  1  0  0  0  0
 23 48  1  0  0  0  0
 23 49  1  0  0  0  0
 23 50  1  0  0  0  0
M  END
> <s_m_source_file>
AV-unprocessed.smi

> <i_m_source_file_index>
2424

> <i_lp_mmshare_version>
43012

> <i_f3d_flags>
0

> <s_epik_input>
W0NIM11PW0NAQEhdMVtDQEhdKFtDSDNdKVtDQEBIXShDMShbQ0gyXVtDSDNdKVtDSDJdW0NIM10pW05IXUMoPU8pW05IXWMyW2NIXVtuSF1jKD1PKWMoW0NIM10pW2NIXTI=

> <s_epik_cmdline>
J2VwaWtfcHl0aG9uJywgJy1waCcsICc3LjAnLCAnLXRuJywgJzgnLCAnLW1hJywgJzIwMCcsICctbWV0YWxfYmluZGluZycsICctaW1hZScsICc8aW5maWxlLm1hZT4nLCAnLW9tYWUnLCAnPG91dGZpbGUubWFlPic=

> <r_lp_tautomer_probability>
1

> <r_epik_Ionization_Penalty>
4.7326e-05

> <r_epik_Ionization_Penalty_Charging>
2.70169e-05

> <r_epik_Ionization_Penalty_Neutral>
2.0309e-05

> <r_epik_State_Penalty>
-0

> <r_epik_Charging_Adjusted_Penalty>
2.70169e-05

> <i_epik_Tot_Q>
0

> <i_epik_Tot_abs_Q>
0

> <r_epik_Metal_State_Penalty>
0.0198736

> <b_epik_Metal_Only>
0

> <s_lp_Force_Field>
OPLS_2005

> <r_lp_Energy>
37.5965

> <b_lp_Chiralities_Consistent>
1

> <s_lp_Variant>
AV-unprocessed.smi:2424-2

> <Gold.Version>
5.8.1

> <Gold.Id.Protein>
6NUR|6NUR_protein|mol2

> <Gold.PLP.Fitness>
42.5369

> <Gold.PLP.PLP>
-37.2023

> <Gold.PLP.part.hbond>
-5.8639

> <Gold.PLP.part.metal>
0.0000

> <Gold.PLP.part.buried>
-1.5438

> <Gold.PLP.part.nonpolar>
-30.1196

> <Gold.PLP.part.repulsive>
0.2045

> <Gold.PLP.ligand.clash>
0.0000

> <Gold.PLP.ligand.torsion>
1.8107

> <Gold.PLP.Chemscore.Hbond>
2.7482

> <Gold.PLP.Chemscore.CHOScore>
0.0000

> <Gold.PLP.Chemscore.Metal>
0.0000

> <Gold.Chemscore.Hbonds>
donor molecule, donor type, donor heavy atom, donor atom, acceptor molecule, acceptor atom, score
      L1  H     7    36       P1  8029  0.64
      L1  H    10    37       P1  8028  0.30
      P1  H  6933  6944       L1     9  0.08
      P1  H  6934  6946       L1     9  0.75
      P1  H  7997  8010       L1    15  0.96

> <Gold.PLP.Chemscore.Internal.Correction>
0.7114

> <Gold.Rescore>
     Score         DG    S(hbond)    S(metal)    S(lipo)     H(rot)  DE(clash)    DE(int)     intcor
     18.38     -20.22       2.44        0.00      90.11       1.55       0.11       1.72       ----

> <Gold.Chemscore.Fitness>
18.3819

> <Gold.Chemscore.DG>
-20.2174

> <Gold.Chemscore.ZeroCoef>
-5.4800

> <Gold.Chemscore.Hbond>
2.4440

> <Gold.Chemscore.Metal>
0.0000

> <Gold.Chemscore.Lipo>
90.1098

> <Gold.Chemscore.Internal_Hbond>
0.0000

> <Gold.Chemscore.DEClash>
0.1148

> <Gold.Chemscore.DEInternal>
1.7207

> <Gold.Chemscore.Rot>
1.5502

> <Gold.Chemscore.Internal.Correction>
   9.000000E+99

> <Gold.Chemscore.Hbonds>
donor molecule, donor type, donor heavy atom, donor atom, acceptor molecule, acceptor atom, score
      L1  H     7    36       P1  8029  0.08
      P1  H  6933  6944       L1     9  0.08
      P1  H  6934  6946       L1     9  0.76
      P1  H  7997  8010       L1    15  0.89

> <Gold.Chemscore.Hbond.Weighted>
-8.1631

> <Gold.Chemscore.Metal.Weighted>
-0.0000

> <Gold.Chemscore.Lipo.Weighted>
-10.5429

> <Gold.Chemscore.Internal_Hbond.Weighted>
0.0000

> <Gold.Chemscore.DEClash.Weighted>
0.1148

> <Gold.Chemscore.DEInternal.Weighted>
1.7207

> <Gold.Chemscore.Rot.Weighted>
3.9685

> <Gold.Chemscore.Internal.Correction.Weighted>
   9.000000E+99

> <Gold.Protein.RotatedTorsions>
[ 6907 6896 6895 6894 ] final  156.60 input  -60.11 | X-H torsion
[ 7974 7965 7964 7962 ] final -126.59 input  175.53 | X-H torsion
[ 8008 7997 7996 7995 ] final   51.66 input   59.86 | X-H torsion
[ 10167 10162 10161 10158 ] final  128.31 input  -65.29 | X-H torsion
[ 10718 10713 10712 10709 ] final -170.68 input   66.30 | X-H torsion
[ 10763 10752 10751 10750 ] final  -55.79 input  -60.55 | X-H torsion
[ 11005 11000 10999 10996 ] final  175.32 input  -57.11 | X-H torsion

> <Gold.Protein.ActiveResidues>
 VAL166  LYS551  ARG553  GLY616  TRP617  ASP618  TYR619  PRO620  LYS621  CYS622 
 ASP623  PHE694  ASN695  SER759  ASP760  ASP761  ALA762  ILE779  LEU786  VAL792 
 PHE793  MET794  SER795  GLU796  ALA797  LYS798  CYS799  TRP800  GLU811  SER814 

> <Gold.Protein.RotatedAtoms>
  152.0273  133.3923  159.4282 H   0  0  0  0  0  0  0  0  0  0  0  0  # atno 6907 bound_to 6896
  150.6885  134.3560  159.4939 H   0  0  0  0  0  0  0  0  0  0  0  0  # atno 6908 bound_to 6896
  152.1342  134.9112  160.0608 H   0  0  0  0  0  0  0  0  0  0  0  0  # atno 6909 bound_to 6896
  144.9857  140.7683  143.4585 H   0  0  0  0  0  0  0  0  0  0  0  0  # atno 7974 bound_to 7965
  155.4389  140.3453  155.4288 H   0  0  0  0  0  0  0  0  0  0  0  0  # atno 8008 bound_to 7997
  156.1291  140.1509  156.9123 H   0  0  0  0  0  0  0  0  0  0  0  0  # atno 8009 bound_to 7997
  154.4881  140.0849  156.7512 H   0  0  0  0  0  0  0  0  0  0  0  0  # atno 8010 bound_to 7997
  139.5534  144.6830  151.4256 H   0  0  0  0  0  0  0  0  0  0  0  0  # atno 10167 bound_to 10162
  156.7298  130.9302  151.3103 H   0  0  0  0  0  0  0  0  0  0  0  0  # atno 10718 bound_to 10713
  154.1964  135.6418  153.5074 H   0  0  0  0  0  0  0  0  0  0  0  0  # atno 10763 bound_to 10752
  153.0022  135.5441  154.6361 H   0  0  0  0  0  0  0  0  0  0  0  0  # atno 10764 bound_to 10752
  154.5763  135.2921  155.0750 H   0  0  0  0  0  0  0  0  0  0  0  0  # atno 10765 bound_to 10752
  140.3609  134.7113  157.4330 H   0  0  0  0  0  0  0  0  0  0  0  0  # atno 11005 bound_to 11000
  145.2357  139.2095  143.5019 LP  0  0  0  0  0  0  0  0  0  0  0  0  # atno 17320 bound_to 7965
  146.3419  140.2243  142.8592 LP  0  0  0  0  0  0  0  0  0  0  0  0  # atno 17321 bound_to 7965
  140.6801  143.8100  150.7110 LP  0  0  0  0  0  0  0  0  0  0  0  0  # atno 17342 bound_to 10162
  140.1551  143.4324  152.2105 LP  0  0  0  0  0  0  0  0  0  0  0  0  # atno 17343 bound_to 10162
  157.6864  130.9189  150.0397 LP  0  0  0  0  0  0  0  0  0  0  0  0  # atno 17370 bound_to 10713
  156.1537  130.3643  149.9400 LP  0  0  0  0  0  0  0  0  0  0  0  0  # atno 17371 bound_to 10713
  140.0627  134.5973  155.8730 LP  0  0  0  0  0  0  0  0  0  0  0  0  # atno 17394 bound_to 11000
  141.1984  133.6601  156.5791 LP  0  0  0  0  0  0  0  0  0  0  0  0  # atno 17395 bound_to 11000

$$$$
