AV-unprocessed.smi:1019|AV-procd|sdf|4447|dock8
  -GOLD-   22720 2413D 1   1.00000     0.00000
 Structure written by MMmdl.
 45 47  0  0  0  0  0  0  0  0  3 V2000
  146.6914  135.5817  154.2415 C   0  0  0  0  0  0  0  0  0  0  0  0
  146.5880  136.5336  153.1120 N   0  3  1  0  0  0  0  0  0  0  0  0
  145.3391  136.3497  152.3331 C   0  0  0  0  0  0  0  0  0  0  0  0
  145.3550  135.0401  151.5632 C   0  0  0  0  0  0  0  0  0  0  0  0
  144.2136  134.6373  150.8376 C   0  0  0  0  0  0  0  0  0  0  0  0
  144.2142  133.4159  150.1366 C   0  0  0  0  0  0  0  0  0  0  0  0
  145.3575  132.5944  150.1544 C   0  0  0  0  0  0  0  0  0  0  0  0
  146.5009  132.9951  150.8721 C   0  0  0  0  0  0  0  0  0  0  0  0
  146.5007  134.2161  151.5743 C   0  0  0  0  0  0  0  0  0  0  0  0
  146.8317  137.9399  153.5268 C   0  0  0  0  0  0  0  0  0  0  0  0
  146.6885  138.9133  152.3428 C   0  0  2  0  0  0  0  0  0  0  0  0
  147.3042  138.3251  151.2151 O   0  0  0  0  0  0  0  0  0  0  0  0
  147.3423  140.2831  152.6248 C   0  0  0  0  0  0  0  0  0  0  0  0
  147.2397  140.6907  154.0318 N   0  0  0  0  0  0  0  0  0  0  0  0
  146.1533  141.0824  154.7527 C   0  0  0  0  0  0  0  0  0  0  0  0
  146.5778  141.3612  156.0165 N   0  3  0  0  0  0  0  0  0  0  0  0
  147.9557  141.1501  156.1035 C   0  0  0  0  0  0  0  0  0  0  0  0
  148.8358  141.2979  157.1714 C   0  0  0  0  0  0  0  0  0  0  0  0
  150.1911  140.9985  156.9204 C   0  0  0  0  0  0  0  0  0  0  0  0
  150.6263  140.5715  155.6488 C   0  0  0  0  0  0  0  0  0  0  0  0
  149.7253  140.4245  154.5732 C   0  0  0  0  0  0  0  0  0  0  0  0
  148.3876  140.7216  154.8304 C   0  0  0  0  0  0  0  0  0  0  0  0
  145.8862  135.7396  154.9607 H   0  0  0  0  0  0  0  0  0  0  0  0
  147.6422  135.6959  154.7625 H   0  0  0  0  0  0  0  0  0  0  0  0
  146.6337  134.5529  153.8850 H   0  0  0  0  0  0  0  0  0  0  0  0
  144.4808  136.3240  153.0064 H   0  0  0  0  0  0  0  0  0  0  0  0
  145.1838  137.1962  151.6621 H   0  0  0  0  0  0  0  0  0  0  0  0
  143.3320  135.2616  150.8206 H   0  0  0  0  0  0  0  0  0  0  0  0
  143.3381  133.1089  149.5846 H   0  0  0  0  0  0  0  0  0  0  0  0
  145.3582  131.6582  149.6156 H   0  0  0  0  0  0  0  0  0  0  0  0
  147.3785  132.3656  150.8834 H   0  0  0  0  0  0  0  0  0  0  0  0
  147.3814  134.5144  152.1241 H   0  0  0  0  0  0  0  0  0  0  0  0
  146.1367  138.2438  154.3096 H   0  0  0  0  0  0  0  0  0  0  0  0
  147.8248  138.0174  153.9729 H   0  0  0  0  0  0  0  0  0  0  0  0
  145.6342  139.0470  152.1000 H   0  0  0  0  0  0  0  0  0  0  0  0
  147.8853  137.6409  151.5112 H   0  0  0  0  0  0  0  0  0  0  0  0
  148.3967  140.2836  152.3461 H   0  0  0  0  0  0  0  0  0  0  0  0
  146.8663  141.0608  152.0253 H   0  0  0  0  0  0  0  0  0  0  0  0
  145.1381  141.1569  154.3892 H   0  0  0  0  0  0  0  0  0  0  0  0
  148.5060  141.6255  158.1465 H   0  0  0  0  0  0  0  0  0  0  0  0
  150.9116  141.0988  157.7196 H   0  0  0  0  0  0  0  0  0  0  0  0
  151.6733  140.3525  155.4960 H   0  0  0  0  0  0  0  0  0  0  0  0
  150.0689  140.0970  153.6034 H   0  0  0  0  0  0  0  0  0  0  0  0
  147.3331  136.2954  152.4734 H   0  0  0  0  0  0  0  0  0  0  0  0
  145.9698  141.6750  156.7625 H   0  0  0  0  0  0  0  0  0  0  0  0
  1  2  1  0  0  0  0
  1 23  1  0  0  0  0
  1 24  1  0  0  0  0
  1 25  1  0  0  0  0
  2  3  1  0  0  0  0
  2 10  1  0  0  0  0
  2 44  1  0  0  0  0
  3  4  1  0  0  0  0
  3 26  1  0  0  0  0
  3 27  1  0  0  0  0
  4  9  1  0  0  0  0
  4  5  2  0  0  0  0
  5  6  1  0  0  0  0
  5 28  1  0  0  0  0
  6  7  2  0  0  0  0
  6 29  1  0  0  0  0
  7  8  1  0  0  0  0
  7 30  1  0  0  0  0
  8  9  2  0  0  0  0
  8 31  1  0  0  0  0
  9 32  1  0  0  0  0
 10 11  1  0  0  0  0
 10 33  1  0  0  0  0
 10 34  1  0  0  0  0
 11 12  1  0  0  0  0
 11 13  1  0  0  0  0
 11 35  1  0  0  0  0
 12 36  1  0  0  0  0
 13 14  1  0  0  0  0
 13 37  1  0  0  0  0
 13 38  1  0  0  0  0
 14 22  1  0  0  0  0
 14 15  1  0  0  0  0
 15 16  2  0  0  0  0
 15 39  1  0  0  0  0
 16 17  1  0  0  0  0
 16 45  1  0  0  0  0
 17 22  2  0  0  0  0
 17 18  1  0  0  0  0
 18 19  2  0  0  0  0
 18 40  1  0  0  0  0
 19 20  1  0  0  0  0
 19 41  1  0  0  0  0
 20 21  2  0  0  0  0
 20 42  1  0  0  0  0
 21 22  1  0  0  0  0
 21 43  1  0  0  0  0
M  CHG  1   2   1
M  CHG  1  16   1
M  END
> <s_m_source_file>
AV-unprocessed.smi

> <i_m_source_file_index>
1019

> <i_lp_mmshare_version>
43012

> <i_f3d_flags>
0

> <s_epik_input>
W2NIXTFbY0hdW2NIXVtjSF1bY0hdYzFbQ0gyXU4oW0NIM10pW0NIMl1bQ0BIXShbT0hdKVtDSDJdbihbY0hdbjIpYyhjMjMpW2NIXVtjSF1bY0hdW2NIXTM=

> <s_epik_cmdline>
J2VwaWtfcHl0aG9uJywgJy1waCcsICc3LjAnLCAnLXRuJywgJzgnLCAnLW1hJywgJzIwMCcsICctbWV0YWxfYmluZGluZycsICctaW1hZScsICc8aW5maWxlLm1hZT4nLCAnLW9tYWUnLCAnPG91dGZpbGUubWFlPic=

> <r_epik_Ionization_Penalty>
1.5198

> <r_epik_Ionization_Penalty_Charging>
1.5198

> <r_epik_Ionization_Penalty_Neutral>
3.13312e-06

> <r_epik_State_Penalty>
1.624

> <r_epik_Charging_Adjusted_Penalty>
3.1438

> <i_epik_Tot_Q>
2

> <i_epik_Tot_abs_Q>
2

> <r_epik_Metal_State_Penalty>
5.67392

> <b_epik_Metal_Only>
0

> <s_lp_Force_Field>
OPLS_2005

> <r_lp_Energy>
24.5939

> <b_lp_Chiralities_Consistent>
1

> <s_lp_Variant>
AV-unprocessed.smi:1019-5

> <Gold.Version>
5.8.1

> <Gold.Id.Protein>
6NUR|6NUR_protein|mol2

> <Gold.PLP.Fitness>
49.3054

> <Gold.PLP.PLP>
-38.4758

> <Gold.PLP.part.hbond>
-4.0000

> <Gold.PLP.part.metal>
0.0000

> <Gold.PLP.part.buried>
0.4191

> <Gold.PLP.part.nonpolar>
-34.9895

> <Gold.PLP.part.repulsive>
0.0082

> <Gold.PLP.ligand.clash>
0.0000

> <Gold.PLP.ligand.torsion>
0.6925

> <Gold.PLP.Chemscore.Hbond>
3.0000

> <Gold.PLP.Chemscore.CHOScore>
1.0000

> <Gold.PLP.Chemscore.Metal>
0.0000

> <Gold.Chemscore.Hbonds>
donor molecule, donor type, donor heavy atom, donor atom, acceptor molecule, acceptor atom, score
      L1  H     2    44       P1  7948  2.00
      L1  H    12    36       P1  7948  1.00
      L1  C    15    39       P1 10175  1.00

> <Gold.PLP.Chemscore.Internal.Correction>
0.2147

> <Gold.Rescore>
     Score         DG    S(hbond)    S(metal)    S(lipo)     H(rot)  DE(clash)    DE(int)     intcor
     15.57     -17.65       1.93        0.00     102.50       2.46       1.35       0.73       ----

> <Gold.Chemscore.Fitness>
15.5693

> <Gold.Chemscore.DG>
-17.6458

> <Gold.Chemscore.ZeroCoef>
-5.4800

> <Gold.Chemscore.Hbond>
1.9337

> <Gold.Chemscore.Metal>
0.0000

> <Gold.Chemscore.Lipo>
102.5015

> <Gold.Chemscore.Internal_Hbond>
0.0000

> <Gold.Chemscore.DEClash>
1.3481

> <Gold.Chemscore.DEInternal>
0.7285

> <Gold.Chemscore.Rot>
2.4552

> <Gold.Chemscore.Internal.Correction>
   9.000000E+99

> <Gold.Chemscore.Hbonds>
donor molecule, donor type, donor heavy atom, donor atom, acceptor molecule, acceptor atom, score
      L1  H     2    44       P1  7948  0.99
      L1  H    12    36       P1  7948  1.00

> <Gold.Chemscore.Hbond.Weighted>
-6.4586

> <Gold.Chemscore.Metal.Weighted>
-0.0000

> <Gold.Chemscore.Lipo.Weighted>
-11.9927

> <Gold.Chemscore.Internal_Hbond.Weighted>
0.0000

> <Gold.Chemscore.DEClash.Weighted>
1.3481

> <Gold.Chemscore.DEInternal.Weighted>
0.7285

> <Gold.Chemscore.Rot.Weighted>
6.2854

> <Gold.Chemscore.Internal.Correction.Weighted>
   9.000000E+99

> <Gold.Protein.RotatedTorsions>
[ 6907 6896 6895 6894 ] final   -3.23 input  -60.11 | X-H torsion
[ 7974 7965 7964 7962 ] final   78.40 input  175.53 | X-H torsion
[ 8008 7997 7996 7995 ] final   73.58 input   59.86 | X-H torsion
[ 10167 10162 10161 10158 ] final   98.84 input  -65.29 | X-H torsion
[ 10718 10713 10712 10709 ] final   70.61 input   66.30 | X-H torsion
[ 10763 10752 10751 10750 ] final   96.61 input  -60.55 | X-H torsion
[ 11005 11000 10999 10996 ] final   16.69 input  -57.11 | X-H torsion

> <Gold.Protein.ActiveResidues>
 VAL166  LYS551  ARG553  GLY616  TRP617  ASP618  TYR619  PRO620  LYS621  CYS622 
 ASP623  PHE694  ASN695  SER759  ASP760  ASP761  ALA762  ILE779  LEU786  VAL792 
 PHE793  MET794  SER795  GLU796  ALA797  LYS798  CYS799  TRP800  GLU811  SER814 

> <Gold.Protein.RotatedAtoms>
  151.5171  135.1066  159.9868 H   0  0  0  0  0  0  0  0  0  0  0  0  # atno 6907 bound_to 6896
  152.4636  133.7872  159.6893 H   0  0  0  0  0  0  0  0  0  0  0  0  # atno 6908 bound_to 6896
  150.8610  133.7580  159.3018 H   0  0  0  0  0  0  0  0  0  0  0  0  # atno 6909 bound_to 6896
  145.6776  139.2514  143.1833 H   0  0  0  0  0  0  0  0  0  0  0  0  # atno 7974 bound_to 7965
  155.7858  140.3480  155.5322 H   0  0  0  0  0  0  0  0  0  0  0  0  # atno 8008 bound_to 7997
  155.8683  140.0982  157.1588 H   0  0  0  0  0  0  0  0  0  0  0  0  # atno 8009 bound_to 7997
  154.4016  140.1345  156.4034 H   0  0  0  0  0  0  0  0  0  0  0  0  # atno 8010 bound_to 7997
  139.7672  144.6935  151.0207 H   0  0  0  0  0  0  0  0  0  0  0  0  # atno 10167 bound_to 10162
  157.6409  130.9486  150.0675 H   0  0  0  0  0  0  0  0  0  0  0  0  # atno 10718 bound_to 10713
  153.2670  135.4212  155.0950 H   0  0  0  0  0  0  0  0  0  0  0  0  # atno 10763 bound_to 10752
  154.8442  135.3463  154.6298 H   0  0  0  0  0  0  0  0  0  0  0  0  # atno 10764 bound_to 10752
  153.6718  135.7043  153.5202 H   0  0  0  0  0  0  0  0  0  0  0  0  # atno 10765 bound_to 10752
  140.4443  134.1290  155.7694 H   0  0  0  0  0  0  0  0  0  0  0  0  # atno 11005 bound_to 11000
  146.0992  140.7564  142.9557 LP  0  0  0  0  0  0  0  0  0  0  0  0  # atno 17320 bound_to 7965
  144.7036  140.3760  143.7136 LP  0  0  0  0  0  0  0  0  0  0  0  0  # atno 17321 bound_to 7965
  140.7811  143.4629  151.0252 LP  0  0  0  0  0  0  0  0  0  0  0  0  # atno 17342 bound_to 10162
  139.8314  143.7686  152.3180 LP  0  0  0  0  0  0  0  0  0  0  0  0  # atno 17343 bound_to 10162
  156.1689  130.3646  149.9193 LP  0  0  0  0  0  0  0  0  0  0  0  0  # atno 17370 bound_to 10713
  156.7173  130.8993  151.3615 LP  0  0  0  0  0  0  0  0  0  0  0  0  # atno 17371 bound_to 10713
  141.1692  133.8642  157.1623 LP  0  0  0  0  0  0  0  0  0  0  0  0  # atno 17394 bound_to 11000
  140.0049  135.0012  157.0271 LP  0  0  0  0  0  0  0  0  0  0  0  0  # atno 17395 bound_to 11000

$$$$
