AV-unprocessed.smi:565|AV-procd|sdf|2954|dock3
  -GOLD-   2262023453D 1   1.00000     0.00000
 Structure written by MMmdl.
 50 51  0  0  0  0  0  0  0  0  2 V2000
  148.3657  136.9945  158.4490 C   0  0  0  0  0  0  0  0  0  0  0  0
  147.8427  136.3047  159.6766 C   0  0  0  0  0  0  0  0  0  0  0  0
  147.6035  137.0147  160.7665 N   0  0  0  0  0  0  0  0  0  0  0  0
  147.1551  136.1202  161.6695 N   0  0  0  0  0  0  0  0  0  0  0  0
  146.7964  136.5725  162.9996 C   0  0  0  0  0  0  0  0  0  0  0  0
  147.1063  134.8422  161.1477 C   0  0  0  0  0  0  0  0  0  0  0  0
  146.6458  133.6705  161.9540 C   0  0  0  0  0  0  0  0  0  0  0  0
  147.5506  134.9203  159.8541 C   0  0  0  0  0  0  0  0  0  0  0  0
  147.7115  133.8154  158.8402 C   0  0  0  0  0  0  0  0  0  0  0  0
  146.9759  134.1956  157.5557 C   0  0  0  0  0  0  0  0  0  0  0  0
  145.7652  134.4161  157.5787 O   0  0  0  0  0  0  0  0  0  0  0  0
  147.7218  134.2887  156.4436 N   0  0  0  0  0  0  0  0  0  0  0  0
  147.2261  134.7110  155.1402 C   0  0  0  0  0  0  0  0  0  0  0  0
  147.1364  133.5194  154.1674 C   0  0  0  0  0  0  0  0  0  0  0  0
  146.5787  133.9053  152.8471 N   0  3  2  0  0  0  0  0  0  0  0  0
  145.4982  134.9174  152.9699 C   0  0  0  0  0  0  0  0  0  0  0  0
  145.0344  135.4025  151.5874 C   0  0  0  0  0  0  0  0  0  0  0  0
  144.5787  134.2246  150.7174 C   0  0  0  0  0  0  0  0  0  0  0  0
  145.6936  133.1692  150.6226 C   0  0  2  0  0  0  0  0  0  0  0  0
  145.2533  131.9640  149.7797 C   0  0  0  0  0  0  0  0  0  0  0  0
  146.1424  132.7381  152.0336 C   0  0  0  0  0  0  0  0  0  0  0  0
  149.1355  136.3966  157.9611 H   0  0  0  0  0  0  0  0  0  0  0  0
  148.8051  137.9639  158.6871 H   0  0  0  0  0  0  0  0  0  0  0  0
  147.5664  137.1600  157.7266 H   0  0  0  0  0  0  0  0  0  0  0  0
  147.2752  135.9385  163.7461 H   0  0  0  0  0  0  0  0  0  0  0  0
  145.7148  136.5169  163.1248 H   0  0  0  0  0  0  0  0  0  0  0  0
  147.1190  137.6029  163.1560 H   0  0  0  0  0  0  0  0  0  0  0  0
  146.4710  132.7992  161.3233 H   0  0  0  0  0  0  0  0  0  0  0  0
  145.7141  133.8954  162.4737 H   0  0  0  0  0  0  0  0  0  0  0  0
  147.3930  133.3998  162.7000 H   0  0  0  0  0  0  0  0  0  0  0  0
  148.7604  133.6242  158.6128 H   0  0  0  0  0  0  0  0  0  0  0  0
  147.3098  132.8732  159.2146 H   0  0  0  0  0  0  0  0  0  0  0  0
  148.7080  134.0838  156.5164 H   0  0  0  0  0  0  0  0  0  0  0  0
  146.2387  135.1516  155.2802 H   0  0  0  0  0  0  0  0  0  0  0  0
  147.8674  135.5024  154.7516 H   0  0  0  0  0  0  0  0  0  0  0  0
  148.1108  133.0489  154.0274 H   0  0  0  0  0  0  0  0  0  0  0  0
  146.4958  132.7633  154.6237 H   0  0  0  0  0  0  0  0  0  0  0  0
  144.6591  134.4910  153.5220 H   0  0  0  0  0  0  0  0  0  0  0  0
  145.8553  135.7727  153.5451 H   0  0  0  0  0  0  0  0  0  0  0  0
  144.2213  136.1206  151.6979 H   0  0  0  0  0  0  0  0  0  0  0  0
  145.8494  135.9317  151.0914 H   0  0  0  0  0  0  0  0  0  0  0  0
  143.6789  133.7797  151.1450 H   0  0  0  0  0  0  0  0  0  0  0  0
  144.3080  134.5810  149.7229 H   0  0  0  0  0  0  0  0  0  0  0  0
  146.5493  133.6248  150.1212 H   0  0  0  0  0  0  0  0  0  0  0  0
  144.3970  131.4583  150.2272 H   0  0  0  0  0  0  0  0  0  0  0  0
  146.0584  131.2348  149.6848 H   0  0  0  0  0  0  0  0  0  0  0  0
  144.9689  132.2717  148.7730 H   0  0  0  0  0  0  0  0  0  0  0  0
  146.9575  132.0211  151.9412 H   0  0  0  0  0  0  0  0  0  0  0  0
  145.3288  132.2223  152.5467 H   0  0  0  0  0  0  0  0  0  0  0  0
  147.3277  134.3555  152.3407 H   0  0  0  0  0  0  0  0  0  0  0  0
  1  2  1  0  0  0  0
  1 22  1  0  0  0  0
  1 23  1  0  0  0  0
  1 24  1  0  0  0  0
  2  8  1  0  0  0  0
  2  3  2  0  0  0  0
  3  4  1  0  0  0  0
  4  5  1  0  0  0  0
  4  6  1  0  0  0  0
  5 25  1  0  0  0  0
  5 26  1  0  0  0  0
  5 27  1  0  0  0  0
  6  7  1  0  0  0  0
  6  8  2  0  0  0  0
  7 28  1  0  0  0  0
  7 29  1  0  0  0  0
  7 30  1  0  0  0  0
  8  9  1  0  0  0  0
  9 10  1  0  0  0  0
  9 31  1  0  0  0  0
  9 32  1  0  0  0  0
 10 11  2  0  0  0  0
 10 12  1  0  0  0  0
 12 13  1  0  0  0  0
 12 33  1  0  0  0  0
 13 14  1  0  0  0  0
 13 34  1  0  0  0  0
 13 35  1  0  0  0  0
 14 15  1  0  0  0  0
 14 36  1  0  0  0  0
 14 37  1  0  0  0  0
 15 21  1  0  0  0  0
 15 16  1  0  0  0  0
 15 50  1  0  0  0  0
 16 17  1  0  0  0  0
 16 38  1  0  0  0  0
 16 39  1  0  0  0  0
 17 18  1  0  0  0  0
 17 40  1  0  0  0  0
 17 41  1  0  0  0  0
 18 19  1  0  0  0  0
 18 42  1  0  0  0  0
 18 43  1  0  0  0  0
 19 20  1  0  0  0  0
 19 21  1  0  0  0  0
 19 44  1  0  0  0  0
 20 45  1  0  0  0  0
 20 46  1  0  0  0  0
 20 47  1  0  0  0  0
 21 48  1  0  0  0  0
 21 49  1  0  0  0  0
M  CHG  1  15   1
M  END
> <s_m_source_file>
AV-unprocessed.smi

> <i_m_source_file_index>
565

> <i_lp_mmshare_version>
43012

> <i_f3d_flags>
0

> <s_epik_input>
W0NIM11jMW5uKFtDSDNdKWMoW0NIM10pYzFbQ0gyXUMoPU8pW05IXVtDSDJdW0NIMl1OMltDSDJdW0NIMl1bQ0gyXVtDQEBIXShbQ0gzXSlbQ0gyXTI=

> <s_epik_cmdline>
J2VwaWtfcHl0aG9uJywgJy1waCcsICc3LjAnLCAnLXRuJywgJzgnLCAnLW1hJywgJzIwMCcsICctbWV0YWxfYmluZGluZycsICctaW1hZScsICc8aW5maWxlLm1hZT4nLCAnLW9tYWUnLCAnPG91dGZpbGUubWFlPic=

> <r_lp_tautomer_probability>
1

> <r_epik_Ionization_Penalty>
0.00411138

> <r_epik_Ionization_Penalty_Charging>
0.0019503

> <r_epik_Ionization_Penalty_Neutral>
0.00216107

> <r_epik_State_Penalty>
-0

> <r_epik_Charging_Adjusted_Penalty>
0.0019503

> <i_epik_Tot_Q>
1

> <i_epik_Tot_abs_Q>
1

> <r_epik_Metal_State_Penalty>
-0

> <b_epik_Metal_Only>
0

> <s_lp_Force_Field>
OPLS_2005

> <r_lp_Energy>
10.1844

> <b_lp_Chiralities_Consistent>
1

> <s_lp_Variant>
AV-unprocessed.smi:565-4

> <Gold.Version>
5.8.1

> <Gold.Id.Protein>
6NUR|6NUR_protein|mol2

> <Gold.PLP.Fitness>
46.8589

> <Gold.PLP.PLP>
-36.5311

> <Gold.PLP.part.hbond>
-3.0000

> <Gold.PLP.part.metal>
0.0000

> <Gold.PLP.part.buried>
-4.5548

> <Gold.PLP.part.nonpolar>
-30.1931

> <Gold.PLP.part.repulsive>
0.0102

> <Gold.PLP.ligand.clash>
0.0000

> <Gold.PLP.ligand.torsion>
0.2933

> <Gold.PLP.Chemscore.Hbond>
3.6160

> <Gold.PLP.Chemscore.CHOScore>
0.0000

> <Gold.PLP.Chemscore.Metal>
0.0000

> <Gold.Chemscore.Hbonds>
donor molecule, donor type, donor heavy atom, donor atom, acceptor molecule, acceptor atom, score
      P1  H  6931  6943       L1     3  0.51
      P1  H  6934  6947       L1     3  0.93

> <Gold.PLP.Chemscore.Internal.Correction>
0.0664

> <Gold.Rescore>
     Score         DG    S(hbond)    S(metal)    S(lipo)     H(rot)  DE(clash)    DE(int)     intcor
     18.95     -19.34       2.55        0.00      81.10       1.61       0.01       0.38       ----

> <Gold.Chemscore.Fitness>
18.9474

> <Gold.Chemscore.DG>
-19.3387

> <Gold.Chemscore.ZeroCoef>
-5.4800

> <Gold.Chemscore.Hbond>
2.5456

> <Gold.Chemscore.Metal>
0.0000

> <Gold.Chemscore.Lipo>
81.1012

> <Gold.Chemscore.Internal_Hbond>
0.0000

> <Gold.Chemscore.DEClash>
0.0111

> <Gold.Chemscore.DEInternal>
0.3801

> <Gold.Chemscore.Rot>
1.6142

> <Gold.Chemscore.Internal.Correction>
   9.000000E+99

> <Gold.Chemscore.Hbonds>
donor molecule, donor type, donor heavy atom, donor atom, acceptor molecule, acceptor atom, score
      L1  H    15    50       P1  7948  0.02
      P1  H  6931  6943       L1     3  0.22
      P1  H  6934  6947       L1     3  0.83

> <Gold.Chemscore.Hbond.Weighted>
-8.5022

> <Gold.Chemscore.Metal.Weighted>
-0.0000

> <Gold.Chemscore.Lipo.Weighted>
-9.4888

> <Gold.Chemscore.Internal_Hbond.Weighted>
0.0000

> <Gold.Chemscore.DEClash.Weighted>
0.0111

> <Gold.Chemscore.DEInternal.Weighted>
0.3801

> <Gold.Chemscore.Rot.Weighted>
4.1324

> <Gold.Chemscore.Internal.Correction.Weighted>
   9.000000E+99

> <Gold.Protein.RotatedTorsions>
[ 6907 6896 6895 6894 ] final  -84.73 input  -60.11 | X-H torsion
[ 7974 7965 7964 7962 ] final  176.44 input  175.53 | X-H torsion
[ 8008 7997 7996 7995 ] final   80.51 input   59.86 | X-H torsion
[ 10167 10162 10161 10158 ] final   89.06 input  -65.29 | X-H torsion
[ 10718 10713 10712 10709 ] final  -98.38 input   66.30 | X-H torsion
[ 10763 10752 10751 10750 ] final -143.03 input  -60.55 | X-H torsion
[ 11005 11000 10999 10996 ] final -155.41 input  -57.11 | X-H torsion

> <Gold.Protein.ActiveResidues>
 VAL166  LYS551  ARG553  GLY616  TRP617  ASP618  TYR619  PRO620  LYS621  CYS622 
 ASP623  PHE694  ASN695  SER759  ASP760  ASP761  ALA762  ILE779  LEU786  VAL792 
 PHE793  MET794  SER795  GLU796  ALA797  LYS798  CYS799  TRP800  GLU811  SER814 

> <Gold.Protein.RotatedAtoms>
  150.6874  134.3313  159.4828 H   0  0  0  0  0  0  0  0  0  0  0  0  # atno 6907 bound_to 6896
  152.1177  134.9225  160.0573 H   0  0  0  0  0  0  0  0  0  0  0  0  # atno 6908 bound_to 6896
  152.0443  133.3956  159.4387 H   0  0  0  0  0  0  0  0  0  0  0  0  # atno 6909 bound_to 6896
  144.7184  140.0098  143.6440 H   0  0  0  0  0  0  0  0  0  0  0  0  # atno 7974 bound_to 7965
  155.8845  140.3442  155.5912 H   0  0  0  0  0  0  0  0  0  0  0  0  # atno 8008 bound_to 7997
  155.7681  140.0841  157.2140 H   0  0  0  0  0  0  0  0  0  0  0  0  # atno 8009 bound_to 7997
  154.4027  140.1523  156.2898 H   0  0  0  0  0  0  0  0  0  0  0  0  # atno 8010 bound_to 7997
  139.8610  144.6544  150.9058 H   0  0  0  0  0  0  0  0  0  0  0  0  # atno 10167 bound_to 10162
  156.0106  130.5236  150.6515 H   0  0  0  0  0  0  0  0  0  0  0  0  # atno 10718 bound_to 10713
  154.8486  135.3479  154.6122 H   0  0  0  0  0  0  0  0  0  0  0  0  # atno 10763 bound_to 10752
  153.6731  135.6984  153.5145 H   0  0  0  0  0  0  0  0  0  0  0  0  # atno 10764 bound_to 10752
  153.2727  135.4288  155.0960 H   0  0  0  0  0  0  0  0  0  0  0  0  # atno 10765 bound_to 10752
  140.6867  134.4085  157.5222 H   0  0  0  0  0  0  0  0  0  0  0  0  # atno 11005 bound_to 11000
  146.0268  139.3299  143.0779 LP  0  0  0  0  0  0  0  0  0  0  0  0  # atno 17320 bound_to 7965
  145.8501  140.9533  143.0754 LP  0  0  0  0  0  0  0  0  0  0  0  0  # atno 17321 bound_to 7965
  140.7775  143.3744  151.1589 LP  0  0  0  0  0  0  0  0  0  0  0  0  # atno 17342 bound_to 10162
  139.7374  143.8978  152.3039 LP  0  0  0  0  0  0  0  0  0  0  0  0  # atno 17343 bound_to 10162
  157.4275  131.0845  151.1071 LP  0  0  0  0  0  0  0  0  0  0  0  0  # atno 17370 bound_to 10713
  157.1654  130.6244  149.5624 LP  0  0  0  0  0  0  0  0  0  0  0  0  # atno 17371 bound_to 10713
  139.8935  134.8728  156.2219 LP  0  0  0  0  0  0  0  0  0  0  0  0  # atno 17394 bound_to 11000
  141.0274  133.7007  156.1371 LP  0  0  0  0  0  0  0  0  0  0  0  0  # atno 17395 bound_to 11000

$$$$
