#       Name:                AV-unprocessed.smi:1830
#       Creating user name   scv26
#       Creation time:       Fri Mar 27 09:13:42 2020


#       File generated by GOLD software.
#

@<TRIPOS>MOLECULE
AV-unprocessed.smi:1830
    59    62     1
SMALL
NO_CHARGES


@<TRIPOS>ATOM
      1 ****         0.7382   2.0113  -1.8924 O.2            1 S1                 0.0000
      2 ****         0.3216   0.8569  -1.9816 C.2            1 S1                 0.0000
      3 ****         1.1045  -0.2239  -1.8602 N.am           1 S1                 0.0000
      4 ****         2.5479  -0.1916  -1.6421 C.3            1 S1                 0.0000
      5 ****         2.9309   0.2324  -0.2103 C.3            1 S1                 0.0000
      6 ****         2.3776  -0.7129   0.8719 C.3            1 S1                 0.0000
      7 ****         2.8213  -0.3057   2.2295 N.4            1 S1                 1.0000
      8 ****         2.5591  -1.3527   3.2422 C.3            1 S1                 0.0000
      9 ****         3.8799  -2.1194   3.4388 C.3            1 S1                 0.0000
     10 ****         4.9111  -1.4006   2.5619 C.3            1 S1                 0.0000
     11 ****         4.2735  -0.0346   2.3100 C.3            1 S1                 0.0000
     12 ****         4.8164   0.7538   1.1012 C.3            1 S1                 0.0000
     13 ****         4.3489   0.2055  -0.1228 O.3            1 S1                 0.0000
     14 ****        -0.9603   0.5121  -2.1871 N.am           1 S1                 0.0000
     15 ****        -2.0861   1.3746  -2.3141 C.ar           1 S1                 0.0000
     16 ****        -1.9853   2.6500  -2.9270 C.ar           1 S1                 0.0000
     17 ****        -3.1341   3.4519  -3.0675 C.ar           1 S1                 0.0000
     18 ****        -4.3682   2.9629  -2.6039 C.ar           1 S1                 0.0000
     19 ****        -4.4334   1.7388  -2.0401 N.pl3          1 S1                 1.0000
     20 ****        -3.3625   0.9227  -1.8789 C.ar           1 S1                 0.0000
     21 ****        -3.5469  -0.3291  -1.2534 N.3            1 S1                 0.0000
     22 ****        -2.9375  -0.4387   0.0693 C.3            1 S1                 0.0000
     23 ****        -3.8548  -1.3434   0.8937 C.3            1 S1                 0.0000
     24 ****        -5.2205  -1.1197   0.2565 C.3            1 S1                 0.0000
     25 ****        -4.8738  -0.9437  -1.2210 C.3            1 S1                 0.0000
     26 ****         0.6788  -1.1355  -1.9469 H              1 S1                 0.0000
     27 ****         2.9421  -1.1864  -1.8516 H              1 S1                 0.0000
     28 ****         3.0095   0.4798  -2.3680 H              1 S1                 0.0000
     29 ****         2.5772   1.2495  -0.0321 H              1 S1                 0.0000
     30 ****         1.2873  -0.7249   0.8519 H              1 S1                 0.0000
     31 ****         2.7088  -1.7318   0.6639 H              1 S1                 0.0000
     32 ****         2.2781  -0.8636   4.1757 H              1 S1                 0.0000
     33 ****         1.7338  -2.0088   2.9613 H              1 S1                 0.0000
     34 ****         4.1776  -2.0903   4.4875 H              1 S1                 0.0000
     35 ****         3.7862  -3.1675   3.1533 H              1 S1                 0.0000
     36 ****         5.8898  -1.3266   3.0371 H              1 S1                 0.0000
     37 ****         5.0374  -1.9380   1.6210 H              1 S1                 0.0000
     38 ****         4.4366   0.5684   3.2051 H              1 S1                 0.0000
     39 ****         4.5133   1.7999   1.1656 H              1 S1                 0.0000
     40 ****         5.9066   0.7471   1.1044 H              1 S1                 0.0000
     41 ****        -1.1697  -0.4749  -2.1483 H              1 S1                 0.0000
     42 ****        -1.0455   3.0203  -3.3080 H              1 S1                 0.0000
     43 ****        -3.0696   4.4255  -3.5312 H              1 S1                 0.0000
     44 ****        -5.2992   3.5069  -2.6700 H              1 S1                 0.0000
     45 ****        -1.9298  -0.8500   0.0098 H              1 S1                 0.0000
     46 ****        -2.8707   0.5471   0.5325 H              1 S1                 0.0000
     47 ****        -3.5574  -2.3857   0.7700 H              1 S1                 0.0000
     48 ****        -3.8357  -1.1106   1.9587 H              1 S1                 0.0000
     49 ****        -5.9161  -1.9400   0.4348 H              1 S1                 0.0000
     50 ****        -5.6669  -0.2039   0.6463 H              1 S1                 0.0000
     51 ****        -5.6486  -0.3913  -1.7522 H              1 S1                 0.0000
     52 ****        -4.7972  -1.9194  -1.7018 H              1 S1                 0.0000
     53 ****         2.3186   0.5358   2.4734 H              1 S1                 0.0000
     54 ****        -5.3425   1.4106  -1.7132 H              1 S1                 0.0000
     55 ****         1.7086   2.1808  -1.7205 LP             1 S1                 0.0000
     56 ****         0.1063   2.7800  -1.9919 LP             1 S1                 0.0000
     57 ****         4.7293   0.7359  -0.8805 LP             1 S1                 0.0000
     58 ****         4.6587  -0.7428  -0.1911 LP             1 S1                 0.0000
     59 ****        -3.0473  -0.8736  -1.9272 LP             1 S1                 0.0000
@<TRIPOS>BOND
    1    1    2 2     
    2    2    3 am    
    3    2   14 am    
    4    3    4 1     
    5    3   26 1     
    6    4    5 1     
    7    4   27 1     
    8    4   28 1     
    9    5   13 1     
   10    5    6 1     
   11    5   29 1     
   12    6    7 1     
   13    6   30 1     
   14    6   31 1     
   15    7   11 1     
   16    7    8 1     
   17    7   53 1     
   18    8    9 1     
   19    8   32 1     
   20    8   33 1     
   21    9   10 1     
   22    9   34 1     
   23    9   35 1     
   24   10   11 1     
   25   10   36 1     
   26   10   37 1     
   27   11   12 1     
   28   11   38 1     
   29   12   13 1     
   30   12   39 1     
   31   12   40 1     
   32   14   15 1     
   33   14   41 1     
   34   15   20 ar    
   35   15   16 ar    
   36   16   17 ar    
   37   16   42 1     
   38   17   18 ar    
   39   17   43 1     
   40   18   19 ar    
   41   18   44 1     
   42   19   20 ar    
   43   19   54 1     
   44   20   21 1     
   45   21   25 1     
   46   21   22 1     
   47   22   23 1     
   48   22   45 1     
   49   22   46 1     
   50   23   24 1     
   51   23   47 1     
   52   23   48 1     
   53   24   25 1     
   54   24   49 1     
   55   24   50 1     
   56   25   51 1     
   57   25   52 1     
   58    1   55 1     
   59    1   56 1     
   60   13   57 1     
   61   13   58 1     
   62   21   59 1     
@<TRIPOS>SUBSTRUCTURE
      1 S1             1
@<TRIPOS>SET
LONE_PAIRS      STATIC     ATOMS    <user>   **** ""
5 55 56 57 58 59
DONOR_HYDROGENS      STATIC     ATOMS    <user>   **** ""
4 26 53 41 54
ATOM$BLUE        STATIC     ATOMS    COLORGROUP SYSTEM
5 55 56 57 58 59
ATOM$RED        STATIC     ATOMS    COLORGROUP SYSTEM
4 26 53 41 54
