#       Name:                AV-unprocessed.smi:2929
#       Creating user name   scv26
#       Creation time:       Fri Mar 27 16:13:24 2020


#       File generated by GOLD software.
#

@<TRIPOS>MOLECULE
AV-unprocessed.smi:2929
    36    37     1
SMALL
NO_CHARGES


@<TRIPOS>ATOM
      1 ****        -5.5997   1.9271   1.5038 C.3            1 S1                 0.0000
      2 ****        -5.3140   1.3990  -0.2343 S.o2           1 S1                 0.0000
      3 ****        -5.9698   0.0956  -0.4237 O.2            1 S1                 0.0000
      4 ****        -5.6592   2.5214  -1.1207 O.2            1 S1                 0.0000
      5 ****        -3.5435   1.1550  -0.3178 C.ar           1 S1                 0.0000
      6 ****        -3.0020  -0.1460  -0.3109 C.ar           1 S1                 0.0000
      7 ****        -1.6008  -0.2822  -0.3333 C.ar           1 S1                 0.0000
      8 ****        -0.7986   0.8859  -0.3578 C.ar           1 S1                 0.0000
      9 ****         0.6233   0.8903  -0.3673 N.am           1 S1                 0.0000
     10 ****         1.4725  -0.1159  -0.6387 C.2            1 S1                 0.0000
     11 ****         1.1479  -1.2583  -0.9609 O.2            1 S1                 0.0000
     12 ****         2.7465   0.2855  -0.5277 N.am           1 S1                 0.0000
     13 ****         3.9107  -0.5637  -0.7448 C.3            1 S1                 0.0000
     14 ****         4.2695  -1.4624   0.4229 C.3            1 S1                 0.0000
     15 ****         5.2565  -2.5917   0.2412 C.3            1 S1                 0.0000
     16 ****         3.7981  -2.8973   0.4809 C.3            1 S1                 0.0000
     17 ****        -1.4550   2.1355  -0.3366 C.ar           1 S1                 0.0000
     18 ****        -2.7965   2.2790  -0.3125 N.ar           1 S1                 0.0000
     19 ****        -6.6637   2.1030   1.6594 H              1 S1                 0.0000
     20 ****        -5.0470   2.8459   1.6997 H              1 S1                 0.0000
     21 ****        -5.2571   1.1457   2.1817 H              1 S1                 0.0000
     22 ****        -3.6371  -1.0188  -0.2853 H              1 S1                 0.0000
     23 ****        -1.1790  -1.2744  -0.3161 H              1 S1                 0.0000
     24 ****         1.0500   1.7859  -0.1799 H              1 S1                 0.0000
     25 ****         2.9241   1.2437  -0.2643 H              1 S1                 0.0000
     26 ****         3.7742  -1.1658  -1.6450 H              1 S1                 0.0000
     27 ****         4.7610   0.0892  -0.9425 H              1 S1                 0.0000
     28 ****         4.3351  -0.9374   1.3742 H              1 S1                 0.0000
     29 ****         5.6478  -2.7689  -0.7586 H              1 S1                 0.0000
     30 ****         5.9516  -2.7866   1.0555 H              1 S1                 0.0000
     31 ****         3.5190  -3.2936   1.4551 H              1 S1                 0.0000
     32 ****         3.2195  -3.2762  -0.3594 H              1 S1                 0.0000
     33 ****        -0.8848   3.0530  -0.3378 H              1 S1                 0.0000
     34 ****         0.1807  -1.5001  -1.0388 LP             1 S1                 0.0000
     35 ****         1.8513  -1.9449  -1.1447 LP             1 S1                 0.0000
     36 ****        -3.2212   3.1841  -0.2915 LP             1 S1                 0.0000
@<TRIPOS>BOND
    1    1    2 1     
    2    1   19 1     
    3    1   20 1     
    4    1   21 1     
    5    2    3 2     
    6    2    4 2     
    7    2    5 1     
    8    5   18 ar    
    9    5    6 ar    
   10    6    7 ar    
   11    6   22 1     
   12    7    8 ar    
   13    7   23 1     
   14    8    9 1     
   15    8   17 ar    
   16    9   10 am    
   17    9   24 1     
   18   10   11 2     
   19   10   12 am    
   20   12   13 1     
   21   12   25 1     
   22   13   14 1     
   23   13   26 1     
   24   13   27 1     
   25   14   16 1     
   26   14   15 1     
   27   14   28 1     
   28   15   16 1     
   29   15   29 1     
   30   15   30 1     
   31   16   31 1     
   32   16   32 1     
   33   17   18 ar    
   34   17   33 1     
   35   11   34 1     
   36   11   35 1     
   37   18   36 1     
@<TRIPOS>SUBSTRUCTURE
      1 S1             1
@<TRIPOS>SET
LONE_PAIRS      STATIC     ATOMS    <user>   **** ""
5 3 4 34 35 36
DONOR_HYDROGENS      STATIC     ATOMS    <user>   **** ""
2 24 25
ATOM$BLUE        STATIC     ATOMS    COLORGROUP SYSTEM
5 3 4 34 35 36
ATOM$RED        STATIC     ATOMS    COLORGROUP SYSTEM
2 24 25
