AV-unprocessed.smi:2888|AV-procd|sdf|11105|dock9
  -GOLD-   2272015573D 1   1.00000     0.00000
 Structure written by MMmdl.
 34 36  0  0  0  0  0  0  0  0  2 V2000
  153.2217  140.6977  159.2641 C   0  0  0  0  0  0  0  0  0  0  0  0
  152.4255  141.8493  158.6880 C   0  0  0  0  0  0  0  0  0  0  0  0
  152.5280  143.1515  159.2069 C   0  0  0  0  0  0  0  0  0  0  0  0
  151.7385  144.1415  158.5904 C   0  0  0  0  0  0  0  0  0  0  0  0
  151.7555  145.5844  159.0477 C   0  0  0  0  0  0  0  0  0  0  0  0
  150.9317  143.8174  157.5488 N   0  3  0  0  0  0  0  0  0  0  0  0
  150.8860  142.5523  157.1035 C   0  0  0  0  0  0  0  0  0  0  0  0
  150.0499  142.2819  156.0356 N   0  0  0  0  0  0  0  0  0  0  0  0
  149.8888  140.9618  155.4376 C   0  0  1  0  0  0  0  0  0  0  0  0
  149.0671  140.0023  156.3021 C   0  0  0  0  0  0  0  0  0  0  0  0
  147.9875  139.5361  155.3147 C   0  0  1  0  0  0  0  0  0  0  0  0
  146.9343  140.6260  155.0765 C   0  0  0  0  0  0  0  0  0  0  0  0
  147.7107  141.6264  154.2222 C   0  0  0  0  0  0  0  0  0  0  0  0
  149.0907  140.9542  154.1189 C   0  0  2  0  0  0  0  0  0  0  0  0
  148.6986  139.5923  154.0890 O   0  0  0  0  0  0  0  0  0  0  0  0
  151.6129  141.5668  157.6502 N   0  0  0  0  0  0  0  0  0  0  0  0
  153.7751  141.0065  160.1513 H   0  0  0  0  0  0  0  0  0  0  0  0
  153.9359  140.3253  158.5293 H   0  0  0  0  0  0  0  0  0  0  0  0
  152.5589  139.8789  159.5451 H   0  0  0  0  0  0  0  0  0  0  0  0
  153.1797  143.3819  160.0374 H   0  0  0  0  0  0  0  0  0  0  0  0
  152.3273  145.6974  159.9694 H   0  0  0  0  0  0  0  0  0  0  0  0
  150.7410  145.9389  159.2320 H   0  0  0  0  0  0  0  0  0  0  0  0
  152.2092  146.2175  158.2847 H   0  0  0  0  0  0  0  0  0  0  0  0
  149.6570  143.0716  155.5445 H   0  0  0  0  0  0  0  0  0  0  0  0
  150.8738  140.5246  155.2686 H   0  0  0  0  0  0  0  0  0  0  0  0
  149.6852  139.1650  156.6276 H   0  0  0  0  0  0  0  0  0  0  0  0
  148.6349  140.4673  157.1893 H   0  0  0  0  0  0  0  0  0  0  0  0
  147.5660  138.5578  155.5474 H   0  0  0  0  0  0  0  0  0  0  0  0
  146.0827  140.2298  154.5220 H   0  0  0  0  0  0  0  0  0  0  0  0
  146.5652  141.0585  156.0073 H   0  0  0  0  0  0  0  0  0  0  0  0
  147.2543  141.7136  153.2354 H   0  0  0  0  0  0  0  0  0  0  0  0
  147.7497  142.6235  154.6613 H   0  0  0  0  0  0  0  0  0  0  0  0
  149.6688  141.2681  153.2492 H   0  0  0  0  0  0  0  0  0  0  0  0
  150.3668  144.5448  157.1101 H   0  0  0  0  0  0  0  0  0  0  0  0
  1  2  1  0  0  0  0
  1 17  1  0  0  0  0
  1 18  1  0  0  0  0
  1 19  1  0  0  0  0
  2 16  1  0  0  0  0
  2  3  2  0  0  0  0
  3  4  1  0  0  0  0
  3 20  1  0  0  0  0
  4  5  1  0  0  0  0
  4  6  2  0  0  0  0
  5 21  1  0  0  0  0
  5 22  1  0  0  0  0
  5 23  1  0  0  0  0
  6  7  1  0  0  0  0
  6 34  1  0  0  0  0
  7  8  1  0  0  0  0
  7 16  2  0  0  0  0
  8  9  1  0  0  0  0
  8 24  1  0  0  0  0
  9 14  1  0  0  0  0
  9 10  1  0  0  0  0
  9 25  1  0  0  0  0
 10 11  1  0  0  0  0
 10 26  1  0  0  0  0
 10 27  1  0  0  0  0
 11 15  1  0  0  0  0
 11 12  1  0  0  0  0
 11 28  1  0  0  0  0
 12 13  1  0  0  0  0
 12 29  1  0  0  0  0
 12 30  1  0  0  0  0
 13 14  1  0  0  0  0
 13 31  1  0  0  0  0
 13 32  1  0  0  0  0
 14 15  1  0  0  0  0
 14 33  1  0  0  0  0
M  CHG  1   6   1
M  END
> <s_m_source_file>
AV-unprocessed.smi

> <i_m_source_file_index>
2888

> <i_lp_mmshare_version>
43012

> <i_f3d_flags>
0

> <s_epik_input>
W0NIM11jMVtjSF1jKFtDSDNdKW5jKG4xKVtOSF1bQ0BIXShbQ0gyXVtDQEBIXTIzKVtDQEBIXShPMylbQ0gyXVtDSDJdMg==

> <s_epik_cmdline>
J2VwaWtfcHl0aG9uJywgJy1waCcsICc3LjAnLCAnLXRuJywgJzgnLCAnLW1hJywgJzIwMCcsICctbWV0YWxfYmluZGluZycsICctaW1hZScsICc8aW5maWxlLm1hZT4nLCAnLW9tYWUnLCAnPG91dGZpbGUubWFlPic=

> <r_lp_tautomer_probability>
0.505494

> <r_epik_Ionization_Penalty>
2.49163

> <r_epik_Ionization_Penalty_Charging>
2.49163

> <r_epik_Ionization_Penalty_Neutral>
3.7631e-06

> <r_epik_State_Penalty>
2.656

> <r_epik_Charging_Adjusted_Penalty>
5.14762

> <i_epik_Tot_Q>
1

> <i_epik_Tot_abs_Q>
1

> <r_epik_Metal_State_Penalty>
2.66479

> <b_epik_Metal_Only>
0

> <s_lp_Force_Field>
OPLS_2005

> <r_lp_Energy>
36.4531

> <b_lp_Chiralities_Consistent>
1

> <s_lp_Variant>
AV-unprocessed.smi:2888-6

> <Gold.Version>
5.8.1

> <Gold.Id.Protein>
6NUR|6NUR_protein|mol2

> <Gold.PLP.Fitness>
41.0591

> <Gold.PLP.PLP>
-30.7706

> <Gold.PLP.part.hbond>
-2.0000

> <Gold.PLP.part.metal>
0.0000

> <Gold.PLP.part.buried>
-2.1153

> <Gold.PLP.part.nonpolar>
-26.6414

> <Gold.PLP.part.repulsive>
0.5924

> <Gold.PLP.ligand.clash>
0.0000

> <Gold.PLP.ligand.torsion>
0.1269

> <Gold.PLP.Chemscore.Hbond>
3.5112

> <Gold.PLP.Chemscore.CHOScore>
0.0000

> <Gold.PLP.Chemscore.Metal>
0.0000

> <Gold.Chemscore.Hbonds>
donor molecule, donor type, donor heavy atom, donor atom, acceptor molecule, acceptor atom, score
      L1  H     6    34       P1  8028  1.56
      L1  H     8    24       P1  8028  1.92

> <Gold.PLP.Chemscore.Internal.Correction>
0.0088

> <Gold.Rescore>
     Score         DG    S(hbond)    S(metal)    S(lipo)     H(rot)  DE(clash)    DE(int)     intcor
     18.05     -18.18       1.63        0.00      83.99       1.00       0.02       0.11       ----

> <Gold.Chemscore.Fitness>
18.0536

> <Gold.Chemscore.DG>
-18.1848

> <Gold.Chemscore.ZeroCoef>
-5.4800

> <Gold.Chemscore.Hbond>
1.6280

> <Gold.Chemscore.Metal>
0.0000

> <Gold.Chemscore.Lipo>
83.9934

> <Gold.Chemscore.Internal_Hbond>
0.0000

> <Gold.Chemscore.DEClash>
0.0237

> <Gold.Chemscore.DEInternal>
0.1075

> <Gold.Chemscore.Rot>
1.0000

> <Gold.Chemscore.Internal.Correction>
   9.000000E+99

> <Gold.Chemscore.Hbonds>
donor molecule, donor type, donor heavy atom, donor atom, acceptor molecule, acceptor atom, score
      L1  H     6    34       P1  8028  0.52
      L1  H     8    24       P1  8028  0.92

> <Gold.Chemscore.Hbond.Weighted>
-5.4376

> <Gold.Chemscore.Metal.Weighted>
-0.0000

> <Gold.Chemscore.Lipo.Weighted>
-9.8272

> <Gold.Chemscore.Internal_Hbond.Weighted>
0.0000

> <Gold.Chemscore.DEClash.Weighted>
0.0237

> <Gold.Chemscore.DEInternal.Weighted>
0.1075

> <Gold.Chemscore.Rot.Weighted>
2.5600

> <Gold.Chemscore.Internal.Correction.Weighted>
   9.000000E+99

> <Gold.Protein.RotatedTorsions>
[ 6907 6896 6895 6894 ] final   -0.68 input  -60.11 | X-H torsion
[ 7974 7965 7964 7962 ] final  160.73 input  175.53 | X-H torsion
[ 8008 7997 7996 7995 ] final  129.54 input   59.86 | X-H torsion
[ 10167 10162 10161 10158 ] final   63.49 input  -65.29 | X-H torsion
[ 10718 10713 10712 10709 ] final  103.64 input   66.30 | X-H torsion
[ 10763 10752 10751 10750 ] final   90.65 input  -60.55 | X-H torsion
[ 11005 11000 10999 10996 ] final  -53.87 input  -57.11 | X-H torsion

> <Gold.Protein.ActiveResidues>
 VAL166  LYS551  ARG553  GLY616  TRP617  ASP618  TYR619  PRO620  LYS621  CYS622 
 ASP623  PHE694  ASN695  SER759  ASP760  ASP761  ALA762  ILE779  LEU786  VAL792 
 PHE793  MET794  SER795  GLU796  ALA797  LYS798  CYS799  TRP800  GLU811  SER814 

> <Gold.Protein.RotatedAtoms>
  151.5584  135.1066  159.9966 H   0  0  0  0  0  0  0  0  0  0  0  0  # atno 6907 bound_to 6896
  152.4458  133.7530  159.6715 H   0  0  0  0  0  0  0  0  0  0  0  0  # atno 6908 bound_to 6896
  150.8374  133.7924  159.3098 H   0  0  0  0  0  0  0  0  0  0  0  0  # atno 6909 bound_to 6896
  144.7722  139.7798  143.6292 H   0  0  0  0  0  0  0  0  0  0  0  0  # atno 7974 bound_to 7965
  156.2938  140.2618  156.2616 H   0  0  0  0  0  0  0  0  0  0  0  0  # atno 8008 bound_to 7997
  154.9783  140.0390  157.2284 H   0  0  0  0  0  0  0  0  0  0  0  0  # atno 8009 bound_to 7997
  154.7795  140.2792  155.6079 H   0  0  0  0  0  0  0  0  0  0  0  0  # atno 8010 bound_to 7997
  140.1325  144.4630  150.6857 H   0  0  0  0  0  0  0  0  0  0  0  0  # atno 10167 bound_to 10162
  157.6766  131.0784  150.5585 H   0  0  0  0  0  0  0  0  0  0  0  0  # atno 10718 bound_to 10713
  153.1998  135.4426  155.0253 H   0  0  0  0  0  0  0  0  0  0  0  0  # atno 10763 bound_to 10752
  154.8140  135.3307  154.7229 H   0  0  0  0  0  0  0  0  0  0  0  0  # atno 10764 bound_to 10752
  153.7675  135.6987  153.4968 H   0  0  0  0  0  0  0  0  0  0  0  0  # atno 10765 bound_to 10752
  141.0997  133.6619  156.4235 H   0  0  0  0  0  0  0  0  0  0  0  0  # atno 11005 bound_to 11000
  146.1876  139.5099  142.9826 LP  0  0  0  0  0  0  0  0  0  0  0  0  # atno 17320 bound_to 7965
  145.6291  141.0307  143.1873 LP  0  0  0  0  0  0  0  0  0  0  0  0  # atno 17321 bound_to 7965
  140.6809  143.2326  151.5387 LP  0  0  0  0  0  0  0  0  0  0  0  0  # atno 17342 bound_to 10162
  139.5513  144.2389  152.1534 LP  0  0  0  0  0  0  0  0  0  0  0  0  # atno 17343 bound_to 10162
  156.5889  130.4324  149.5945 LP  0  0  0  0  0  0  0  0  0  0  0  0  # atno 17370 bound_to 10713
  156.2600  130.6957  151.1722 LP  0  0  0  0  0  0  0  0  0  0  0  0  # atno 17371 bound_to 10713
  140.5052  134.6448  157.5263 LP  0  0  0  0  0  0  0  0  0  0  0  0  # atno 17394 bound_to 11000
  139.9845  134.7084  155.9799 LP  0  0  0  0  0  0  0  0  0  0  0  0  # atno 17395 bound_to 11000

$$$$
