#       Name:                AV-unprocessed.smi:160
#       Creating user name   scv26
#       Creation time:       Thu Mar 26 19:04:20 2020


#       File generated by GOLD software.
#

@<TRIPOS>MOLECULE
AV-unprocessed.smi:160
    41    42     1
SMALL
NO_CHARGES


@<TRIPOS>ATOM
      1 ****        -3.4788   2.0709   0.2406 N.am           1 S1                 0.0000
      2 ****        -3.9122   0.9013  -0.2412 C.2            1 S1                 0.0000
      3 ****        -5.1044   0.6700  -0.4358 O.2            1 S1                 0.0000
      4 ****        -2.8557  -0.1265  -0.5383 C.2            1 S1                 0.0000
      5 ****        -3.1835  -1.3513  -1.0472 N.2            1 S1                 0.0000
      6 ****        -1.9664  -1.8723  -1.1361 C.2            1 S1                 0.0000
      7 ****        -0.9901  -1.0588  -0.7207 N.pl3          1 S1                 0.0000
      8 ****         0.4919  -1.2856  -0.6719 C.3            1 S1                 0.0000
      9 ****         1.1280  -0.1270  -1.1248 O.3            1 S1                 0.0000
     10 ****         1.6476   0.6008  -0.0164 C.3            1 S1                 0.0000
     11 ****         2.7642   1.5437  -0.4893 C.3            1 S1                 0.0000
     12 ****         2.2057   2.7395  -0.9903 O.3            1 S1                 0.0000
     13 ****         2.1366  -0.5349   0.8832 C.3            1 S1                 0.0000
     14 ****         2.3720  -0.1213   2.2165 O.3            1 S1                 0.0000
     15 ****         1.0269  -1.5777   0.7514 C.3            1 S1                 0.0000
     16 ****         0.0502  -1.4719   1.7767 O.3            1 S1                 0.0000
     17 ****        -1.5604   0.1059  -0.3213 N.2            1 S1                 0.0000
     18 ****         0.6646  -2.1016  -1.3746 H              1 S1                 0.0000
     19 ****         0.8504   1.1534   0.4848 H              1 S1                 0.0000
     20 ****         3.0605  -0.9471   0.4746 H              1 S1                 0.0000
     21 ****         1.4393  -2.5868   0.7792 H              1 S1                 0.0000
     22 ****        -4.1391   2.8020   0.4597 H              1 S1                 0.0000
     23 ****        -2.4890   2.2144   0.3820 H              1 S1                 0.0000
     24 ****        -1.7829  -2.8690  -1.5098 H              1 S1                 0.0000
     25 ****         3.4104   1.8104   0.3474 H              1 S1                 0.0000
     26 ****         3.3913   1.0704  -1.2455 H              1 S1                 0.0000
     27 ****         2.9089   3.3100  -1.2606 H              1 S1                 0.0000
     28 ****         2.5661  -0.8854   2.7374 H              1 S1                 0.0000
     29 ****        -0.6519  -2.0758   1.5892 H              1 S1                 0.0000
     30 ****        -5.7892   1.3698  -0.2323 LP             1 S1                 0.0000
     31 ****        -5.3889  -0.2178  -0.7975 LP             1 S1                 0.0000
     32 ****        -4.0746  -1.7393  -1.2824 LP             1 S1                 0.0000
     33 ****         0.4698   0.4426  -1.6171 LP             1 S1                 0.0000
     34 ****         1.8769  -0.3773  -1.7384 LP             1 S1                 0.0000
     35 ****         1.6662   3.1848  -0.2757 LP             1 S1                 0.0000
     36 ****         1.6179   2.5349  -1.7730 LP             1 S1                 0.0000
     37 ****         1.5583   0.3349   2.5769 LP             1 S1                 0.0000
     38 ****         3.1470   0.5102   2.2420 LP             1 S1                 0.0000
     39 ****        -0.3074  -0.5385   1.8059 LP             1 S1                 0.0000
     40 ****         0.4625  -1.6986   2.6591 LP             1 S1                 0.0000
     41 ****        -1.1219   0.9278   0.0425 LP             1 S1                 0.0000
@<TRIPOS>BOND
    1    1    2 am    
    2    1   22 1     
    3    1   23 1     
    4    2    3 2     
    5    2    4 1     
    6    4   17 2     
    7    4    5 1     
    8    5    6 2     
    9    6    7 1     
   10    6   24 1     
   11    7    8 1     
   12    7   17 1     
   13    8   18 1     
   14    8   15 1     
   15    8    9 1     
   16    9   10 1     
   17   10   19 1     
   18   10   11 1     
   19   10   13 1     
   20   11   12 1     
   21   11   25 1     
   22   11   26 1     
   23   12   27 1     
   24   13   20 1     
   25   13   14 1     
   26   13   15 1     
   27   14   28 1     
   28   15   21 1     
   29   15   16 1     
   30   16   29 1     
   31    3   30 1     
   32    3   31 1     
   33    5   32 1     
   34    9   33 1     
   35    9   34 1     
   36   12   35 1     
   37   12   36 1     
   38   14   37 1     
   39   14   38 1     
   40   16   39 1     
   41   16   40 1     
   42   17   41 1     
@<TRIPOS>SUBSTRUCTURE
      1 S1             1
@<TRIPOS>SET
LONE_PAIRS      STATIC     ATOMS    <user>   **** ""
12 30 31 32 33 34 35 36 37 38 39 40 41
DONOR_HYDROGENS      STATIC     ATOMS    <user>   **** ""
5 22 23 27 28 29
ATOM$BLUE        STATIC     ATOMS    COLORGROUP SYSTEM
12 30 31 32 33 34 35 36 37 38 39 40 41
ATOM$RED        STATIC     ATOMS    COLORGROUP SYSTEM
5 22 23 27 28 29
