AV-unprocessed.smi:3308|AV-procd|sdf|12712|dock10
  -GOLD-   2272019 43D 1   1.00000     0.00000
 Structure written by MMmdl.
 40 41  0  0  0  0  0  0  0  0  1 V2000
  150.6056  138.8179  154.4893 C   0  0  0  0  0  0  0  0  0  0  0  0
  150.7039  140.0714  155.3849 C   0  0  2  0  0  0  0  0  0  0  0  0
  151.6986  139.8874  156.4385 N   0  0  0  0  0  0  0  0  0  0  0  0
  151.6989  140.9580  157.4432 C   0  0  0  0  0  0  0  0  0  0  0  0
  152.7176  140.6757  158.5524 C   0  0  0  0  0  0  0  0  0  0  0  0
  153.4082  139.6596  158.4739 O   0  0  0  0  0  0  0  0  0  0  0  0
  152.8252  141.5434  159.5810 N   0  0  0  0  0  0  0  0  0  0  0  0
  153.7480  141.4281  160.7105 C   0  0  0  0  0  0  0  0  0  0  0  0
  153.6589  142.7604  161.4552 C   0  0  0  0  0  0  0  0  0  0  0  0
  152.2742  143.2891  161.1095 C   0  0  0  0  0  0  0  0  0  0  0  0
  152.0104  142.7509  159.7032 C   0  0  0  0  0  0  0  0  0  0  0  0
  149.3602  140.4904  156.0406 C   0  0  2  0  0  0  0  0  0  0  0  0
  148.9185  139.5872  157.2121 C   0  0  0  0  0  0  0  0  0  0  0  0
  148.3007  140.6199  155.0448 N   0  0  0  0  0  0  0  0  0  0  0  0
  147.5062  141.7100  154.7414 C   0  0  0  0  0  0  0  0  0  0  0  0
  146.6356  141.3250  153.7631 C   0  0  0  0  0  0  0  0  0  0  0  0
  146.9652  139.9605  153.5364 C   0  0  0  0  0  0  0  0  0  0  0  0
  147.9535  139.5405  154.3086 N   0  0  0  0  0  0  0  0  0  0  0  0
  149.8400  138.9350  153.7232 H   0  0  0  0  0  0  0  0  0  0  0  0
  150.3640  137.9260  155.0673 H   0  0  0  0  0  0  0  0  0  0  0  0
  151.5389  138.6243  153.9616 H   0  0  0  0  0  0  0  0  0  0  0  0
  151.0267  140.9081  154.7630 H   0  0  0  0  0  0  0  0  0  0  0  0
  152.6118  139.7612  156.0258 H   0  0  0  0  0  0  0  0  0  0  0  0
  151.9552  141.9077  156.9742 H   0  0  0  0  0  0  0  0  0  0  0  0
  150.7041  141.0803  157.8731 H   0  0  0  0  0  0  0  0  0  0  0  0
  153.4222  140.6104  161.3547 H   0  0  0  0  0  0  0  0  0  0  0  0
  154.7721  141.2265  160.3939 H   0  0  0  0  0  0  0  0  0  0  0  0
  153.8167  142.6566  162.5289 H   0  0  0  0  0  0  0  0  0  0  0  0
  154.4161  143.4448  161.0708 H   0  0  0  0  0  0  0  0  0  0  0  0
  151.5419  142.8733  161.8030 H   0  0  0  0  0  0  0  0  0  0  0  0
  152.2089  144.3760  161.1663 H   0  0  0  0  0  0  0  0  0  0  0  0
  152.3316  143.4720  158.9501 H   0  0  0  0  0  0  0  0  0  0  0  0
  150.9493  142.5491  159.5490 H   0  0  0  0  0  0  0  0  0  0  0  0
  149.5035  141.4872  156.4631 H   0  0  0  0  0  0  0  0  0  0  0  0
  149.6482  139.5995  158.0218 H   0  0  0  0  0  0  0  0  0  0  0  0
  148.7865  138.5500  156.9050 H   0  0  0  0  0  0  0  0  0  0  0  0
  147.9720  139.9299  157.6313 H   0  0  0  0  0  0  0  0  0  0  0  0
  147.6196  142.6608  155.2404 H   0  0  0  0  0  0  0  0  0  0  0  0
  145.8750  141.9252  153.2863 H   0  0  0  0  0  0  0  0  0  0  0  0
  146.5158  139.2662  152.8418 H   0  0  0  0  0  0  0  0  0  0  0  0
  1  2  1  0  0  0  0
  1 19  1  0  0  0  0
  1 20  1  0  0  0  0
  1 21  1  0  0  0  0
  2  3  1  0  0  0  0
  2 12  1  0  0  0  0
  2 22  1  0  0  0  0
  3  4  1  0  0  0  0
  3 23  1  0  0  0  0
  4  5  1  0  0  0  0
  4 24  1  0  0  0  0
  4 25  1  0  0  0  0
  5  6  2  0  0  0  0
  5  7  1  0  0  0  0
  7 11  1  0  0  0  0
  7  8  1  0  0  0  0
  8  9  1  0  0  0  0
  8 26  1  0  0  0  0
  8 27  1  0  0  0  0
  9 10  1  0  0  0  0
  9 28  1  0  0  0  0
  9 29  1  0  0  0  0
 10 11  1  0  0  0  0
 10 30  1  0  0  0  0
 10 31  1  0  0  0  0
 11 32  1  0  0  0  0
 11 33  1  0  0  0  0
 12 13  1  0  0  0  0
 12 14  1  0  0  0  0
 12 34  1  0  0  0  0
 13 35  1  0  0  0  0
 13 36  1  0  0  0  0
 13 37  1  0  0  0  0
 14 18  1  0  0  0  0
 14 15  1  0  0  0  0
 15 16  2  0  0  0  0
 15 38  1  0  0  0  0
 16 17  1  0  0  0  0
 16 39  1  0  0  0  0
 17 18  2  0  0  0  0
 17 40  1  0  0  0  0
M  END
> <s_m_source_file>
AV-unprocessed.smi

> <i_m_source_file_index>
3308

> <i_lp_mmshare_version>
43012

> <i_f3d_flags>
0

> <s_epik_input>
bjFbY0hdW2NIXVtjSF1uMVtDQEBIXShbQ0gzXSlbQ0BIXShbQ0gzXSlbTkhdW0NIMl1DKD1PKU4yW0NIMl1bQ0gyXVtDSDJdW0NIMl0y

> <s_epik_cmdline>
J2VwaWtfcHl0aG9uJywgJy1waCcsICc3LjAnLCAnLXRuJywgJzgnLCAnLW1hJywgJzIwMCcsICctbWV0YWxfYmluZGluZycsICctaW1hZScsICc8aW5maWxlLm1hZT4nLCAnLW9tYWUnLCAnPG91dGZpbGUubWFlPic=

> <r_lp_tautomer_probability>
1

> <r_epik_Ionization_Penalty>
0.918676

> <r_epik_Ionization_Penalty_Charging>
0

> <r_epik_Ionization_Penalty_Neutral>
0.918676

> <r_epik_State_Penalty>
0.958258

> <r_epik_Charging_Adjusted_Penalty>
0.958258

> <i_epik_Tot_Q>
0

> <i_epik_Tot_abs_Q>
0

> <r_epik_Metal_State_Penalty>
0.956879

> <b_epik_Metal_Only>
0

> <s_lp_Force_Field>
OPLS_2005

> <r_lp_Energy>
37.0374

> <b_lp_Chiralities_Consistent>
1

> <s_lp_Variant>
AV-unprocessed.smi:3308-5

> <Gold.Version>
5.8.1

> <Gold.Id.Protein>
6NUR|6NUR_protein|mol2

> <Gold.PLP.Fitness>
42.4790

> <Gold.PLP.PLP>
-36.8560

> <Gold.PLP.part.hbond>
-1.0000

> <Gold.PLP.part.metal>
0.0000

> <Gold.PLP.part.buried>
-3.1097

> <Gold.PLP.part.nonpolar>
-32.0128

> <Gold.PLP.part.repulsive>
0.1413

> <Gold.PLP.ligand.clash>
0.0000

> <Gold.PLP.ligand.torsion>
0.2661

> <Gold.PLP.Chemscore.Hbond>
1.0000

> <Gold.PLP.Chemscore.CHOScore>
1.0000

> <Gold.PLP.Chemscore.Metal>
0.0000

> <Gold.Chemscore.Hbonds>
donor molecule, donor type, donor heavy atom, donor atom, acceptor molecule, acceptor atom, score
      P1  H  7997  8010       L1     6  1.00
      L1  C    15    38       P1  8028  1.00

> <Gold.PLP.Chemscore.Internal.Correction>
0.1553

> <Gold.Rescore>
     Score         DG    S(hbond)    S(metal)    S(lipo)     H(rot)  DE(clash)    DE(int)     intcor
     14.48     -15.05       0.94        0.00      92.54       1.72       0.18       0.38       ----

> <Gold.Chemscore.Fitness>
14.4799

> <Gold.Chemscore.DG>
-15.0453

> <Gold.Chemscore.ZeroCoef>
-5.4800

> <Gold.Chemscore.Hbond>
0.9403

> <Gold.Chemscore.Metal>
0.0000

> <Gold.Chemscore.Lipo>
92.5443

> <Gold.Chemscore.Internal_Hbond>
0.0000

> <Gold.Chemscore.DEClash>
0.1845

> <Gold.Chemscore.DEInternal>
0.3809

> <Gold.Chemscore.Rot>
1.7200

> <Gold.Chemscore.Internal.Correction>
   9.000000E+99

> <Gold.Chemscore.Hbonds>
donor molecule, donor type, donor heavy atom, donor atom, acceptor molecule, acceptor atom, score
      P1  H  7997  8010       L1     6  0.39

> <Gold.Chemscore.Hbond.Weighted>
-3.1407

> <Gold.Chemscore.Metal.Weighted>
-0.0000

> <Gold.Chemscore.Lipo.Weighted>
-10.8277

> <Gold.Chemscore.Internal_Hbond.Weighted>
0.0000

> <Gold.Chemscore.DEClash.Weighted>
0.1845

> <Gold.Chemscore.DEInternal.Weighted>
0.3809

> <Gold.Chemscore.Rot.Weighted>
4.4031

> <Gold.Chemscore.Internal.Correction.Weighted>
   9.000000E+99

> <Gold.Protein.RotatedTorsions>
[ 6907 6896 6895 6894 ] final  -37.15 input  -60.11 | X-H torsion
[ 7974 7965 7964 7962 ] final  -26.90 input  175.53 | X-H torsion
[ 8008 7997 7996 7995 ] final   35.55 input   59.86 | X-H torsion
[ 10167 10162 10161 10158 ] final -141.79 input  -65.29 | X-H torsion
[ 10718 10713 10712 10709 ] final    1.10 input   66.30 | X-H torsion
[ 10763 10752 10751 10750 ] final -119.11 input  -60.55 | X-H torsion
[ 11005 11000 10999 10996 ] final  -80.69 input  -57.11 | X-H torsion

> <Gold.Protein.ActiveResidues>
 VAL166  LYS551  ARG553  GLY616  TRP617  ASP618  TYR619  PRO620  LYS621  CYS622 
 ASP623  PHE694  ASN695  SER759  ASP760  ASP761  ALA762  ILE779  LEU786  VAL792 
 PHE793  MET794  SER795  GLU796  ALA797  LYS798  CYS799  TRP800  GLU811  SER814 

> <Gold.Protein.RotatedAtoms>
  151.0182  134.9449  159.8044 H   0  0  0  0  0  0  0  0  0  0  0  0  # atno 6907 bound_to 6896
  152.5319  134.2938  159.9063 H   0  0  0  0  0  0  0  0  0  0  0  0  # atno 6908 bound_to 6896
  151.2945  133.4108  159.2669 H   0  0  0  0  0  0  0  0  0  0  0  0  # atno 6909 bound_to 6896
  146.1394  140.5080  142.8658 H   0  0  0  0  0  0  0  0  0  0  0  0  # atno 7974 bound_to 7965
  155.1729  140.3293  155.4389 H   0  0  0  0  0  0  0  0  0  0  0  0  # atno 8008 bound_to 7997
  156.2504  140.1940  156.6781 H   0  0  0  0  0  0  0  0  0  0  0  0  # atno 8009 bound_to 7997
  154.6325  140.0580  156.9735 H   0  0  0  0  0  0  0  0  0  0  0  0  # atno 8010 bound_to 7997
  139.8150  143.7651  152.2665 H   0  0  0  0  0  0  0  0  0  0  0  0  # atno 10167 bound_to 10162
  156.8431  130.5528  149.5676 H   0  0  0  0  0  0  0  0  0  0  0  0  # atno 10718 bound_to 10713
  154.8607  135.4250  154.2246 H   0  0  0  0  0  0  0  0  0  0  0  0  # atno 10763 bound_to 10752
  153.3244  135.6984  153.7008 H   0  0  0  0  0  0  0  0  0  0  0  0  # atno 10764 bound_to 10752
  153.6050  135.3530  155.2932 H   0  0  0  0  0  0  0  0  0  0  0  0  # atno 10765 bound_to 10752
  141.1667  133.7162  156.8310 H   0  0  0  0  0  0  0  0  0  0  0  0  # atno 11005 bound_to 11000
  144.7776  140.5772  143.6627 LP  0  0  0  0  0  0  0  0  0  0  0  0  # atno 17320 bound_to 7965
  145.5081  139.1480  143.3620 LP  0  0  0  0  0  0  0  0  0  0  0  0  # atno 17321 bound_to 7965
  139.7811  144.7444  151.0087 LP  0  0  0  0  0  0  0  0  0  0  0  0  # atno 17342 bound_to 10162
  140.7816  143.4541  151.0371 LP  0  0  0  0  0  0  0  0  0  0  0  0  # atno 17343 bound_to 10162
  156.0869  130.5865  150.9664 LP  0  0  0  0  0  0  0  0  0  0  0  0  # atno 17370 bound_to 10713
  157.6344  131.0917  150.8377 LP  0  0  0  0  0  0  0  0  0  0  0  0  # atno 17371 bound_to 10713
  140.2051  134.8869  157.3212 LP  0  0  0  0  0  0  0  0  0  0  0  0  # atno 17394 bound_to 11000
  140.2146  134.4097  155.7595 LP  0  0  0  0  0  0  0  0  0  0  0  0  # atno 17395 bound_to 11000

$$$$
