AV-unprocessed.smi:2431|AV-procd|sdf|9586|dock1
  -GOLD-   2272013213D 1   1.00000     0.00000
 Structure written by MMmdl.
 36 37  0  0  0  0  0  0  0  0  3 V2000
  146.2806  138.8671  153.9169 O   0  0  0  0  0  0  0  0  0  0  0  0
  147.0887  138.1143  153.3724 C   0  0  0  0  0  0  0  0  0  0  0  0
  146.7315  137.0296  152.6698 N   0  0  0  0  0  0  0  0  0  0  0  0
  145.3577  136.5942  152.4472 C   0  0  0  0  0  0  0  0  0  0  0  0
  145.2229  135.8160  151.1276 C   0  0  0  0  0  0  0  0  0  0  0  0
  145.4090  134.3225  151.3093 C   0  0  0  0  0  0  0  0  0  0  0  0
  146.5230  133.7020  151.6954 C   0  0  0  0  0  0  0  0  0  0  0  0
  146.3641  132.2075  151.7525 C   0  0  0  0  0  0  0  0  0  0  0  0
  144.9130  131.9670  151.2799 C   0  0  0  0  0  0  0  0  0  0  0  0
  144.2869  133.3570  151.0261 C   0  0  0  0  0  0  0  0  0  0  0  0
  148.4234  138.2720  153.3783 N   0  0  0  0  0  0  0  0  0  0  0  0
  149.1913  139.3053  153.9877 C   0  0  0  0  0  0  0  0  0  0  0  0
  148.6947  140.6248  154.1259 C   0  0  0  0  0  0  0  0  0  0  0  0
  149.5066  141.6005  154.7338 C   0  0  0  0  0  0  0  0  0  0  0  0
  150.7430  141.3453  155.2045 N   0  0  0  0  0  0  0  0  0  0  0  0
  151.2103  140.0850  155.0911 C   0  0  0  0  0  0  0  0  0  0  0  0
  150.4841  139.0206  154.5088 C   0  0  0  0  0  0  0  0  0  0  0  0
  151.0949  137.6787  154.4521 N   0  3  0  0  0  0  0  0  0  0  0  0
  152.2974  137.6128  154.2206 O   0  0  0  0  0  0  0  0  0  0  0  0
  150.3873  136.6990  154.6634 O   0  5  0  0  0  0  0  0  0  0  0  0
  147.4600  136.4686  152.2525 H   0  0  0  0  0  0  0  0  0  0  0  0
  145.0643  135.9597  153.2840 H   0  0  0  0  0  0  0  0  0  0  0  0
  144.6885  137.4560  152.4614 H   0  0  0  0  0  0  0  0  0  0  0  0
  144.2421  135.9862  150.6823 H   0  0  0  0  0  0  0  0  0  0  0  0
  145.9599  136.1792  150.4101 H   0  0  0  0  0  0  0  0  0  0  0  0
  147.4539  134.1896  151.9452 H   0  0  0  0  0  0  0  0  0  0  0  0
  147.0892  131.7228  151.0978 H   0  0  0  0  0  0  0  0  0  0  0  0
  146.5210  131.8525  152.7715 H   0  0  0  0  0  0  0  0  0  0  0  0
  144.9037  131.3730  150.3651 H   0  0  0  0  0  0  0  0  0  0  0  0
  144.3451  131.4148  152.0296 H   0  0  0  0  0  0  0  0  0  0  0  0
  143.4454  133.5423  151.6939 H   0  0  0  0  0  0  0  0  0  0  0  0
  143.9439  133.4624  149.9963 H   0  0  0  0  0  0  0  0  0  0  0  0
  148.9474  137.6264  152.8050 H   0  0  0  0  0  0  0  0  0  0  0  0
  147.7088  140.9031  153.7858 H   0  0  0  0  0  0  0  0  0  0  0  0
  149.1501  142.6135  154.8474 H   0  0  0  0  0  0  0  0  0  0  0  0
  152.1993  139.9199  155.4932 H   0  0  0  0  0  0  0  0  0  0  0  0
  1  2  2  0  0  0  0
  2  3  1  0  0  0  0
  2 11  1  0  0  0  0
  3  4  1  0  0  0  0
  3 21  1  0  0  0  0
  4  5  1  0  0  0  0
  4 22  1  0  0  0  0
  4 23  1  0  0  0  0
  5  6  1  0  0  0  0
  5 24  1  0  0  0  0
  5 25  1  0  0  0  0
  6 10  1  0  0  0  0
  6  7  2  0  0  0  0
  7  8  1  0  0  0  0
  7 26  1  0  0  0  0
  8  9  1  0  0  0  0
  8 27  1  0  0  0  0
  8 28  1  0  0  0  0
  9 10  1  0  0  0  0
  9 29  1  0  0  0  0
  9 30  1  0  0  0  0
 10 31  1  0  0  0  0
 10 32  1  0  0  0  0
 11 12  1  0  0  0  0
 11 33  1  0  0  0  0
 12 17  1  0  0  0  0
 12 13  2  0  0  0  0
 13 14  1  0  0  0  0
 13 34  1  0  0  0  0
 14 15  2  0  0  0  0
 14 35  1  0  0  0  0
 15 16  1  0  0  0  0
 16 17  2  0  0  0  0
 16 36  1  0  0  0  0
 17 18  1  0  0  0  0
 18 19  2  0  0  0  0
 18 20  1  0  0  0  0
M  CHG  1  18   1
M  CHG  1  20  -1
M  END
> <s_m_source_file>
AV-unprocessed.smi

> <i_m_source_file_index>
2431

> <i_lp_mmshare_version>
43012

> <i_f3d_flags>
0

> <s_epik_input>
W0NIMl0xW0NIMl1bQ0gyXVtDSF09QzFbQ0gyXVtDSDJdW05IXUMoPU8pW05IXWMyW2NIXVtjSF1uW2NIXWMyW04rXSg9TylbTy1d

> <s_epik_cmdline>
J2VwaWtfcHl0aG9uJywgJy1waCcsICc3LjAnLCAnLXRuJywgJzgnLCAnLW1hJywgJzIwMCcsICctbWV0YWxfYmluZGluZycsICctaW1hZScsICc8aW5maWxlLm1hZT4nLCAnLW9tYWUnLCAnPG91dGZpbGUubWFlPic=

> <r_lp_tautomer_probability>
1

> <r_epik_Ionization_Penalty>
0.000148912

> <r_epik_Ionization_Penalty_Charging>
0

> <r_epik_Ionization_Penalty_Neutral>
0.000148912

> <r_epik_State_Penalty>
-0

> <r_epik_Charging_Adjusted_Penalty>
0

> <i_epik_Tot_Q>
0

> <i_epik_Tot_abs_Q>
2

> <r_epik_Metal_State_Penalty>
-0

> <b_epik_Metal_Only>
0

> <s_lp_Force_Field>
OPLS_2005

> <r_lp_Energy>
28.1068

> <b_lp_Chiralities_Consistent>
1

> <s_lp_Variant>
AV-unprocessed.smi:2431-1

> <Gold.Version>
5.8.1

> <Gold.Id.Protein>
6NUR|6NUR_protein|mol2

> <Gold.PLP.Fitness>
46.3226

> <Gold.PLP.PLP>
-37.2118

> <Gold.PLP.part.hbond>
-4.5927

> <Gold.PLP.part.metal>
0.0000

> <Gold.PLP.part.buried>
-2.7851

> <Gold.PLP.part.nonpolar>
-32.0290

> <Gold.PLP.part.repulsive>
0.9896

> <Gold.PLP.ligand.clash>
0.0000

> <Gold.PLP.ligand.torsion>
1.2125

> <Gold.PLP.Chemscore.Hbond>
2.8320

> <Gold.PLP.Chemscore.CHOScore>
1.0000

> <Gold.PLP.Chemscore.Metal>
0.0000

> <Gold.Chemscore.Hbonds>
donor molecule, donor type, donor heavy atom, donor atom, acceptor molecule, acceptor atom, score
      L1  H     3    21       P1  7948  1.00
      L1  H    11    33       P1  7948  0.99
      P1  H 10752 10763       L1    19  0.66
      L1  C    14    35       P1  8028  1.00

> <Gold.PLP.Chemscore.Internal.Correction>
0.0399

> <Gold.Rescore>
     Score         DG    S(hbond)    S(metal)    S(lipo)     H(rot)  DE(clash)    DE(int)     intcor
     16.87     -20.30       2.83        0.00      78.34       1.48       0.11       3.32       ----

> <Gold.Chemscore.Fitness>
16.8653

> <Gold.Chemscore.DG>
-20.3043

> <Gold.Chemscore.ZeroCoef>
-5.4800

> <Gold.Chemscore.Hbond>
2.8308

> <Gold.Chemscore.Metal>
0.0000

> <Gold.Chemscore.Lipo>
78.3375

> <Gold.Chemscore.Internal_Hbond>
0.0000

> <Gold.Chemscore.DEClash>
0.1147

> <Gold.Chemscore.DEInternal>
3.3244

> <Gold.Chemscore.Rot>
1.4828

> <Gold.Chemscore.Internal.Correction>
   9.000000E+99

> <Gold.Chemscore.Hbonds>
donor molecule, donor type, donor heavy atom, donor atom, acceptor molecule, acceptor atom, score
      L1  H     3    21       P1  7948  0.92
      L1  H    11    33       P1  7948  0.94
      P1  H 10752 10763       L1    19  0.49

> <Gold.Chemscore.Hbond.Weighted>
-9.4548

> <Gold.Chemscore.Metal.Weighted>
-0.0000

> <Gold.Chemscore.Lipo.Weighted>
-9.1655

> <Gold.Chemscore.Internal_Hbond.Weighted>
0.0000

> <Gold.Chemscore.DEClash.Weighted>
0.1147

> <Gold.Chemscore.DEInternal.Weighted>
3.3244

> <Gold.Chemscore.Rot.Weighted>
3.7960

> <Gold.Chemscore.Internal.Correction.Weighted>
   9.000000E+99

> <Gold.Protein.RotatedTorsions>
[ 6907 6896 6895 6894 ] final  -94.99 input  -60.11 | X-H torsion
[ 7974 7965 7964 7962 ] final  -50.94 input  175.53 | X-H torsion
[ 8008 7997 7996 7995 ] final   68.15 input   59.86 | X-H torsion
[ 10167 10162 10161 10158 ] final  103.34 input  -65.29 | X-H torsion
[ 10718 10713 10712 10709 ] final -155.99 input   66.30 | X-H torsion
[ 10763 10752 10751 10750 ] final   43.75 input  -60.55 | X-H torsion
[ 11005 11000 10999 10996 ] final -132.39 input  -57.11 | X-H torsion

> <Gold.Protein.ActiveResidues>
 VAL166  LYS551  ARG553  GLY616  TRP617  ASP618  TYR619  PRO620  LYS621  CYS622 
 ASP623  PHE694  ASN695  SER759  ASP760  ASP761  ALA762  ILE779  LEU786  VAL792 
 PHE793  MET794  SER795  GLU796  ALA797  LYS798  CYS799  TRP800  GLU811  SER814 

> <Gold.Protein.RotatedAtoms>
  150.6954  134.1726  159.4217 H   0  0  0  0  0  0  0  0  0  0  0  0  # atno 6907 bound_to 6896
  151.9704  135.0077  160.0561 H   0  0  0  0  0  0  0  0  0  0  0  0  # atno 6908 bound_to 6896
  152.1847  133.4696  159.5013 H   0  0  0  0  0  0  0  0  0  0  0  0  # atno 6909 bound_to 6896
  145.9244  140.7805  142.9631 H   0  0  0  0  0  0  0  0  0  0  0  0  # atno 7974 bound_to 7965
  155.7039  140.3495  155.4944 H   0  0  0  0  0  0  0  0  0  0  0  0  # atno 8008 bound_to 7997
  155.9416  140.1102  157.1073 H   0  0  0  0  0  0  0  0  0  0  0  0  # atno 8009 bound_to 7997
  154.4104  140.1211  156.4921 H   0  0  0  0  0  0  0  0  0  0  0  0  # atno 8010 bound_to 7997
  139.7272  144.7045  151.0779 H   0  0  0  0  0  0  0  0  0  0  0  0  # atno 10167 bound_to 10162
  156.5203  130.8475  151.2679 H   0  0  0  0  0  0  0  0  0  0  0  0  # atno 10718 bound_to 10713
  152.9854  135.6092  154.3162 H   0  0  0  0  0  0  0  0  0  0  0  0  # atno 10763 bound_to 10752
  154.2874  135.2775  155.2672 H   0  0  0  0  0  0  0  0  0  0  0  0  # atno 10764 bound_to 10752
  154.4983  135.5874  153.6568 H   0  0  0  0  0  0  0  0  0  0  0  0  # atno 10765 bound_to 10752
  140.9174  134.1488  157.4341 H   0  0  0  0  0  0  0  0  0  0  0  0  # atno 11005 bound_to 11000
  144.6757  140.2027  143.7385 LP  0  0  0  0  0  0  0  0  0  0  0  0  # atno 17320 bound_to 7965
  145.8508  139.2174  143.1773 LP  0  0  0  0  0  0  0  0  0  0  0  0  # atno 17321 bound_to 7965
  140.7765  143.5090  150.9676 LP  0  0  0  0  0  0  0  0  0  0  0  0  # atno 17342 bound_to 10162
  139.8778  143.7111  152.3160 LP  0  0  0  0  0  0  0  0  0  0  0  0  # atno 17343 bound_to 10162
  157.7438  130.9919  150.2619 LP  0  0  0  0  0  0  0  0  0  0  0  0  # atno 17370 bound_to 10713
  156.3155  130.3778  149.7622 LP  0  0  0  0  0  0  0  0  0  0  0  0  # atno 17371 bound_to 10713
  139.8769  134.9959  156.5766 LP  0  0  0  0  0  0  0  0  0  0  0  0  # atno 17394 bound_to 11000
  140.8032  133.8489  155.8744 LP  0  0  0  0  0  0  0  0  0  0  0  0  # atno 17395 bound_to 11000

$$$$
