#       Name:                AV-unprocessed.smi:53
#       Creating user name   scv26
#       Creation time:       Thu Mar 26 16:39:27 2020


#       File generated by GOLD software.
#

@<TRIPOS>MOLECULE
AV-unprocessed.smi:53
    41    42     1
SMALL
NO_CHARGES


@<TRIPOS>ATOM
      1 ****        -5.0214  -0.4277   0.0069 N.pl3          1 S1                 0.0000
      2 ****        -3.6893  -0.5543  -0.0736 C.2            1 S1                 0.0000
      3 ****        -2.8526   0.6146  -0.2255 C.2            1 S1                 0.0000
      4 ****        -1.5201   0.4049  -0.3034 C.2            1 S1                 0.0000
      5 ****        -0.9672  -0.8674  -0.2539 N.am           1 S1                 0.0000
      6 ****         0.5291  -1.0734  -0.3317 C.3            1 S1                 0.0000
      7 ****         1.0807  -0.0639  -1.1260 O.3            1 S1                 0.0000
      8 ****         2.2024   0.5200  -0.4708 C.3            1 S1                 0.0000
      9 ****         2.3823   1.9721  -0.9399 C.3            1 S1                 0.0000
     10 ****         3.0832   2.0027  -2.1648 O.3            1 S1                 0.0000
     11 ****         1.8281   0.3948   1.0067 C.3            1 S1                 0.0000
     12 ****         2.9408   0.5093   1.8738 O.3            1 S1                 0.0000
     13 ****         1.1545  -0.9714   1.0692 C.3            1 S1                 0.0000
     14 ****         2.0765  -2.0229   1.2946 O.3            1 S1                 0.0000
     15 ****        -1.8107  -1.9910  -0.0816 C.2            1 S1                 0.0000
     16 ****        -1.3625  -3.1332   0.0092 O.2            1 S1                 0.0000
     17 ****        -3.1583  -1.7598  -0.0074 N.2            1 S1                 0.0000
     18 ****         0.6924  -2.0322  -0.8278 H              1 S1                 0.0000
     19 ****         3.0924  -0.0785  -0.6760 H              1 S1                 0.0000
     20 ****         1.0981   1.1632   1.2652 H              1 S1                 0.0000
     21 ****         0.3905  -1.0119   1.8471 H              1 S1                 0.0000
     22 ****        -5.6032  -1.2457   0.1164 H              1 S1                 0.0000
     23 ****        -5.4411   0.4897  -0.0376 H              1 S1                 0.0000
     24 ****        -3.2414   1.6216  -0.2770 H              1 S1                 0.0000
     25 ****        -0.8812   1.2696  -0.4061 H              1 S1                 0.0000
     26 ****         1.4225   2.4806  -1.0370 H              1 S1                 0.0000
     27 ****         2.9726   2.5307  -0.2130 H              1 S1                 0.0000
     28 ****         3.1927   2.9042  -2.4265 H              1 S1                 0.0000
     29 ****         2.6530   0.3298   2.7561 H              1 S1                 0.0000
     30 ****         2.7584  -1.9677   0.6427 H              1 S1                 0.0000
     31 ****         0.3907   0.6409  -1.2908 LP             1 S1                 0.0000
     32 ****         1.3741  -0.4536  -1.9989 LP             1 S1                 0.0000
     33 ****         2.5637   1.5099  -2.8628 LP             1 S1                 0.0000
     34 ****         3.9792   1.5736  -2.0512 LP             1 S1                 0.0000
     35 ****         3.3145   1.4355   1.8227 LP             1 S1                 0.0000
     36 ****         3.6448  -0.1492   1.6080 LP             1 S1                 0.0000
     37 ****         1.6088  -2.9036   1.2201 LP             1 S1                 0.0000
     38 ****         2.4744  -1.9330   2.2076 LP             1 S1                 0.0000
     39 ****        -0.3757  -3.2883  -0.0383 LP             1 S1                 0.0000
     40 ****        -1.9850  -3.9064   0.1305 LP             1 S1                 0.0000
     41 ****        -3.7698  -2.5433   0.1024 LP             1 S1                 0.0000
@<TRIPOS>BOND
    1    1    2 1     
    2    1   22 1     
    3    1   23 1     
    4    2   17 2     
    5    2    3 1     
    6    3    4 2     
    7    3   24 1     
    8    4    5 1     
    9    4   25 1     
   10    5    6 1     
   11    5   15 am    
   12    6   18 1     
   13    6   13 1     
   14    6    7 1     
   15    7    8 1     
   16    8   19 1     
   17    8    9 1     
   18    8   11 1     
   19    9   10 1     
   20    9   26 1     
   21    9   27 1     
   22   10   28 1     
   23   11   20 1     
   24   11   12 1     
   25   11   13 1     
   26   12   29 1     
   27   13   21 1     
   28   13   14 1     
   29   14   30 1     
   30   15   16 2     
   31   15   17 1     
   32    7   31 1     
   33    7   32 1     
   34   10   33 1     
   35   10   34 1     
   36   12   35 1     
   37   12   36 1     
   38   14   37 1     
   39   14   38 1     
   40   16   39 1     
   41   16   40 1     
   42   17   41 1     
@<TRIPOS>SUBSTRUCTURE
      1 S1             1
@<TRIPOS>SET
LONE_PAIRS      STATIC     ATOMS    <user>   **** ""
11 31 32 33 34 35 36 37 38 39 40 41
DONOR_HYDROGENS      STATIC     ATOMS    <user>   **** ""
5 22 23 28 29 30
ATOM$BLUE        STATIC     ATOMS    COLORGROUP SYSTEM
11 31 32 33 34 35 36 37 38 39 40 41
ATOM$RED        STATIC     ATOMS    COLORGROUP SYSTEM
5 22 23 28 29 30
