AV-unprocessed.smi:1154|AV-procd|sdf|4902|dock6
  -GOLD-   22720 3473D 1   1.00000     0.00000
 Structure written by MMmdl.
 42 43  0  0  0  0  0  0  0  0  2 V2000
  144.8448  132.1466  149.6477 C   0  0  0  0  0  0  0  0  0  0  0  0
  145.1116  132.9864  150.9048 C   0  0  2  0  0  0  0  0  0  0  0  0
  144.0884  134.1278  151.0417 C   0  0  0  0  0  0  0  0  0  0  0  0
  144.3899  134.9952  152.2764 C   0  0  2  0  0  0  0  0  0  0  0  0
  143.3907  136.1536  152.4050 C   0  0  0  0  0  0  0  0  0  0  0  0
  145.8433  135.5105  152.2188 C   0  0  0  0  0  0  0  0  0  0  0  0
  146.8268  134.4022  152.0982 N   0  3  1  0  0  0  0  0  0  0  0  0
  147.0375  133.6579  153.3691 C   0  0  0  0  0  0  0  0  0  0  0  0
  147.4731  134.5740  154.5240 C   0  0  0  0  0  0  0  0  0  0  0  0
  148.7751  135.1625  154.2428 N   0  0  0  0  0  0  0  0  0  0  0  0
  149.6268  135.6003  155.1823 C   0  0  0  0  0  0  0  0  0  0  0  0
  149.3816  135.5574  156.3873 O   0  0  0  0  0  0  0  0  0  0  0  0
  150.9545  136.1814  154.6920 C   0  0  0  0  0  0  0  0  0  0  0  0
  150.9461  137.6320  154.7350 N   0  0  0  0  0  0  0  0  0  0  0  0
  150.4219  138.5309  153.8994 C   0  0  0  0  0  0  0  0  0  0  0  0
  150.6539  139.7697  154.3053 N   0  0  0  0  0  0  0  0  0  0  0  0
  151.3690  139.5881  155.4774 N   0  0  0  0  0  0  0  0  0  0  0  0
  151.5451  138.3217  155.7378 N   0  0  0  0  0  0  0  0  0  0  0  0
  146.5497  133.5507  150.9086 C   0  0  0  0  0  0  0  0  0  0  0  0
  144.9325  132.7476  148.7418 H   0  0  0  0  0  0  0  0  0  0  0  0
  143.8416  131.7198  149.6672 H   0  0  0  0  0  0  0  0  0  0  0  0
  145.5517  131.3202  149.5687 H   0  0  0  0  0  0  0  0  0  0  0  0
  144.9944  132.3214  151.7609 H   0  0  0  0  0  0  0  0  0  0  0  0
  144.1066  134.7479  150.1439 H   0  0  0  0  0  0  0  0  0  0  0  0
  143.0806  133.7162  151.1127 H   0  0  0  0  0  0  0  0  0  0  0  0
  144.2775  134.3729  153.1652 H   0  0  0  0  0  0  0  0  0  0  0  0
  143.4450  136.8231  151.5459 H   0  0  0  0  0  0  0  0  0  0  0  0
  143.5870  136.7443  153.3004 H   0  0  0  0  0  0  0  0  0  0  0  0
  142.3674  135.7834  152.4738 H   0  0  0  0  0  0  0  0  0  0  0  0
  145.9637  136.1686  151.3569 H   0  0  0  0  0  0  0  0  0  0  0  0
  146.0718  136.1188  153.0951 H   0  0  0  0  0  0  0  0  0  0  0  0
  146.0989  133.1824  153.6578 H   0  0  0  0  0  0  0  0  0  0  0  0
  147.7551  132.8497  153.2298 H   0  0  0  0  0  0  0  0  0  0  0  0
  146.7616  135.3852  154.6777 H   0  0  0  0  0  0  0  0  0  0  0  0
  147.5180  134.0020  155.4526 H   0  0  0  0  0  0  0  0  0  0  0  0
  149.0493  135.2392  153.2740 H   0  0  0  0  0  0  0  0  0  0  0  0
  151.7711  135.8125  155.3138 H   0  0  0  0  0  0  0  0  0  0  0  0
  151.1547  135.8568  153.6697 H   0  0  0  0  0  0  0  0  0  0  0  0
  149.8803  138.2806  152.9990 H   0  0  0  0  0  0  0  0  0  0  0  0
  147.2768  132.7431  150.8346 H   0  0  0  0  0  0  0  0  0  0  0  0
  146.6979  134.1639  150.0185 H   0  0  0  0  0  0  0  0  0  0  0  0
  147.7120  134.8539  151.9163 H   0  0  0  0  0  0  0  0  0  0  0  0
  1  2  1  0  0  0  0
  1 20  1  0  0  0  0
  1 21  1  0  0  0  0
  1 22  1  0  0  0  0
  2 19  1  0  0  0  0
  2  3  1  0  0  0  0
  2 23  1  0  0  0  0
  3  4  1  0  0  0  0
  3 24  1  0  0  0  0
  3 25  1  0  0  0  0
  4  5  1  0  0  0  0
  4  6  1  0  0  0  0
  4 26  1  0  0  0  0
  5 27  1  0  0  0  0
  5 28  1  0  0  0  0
  5 29  1  0  0  0  0
  6  7  1  0  0  0  0
  6 30  1  0  0  0  0
  6 31  1  0  0  0  0
  7  8  1  0  0  0  0
  7 19  1  0  0  0  0
  7 42  1  0  0  0  0
  8  9  1  0  0  0  0
  8 32  1  0  0  0  0
  8 33  1  0  0  0  0
  9 10  1  0  0  0  0
  9 34  1  0  0  0  0
  9 35  1  0  0  0  0
 10 11  1  0  0  0  0
 10 36  1  0  0  0  0
 11 12  2  0  0  0  0
 11 13  1  0  0  0  0
 13 14  1  0  0  0  0
 13 37  1  0  0  0  0
 13 38  1  0  0  0  0
 14 18  1  0  0  0  0
 14 15  1  0  0  0  0
 15 16  2  0  0  0  0
 15 39  1  0  0  0  0
 16 17  1  0  0  0  0
 17 18  2  0  0  0  0
 19 40  1  0  0  0  0
 19 41  1  0  0  0  0
M  CHG  1   7   1
M  END
> <s_m_source_file>
AV-unprocessed.smi

> <i_m_source_file_index>
1154

> <i_lp_mmshare_version>
43012

> <i_f3d_flags>
0

> <s_epik_input>
W0NIM11bQ0BASF0xW0NIMl1bQ0BASF0oW0NIM10pW0NIMl1OKFtDSDJdMSlbQ0gyXVtDSDJdW05IXUMoPU8pW0NIMl1uMltjSF1ubm4y

> <s_epik_cmdline>
J2VwaWtfcHl0aG9uJywgJy1waCcsICc3LjAnLCAnLXRuJywgJzgnLCAnLW1hJywgJzIwMCcsICctbWV0YWxfYmluZGluZycsICctaW1hZScsICc8aW5maWxlLm1hZT4nLCAnLW9tYWUnLCAnPG91dGZpbGUubWFlPic=

> <r_lp_tautomer_probability>
1

> <r_epik_Ionization_Penalty>
0.00217773

> <r_epik_Ionization_Penalty_Charging>
0.00217329

> <r_epik_Ionization_Penalty_Neutral>
4.43997e-06

> <r_epik_State_Penalty>
0.00149294

> <r_epik_Charging_Adjusted_Penalty>
0.00366623

> <i_epik_Tot_Q>
1

> <i_epik_Tot_abs_Q>
1

> <r_epik_Metal_State_Penalty>
-0

> <b_epik_Metal_Only>
0

> <s_lp_Force_Field>
OPLS_2005

> <r_lp_Energy>
22.2263

> <b_lp_Chiralities_Consistent>
1

> <s_lp_Variant>
AV-unprocessed.smi:1154-3

> <Gold.Version>
5.8.1

> <Gold.Id.Protein>
6NUR|6NUR_protein|mol2

> <Gold.PLP.Fitness>
45.0359

> <Gold.PLP.PLP>
-28.9668

> <Gold.PLP.part.hbond>
-3.0000

> <Gold.PLP.part.metal>
0.0000

> <Gold.PLP.part.buried>
-5.1342

> <Gold.PLP.part.nonpolar>
-21.4927

> <Gold.PLP.part.repulsive>
0.1744

> <Gold.PLP.ligand.clash>
0.0000

> <Gold.PLP.ligand.torsion>
0.7019

> <Gold.PLP.Chemscore.Hbond>
3.9920

> <Gold.PLP.Chemscore.CHOScore>
1.8104

> <Gold.PLP.Chemscore.Metal>
0.0000

> <Gold.Chemscore.Hbonds>
donor molecule, donor type, donor heavy atom, donor atom, acceptor molecule, acceptor atom, score
      L1  H     7    42       P1  7948  2.00
      L1  H    10    36       P1  7948  0.93
      P1  H  7989  7998       L1    16  1.00
      L1  C    15    39       P1  7948  1.00
      L1  C    15    39       P1  7957  0.79

> <Gold.PLP.Chemscore.Internal.Correction>
0.0658

> <Gold.Rescore>
     Score         DG    S(hbond)    S(metal)    S(lipo)     H(rot)  DE(clash)    DE(int)     intcor
     13.20     -14.12       2.82        0.00      51.79       2.67       0.06       0.85       ----

> <Gold.Chemscore.Fitness>
13.2048

> <Gold.Chemscore.DG>
-14.1155

> <Gold.Chemscore.ZeroCoef>
-5.4800

> <Gold.Chemscore.Hbond>
2.8157

> <Gold.Chemscore.Metal>
0.0000

> <Gold.Chemscore.Lipo>
51.7929

> <Gold.Chemscore.Internal_Hbond>
0.0000

> <Gold.Chemscore.DEClash>
0.0592

> <Gold.Chemscore.DEInternal>
0.8515

> <Gold.Chemscore.Rot>
2.6674

> <Gold.Chemscore.Internal.Correction>
   9.000000E+99

> <Gold.Chemscore.Hbonds>
donor molecule, donor type, donor heavy atom, donor atom, acceptor molecule, acceptor atom, score
      L1  H     7    42       P1  7948  0.60
      L1  H    10    36       P1  7948  0.31
      P1  H  7989  7998       L1    16  0.35

> <Gold.Chemscore.Hbond.Weighted>
-9.4043

> <Gold.Chemscore.Metal.Weighted>
-0.0000

> <Gold.Chemscore.Lipo.Weighted>
-6.0598

> <Gold.Chemscore.Internal_Hbond.Weighted>
0.0000

> <Gold.Chemscore.DEClash.Weighted>
0.0592

> <Gold.Chemscore.DEInternal.Weighted>
0.8515

> <Gold.Chemscore.Rot.Weighted>
6.8286

> <Gold.Chemscore.Internal.Correction.Weighted>
   9.000000E+99

> <Gold.Protein.RotatedTorsions>
[ 6907 6896 6895 6894 ] final  -16.34 input  -60.11 | X-H torsion
[ 7974 7965 7964 7962 ] final   92.02 input  175.53 | X-H torsion
[ 8008 7997 7996 7995 ] final -129.26 input   59.86 | X-H torsion
[ 10167 10162 10161 10158 ] final  145.77 input  -65.29 | X-H torsion
[ 10718 10713 10712 10709 ] final -111.47 input   66.30 | X-H torsion
[ 10763 10752 10751 10750 ] final -140.54 input  -60.55 | X-H torsion
[ 11005 11000 10999 10996 ] final   71.81 input  -57.11 | X-H torsion

> <Gold.Protein.ActiveResidues>
 VAL166  LYS551  ARG553  GLY616  TRP617  ASP618  TYR619  PRO620  LYS621  CYS622 
 ASP623  PHE694  ASN695  SER759  ASP760  ASP761  ALA762  ILE779  LEU786  VAL792 
 PHE793  MET794  SER795  GLU796  ALA797  LYS798  CYS799  TRP800  GLU811  SER814 

> <Gold.Protein.RotatedAtoms>
  151.3101  135.0792  159.9269 H   0  0  0  0  0  0  0  0  0  0  0  0  # atno 6907 bound_to 6896
  152.5279  133.9744  159.7787 H   0  0  0  0  0  0  0  0  0  0  0  0  # atno 6908 bound_to 6896
  151.0046  133.5971  159.2720 H   0  0  0  0  0  0  0  0  0  0  0  0  # atno 6909 bound_to 6896
  145.4979  139.2276  143.2794 H   0  0  0  0  0  0  0  0  0  0  0  0  # atno 7974 bound_to 7965
  155.2763  140.0442  157.3011 H   0  0  0  0  0  0  0  0  0  0  0  0  # atno 8008 bound_to 7997
  154.5623  140.2350  155.8284 H   0  0  0  0  0  0  0  0  0  0  0  0  # atno 8009 bound_to 7997
  156.2057  140.3013  155.9630 H   0  0  0  0  0  0  0  0  0  0  0  0  # atno 8010 bound_to 7997
  139.4920  144.5878  151.6743 H   0  0  0  0  0  0  0  0  0  0  0  0  # atno 10167 bound_to 10162
  156.0649  130.5869  150.8377 H   0  0  0  0  0  0  0  0  0  0  0  0  # atno 10718 bound_to 10713
  154.8575  135.3550  154.5724 H   0  0  0  0  0  0  0  0  0  0  0  0  # atno 10763 bound_to 10752
  153.6336  135.7001  153.5271 H   0  0  0  0  0  0  0  0  0  0  0  0  # atno 10764 bound_to 10752
  153.3029  135.4201  155.1227 H   0  0  0  0  0  0  0  0  0  0  0  0  # atno 10765 bound_to 10752
  139.9524  134.7204  156.0832 H   0  0  0  0  0  0  0  0  0  0  0  0  # atno 11005 bound_to 11000
  146.2244  140.5777  142.9003 LP  0  0  0  0  0  0  0  0  0  0  0  0  # atno 17320 bound_to 7965
  144.7797  140.5814  143.6614 LP  0  0  0  0  0  0  0  0  0  0  0  0  # atno 17321 bound_to 7965
  140.5498  144.0444  150.6122 LP  0  0  0  0  0  0  0  0  0  0  0  0  # atno 17342 bound_to 10162
  140.3494  143.2972  152.0503 LP  0  0  0  0  0  0  0  0  0  0  0  0  # atno 17343 bound_to 10162
  157.5683  131.0946  150.9456 LP  0  0  0  0  0  0  0  0  0  0  0  0  # atno 17370 bound_to 10713
  156.9678  130.5479  149.5289 LP  0  0  0  0  0  0  0  0  0  0  0  0  # atno 17371 bound_to 10713
  141.1189  133.6619  156.3164 LP  0  0  0  0  0  0  0  0  0  0  0  0  # atno 17394 bound_to 11000
  140.5689  134.5860  157.5452 LP  0  0  0  0  0  0  0  0  0  0  0  0  # atno 17395 bound_to 11000

$$$$
