AV-unprocessed.smi:2095|AV-procd|sdf|8560|dock6
  -GOLD-   2272011283D 1   1.00000     0.00000
 Structure written by MMmdl.
 42 43  0  0  0  0  0  0  0  0  2 V2000
  147.3169  133.6695  151.8433 C   0  0  0  0  0  0  0  0  0  0  0  0
  145.9275  134.1539  152.2942 C   0  0  2  0  0  0  0  0  0  0  0  0
  145.0928  134.7302  151.1347 C   0  0  0  0  0  0  0  0  0  0  0  0
  145.5989  136.1189  150.7161 C   0  0  0  0  0  0  0  0  0  0  0  0
  145.6701  137.0651  151.9245 C   0  0  0  0  0  0  0  0  0  0  0  0
  146.5227  136.4849  152.9976 N   0  3  1  0  0  0  0  0  0  0  0  0
  146.8617  137.4107  154.1174 C   0  0  1  0  0  0  0  0  0  0  0  0
  147.7515  136.7030  155.1568 C   0  0  0  0  0  0  0  0  0  0  0  0
  147.4647  138.7549  153.6361 C   0  0  0  0  0  0  0  0  0  0  0  0
  148.2644  139.4034  154.6694 N   0  0  0  0  0  0  0  0  0  0  0  0
  148.5408  140.7164  154.7142 C   0  0  0  0  0  0  0  0  0  0  0  0
  148.1331  141.5210  153.8769 O   0  0  0  0  0  0  0  0  0  0  0  0
  149.3966  141.1993  155.8862 C   0  0  0  0  0  0  0  0  0  0  0  0
  150.6687  140.5027  155.9337 N   0  0  0  0  0  0  0  0  0  0  0  0
  151.5762  140.3982  156.9067 C   0  0  0  0  0  0  0  0  0  0  0  0
  152.6166  139.6715  156.5277 N   0  0  0  0  0  0  0  0  0  0  0  0
  152.2972  139.3177  155.2275 N   0  0  0  0  0  0  0  0  0  0  0  0
  151.1423  139.8076  154.8694 N   0  0  0  0  0  0  0  0  0  0  0  0
  146.0107  135.1651  153.4567 C   0  0  0  0  0  0  0  0  0  0  0  0
  147.9354  134.4879  151.4748 H   0  0  0  0  0  0  0  0  0  0  0  0
  147.2337  132.9320  151.0446 H   0  0  0  0  0  0  0  0  0  0  0  0
  147.8530  133.1980  152.6674 H   0  0  0  0  0  0  0  0  0  0  0  0
  145.4021  133.2728  152.6653 H   0  0  0  0  0  0  0  0  0  0  0  0
  145.0999  134.0505  150.2818 H   0  0  0  0  0  0  0  0  0  0  0  0
  144.0516  134.8123  151.4497 H   0  0  0  0  0  0  0  0  0  0  0  0
  146.5832  136.0354  150.2539 H   0  0  0  0  0  0  0  0  0  0  0  0
  144.9397  136.5381  149.9555 H   0  0  0  0  0  0  0  0  0  0  0  0
  146.0657  138.0270  151.6002 H   0  0  0  0  0  0  0  0  0  0  0  0
  144.6632  137.2453  152.3035 H   0  0  0  0  0  0  0  0  0  0  0  0
  145.9255  137.6282  154.6331 H   0  0  0  0  0  0  0  0  0  0  0  0
  147.8536  137.3014  156.0625 H   0  0  0  0  0  0  0  0  0  0  0  0
  148.7556  136.5178  154.7760 H   0  0  0  0  0  0  0  0  0  0  0  0
  147.3237  135.7446  155.4524 H   0  0  0  0  0  0  0  0  0  0  0  0
  148.1204  138.5947  152.7803 H   0  0  0  0  0  0  0  0  0  0  0  0
  146.6842  139.4396  153.3018 H   0  0  0  0  0  0  0  0  0  0  0  0
  148.6416  138.8127  155.3971 H   0  0  0  0  0  0  0  0  0  0  0  0
  149.5879  142.2694  155.7942 H   0  0  0  0  0  0  0  0  0  0  0  0
  148.8622  141.0460  156.8249 H   0  0  0  0  0  0  0  0  0  0  0  0
  151.4775  140.8534  157.8813 H   0  0  0  0  0  0  0  0  0  0  0  0
  145.0224  135.2946  153.8995 H   0  0  0  0  0  0  0  0  0  0  0  0
  146.6518  134.7621  154.2417 H   0  0  0  0  0  0  0  0  0  0  0  0
  147.4089  136.2780  152.5593 H   0  0  0  0  0  0  0  0  0  0  0  0
  1  2  1  0  0  0  0
  1 20  1  0  0  0  0
  1 21  1  0  0  0  0
  1 22  1  0  0  0  0
  2 19  1  0  0  0  0
  2  3  1  0  0  0  0
  2 23  1  0  0  0  0
  3  4  1  0  0  0  0
  3 24  1  0  0  0  0
  3 25  1  0  0  0  0
  4  5  1  0  0  0  0
  4 26  1  0  0  0  0
  4 27  1  0  0  0  0
  5  6  1  0  0  0  0
  5 28  1  0  0  0  0
  5 29  1  0  0  0  0
  6  7  1  0  0  0  0
  6 19  1  0  0  0  0
  6 42  1  0  0  0  0
  7  8  1  0  0  0  0
  7  9  1  0  0  0  0
  7 30  1  0  0  0  0
  8 31  1  0  0  0  0
  8 32  1  0  0  0  0
  8 33  1  0  0  0  0
  9 10  1  0  0  0  0
  9 34  1  0  0  0  0
  9 35  1  0  0  0  0
 10 11  1  0  0  0  0
 10 36  1  0  0  0  0
 11 12  2  0  0  0  0
 11 13  1  0  0  0  0
 13 14  1  0  0  0  0
 13 37  1  0  0  0  0
 13 38  1  0  0  0  0
 14 18  1  0  0  0  0
 14 15  1  0  0  0  0
 15 16  2  0  0  0  0
 15 39  1  0  0  0  0
 16 17  1  0  0  0  0
 17 18  2  0  0  0  0
 19 40  1  0  0  0  0
 19 41  1  0  0  0  0
M  CHG  1   6   1
M  END
> <s_m_source_file>
AV-unprocessed.smi

> <i_m_source_file_index>
2095

> <i_lp_mmshare_version>
43012

> <i_f3d_flags>
0

> <s_epik_input>
W0NIM11bQ0BASF0xW0NIMl1bQ0gyXVtDSDJdTihbQ0gyXTEpW0NASF0oW0NIM10pW0NIMl1bTkhdQyg9TylbQ0gyXW4yW2NIXW5ubjI=

> <s_epik_cmdline>
J2VwaWtfcHl0aG9uJywgJy1waCcsICc3LjAnLCAnLXRuJywgJzgnLCAnLW1hJywgJzIwMCcsICctbWV0YWxfYmluZGluZycsICctaW1hZScsICc8aW5maWxlLm1hZT4nLCAnLW9tYWUnLCAnPG91dGZpbGUubWFlPic=

> <r_lp_tautomer_probability>
1

> <r_epik_Ionization_Penalty>
0.00268321

> <r_epik_Ionization_Penalty_Charging>
0.00267875

> <r_epik_Ionization_Penalty_Neutral>
4.46125e-06

> <r_epik_State_Penalty>
0.00186642

> <r_epik_Charging_Adjusted_Penalty>
0.00454517

> <i_epik_Tot_Q>
1

> <i_epik_Tot_abs_Q>
1

> <r_epik_Metal_State_Penalty>
-0

> <b_epik_Metal_Only>
0

> <s_lp_Force_Field>
OPLS_2005

> <r_lp_Energy>
24.9707

> <b_lp_Chiralities_Consistent>
1

> <s_lp_Variant>
AV-unprocessed.smi:2095-7

> <Gold.Version>
5.8.1

> <Gold.Id.Protein>
6NUR|6NUR_protein|mol2

> <Gold.PLP.Fitness>
41.3800

> <Gold.PLP.PLP>
-28.5707

> <Gold.PLP.part.hbond>
-4.2382

> <Gold.PLP.part.metal>
0.0000

> <Gold.PLP.part.buried>
-2.5892

> <Gold.PLP.part.nonpolar>
-22.5659

> <Gold.PLP.part.repulsive>
0.9496

> <Gold.PLP.ligand.clash>
0.0000

> <Gold.PLP.ligand.torsion>
0.7262

> <Gold.PLP.Chemscore.Hbond>
4.7137

> <Gold.PLP.Chemscore.CHOScore>
0.0000

> <Gold.PLP.Chemscore.Metal>
0.0000

> <Gold.Chemscore.Hbonds>
donor molecule, donor type, donor heavy atom, donor atom, acceptor molecule, acceptor atom, score
      L1  H     6    42       P1  7948  2.00
      P1  H  7989  7998       L1    18  1.00
      P1  H  7997  8010       L1    16  1.00

> <Gold.PLP.Chemscore.Internal.Correction>
0.1206

> <Gold.Rescore>
     Score         DG    S(hbond)    S(metal)    S(lipo)     H(rot)  DE(clash)    DE(int)     intcor
     10.98     -13.84       2.96        0.00      44.95       2.64       1.29       1.57       ----

> <Gold.Chemscore.Fitness>
10.9755

> <Gold.Chemscore.DG>
-13.8407

> <Gold.Chemscore.ZeroCoef>
-5.4800

> <Gold.Chemscore.Hbond>
2.9552

> <Gold.Chemscore.Metal>
0.0000

> <Gold.Chemscore.Lipo>
44.9464

> <Gold.Chemscore.Internal_Hbond>
0.0000

> <Gold.Chemscore.DEClash>
1.2925

> <Gold.Chemscore.DEInternal>
1.5727

> <Gold.Chemscore.Rot>
2.6439

> <Gold.Chemscore.Internal.Correction>
   9.000000E+99

> <Gold.Chemscore.Hbonds>
donor molecule, donor type, donor heavy atom, donor atom, acceptor molecule, acceptor atom, score
      L1  H     6    42       P1  7948  1.00
      P1  H  7989  7998       L1    18  0.22
      P1  H  7997  8010       L1    16  0.60
      P1  H  8011  8017       L1    12  0.04

> <Gold.Chemscore.Hbond.Weighted>
-9.8704

> <Gold.Chemscore.Metal.Weighted>
-0.0000

> <Gold.Chemscore.Lipo.Weighted>
-5.2587

> <Gold.Chemscore.Internal_Hbond.Weighted>
0.0000

> <Gold.Chemscore.DEClash.Weighted>
1.2925

> <Gold.Chemscore.DEInternal.Weighted>
1.5727

> <Gold.Chemscore.Rot.Weighted>
6.7685

> <Gold.Chemscore.Internal.Correction.Weighted>
   9.000000E+99

> <Gold.Protein.RotatedTorsions>
[ 6907 6896 6895 6894 ] final  149.86 input  -60.11 | X-H torsion
[ 7974 7965 7964 7962 ] final   61.33 input  175.53 | X-H torsion
[ 8008 7997 7996 7995 ] final   65.68 input   59.86 | X-H torsion
[ 10167 10162 10161 10158 ] final   83.38 input  -65.29 | X-H torsion
[ 10718 10713 10712 10709 ] final  -70.52 input   66.30 | X-H torsion
[ 10763 10752 10751 10750 ] final  -50.00 input  -60.55 | X-H torsion
[ 11005 11000 10999 10996 ] final -116.99 input  -57.11 | X-H torsion

> <Gold.Protein.ActiveResidues>
 VAL166  LYS551  ARG553  GLY616  TRP617  ASP618  TYR619  PRO620  LYS621  CYS622 
 ASP623  PHE694  ASN695  SER759  ASP760  ASP761  ALA762  ILE779  LEU786  VAL792 
 PHE793  MET794  SER795  GLU796  ALA797  LYS798  CYS799  TRP800  GLU811  SER814 

> <Gold.Protein.RotatedAtoms>
  152.1222  133.4360  159.4680 H   0  0  0  0  0  0  0  0  0  0  0  0  # atno 6907 bound_to 6896
  150.6872  134.2521  159.4524 H   0  0  0  0  0  0  0  0  0  0  0  0  # atno 6908 bound_to 6896
  152.0398  134.9718  160.0624 H   0  0  0  0  0  0  0  0  0  0  0  0  # atno 6909 bound_to 6896
  145.8859  139.3476  143.0678 H   0  0  0  0  0  0  0  0  0  0  0  0  # atno 7974 bound_to 7965
  155.6656  140.3497  155.4799 H   0  0  0  0  0  0  0  0  0  0  0  0  # atno 8008 bound_to 7997
  155.9732  140.1160  157.0817 H   0  0  0  0  0  0  0  0  0  0  0  0  # atno 8009 bound_to 7997
  154.4171  140.1153  156.5321 H   0  0  0  0  0  0  0  0  0  0  0  0  # atno 8010 bound_to 7997
  139.9190  144.6224  150.8459 H   0  0  0  0  0  0  0  0  0  0  0  0  # atno 10167 bound_to 10162
  156.0404  130.4333  150.2308 H   0  0  0  0  0  0  0  0  0  0  0  0  # atno 10718 bound_to 10713
  154.1032  135.6560  153.4872 H   0  0  0  0  0  0  0  0  0  0  0  0  # atno 10763 bound_to 10752
  153.0281  135.5230  154.7266 H   0  0  0  0  0  0  0  0  0  0  0  0  # atno 10764 bound_to 10752
  154.6424  135.2990  155.0057 H   0  0  0  0  0  0  0  0  0  0  0  0  # atno 10765 bound_to 10752
  141.0385  133.9872  157.3032 H   0  0  0  0  0  0  0  0  0  0  0  0  # atno 11005 bound_to 11000
  145.8967  140.9269  143.0524 LP  0  0  0  0  0  0  0  0  0  0  0  0  # atno 17320 bound_to 7965
  144.6728  140.0977  143.7462 LP  0  0  0  0  0  0  0  0  0  0  0  0  # atno 17321 bound_to 7965
  140.7667  143.3310  151.2409 LP  0  0  0  0  0  0  0  0  0  0  0  0  # atno 17342 bound_to 10162
  139.6878  143.9744  152.2843 LP  0  0  0  0  0  0  0  0  0  0  0  0  # atno 17343 bound_to 10162
  157.0404  131.0033  151.3285 LP  0  0  0  0  0  0  0  0  0  0  0  0  # atno 17370 bound_to 10713
  157.5214  130.8000  149.7813 LP  0  0  0  0  0  0  0  0  0  0  0  0  # atno 17371 bound_to 10713
  139.9258  135.0201  156.8229 LP  0  0  0  0  0  0  0  0  0  0  0  0  # atno 17394 bound_to 11000
  140.6278  133.9934  155.7648 LP  0  0  0  0  0  0  0  0  0  0  0  0  # atno 17395 bound_to 11000

$$$$
