AV-unprocessed.smi:2974|AV-procd|sdf|11353|dock9
  -GOLD-   2272016273D 1   1.00000     0.00000
 Structure written by MMmdl.
 27 28  0  0  0  0  0  0  0  0  3 V2000
  151.9813  137.4245  154.4889 O   0  0  0  0  0  0  0  0  0  0  0  0
  152.4338  138.5427  154.8188 C   0  0  0  0  0  0  0  0  0  0  0  0
  153.6527  138.8218  154.7715 O   0  5  0  0  0  0  0  0  0  0  0  0
  151.4773  139.5973  155.2920 C   0  0  0  0  0  0  0  0  0  0  0  0
  151.8066  140.4989  156.3304 C   0  0  0  0  0  0  0  0  0  0  0  0
  150.8680  141.4714  156.7362 C   0  0  0  0  0  0  0  0  0  0  0  0
  151.2055  142.3614  157.7650 N   0  0  0  0  0  0  0  0  0  0  0  0
  152.1456  141.8039  158.7291 C   0  0  0  0  0  0  0  0  0  0  0  0
  152.3631  142.7949  159.8859 C   0  0  0  0  0  0  0  0  0  0  0  0
  152.7962  144.0484  159.3650 O   0  0  0  0  0  0  0  0  0  0  0  0
  151.8344  144.6224  158.4844 C   0  0  0  0  0  0  0  0  0  0  0  0
  151.6034  143.6807  157.2897 C   0  0  0  0  0  0  0  0  0  0  0  0
  149.6110  141.5203  156.0883 C   0  0  0  0  0  0  0  0  0  0  0  0
  149.3319  140.5996  155.0590 C   0  0  0  0  0  0  0  0  0  0  0  0
  150.2616  139.6870  154.7053 N   0  3  0  0  0  0  0  0  0  0  0  0
  152.7717  140.4482  156.8148 H   0  0  0  0  0  0  0  0  0  0  0  0
  151.7635  140.8577  159.1148 H   0  0  0  0  0  0  0  0  0  0  0  0
  153.0978  141.5937  158.2404 H   0  0  0  0  0  0  0  0  0  0  0  0
  151.4471  142.9259  160.4640 H   0  0  0  0  0  0  0  0  0  0  0  0
  153.1206  142.4138  160.5709 H   0  0  0  0  0  0  0  0  0  0  0  0
  150.9015  144.8094  159.0190 H   0  0  0  0  0  0  0  0  0  0  0  0
  152.2019  145.5881  158.1373 H   0  0  0  0  0  0  0  0  0  0  0  0
  152.5180  143.6035  156.7001 H   0  0  0  0  0  0  0  0  0  0  0  0
  150.8304  144.0879  156.6367 H   0  0  0  0  0  0  0  0  0  0  0  0
  148.8690  142.2520  156.3727 H   0  0  0  0  0  0  0  0  0  0  0  0
  148.4015  140.5656  154.5117 H   0  0  0  0  0  0  0  0  0  0  0  0
  150.0452  139.0265  153.9577 H   0  0  0  0  0  0  0  0  0  0  0  0
  1  2  2  0  0  0  0
  2  3  1  0  0  0  0
  2  4  1  0  0  0  0
  4 15  1  0  0  0  0
  4  5  2  0  0  0  0
  5  6  1  0  0  0  0
  5 16  1  0  0  0  0
  6  7  1  0  0  0  0
  6 13  2  0  0  0  0
  7 12  1  0  0  0  0
  7  8  1  0  0  0  0
  8  9  1  0  0  0  0
  8 17  1  0  0  0  0
  8 18  1  0  0  0  0
  9 10  1  0  0  0  0
  9 19  1  0  0  0  0
  9 20  1  0  0  0  0
 10 11  1  0  0  0  0
 11 12  1  0  0  0  0
 11 21  1  0  0  0  0
 11 22  1  0  0  0  0
 12 23  1  0  0  0  0
 12 24  1  0  0  0  0
 13 14  1  0  0  0  0
 13 25  1  0  0  0  0
 14 15  2  0  0  0  0
 14 26  1  0  0  0  0
 15 27  1  0  0  0  0
M  CHG  1   3  -1
M  CHG  1  15   1
M  END
> <s_m_source_file>
AV-unprocessed.smi

> <i_m_source_file_index>
2974

> <i_lp_mmshare_version>
43012

> <i_f3d_flags>
0

> <s_epik_input>
Tz1DKFtPSF0pYzFbY0hdYyhbY0hdW2NIXW4xKU4yW0NIMl1bQ0gyXU9bQ0gyXVtDSDJdMg==

> <s_epik_cmdline>
J2VwaWtfcHl0aG9uJywgJy1waCcsICc3LjAnLCAnLXRuJywgJzgnLCAnLW1hJywgJzIwMCcsICctbWV0YWxfYmluZGluZycsICctaW1hZScsICc8aW5maWxlLm1hZT4nLCAnLW9tYWUnLCAnPG91dGZpbGUubWFlPic=

> <r_epik_Ionization_Penalty>
0.0248724

> <r_epik_Ionization_Penalty_Charging>
0.0248724

> <r_epik_Ionization_Penalty_Neutral>
3.18831e-12

> <r_epik_State_Penalty>
0.0202062

> <r_epik_Charging_Adjusted_Penalty>
0.0450787

> <i_epik_Tot_Q>
0

> <i_epik_Tot_abs_Q>
2

> <r_epik_Metal_State_Penalty>
2.1181

> <b_epik_Metal_Only>
0

> <s_lp_Force_Field>
OPLS_2005

> <r_lp_Energy>
18.0137

> <b_lp_Chiralities_Consistent>
1

> <s_lp_Variant>
AV-unprocessed.smi:2974-1

> <Gold.Version>
5.8.1

> <Gold.Id.Protein>
6NUR|6NUR_protein|mol2

> <Gold.PLP.Fitness>
42.1710

> <Gold.PLP.PLP>
-32.9543

> <Gold.PLP.part.hbond>
-2.0000

> <Gold.PLP.part.metal>
0.0000

> <Gold.PLP.part.buried>
-5.7344

> <Gold.PLP.part.nonpolar>
-26.1284

> <Gold.PLP.part.repulsive>
0.3156

> <Gold.PLP.ligand.clash>
0.0000

> <Gold.PLP.ligand.torsion>
1.1833

> <Gold.PLP.Chemscore.Hbond>
3.8240

> <Gold.PLP.Chemscore.CHOScore>
0.0000

> <Gold.PLP.Chemscore.Metal>
0.0000

> <Gold.Chemscore.Hbonds>
donor molecule, donor type, donor heavy atom, donor atom, acceptor molecule, acceptor atom, score
      P1  H  7997  8008       L1     3  1.98
      P1  H 10752 10765       L1     1  1.82

> <Gold.PLP.Chemscore.Internal.Correction>
0.1113

> <Gold.Rescore>
     Score         DG    S(hbond)    S(metal)    S(lipo)     H(rot)  DE(clash)    DE(int)     intcor
     17.28     -18.11       1.80        0.00      78.41       1.00       0.02       0.81       ----

> <Gold.Chemscore.Fitness>
17.2791

> <Gold.Chemscore.DG>
-18.1068

> <Gold.Chemscore.ZeroCoef>
-5.4800

> <Gold.Chemscore.Hbond>
1.8002

> <Gold.Chemscore.Metal>
0.0000

> <Gold.Chemscore.Lipo>
78.4114

> <Gold.Chemscore.Internal_Hbond>
0.0000

> <Gold.Chemscore.DEClash>
0.0202

> <Gold.Chemscore.DEInternal>
0.8075

> <Gold.Chemscore.Rot>
1.0000

> <Gold.Chemscore.Internal.Correction>
   9.000000E+99

> <Gold.Chemscore.Hbonds>
donor molecule, donor type, donor heavy atom, donor atom, acceptor molecule, acceptor atom, score
      P1  H  7997  8008       L1     3  0.94
      P1  H 10752 10765       L1     1  0.84

> <Gold.Chemscore.Hbond.Weighted>
-6.0127

> <Gold.Chemscore.Metal.Weighted>
-0.0000

> <Gold.Chemscore.Lipo.Weighted>
-9.1741

> <Gold.Chemscore.Internal_Hbond.Weighted>
0.0000

> <Gold.Chemscore.DEClash.Weighted>
0.0202

> <Gold.Chemscore.DEInternal.Weighted>
0.8075

> <Gold.Chemscore.Rot.Weighted>
2.5600

> <Gold.Chemscore.Internal.Correction.Weighted>
   9.000000E+99

> <Gold.Protein.RotatedTorsions>
[ 6907 6896 6895 6894 ] final  119.78 input  -60.11 | X-H torsion
[ 7974 7965 7964 7962 ] final  104.05 input  175.53 | X-H torsion
[ 8008 7997 7996 7995 ] final   -6.92 input   59.86 | X-H torsion
[ 10167 10162 10161 10158 ] final   69.49 input  -65.29 | X-H torsion
[ 10718 10713 10712 10709 ] final  -60.88 input   66.30 | X-H torsion
[ 10763 10752 10751 10750 ] final  163.87 input  -60.55 | X-H torsion
[ 11005 11000 10999 10996 ] final   76.85 input  -57.11 | X-H torsion

> <Gold.Protein.ActiveResidues>
 VAL166  LYS551  ARG553  GLY616  TRP617  ASP618  TYR619  PRO620  LYS621  CYS622 
 ASP623  PHE694  ASN695  SER759  ASP760  ASP761  ALA762  ILE779  LEU786  VAL792 
 PHE793  MET794  SER795  GLU796  ALA797  LYS798  CYS799  TRP800  GLU811  SER814 

> <Gold.Protein.RotatedAtoms>
  152.4446  133.7513  159.6695 H   0  0  0  0  0  0  0  0  0  0  0  0  # atno 6907 bound_to 6896
  150.8344  133.8028  159.3092 H   0  0  0  0  0  0  0  0  0  0  0  0  # atno 6908 bound_to 6896
  151.5672  135.1066  160.0038 H   0  0  0  0  0  0  0  0  0  0  0  0  # atno 6909 bound_to 6896
  145.3378  139.2470  143.3626 H   0  0  0  0  0  0  0  0  0  0  0  0  # atno 7974 bound_to 7965
  154.5890  140.2420  155.7948 H   0  0  0  0  0  0  0  0  0  0  0  0  # atno 8008 bound_to 7997
  156.2233  140.2990  155.9961 H   0  0  0  0  0  0  0  0  0  0  0  0  # atno 8009 bound_to 7997
  155.2408  140.0407  157.2965 H   0  0  0  0  0  0  0  0  0  0  0  0  # atno 8010 bound_to 7997
  140.0673  144.5182  150.7252 H   0  0  0  0  0  0  0  0  0  0  0  0  # atno 10167 bound_to 10162
  156.0960  130.4193  150.0916 H   0  0  0  0  0  0  0  0  0  0  0  0  # atno 10718 bound_to 10713
  154.3003  135.2759  155.2614 H   0  0  0  0  0  0  0  0  0  0  0  0  # atno 10763 bound_to 10752
  154.5054  135.5797  153.6566 H   0  0  0  0  0  0  0  0  0  0  0  0  # atno 10764 bound_to 10752
  152.9901  135.6168  154.3173 H   0  0  0  0  0  0  0  0  0  0  0  0  # atno 10765 bound_to 10752
  139.9280  134.7635  156.1448 H   0  0  0  0  0  0  0  0  0  0  0  0  # atno 11005 bound_to 11000
  146.3020  140.3969  142.8701 LP  0  0  0  0  0  0  0  0  0  0  0  0  # atno 17320 bound_to 7965
  144.8814  140.7405  143.5984 LP  0  0  0  0  0  0  0  0  0  0  0  0  # atno 17321 bound_to 7965
  140.7143  143.2531  151.4484 LP  0  0  0  0  0  0  0  0  0  0  0  0  # atno 17342 bound_to 10162
  139.5857  144.1609  152.2026 LP  0  0  0  0  0  0  0  0  0  0  0  0  # atno 17343 bound_to 10162
  156.8915  130.9590  151.3588 LP  0  0  0  0  0  0  0  0  0  0  0  0  # atno 17370 bound_to 10713
  157.6120  130.8590  149.8968 LP  0  0  0  0  0  0  0  0  0  0  0  0  # atno 17371 bound_to 10713
  141.0850  133.6738  156.2418 LP  0  0  0  0  0  0  0  0  0  0  0  0  # atno 17394 bound_to 11000
  140.6282  134.5292  157.5556 LP  0  0  0  0  0  0  0  0  0  0  0  0  # atno 17395 bound_to 11000

$$$$
