#       Name:                AV-unprocessed.smi:2562
#       Creating user name   scv26
#       Creation time:       Fri Mar 27 14:09:27 2020


#       File generated by GOLD software.
#

@<TRIPOS>MOLECULE
AV-unprocessed.smi:2562
    35    36     1
SMALL
NO_CHARGES


@<TRIPOS>ATOM
      1 ****        -2.9708   4.2753  -1.4949 C.3            1 S1                 0.0000
      2 ****        -2.4399   2.8379  -1.4641 C.3            1 S1                 0.0000
      3 ****        -0.9067   2.7733  -1.4874 C.3            1 S1                 0.0000
      4 ****        -0.3964   1.3489  -1.4529 C.2            1 S1                 0.0000
      5 ****        -0.1700   0.5937  -2.5385 N.2            1 S1                 0.0000
      6 ****         0.2295  -0.5734  -2.0763 N.pl3          1 S1                -1.0000
      7 ****         0.2306  -0.5538  -0.7319 C.2            1 S1                 0.0000
      8 ****         0.6602  -1.6938   0.1662 C.3            1 S1                 0.0000
      9 ****         2.1698  -1.6226   0.4665 C.3            1 S1                 0.0000
     10 ****         2.5665  -2.7322   1.3544 N.4            1 S1                 1.0000
     11 ****         1.7523  -2.7605   2.5848 C.3            1 S1                 0.0000
     12 ****         0.2574  -2.7961   2.2260 C.3            1 S1                 0.0000
     13 ****        -0.0601  -1.6839   1.3972 O.3            1 S1                 0.0000
     14 ****        -0.1542   0.6544  -0.3323 N.2            1 S1                 0.0000
     15 ****        -4.0607   4.2864  -1.4797 H              1 S1                 0.0000
     16 ****        -2.6444   4.7968  -2.3950 H              1 S1                 0.0000
     17 ****        -2.6207   4.8423  -0.6321 H              1 S1                 0.0000
     18 ****        -2.8114   2.3369  -0.5695 H              1 S1                 0.0000
     19 ****        -2.8406   2.2870  -2.3158 H              1 S1                 0.0000
     20 ****        -0.5227   3.2618  -2.3836 H              1 S1                 0.0000
     21 ****        -0.4940   3.3130  -0.6346 H              1 S1                 0.0000
     22 ****         0.4349  -2.6219  -0.3624 H              1 S1                 0.0000
     23 ****         2.7486  -1.6785  -0.4560 H              1 S1                 0.0000
     24 ****         2.4175  -0.6740   0.9451 H              1 S1                 0.0000
     25 ****         2.4330  -3.6011   0.8573 H              1 S1                 0.0000
     26 ****         2.0263  -3.6309   3.1812 H              1 S1                 0.0000
     27 ****         1.9747  -1.8754   3.1825 H              1 S1                 0.0000
     28 ****        -0.0019  -3.7273   1.7195 H              1 S1                 0.0000
     29 ****        -0.3483  -2.7463   3.1310 H              1 S1                 0.0000
     30 ****         3.5422  -2.6357   1.5964 H              1 S1                 0.0000
     31 ****        -0.2810   0.8603  -3.4959 LP             1 S1                 0.0000
     32 ****         0.4924  -1.3561  -2.6405 LP             1 S1                 0.0000
     33 ****        -1.0394  -1.7041   1.1954 LP             1 S1                 0.0000
     34 ****         0.1612  -0.8430   1.8910 LP             1 S1                 0.0000
     35 ****        -0.2443   0.9781   0.6095 LP             1 S1                 0.0000
@<TRIPOS>BOND
    1    1    2 1     
    2    1   15 1     
    3    1   16 1     
    4    1   17 1     
    5    2    3 1     
    6    2   18 1     
    7    2   19 1     
    8    3    4 1     
    9    3   20 1     
   10    3   21 1     
   11    4   14 1     
   12    4    5 2     
   13    5    6 1     
   14    6    7 1     
   15    7    8 1     
   16    7   14 2     
   17    8   13 1     
   18    8    9 1     
   19    8   22 1     
   20    9   10 1     
   21    9   23 1     
   22    9   24 1     
   23   10   11 1     
   24   10   25 1     
   25   10   30 1     
   26   11   12 1     
   27   11   26 1     
   28   11   27 1     
   29   12   13 1     
   30   12   28 1     
   31   12   29 1     
   32    5   31 1     
   33    6   32 1     
   34   13   33 1     
   35   13   34 1     
   36   14   35 1     
@<TRIPOS>SUBSTRUCTURE
      1 S1             1
@<TRIPOS>SET
LONE_PAIRS      STATIC     ATOMS    <user>   **** ""
5 31 32 33 34 35
DONOR_HYDROGENS      STATIC     ATOMS    <user>   **** ""
2 25 30
ATOM$BLUE        STATIC     ATOMS    COLORGROUP SYSTEM
5 31 32 33 34 35
ATOM$RED        STATIC     ATOMS    COLORGROUP SYSTEM
2 25 30
