AV-unprocessed.smi:227|AV-procd|sdf|1732|dock9
  -GOLD-   2262020223D 1   1.00000     0.00000
 Structure written by MMmdl.
 54 58  0  0  0  0  0  0  0  0  1 V2000
  146.8692  137.2963  163.1734 O   0  0  0  0  0  0  0  0  0  0  0  0
  147.0147  135.9919  162.6505 C   0  0  0  0  0  0  0  0  0  0  0  0
  146.1221  135.7788  161.4033 C   0  0  1  0  0  0  0  0  0  0  0  0
  146.9166  135.2394  160.1880 C   0  0  0  0  0  0  0  0  0  0  0  0
  147.1754  136.2549  159.1822 N   0  0  0  0  0  0  0  0  0  0  0  0
  146.2334  136.9984  158.5103 C   0  0  0  0  0  0  0  0  0  0  0  0
  146.7125  137.8592  157.6550 N   0  0  0  0  0  0  0  0  0  0  0  0
  148.0904  137.6901  157.7330 C   0  0  0  0  0  0  0  0  0  0  0  0
  149.2065  138.2923  157.0842 C   0  0  0  0  0  0  0  0  0  0  0  0
  149.0884  139.2646  156.1434 N   0  0  0  0  0  0  0  0  0  0  0  0
  149.8410  140.5056  156.2038 C   0  0  2  0  0  0  0  0  0  0  0  0
  149.1337  141.3503  155.1271 C   0  0  0  0  0  0  0  0  0  0  0  0
  148.7331  140.2699  154.1031 C   0  0  0  0  0  0  0  0  0  0  0  0
  149.3546  139.0105  154.7351 C   0  0  1  0  0  0  0  0  0  0  0  0
  150.8954  139.1162  154.5796 C   0  0  2  0  0  0  0  0  0  0  0  0
  151.6945  137.7944  154.5545 C   0  0  0  0  0  0  0  0  0  0  0  0
  150.9999  136.7135  153.9721 O   0  0  0  0  0  0  0  0  0  0  0  0
  151.2468  140.1072  155.7065 C   0  0  0  0  0  0  0  0  0  0  0  0
  150.4455  137.8784  157.4606 N   0  0  0  0  0  0  0  0  0  0  0  0
  150.5882  136.9185  158.3784 C   0  0  0  0  0  0  0  0  0  0  0  0
  149.6427  136.2566  159.0467 N   0  0  0  0  0  0  0  0  0  0  0  0
  148.3972  136.6839  158.6932 C   0  0  0  0  0  0  0  0  0  0  0  0
  144.8819  134.9021  161.7120 C   0  0  2  0  0  0  0  0  0  0  0  0
  145.1123  133.4053  161.5972 C   0  0  0  0  0  0  0  0  0  0  0  0
  143.6893  132.8704  161.4876 C   0  0  0  0  0  0  0  0  0  0  0  0
  142.9577  133.8709  160.7890 O   0  0  0  0  0  0  0  0  0  0  0  0
  143.7130  135.0775  160.7362 C   0  0  0  0  0  0  0  0  0  0  0  0
  146.5515  137.8624  162.4866 H   0  0  0  0  0  0  0  0  0  0  0  0
  148.0649  135.8289  162.4094 H   0  0  0  0  0  0  0  0  0  0  0  0
  146.7744  135.2720  163.4328 H   0  0  0  0  0  0  0  0  0  0  0  0
  145.7523  136.7659  161.1223 H   0  0  0  0  0  0  0  0  0  0  0  0
  147.8679  134.8165  160.5128 H   0  0  0  0  0  0  0  0  0  0  0  0
  146.3720  134.4303  159.7017 H   0  0  0  0  0  0  0  0  0  0  0  0
  145.1728  136.8853  158.6813 H   0  0  0  0  0  0  0  0  0  0  0  0
  149.8473  140.9907  157.1807 H   0  0  0  0  0  0  0  0  0  0  0  0
  148.2476  141.8407  155.5319 H   0  0  0  0  0  0  0  0  0  0  0  0
  149.7842  142.1165  154.7036 H   0  0  0  0  0  0  0  0  0  0  0  0
  147.6473  140.1777  154.0520 H   0  0  0  0  0  0  0  0  0  0  0  0
  149.0980  140.4763  153.0963 H   0  0  0  0  0  0  0  0  0  0  0  0
  148.9361  138.0922  154.3266 H   0  0  0  0  0  0  0  0  0  0  0  0
  151.1116  139.5936  153.6226 H   0  0  0  0  0  0  0  0  0  0  0  0
  152.6302  137.9365  154.0133 H   0  0  0  0  0  0  0  0  0  0  0  0
  151.9615  137.5099  155.5726 H   0  0  0  0  0  0  0  0  0  0  0  0
  151.3533  136.5571  153.1097 H   0  0  0  0  0  0  0  0  0  0  0  0
  151.8268  140.9604  155.3532 H   0  0  0  0  0  0  0  0  0  0  0  0
  151.8158  139.6278  156.5035 H   0  0  0  0  0  0  0  0  0  0  0  0
  151.6059  136.6414  158.6101 H   0  0  0  0  0  0  0  0  0  0  0  0
  144.5256  135.1152  162.7213 H   0  0  0  0  0  0  0  0  0  0  0  0
  145.6706  133.1718  160.6894 H   0  0  0  0  0  0  0  0  0  0  0  0
  145.6489  132.9835  162.4474 H   0  0  0  0  0  0  0  0  0  0  0  0
  143.6417  131.9085  160.9770 H   0  0  0  0  0  0  0  0  0  0  0  0
  143.2519  132.7498  162.4794 H   0  0  0  0  0  0  0  0  0  0  0  0
  143.0912  135.9384  160.9828 H   0  0  0  0  0  0  0  0  0  0  0  0
  144.0759  135.2052  159.7155 H   0  0  0  0  0  0  0  0  0  0  0  0
  1  2  1  0  0  0  0
  1 28  1  0  0  0  0
  2  3  1  0  0  0  0
  2 29  1  0  0  0  0
  2 30  1  0  0  0  0
  3  4  1  0  0  0  0
  3 23  1  0  0  0  0
  3 31  1  0  0  0  0
  4  5  1  0  0  0  0
  4 32  1  0  0  0  0
  4 33  1  0  0  0  0
  5 22  1  0  0  0  0
  5  6  1  0  0  0  0
  6  7  2  0  0  0  0
  6 34  1  0  0  0  0
  7  8  1  0  0  0  0
  8 22  2  0  0  0  0
  8  9  1  0  0  0  0
  9 10  1  0  0  0  0
  9 19  2  0  0  0  0
 10 14  1  0  0  0  0
 10 11  1  0  0  0  0
 11 18  1  0  0  0  0
 11 12  1  0  0  0  0
 11 35  1  0  0  0  0
 12 13  1  0  0  0  0
 12 36  1  0  0  0  0
 12 37  1  0  0  0  0
 13 14  1  0  0  0  0
 13 38  1  0  0  0  0
 13 39  1  0  0  0  0
 14 15  1  0  0  0  0
 14 40  1  0  0  0  0
 15 16  1  0  0  0  0
 15 18  1  0  0  0  0
 15 41  1  0  0  0  0
 16 17  1  0  0  0  0
 16 42  1  0  0  0  0
 16 43  1  0  0  0  0
 17 44  1  0  0  0  0
 18 45  1  0  0  0  0
 18 46  1  0  0  0  0
 19 20  1  0  0  0  0
 20 21  2  0  0  0  0
 20 47  1  0  0  0  0
 21 22  1  0  0  0  0
 23 27  1  0  0  0  0
 23 24  1  0  0  0  0
 23 48  1  0  0  0  0
 24 25  1  0  0  0  0
 24 49  1  0  0  0  0
 24 50  1  0  0  0  0
 25 26  1  0  0  0  0
 25 51  1  0  0  0  0
 25 52  1  0  0  0  0
 26 27  1  0  0  0  0
 27 53  1  0  0  0  0
 27 54  1  0  0  0  0
M  END
> <s_m_source_file>
AV-unprocessed.smi

> <i_m_source_file_index>
227

> <i_lp_mmshare_version>
43012

> <i_f3d_flags>
0

> <s_epik_input>
W0NIMl0xT1tDSDJdW0NIMl1bQ0BIXTFbQ0BIXShbQ0gyXVtPSF0pW0NIMl1uKFtjSF1uMiljKGMyMyluW2NIXW5jM04oW0NASF00NSlbQ0BASF0oW0NIMl1bQ0gyXTQpW0NASF0oW0NIMl01KVtDSDJdW09IXQ==

> <s_epik_cmdline>
J2VwaWtfcHl0aG9uJywgJy1waCcsICc3LjAnLCAnLXRuJywgJzgnLCAnLW1hJywgJzIwMCcsICctbWV0YWxfYmluZGluZycsICctaW1hZScsICc8aW5maWxlLm1hZT4nLCAnLW9tYWUnLCAnPG91dGZpbGUubWFlPic=

> <r_lp_tautomer_probability>
1

> <r_epik_Ionization_Penalty>
0.0055791

> <r_epik_Ionization_Penalty_Charging>
0

> <r_epik_Ionization_Penalty_Neutral>
0.0055791

> <r_epik_State_Penalty>
0.00401299

> <r_epik_Charging_Adjusted_Penalty>
0.00401299

> <i_epik_Tot_Q>
0

> <i_epik_Tot_abs_Q>
0

> <r_epik_Metal_State_Penalty>
-0

> <b_epik_Metal_Only>
0

> <s_lp_Force_Field>
OPLS_2005

> <r_lp_Energy>
91.5057

> <b_lp_Chiralities_Consistent>
1

> <s_lp_Variant>
AV-unprocessed.smi:227-6

> <Gold.Version>
5.8.1

> <Gold.Id.Protein>
6NUR|6NUR_protein|mol2

> <Gold.PLP.Fitness>
46.6189

> <Gold.PLP.PLP>
-45.3171

> <Gold.PLP.part.hbond>
-4.4353

> <Gold.PLP.part.metal>
0.0000

> <Gold.PLP.part.buried>
-0.8080

> <Gold.PLP.part.nonpolar>
-40.1256

> <Gold.PLP.part.repulsive>
0.0534

> <Gold.PLP.ligand.clash>
0.0000

> <Gold.PLP.ligand.torsion>
2.3367

> <Gold.PLP.Chemscore.Hbond>
1.9440

> <Gold.PLP.Chemscore.CHOScore>
0.0000

> <Gold.PLP.Chemscore.Metal>
0.0000

> <Gold.Chemscore.Hbonds>
donor molecule, donor type, donor heavy atom, donor atom, acceptor molecule, acceptor atom, score
      L1  H    17    44       P1  7949  1.00
      P1  H  6896  6909       L1    21  0.75

> <Gold.PLP.Chemscore.Internal.Correction>
0.1432

> <Gold.Rescore>
     Score         DG    S(hbond)    S(metal)    S(lipo)     H(rot)  DE(clash)    DE(int)     intcor
      9.59     -13.95       1.66        0.00     103.83       3.61       0.49       3.86       ----

> <Gold.Chemscore.Fitness>
9.5941

> <Gold.Chemscore.DG>
-13.9469

> <Gold.Chemscore.ZeroCoef>
-5.4800

> <Gold.Chemscore.Hbond>
1.6625

> <Gold.Chemscore.Metal>
0.0000

> <Gold.Chemscore.Lipo>
103.8305

> <Gold.Chemscore.Internal_Hbond>
0.0000

> <Gold.Chemscore.DEClash>
0.4943

> <Gold.Chemscore.DEInternal>
3.8584

> <Gold.Chemscore.Rot>
3.6071

> <Gold.Chemscore.Internal.Correction>
   9.000000E+99

> <Gold.Chemscore.Hbonds>
donor molecule, donor type, donor heavy atom, donor atom, acceptor molecule, acceptor atom, score
      L1  H    17    44       P1  7949  0.75
      P1  H  6896  6909       L1    21  0.09

> <Gold.Chemscore.Hbond.Weighted>
-5.5529

> <Gold.Chemscore.Metal.Weighted>
-0.0000

> <Gold.Chemscore.Lipo.Weighted>
-12.1482

> <Gold.Chemscore.Internal_Hbond.Weighted>
0.0000

> <Gold.Chemscore.DEClash.Weighted>
0.4943

> <Gold.Chemscore.DEInternal.Weighted>
3.8584

> <Gold.Chemscore.Rot.Weighted>
9.2342

> <Gold.Chemscore.Internal.Correction.Weighted>
   9.000000E+99

> <Gold.Protein.RotatedTorsions>
[ 6907 6896 6895 6894 ] final   70.16 input  -60.11 | X-H torsion
[ 7974 7965 7964 7962 ] final  -71.35 input  175.53 | X-H torsion
[ 8008 7997 7996 7995 ] final  112.61 input   59.86 | X-H torsion
[ 10167 10162 10161 10158 ] final  -29.14 input  -65.29 | X-H torsion
[ 10718 10713 10712 10709 ] final  -44.66 input   66.30 | X-H torsion
[ 10763 10752 10751 10750 ] final  101.63 input  -60.55 | X-H torsion
[ 11005 11000 10999 10996 ] final  130.90 input  -57.11 | X-H torsion

> <Gold.Protein.ActiveResidues>
 VAL166  LYS551  ARG553  GLY616  TRP617  ASP618  TYR619  PRO620  LYS621  CYS622 
 ASP623  PHE694  ASN695  SER759  ASP760  ASP761  ALA762  ILE779  LEU786  VAL792 
 PHE793  MET794  SER795  GLU796  ALA797  LYS798  CYS799  TRP800  GLU811  SER814 

> <Gold.Protein.RotatedAtoms>
  152.4732  134.4909  159.9694 H   0  0  0  0  0  0  0  0  0  0  0  0  # atno 6907 bound_to 6896
  151.4930  133.3515  159.2864 H   0  0  0  0  0  0  0  0  0  0  0  0  # atno 6908 bound_to 6896
  150.8755  134.8164  159.7248 H   0  0  0  0  0  0  0  0  0  0  0  0  # atno 6909 bound_to 6896
  145.6793  140.9194  143.0841 H   0  0  0  0  0  0  0  0  0  0  0  0  # atno 7974 bound_to 7965
  156.2204  140.2996  155.9938 H   0  0  0  0  0  0  0  0  0  0  0  0  # atno 8008 bound_to 7997
  155.2497  140.0425  157.3002 H   0  0  0  0  0  0  0  0  0  0  0  0  # atno 8009 bound_to 7997
  154.5831  140.2381  155.8033 H   0  0  0  0  0  0  0  0  0  0  0  0  # atno 8010 bound_to 7997
  140.7263  143.3952  151.1359 H   0  0  0  0  0  0  0  0  0  0  0  0  # atno 10167 bound_to 10162
  156.2363  130.4176  149.8814 H   0  0  0  0  0  0  0  0  0  0  0  0  # atno 10718 bound_to 10713
  153.3291  135.4038  155.1480 H   0  0  0  0  0  0  0  0  0  0  0  0  # atno 10763 bound_to 10752
  154.8619  135.3606  154.5494 H   0  0  0  0  0  0  0  0  0  0  0  0  # atno 10764 bound_to 10752
  153.5932  135.7073  153.5474 H   0  0  0  0  0  0  0  0  0  0  0  0  # atno 10765 bound_to 10752
  139.9699  134.9580  156.9360 H   0  0  0  0  0  0  0  0  0  0  0  0  # atno 11005 bound_to 11000
  144.7031  139.8675  143.7438 LP  0  0  0  0  0  0  0  0  0  0  0  0  # atno 17320 bound_to 7965
  146.0978  139.3972  143.0365 LP  0  0  0  0  0  0  0  0  0  0  0  0  # atno 17321 bound_to 7965
  139.7564  143.8701  152.3089 LP  0  0  0  0  0  0  0  0  0  0  0  0  # atno 17342 bound_to 10162
  139.8572  144.7135  150.9142 LP  0  0  0  0  0  0  0  0  0  0  0  0  # atno 17343 bound_to 10162
  156.6411  130.8705  151.3514 LP  0  0  0  0  0  0  0  0  0  0  0  0  # atno 17370 bound_to 10713
  157.7156  130.9493  150.1242 LP  0  0  0  0  0  0  0  0  0  0  0  0  # atno 17371 bound_to 10713
  140.5316  134.0807  155.7317 LP  0  0  0  0  0  0  0  0  0  0  0  0  # atno 17394 bound_to 11000
  141.1378  133.9190  157.2394 LP  0  0  0  0  0  0  0  0  0  0  0  0  # atno 17395 bound_to 11000

$$$$
