AV-unprocessed.smi:1554|AV-procd|sdf|6241|dock6
  -GOLD-   22720 6423D 1   1.00000     0.00000
 Structure written by MMmdl.
 47 49  0  0  0  0  0  0  0  0  1 V2000
  153.8032  142.8397  163.4801 C   0  0  0  0  0  0  0  0  0  0  0  0
  153.2240  142.8214  162.0764 C   0  0  0  0  0  0  0  0  0  0  0  0
  152.2539  143.7854  161.7206 C   0  0  0  0  0  0  0  0  0  0  0  0
  151.6935  143.8047  160.4247 C   0  0  0  0  0  0  0  0  0  0  0  0
  150.7476  144.6480  159.8671 N   0  0  0  0  0  0  0  0  0  0  0  0
  150.6455  144.1586  158.6348 C   0  0  0  0  0  0  0  0  0  0  0  0
  151.4145  143.0967  158.3270 N   0  0  0  0  0  0  0  0  0  0  0  0
  151.4692  142.3999  157.0538 C   0  0  0  0  0  0  0  0  0  0  0  0
  150.1668  141.6394  156.7400 C   0  0  1  0  0  0  0  0  0  0  0  0
  149.1260  142.5731  156.5254 O   0  0  0  0  0  0  0  0  0  0  0  0
  150.3148  140.7673  155.4764 C   0  0  0  0  0  0  0  0  0  0  0  0
  150.6960  139.3723  155.7072 N   0  0  0  0  0  0  0  0  0  0  0  0
  150.6385  138.6073  154.4665 C   0  0  0  0  0  0  0  0  0  0  0  0
  151.0313  137.1359  154.6781 C   0  0  0  0  0  0  0  0  0  0  0  0
  152.3335  137.0711  155.2494 O   0  0  0  0  0  0  0  0  0  0  0  0
  152.4280  137.7616  156.4921 C   0  0  1  0  0  0  0  0  0  0  0  0
  153.8592  137.6130  157.0191 C   0  0  0  0  0  0  0  0  0  0  0  0
  152.0333  139.2373  156.2833 C   0  0  0  0  0  0  0  0  0  0  0  0
  152.1317  142.8238  159.4873 C   0  0  0  0  0  0  0  0  0  0  0  0
  153.0964  141.8599  159.8293 C   0  0  0  0  0  0  0  0  0  0  0  0
  153.6472  141.8558  161.1280 C   0  0  0  0  0  0  0  0  0  0  0  0
  154.6908  140.8128  161.4867 C   0  0  0  0  0  0  0  0  0  0  0  0
  153.3604  143.6330  164.0831 H   0  0  0  0  0  0  0  0  0  0  0  0
  154.8801  143.0064  163.4465 H   0  0  0  0  0  0  0  0  0  0  0  0
  153.6146  141.8919  163.9849 H   0  0  0  0  0  0  0  0  0  0  0  0
  151.9321  144.5218  162.4422 H   0  0  0  0  0  0  0  0  0  0  0  0
  149.9732  144.5978  157.9123 H   0  0  0  0  0  0  0  0  0  0  0  0
  151.6920  143.1224  156.2675 H   0  0  0  0  0  0  0  0  0  0  0  0
  152.3103  141.7060  157.0839 H   0  0  0  0  0  0  0  0  0  0  0  0
  149.9108  141.0305  157.6059 H   0  0  0  0  0  0  0  0  0  0  0  0
  149.3382  143.0882  155.7620 H   0  0  0  0  0  0  0  0  0  0  0  0
  149.3679  140.7978  154.9350 H   0  0  0  0  0  0  0  0  0  0  0  0
  151.0471  141.2260  154.8101 H   0  0  0  0  0  0  0  0  0  0  0  0
  149.6312  138.6521  154.0503 H   0  0  0  0  0  0  0  0  0  0  0  0
  151.3029  139.0538  153.7248 H   0  0  0  0  0  0  0  0  0  0  0  0
  150.3144  136.6329  155.3288 H   0  0  0  0  0  0  0  0  0  0  0  0
  151.0315  136.6024  153.7276 H   0  0  0  0  0  0  0  0  0  0  0  0
  151.7431  137.2991  157.2049 H   0  0  0  0  0  0  0  0  0  0  0  0
  153.9774  138.1155  157.9795 H   0  0  0  0  0  0  0  0  0  0  0  0
  154.5821  138.0422  156.3248 H   0  0  0  0  0  0  0  0  0  0  0  0
  154.1151  136.5629  157.1602 H   0  0  0  0  0  0  0  0  0  0  0  0
  152.7648  139.7208  155.6337 H   0  0  0  0  0  0  0  0  0  0  0  0
  152.0860  139.7451  157.2450 H   0  0  0  0  0  0  0  0  0  0  0  0
  153.4119  141.1319  159.0965 H   0  0  0  0  0  0  0  0  0  0  0  0
  154.8884  140.1434  160.6490 H   0  0  0  0  0  0  0  0  0  0  0  0
  154.3525  140.2056  162.3268 H   0  0  0  0  0  0  0  0  0  0  0  0
  155.6305  141.2926  161.7610 H   0  0  0  0  0  0  0  0  0  0  0  0
  1  2  1  0  0  0  0
  1 23  1  0  0  0  0
  1 24  1  0  0  0  0
  1 25  1  0  0  0  0
  2 21  1  0  0  0  0
  2  3  2  0  0  0  0
  3  4  1  0  0  0  0
  3 26  1  0  0  0  0
  4 19  2  0  0  0  0
  4  5  1  0  0  0  0
  5  6  2  0  0  0  0
  6  7  1  0  0  0  0
  6 27  1  0  0  0  0
  7  8  1  0  0  0  0
  7 19  1  0  0  0  0
  8  9  1  0  0  0  0
  8 28  1  0  0  0  0
  8 29  1  0  0  0  0
  9 10  1  0  0  0  0
  9 11  1  0  0  0  0
  9 30  1  0  0  0  0
 10 31  1  0  0  0  0
 11 12  1  0  0  0  0
 11 32  1  0  0  0  0
 11 33  1  0  0  0  0
 12 18  1  0  0  0  0
 12 13  1  0  0  0  0
 13 14  1  0  0  0  0
 13 34  1  0  0  0  0
 13 35  1  0  0  0  0
 14 15  1  0  0  0  0
 14 36  1  0  0  0  0
 14 37  1  0  0  0  0
 15 16  1  0  0  0  0
 16 17  1  0  0  0  0
 16 18  1  0  0  0  0
 16 38  1  0  0  0  0
 17 39  1  0  0  0  0
 17 40  1  0  0  0  0
 17 41  1  0  0  0  0
 18 42  1  0  0  0  0
 18 43  1  0  0  0  0
 19 20  1  0  0  0  0
 20 21  2  0  0  0  0
 20 44  1  0  0  0  0
 21 22  1  0  0  0  0
 22 45  1  0  0  0  0
 22 46  1  0  0  0  0
 22 47  1  0  0  0  0
M  END
> <s_m_source_file>
AV-unprocessed.smi

> <i_m_source_file_index>
1554

> <i_lp_mmshare_version>
43012

> <i_f3d_flags>
0

> <s_epik_input>
W0NIM11jKFtjSF0xKWMoW0NIM10pW2NIXWMoYzEyKW4oW2NIXW4yKVtDSDJdW0NASF0oW09IXSlbQ0gyXU4zW0NIMl1bQ0gyXU9bQ0BASF0oW0NIM10pW0NIMl0z

> <s_epik_cmdline>
J2VwaWtfcHl0aG9uJywgJy1waCcsICc3LjAnLCAnLXRuJywgJzgnLCAnLW1hJywgJzIwMCcsICctbWV0YWxfYmluZGluZycsICctaW1hZScsICc8aW5maWxlLm1hZT4nLCAnLW9tYWUnLCAnPG91dGZpbGUubWFlPic=

> <r_epik_Ionization_Penalty>
0.345108

> <r_epik_Ionization_Penalty_Charging>
0

> <r_epik_Ionization_Penalty_Neutral>
0.345108

> <r_epik_State_Penalty>
0.314544

> <r_epik_Charging_Adjusted_Penalty>
0.314544

> <i_epik_Tot_Q>
0

> <i_epik_Tot_abs_Q>
0

> <r_epik_Metal_State_Penalty>
0.239719

> <b_epik_Metal_Only>
0

> <s_lp_Force_Field>
OPLS_2005

> <r_lp_Energy>
29.8053

> <b_lp_Chiralities_Consistent>
1

> <s_lp_Variant>
AV-unprocessed.smi:1554-2

> <Gold.Version>
5.8.1

> <Gold.Id.Protein>
6NUR|6NUR_protein|mol2

> <Gold.PLP.Fitness>
55.8229

> <Gold.PLP.PLP>
-49.9337

> <Gold.PLP.part.hbond>
-1.1708

> <Gold.PLP.part.metal>
0.0000

> <Gold.PLP.part.buried>
-5.7458

> <Gold.PLP.part.nonpolar>
-42.5999

> <Gold.PLP.part.repulsive>
0.2016

> <Gold.PLP.ligand.clash>
0.0000

> <Gold.PLP.ligand.torsion>
0.5630

> <Gold.PLP.Chemscore.Hbond>
1.2320

> <Gold.PLP.Chemscore.CHOScore>
1.0984

> <Gold.PLP.Chemscore.Metal>
0.0000

> <Gold.Chemscore.Hbonds>
donor molecule, donor type, donor heavy atom, donor atom, acceptor molecule, acceptor atom, score
      L1  H    10    31       P1  8028  0.42
      P1  H 10752 10765       L1    15  0.78
      L1  C     6    27       P1  8028  0.66
      L1  C     6    27       P1  8029  0.47

> <Gold.PLP.Chemscore.Internal.Correction>
0.0239

> <Gold.Rescore>
     Score         DG    S(hbond)    S(metal)    S(lipo)     H(rot)  DE(clash)    DE(int)     intcor
     20.48     -21.83       1.59        0.00     137.71       1.98       0.04       1.31       ----

> <Gold.Chemscore.Fitness>
20.4805

> <Gold.Chemscore.DG>
-21.8326

> <Gold.Chemscore.ZeroCoef>
-5.4800

> <Gold.Chemscore.Hbond>
1.5934

> <Gold.Chemscore.Metal>
0.0000

> <Gold.Chemscore.Lipo>
137.7070

> <Gold.Chemscore.Internal_Hbond>
0.0000

> <Gold.Chemscore.DEClash>
0.0417

> <Gold.Chemscore.DEInternal>
1.3104

> <Gold.Chemscore.Rot>
1.9848

> <Gold.Chemscore.Internal.Correction>
   9.000000E+99

> <Gold.Chemscore.Hbonds>
donor molecule, donor type, donor heavy atom, donor atom, acceptor molecule, acceptor atom, score
      L1  H    10    31       P1  8028  0.42
      P1  H 10752 10765       L1    15  0.47

> <Gold.Chemscore.Hbond.Weighted>
-5.3219

> <Gold.Chemscore.Metal.Weighted>
-0.0000

> <Gold.Chemscore.Lipo.Weighted>
-16.1117

> <Gold.Chemscore.Internal_Hbond.Weighted>
0.0000

> <Gold.Chemscore.DEClash.Weighted>
0.0417

> <Gold.Chemscore.DEInternal.Weighted>
1.3104

> <Gold.Chemscore.Rot.Weighted>
5.0810

> <Gold.Chemscore.Internal.Correction.Weighted>
   9.000000E+99

> <Gold.Protein.RotatedTorsions>
[ 6907 6896 6895 6894 ] final    0.78 input  -60.11 | X-H torsion
[ 7974 7965 7964 7962 ] final -121.10 input  175.53 | X-H torsion
[ 8008 7997 7996 7995 ] final -119.94 input   59.86 | X-H torsion
[ 10167 10162 10161 10158 ] final  175.99 input  -65.29 | X-H torsion
[ 10718 10713 10712 10709 ] final  161.10 input   66.30 | X-H torsion
[ 10763 10752 10751 10750 ] final -167.80 input  -60.55 | X-H torsion
[ 11005 11000 10999 10996 ] final  105.90 input  -57.11 | X-H torsion

> <Gold.Protein.ActiveResidues>
 VAL166  LYS551  ARG553  GLY616  TRP617  ASP618  TYR619  PRO620  LYS621  CYS622 
 ASP623  PHE694  ASN695  SER759  ASP760  ASP761  ALA762  ILE779  LEU786  VAL792 
 PHE793  MET794  SER795  GLU796  ALA797  LYS798  CYS799  TRP800  GLU811  SER814 

> <Gold.Protein.RotatedAtoms>
  151.5820  135.1058  160.0019 H   0  0  0  0  0  0  0  0  0  0  0  0  # atno 6907 bound_to 6896
  152.4349  133.7339  159.6614 H   0  0  0  0  0  0  0  0  0  0  0  0  # atno 6908 bound_to 6896
  150.8246  133.8124  159.3147 H   0  0  0  0  0  0  0  0  0  0  0  0  # atno 6909 bound_to 6896
  145.0441  140.8167  143.4249 H   0  0  0  0  0  0  0  0  0  0  0  0  # atno 7974 bound_to 7965
  155.1239  140.0399  157.2757 H   0  0  0  0  0  0  0  0  0  0  0  0  # atno 8008 bound_to 7997
  154.6593  140.2587  155.7101 H   0  0  0  0  0  0  0  0  0  0  0  0  # atno 8009 bound_to 7997
  156.2612  140.2820  156.1059 H   0  0  0  0  0  0  0  0  0  0  0  0  # atno 8010 bound_to 7997
  139.5197  144.2967  152.0415 H   0  0  0  0  0  0  0  0  0  0  0  0  # atno 10167 bound_to 10162
  157.1412  131.0541  151.2326 H   0  0  0  0  0  0  0  0  0  0  0  0  # atno 10718 bound_to 10713
  154.6695  135.2937  154.9761 H   0  0  0  0  0  0  0  0  0  0  0  0  # atno 10763 bound_to 10752
  154.0793  135.6607  153.4839 H   0  0  0  0  0  0  0  0  0  0  0  0  # atno 10764 bound_to 10752
  153.0478  135.5193  154.7684 H   0  0  0  0  0  0  0  0  0  0  0  0  # atno 10765 bound_to 10752
  139.8807  134.9351  156.5584 H   0  0  0  0  0  0  0  0  0  0  0  0  # atno 11005 bound_to 11000
  145.1611  139.2458  143.5391 LP  0  0  0  0  0  0  0  0  0  0  0  0  # atno 17320 bound_to 7965
  146.3512  140.1338  142.8596 LP  0  0  0  0  0  0  0  0  0  0  0  0  # atno 17321 bound_to 7965
  140.2416  144.4263  150.6257 LP  0  0  0  0  0  0  0  0  0  0  0  0  # atno 17342 bound_to 10162
  140.6286  143.2184  151.6543 LP  0  0  0  0  0  0  0  0  0  0  0  0  # atno 17343 bound_to 10162
  157.4306  130.7488  149.6986 LP  0  0  0  0  0  0  0  0  0  0  0  0  # atno 17370 bound_to 10713
  155.9788  130.4047  150.3625 LP  0  0  0  0  0  0  0  0  0  0  0  0  # atno 17371 bound_to 10713
  140.8188  133.8370  155.8876 LP  0  0  0  0  0  0  0  0  0  0  0  0  # atno 17394 bound_to 11000
  140.9438  134.1867  157.4778 LP  0  0  0  0  0  0  0  0  0  0  0  0  # atno 17395 bound_to 11000

$$$$
