AV-unprocessed.smi:2525|AV-procd|sdf|9930|dock3
  -GOLD-   2272013573D 1   1.00000     0.00000
 Structure written by MMmdl.
 44 45  0  0  0  0  0  0  0  0  1 V2000
  150.8310  132.0994  155.6322 C   0  0  0  0  0  0  0  0  0  0  0  0
  149.6904  131.8506  154.6289 C   0  0  0  0  0  0  0  0  0  0  0  0
  149.0282  130.4433  154.6378 C   0  0  0  0  0  0  0  0  0  0  0  0
  148.9415  130.0109  156.1222 C   0  0  0  0  0  0  0  0  0  0  0  0
  147.9781  130.8436  156.9865 C   0  0  0  0  0  0  0  0  0  0  0  0
  147.6958  130.2425  153.8549 C   0  0  1  0  0  0  0  0  0  0  0  0
  147.5303  131.1488  152.7203 N   0  0  0  0  0  0  0  0  0  0  0  0
  146.6449  132.1540  152.6520 C   0  0  0  0  0  0  0  0  0  0  0  0
  145.8746  132.4408  153.5675 O   0  0  0  0  0  0  0  0  0  0  0  0
  146.6382  132.9769  151.3605 C   0  0  0  0  0  0  0  0  0  0  0  0
  145.4831  132.6739  150.5313 N   0  0  0  0  0  0  0  0  0  0  0  0
  144.1448  132.7754  150.8513 C   0  0  0  0  0  0  0  0  0  0  0  0
  143.5139  132.3472  149.7186 C   0  0  0  0  0  0  0  0  0  0  0  0
  144.4780  132.0074  148.7711 N   0  0  0  0  0  0  0  0  0  0  0  0
  145.6570  132.2109  149.2692 N   0  0  0  0  0  0  0  0  0  0  0  0
  148.1810  128.8525  153.4044 C   0  0  1  0  0  0  0  0  0  0  0  0
  147.8124  128.3167  152.0218 C   0  0  0  0  0  0  0  0  0  0  0  0
  149.6036  129.3631  153.6773 C   0  0  2  0  0  0  0  0  0  0  0  0
  150.4618  128.4452  154.3392 O   0  0  0  0  0  0  0  0  0  0  0  0
  151.6472  129.0426  154.8342 C   0  0  0  0  0  0  0  0  0  0  0  0
  151.2399  133.1011  155.4986 H   0  0  0  0  0  0  0  0  0  0  0  0
  151.6554  131.3980  155.5116 H   0  0  0  0  0  0  0  0  0  0  0  0
  150.4756  132.0342  156.6606 H   0  0  0  0  0  0  0  0  0  0  0  0
  148.9445  132.6229  154.8211 H   0  0  0  0  0  0  0  0  0  0  0  0
  150.0659  132.0671  153.6283 H   0  0  0  0  0  0  0  0  0  0  0  0
  148.6283  128.9692  156.1950 H   0  0  0  0  0  0  0  0  0  0  0  0
  149.9318  130.0343  156.5789 H   0  0  0  0  0  0  0  0  0  0  0  0
  147.9435  130.4513  158.0028 H   0  0  0  0  0  0  0  0  0  0  0  0
  146.9613  130.8233  156.5956 H   0  0  0  0  0  0  0  0  0  0  0  0
  148.2890  131.8858  157.0543 H   0  0  0  0  0  0  0  0  0  0  0  0
  146.8101  130.1714  154.4873 H   0  0  0  0  0  0  0  0  0  0  0  0
  148.1271  130.9900  151.9214 H   0  0  0  0  0  0  0  0  0  0  0  0
  146.6258  134.0416  151.5972 H   0  0  0  0  0  0  0  0  0  0  0  0
  147.5536  132.7824  150.7998 H   0  0  0  0  0  0  0  0  0  0  0  0
  143.7809  133.1210  151.8079 H   0  0  0  0  0  0  0  0  0  0  0  0
  142.4584  132.2543  149.5089 H   0  0  0  0  0  0  0  0  0  0  0  0
  147.9036  128.1267  154.1707 H   0  0  0  0  0  0  0  0  0  0  0  0
  148.2303  128.9313  151.2238 H   0  0  0  0  0  0  0  0  0  0  0  0
  146.7312  128.2919  151.8857 H   0  0  0  0  0  0  0  0  0  0  0  0
  148.1823  127.3019  151.8781 H   0  0  0  0  0  0  0  0  0  0  0  0
  150.0514  129.7702  152.7703 H   0  0  0  0  0  0  0  0  0  0  0  0
  152.2296  128.2988  155.3776 H   0  0  0  0  0  0  0  0  0  0  0  0
  151.4226  129.8600  155.5203 H   0  0  0  0  0  0  0  0  0  0  0  0
  152.2682  129.4236  154.0241 H   0  0  0  0  0  0  0  0  0  0  0  0
  1  2  1  0  0  0  0
  1 21  1  0  0  0  0
  1 22  1  0  0  0  0
  1 23  1  0  0  0  0
  2  3  1  0  0  0  0
  2 24  1  0  0  0  0
  2 25  1  0  0  0  0
  3 18  1  0  0  0  0
  3  4  1  0  0  0  0
  3  6  1  0  0  0  0
  4  5  1  0  0  0  0
  4 26  1  0  0  0  0
  4 27  1  0  0  0  0
  5 28  1  0  0  0  0
  5 29  1  0  0  0  0
  5 30  1  0  0  0  0
  6  7  1  0  0  0  0
  6 16  1  0  0  0  0
  6 31  1  0  0  0  0
  7  8  1  0  0  0  0
  7 32  1  0  0  0  0
  8  9  2  0  0  0  0
  8 10  1  0  0  0  0
 10 11  1  0  0  0  0
 10 33  1  0  0  0  0
 10 34  1  0  0  0  0
 11 15  1  0  0  0  0
 11 12  1  0  0  0  0
 12 13  2  0  0  0  0
 12 35  1  0  0  0  0
 13 14  1  0  0  0  0
 13 36  1  0  0  0  0
 14 15  2  0  0  0  0
 16 17  1  0  0  0  0
 16 18  1  0  0  0  0
 16 37  1  0  0  0  0
 17 38  1  0  0  0  0
 17 39  1  0  0  0  0
 17 40  1  0  0  0  0
 18 19  1  0  0  0  0
 18 41  1  0  0  0  0
 19 20  1  0  0  0  0
 20 42  1  0  0  0  0
 20 43  1  0  0  0  0
 20 44  1  0  0  0  0
M  END
> <s_m_source_file>
AV-unprocessed.smi

> <i_m_source_file_index>
2525

> <i_lp_mmshare_version>
43012

> <i_f3d_flags>
0

> <s_epik_input>
W0NIM11PW0NAQEhdMVtDQEhdKFtDSDNdKVtDQEBIXShDMShbQ0gyXVtDSDNdKVtDSDJdW0NIM10pW05IXUMoPU8pW0NIMl1uMltjSF1bY0hdbm4y

> <s_epik_cmdline>
J2VwaWtfcHl0aG9uJywgJy1waCcsICc3LjAnLCAnLXRuJywgJzgnLCAnLW1hJywgJzIwMCcsICctbWV0YWxfYmluZGluZycsICctaW1hZScsICc8aW5maWxlLm1hZT4nLCAnLW9tYWUnLCAnPG91dGZpbGUubWFlPic=

> <r_lp_tautomer_probability>
1

> <r_epik_Ionization_Penalty>
1.18045e-06

> <r_epik_Ionization_Penalty_Charging>
0

> <r_epik_Ionization_Penalty_Neutral>
1.18045e-06

> <r_epik_State_Penalty>
-0

> <r_epik_Charging_Adjusted_Penalty>
0

> <i_epik_Tot_Q>
0

> <i_epik_Tot_abs_Q>
0

> <r_epik_Metal_State_Penalty>
-0

> <b_epik_Metal_Only>
0

> <s_lp_Force_Field>
OPLS_2005

> <r_lp_Energy>
28.6674

> <b_lp_Chiralities_Consistent>
1

> <s_lp_Variant>
AV-unprocessed.smi:2525-5

> <Gold.Version>
5.8.1

> <Gold.Id.Protein>
6NUR|6NUR_protein|mol2

> <Gold.PLP.Fitness>
38.1024

> <Gold.PLP.PLP>
-30.9861

> <Gold.PLP.part.hbond>
-2.0000

> <Gold.PLP.part.metal>
0.0000

> <Gold.PLP.part.buried>
-4.9673

> <Gold.PLP.part.nonpolar>
-25.5067

> <Gold.PLP.part.repulsive>
1.1989

> <Gold.PLP.ligand.clash>
0.0000

> <Gold.PLP.ligand.torsion>
0.9176

> <Gold.PLP.Chemscore.Hbond>
1.0251

> <Gold.PLP.Chemscore.CHOScore>
1.7646

> <Gold.PLP.Chemscore.Metal>
0.0000

> <Gold.Chemscore.Hbonds>
donor molecule, donor type, donor heavy atom, donor atom, acceptor molecule, acceptor atom, score
      L1  H     7    32       P1 10747  1.00
      P1  H 10785 10796       L1    14  0.01
      L1  C    13    36       P1 10186  0.65
      L1  C    13    36       P1 10952  1.00

> <Gold.PLP.Chemscore.Internal.Correction>
0.5824

> <Gold.Rescore>
     Score         DG    S(hbond)    S(metal)    S(lipo)     H(rot)  DE(clash)    DE(int)     intcor
     11.73     -12.74       1.00        0.00      76.83       1.98       0.10       0.91       ----

> <Gold.Chemscore.Fitness>
11.7265

> <Gold.Chemscore.DG>
-12.7357

> <Gold.Chemscore.ZeroCoef>
-5.4800

> <Gold.Chemscore.Hbond>
1.0000

> <Gold.Chemscore.Metal>
0.0000

> <Gold.Chemscore.Lipo>
76.8268

> <Gold.Chemscore.Internal_Hbond>
0.0000

> <Gold.Chemscore.DEClash>
0.1013

> <Gold.Chemscore.DEInternal>
0.9079

> <Gold.Chemscore.Rot>
1.9817

> <Gold.Chemscore.Internal.Correction>
   9.000000E+99

> <Gold.Chemscore.Hbonds>
donor molecule, donor type, donor heavy atom, donor atom, acceptor molecule, acceptor atom, score
      L1  H     7    32       P1 10747  1.00

> <Gold.Chemscore.Hbond.Weighted>
-3.3401

> <Gold.Chemscore.Metal.Weighted>
-0.0000

> <Gold.Chemscore.Lipo.Weighted>
-8.9887

> <Gold.Chemscore.Internal_Hbond.Weighted>
0.0000

> <Gold.Chemscore.DEClash.Weighted>
0.1013

> <Gold.Chemscore.DEInternal.Weighted>
0.9079

> <Gold.Chemscore.Rot.Weighted>
5.0731

> <Gold.Chemscore.Internal.Correction.Weighted>
   9.000000E+99

> <Gold.Protein.RotatedTorsions>
[ 6907 6896 6895 6894 ] final -133.77 input  -60.11 | X-H torsion
[ 7974 7965 7964 7962 ] final -161.04 input  175.53 | X-H torsion
[ 8008 7997 7996 7995 ] final -144.53 input   59.86 | X-H torsion
[ 10167 10162 10161 10158 ] final    3.70 input  -65.29 | X-H torsion
[ 10718 10713 10712 10709 ] final -139.88 input   66.30 | X-H torsion
[ 10763 10752 10751 10750 ] final   39.44 input  -60.55 | X-H torsion
[ 11005 11000 10999 10996 ] final  102.81 input  -57.11 | X-H torsion

> <Gold.Protein.ActiveResidues>
 VAL166  LYS551  ARG553  GLY616  TRP617  ASP618  TYR619  PRO620  LYS621  CYS622 
 ASP623  PHE694  ASN695  SER759  ASP760  ASP761  ALA762  ILE779  LEU786  VAL792 
 PHE793  MET794  SER795  GLU796  ALA797  LYS798  CYS799  TRP800  GLU811  SER814 

> <Gold.Protein.RotatedAtoms>
  150.9780  133.6275  159.2726 H   0  0  0  0  0  0  0  0  0  0  0  0  # atno 6907 bound_to 6896
  151.3540  135.0889  159.9422 H   0  0  0  0  0  0  0  0  0  0  0  0  # atno 6908 bound_to 6896
  152.5206  133.9366  159.7661 H   0  0  0  0  0  0  0  0  0  0  0  0  # atno 6909 bound_to 6896
  144.7405  140.3455  143.6126 H   0  0  0  0  0  0  0  0  0  0  0  0  # atno 7974 bound_to 7965
  155.5284  140.0597  157.2893 H   0  0  0  0  0  0  0  0  0  0  0  0  # atno 8008 bound_to 7997
  154.4493  140.1940  156.0515 H   0  0  0  0  0  0  0  0  0  0  0  0  # atno 8009 bound_to 7997
  156.0669  140.3265  155.7533 H   0  0  0  0  0  0  0  0  0  0  0  0  # atno 8010 bound_to 7997
  140.6572  143.7396  150.7675 H   0  0  0  0  0  0  0  0  0  0  0  0  # atno 10167 bound_to 10162
  156.3158  130.7507  151.1593 H   0  0  0  0  0  0  0  0  0  0  0  0  # atno 10718 bound_to 10713
  152.9967  135.6220  154.2466 H   0  0  0  0  0  0  0  0  0  0  0  0  # atno 10763 bound_to 10752
  154.2206  135.2796  155.2928 H   0  0  0  0  0  0  0  0  0  0  0  0  # atno 10764 bound_to 10752
  154.5532  135.5727  153.6999 H   0  0  0  0  0  0  0  0  0  0  0  0  # atno 10765 bound_to 10752
  139.8780  134.9239  156.5115 H   0  0  0  0  0  0  0  0  0  0  0  0  # atno 11005 bound_to 11000
  145.7330  139.1741  143.2420 LP  0  0  0  0  0  0  0  0  0  0  0  0  # atno 17320 bound_to 7965
  146.1192  140.7331  142.9466 LP  0  0  0  0  0  0  0  0  0  0  0  0  # atno 17321 bound_to 7965
  140.1058  143.4745  152.2399 LP  0  0  0  0  0  0  0  0  0  0  0  0  # atno 17342 bound_to 10162
  139.5798  144.7505  151.3670 LP  0  0  0  0  0  0  0  0  0  0  0  0  # atno 17343 bound_to 10162
  157.7401  131.0521  150.5187 LP  0  0  0  0  0  0  0  0  0  0  0  0  # atno 17370 bound_to 10713
  156.5333  130.4190  149.6190 LP  0  0  0  0  0  0  0  0  0  0  0  0  # atno 17371 bound_to 10713
  140.8517  133.8127  155.9175 LP  0  0  0  0  0  0  0  0  0  0  0  0  # atno 17394 bound_to 11000
  140.9138  134.2228  157.4969 LP  0  0  0  0  0  0  0  0  0  0  0  0  # atno 17395 bound_to 11000

$$$$
