AV-unprocessed.smi:1699|AV-procd|sdf|6815|dock7
  -GOLD-   22720 7593D 1   1.00000     0.00000
 Structure written by MMmdl.
 37 38  0  0  0  0  0  0  0  0  1 V2000
  145.3407  135.5169  151.3947 C   0  0  0  0  0  0  0  0  0  0  0  0
  145.3076  134.0334  151.0647 C   0  0  0  0  0  0  0  0  0  0  0  0
  144.2125  133.5112  150.3439 C   0  0  0  0  0  0  0  0  0  0  0  0
  144.1840  132.1398  150.0383 C   0  0  0  0  0  0  0  0  0  0  0  0
  145.2582  131.3435  150.4705 C   0  0  0  0  0  0  0  0  0  0  0  0
  146.3078  131.8337  151.1606 N   0  0  0  0  0  0  0  0  0  0  0  0
  146.3516  133.1557  151.4631 C   0  0  0  0  0  0  0  0  0  0  0  0
  147.4290  133.7436  152.1844 N   0  0  0  0  0  0  0  0  0  0  0  0
  148.1210  133.2359  153.2196 C   0  0  0  0  0  0  0  0  0  0  0  0
  147.9099  132.1465  153.7526 O   0  0  0  0  0  0  0  0  0  0  0  0
  149.0900  134.0780  153.6079 N   0  0  0  0  0  0  0  0  0  0  0  0
  150.0448  133.8462  154.6905 C   0  0  2  0  0  0  0  0  0  0  0  0
  150.5744  135.1969  155.1951 C   0  0  0  0  0  0  0  0  0  0  0  0
  151.1791  132.9255  154.1999 C   0  0  2  0  0  0  0  0  0  0  0  0
  150.7087  131.5836  153.6323 C   0  0  0  0  0  0  0  0  0  0  0  0
  151.9280  130.7164  153.8412 C   0  0  0  0  0  0  0  0  0  0  0  0
  152.4259  131.2082  155.1960 C   0  0  0  0  0  0  0  0  0  0  0  0
  152.0488  132.5803  155.2769 O   0  0  0  0  0  0  0  0  0  0  0  0
  144.4698  136.0336  150.9900 H   0  0  0  0  0  0  0  0  0  0  0  0
  146.2315  135.9831  150.9729 H   0  0  0  0  0  0  0  0  0  0  0  0
  145.3479  135.6665  152.4748 H   0  0  0  0  0  0  0  0  0  0  0  0
  143.4024  134.1514  150.0270 H   0  0  0  0  0  0  0  0  0  0  0  0
  143.3607  131.7099  149.4872 H   0  0  0  0  0  0  0  0  0  0  0  0
  145.2764  130.2850  150.2569 H   0  0  0  0  0  0  0  0  0  0  0  0
  147.7135  134.6570  151.8638 H   0  0  0  0  0  0  0  0  0  0  0  0
  149.1825  134.9505  153.1090 H   0  0  0  0  0  0  0  0  0  0  0  0
  149.5497  133.3463  155.5249 H   0  0  0  0  0  0  0  0  0  0  0  0
  151.2759  135.0619  156.0187 H   0  0  0  0  0  0  0  0  0  0  0  0
  149.7615  135.8263  155.5586 H   0  0  0  0  0  0  0  0  0  0  0  0
  151.0914  135.7420  154.4046 H   0  0  0  0  0  0  0  0  0  0  0  0
  151.7784  133.4366  153.4444 H   0  0  0  0  0  0  0  0  0  0  0  0
  149.8706  131.1927  154.2114 H   0  0  0  0  0  0  0  0  0  0  0  0
  150.4030  131.6456  152.5876 H   0  0  0  0  0  0  0  0  0  0  0  0
  151.7051  129.6492  153.8298 H   0  0  0  0  0  0  0  0  0  0  0  0
  152.6703  130.9213  153.0685 H   0  0  0  0  0  0  0  0  0  0  0  0
  151.9311  130.6665  156.0030 H   0  0  0  0  0  0  0  0  0  0  0  0
  153.5024  131.0819  155.3135 H   0  0  0  0  0  0  0  0  0  0  0  0
  1  2  1  0  0  0  0
  1 19  1  0  0  0  0
  1 20  1  0  0  0  0
  1 21  1  0  0  0  0
  2  7  1  0  0  0  0
  2  3  2  0  0  0  0
  3  4  1  0  0  0  0
  3 22  1  0  0  0  0
  4  5  2  0  0  0  0
  4 23  1  0  0  0  0
  5  6  1  0  0  0  0
  5 24  1  0  0  0  0
  6  7  2  0  0  0  0
  7  8  1  0  0  0  0
  8  9  1  0  0  0  0
  8 25  1  0  0  0  0
  9 10  2  0  0  0  0
  9 11  1  0  0  0  0
 11 12  1  0  0  0  0
 11 26  1  0  0  0  0
 12 13  1  0  0  0  0
 12 14  1  0  0  0  0
 12 27  1  0  0  0  0
 13 28  1  0  0  0  0
 13 29  1  0  0  0  0
 13 30  1  0  0  0  0
 14 18  1  0  0  0  0
 14 15  1  0  0  0  0
 14 31  1  0  0  0  0
 15 16  1  0  0  0  0
 15 32  1  0  0  0  0
 15 33  1  0  0  0  0
 16 17  1  0  0  0  0
 16 34  1  0  0  0  0
 16 35  1  0  0  0  0
 17 18  1  0  0  0  0
 17 36  1  0  0  0  0
 17 37  1  0  0  0  0
M  END
> <s_m_source_file>
AV-unprocessed.smi

> <i_m_source_file_index>
1699

> <i_lp_mmshare_version>
43012

> <i_f3d_flags>
0

> <s_epik_input>
W0NIM11jMVtjSF1bY0hdW2NIXW5jMVtOSF1DKD1PKVtOSF1bQ0BIXShbQ0gzXSlbQ0BASF0yW0NIMl1bQ0gyXVtDSDJdTzI=

> <s_epik_cmdline>
J2VwaWtfcHl0aG9uJywgJy1waCcsICc3LjAnLCAnLXRuJywgJzgnLCAnLW1hJywgJzIwMCcsICctbWV0YWxfYmluZGluZycsICctaW1hZScsICc8aW5maWxlLm1hZT4nLCAnLW9tYWUnLCAnPG91dGZpbGUubWFlPic=

> <r_lp_tautomer_probability>
1

> <r_epik_Ionization_Penalty>
5.52788e-05

> <r_epik_Ionization_Penalty_Charging>
0

> <r_epik_Ionization_Penalty_Neutral>
5.52788e-05

> <r_epik_State_Penalty>
-0

> <r_epik_Charging_Adjusted_Penalty>
0

> <i_epik_Tot_Q>
0

> <i_epik_Tot_abs_Q>
0

> <r_epik_Metal_State_Penalty>
-0

> <b_epik_Metal_Only>
0

> <s_lp_Force_Field>
OPLS_2005

> <r_lp_Energy>
20.4349

> <b_lp_Chiralities_Consistent>
1

> <s_lp_Variant>
AV-unprocessed.smi:1699-1

> <Gold.Version>
5.8.1

> <Gold.Id.Protein>
6NUR|6NUR_protein|mol2

> <Gold.PLP.Fitness>
36.9740

> <Gold.PLP.PLP>
-32.1740

> <Gold.PLP.part.hbond>
-2.0000

> <Gold.PLP.part.metal>
0.0000

> <Gold.PLP.part.buried>
-5.1140

> <Gold.PLP.part.nonpolar>
-25.2770

> <Gold.PLP.part.repulsive>
0.1723

> <Gold.PLP.ligand.clash>
0.0000

> <Gold.PLP.ligand.torsion>
0.6059

> <Gold.PLP.Chemscore.Hbond>
2.0000

> <Gold.PLP.Chemscore.CHOScore>
0.0000

> <Gold.PLP.Chemscore.Metal>
0.0000

> <Gold.Chemscore.Hbonds>
donor molecule, donor type, donor heavy atom, donor atom, acceptor molecule, acceptor atom, score
      L1  H     8    25       P1  7948  1.00
      L1  H    11    26       P1  7948  0.60

> <Gold.PLP.Chemscore.Internal.Correction>
0.0118

> <Gold.Rescore>
     Score         DG    S(hbond)    S(metal)    S(lipo)     H(rot)  DE(clash)    DE(int)     intcor
     14.48     -16.46       1.77        0.00      69.93       1.22       0.00       1.98       ----

> <Gold.Chemscore.Fitness>
14.4837

> <Gold.Chemscore.DG>
-16.4646

> <Gold.Chemscore.ZeroCoef>
-5.4800

> <Gold.Chemscore.Hbond>
1.7742

> <Gold.Chemscore.Metal>
0.0000

> <Gold.Chemscore.Lipo>
69.9298

> <Gold.Chemscore.Internal_Hbond>
0.0000

> <Gold.Chemscore.DEClash>
0.0029

> <Gold.Chemscore.DEInternal>
1.9779

> <Gold.Chemscore.Rot>
1.2200

> <Gold.Chemscore.Internal.Correction>
   9.000000E+99

> <Gold.Chemscore.Hbonds>
donor molecule, donor type, donor heavy atom, donor atom, acceptor molecule, acceptor atom, score
      L1  H     8    25       P1  7948  0.38
      L1  H    11    26       P1  7948  0.04

> <Gold.Chemscore.Hbond.Weighted>
-5.9259

> <Gold.Chemscore.Metal.Weighted>
-0.0000

> <Gold.Chemscore.Lipo.Weighted>
-8.1818

> <Gold.Chemscore.Internal_Hbond.Weighted>
0.0000

> <Gold.Chemscore.DEClash.Weighted>
0.0029

> <Gold.Chemscore.DEInternal.Weighted>
1.9779

> <Gold.Chemscore.Rot.Weighted>
3.1232

> <Gold.Chemscore.Internal.Correction.Weighted>
   9.000000E+99

> <Gold.Protein.RotatedTorsions>
[ 6907 6896 6895 6894 ] final  -29.26 input  -60.11 | X-H torsion
[ 7974 7965 7964 7962 ] final   19.93 input  175.53 | X-H torsion
[ 8008 7997 7996 7995 ] final   65.42 input   59.86 | X-H torsion
[ 10167 10162 10161 10158 ] final  117.25 input  -65.29 | X-H torsion
[ 10718 10713 10712 10709 ] final    7.50 input   66.30 | X-H torsion
[ 10763 10752 10751 10750 ] final  -87.95 input  -60.55 | X-H torsion
[ 11005 11000 10999 10996 ] final    0.74 input  -57.11 | X-H torsion

> <Gold.Protein.ActiveResidues>
 VAL166  LYS551  ARG553  GLY616  TRP617  ASP618  TYR619  PRO620  LYS621  CYS622 
 ASP623  PHE694  ASN695  SER759  ASP760  ASP761  ALA762  ILE779  LEU786  VAL792 
 PHE793  MET794  SER795  GLU796  ALA797  LYS798  CYS799  TRP800  GLU811  SER814 

> <Gold.Protein.RotatedAtoms>
  151.1216  135.0082  159.8540 H   0  0  0  0  0  0  0  0  0  0  0  0  # atno 6907 bound_to 6896
  152.5448  134.1716  159.8609 H   0  0  0  0  0  0  0  0  0  0  0  0  # atno 6908 bound_to 6896
  151.1774  133.4701  159.2627 H   0  0  0  0  0  0  0  0  0  0  0  0  # atno 6909 bound_to 6896
  146.2131  139.8243  142.8673 H   0  0  0  0  0  0  0  0  0  0  0  0  # atno 7974 bound_to 7965
  155.6615  140.3497  155.4784 H   0  0  0  0  0  0  0  0  0  0  0  0  # atno 8008 bound_to 7997
  155.9765  140.1166  157.0788 H   0  0  0  0  0  0  0  0  0  0  0  0  # atno 8009 bound_to 7997
  154.4180  140.1147  156.5363 H   0  0  0  0  0  0  0  0  0  0  0  0  # atno 8010 bound_to 7997
  139.6191  144.7097  151.2674 H   0  0  0  0  0  0  0  0  0  0  0  0  # atno 10167 bound_to 10162
  156.9378  130.5850  149.5651 H   0  0  0  0  0  0  0  0  0  0  0  0  # atno 10718 bound_to 10713
  154.6392  135.5395  153.7769 H   0  0  0  0  0  0  0  0  0  0  0  0  # atno 10763 bound_to 10752
  153.0325  135.6455  154.1185 H   0  0  0  0  0  0  0  0  0  0  0  0  # atno 10764 bound_to 10752
  154.1111  135.2926  155.3210 H   0  0  0  0  0  0  0  0  0  0  0  0  # atno 10765 bound_to 10752
  140.6232  133.9642  155.8235 H   0  0  0  0  0  0  0  0  0  0  0  0  # atno 11005 bound_to 11000
  145.3064  141.0208  143.3579 LP  0  0  0  0  0  0  0  0  0  0  0  0  # atno 17320 bound_to 7965
  144.8968  139.4701  143.6651 LP  0  0  0  0  0  0  0  0  0  0  0  0  # atno 17321 bound_to 7965
  140.7370  143.6690  150.8098 LP  0  0  0  0  0  0  0  0  0  0  0  0  # atno 17342 bound_to 10162
  140.0298  143.5456  152.2765 LP  0  0  0  0  0  0  0  0  0  0  0  0  # atno 17343 bound_to 10162
  156.0418  130.5500  150.8788 LP  0  0  0  0  0  0  0  0  0  0  0  0  # atno 17370 bound_to 10713
  157.5805  131.0946  150.9278 LP  0  0  0  0  0  0  0  0  0  0  0  0  # atno 17371 bound_to 10713
  141.0728  134.0180  157.3502 LP  0  0  0  0  0  0  0  0  0  0  0  0  # atno 17394 bound_to 11000
  139.9145  135.0195  156.7826 LP  0  0  0  0  0  0  0  0  0  0  0  0  # atno 17395 bound_to 11000

$$$$
