AV-unprocessed.smi:1901|AV-procd|sdf|7717|dock7
  -GOLD-   22720 9453D 1   1.00000     0.00000
 Structure written by MMmdl.
 28 29  0  0  0  0  0  0  0  0  1 V2000
  144.6823  136.9407  152.5413 O   0  0  0  0  0  0  0  0  0  0  0  0
  145.8862  136.7153  152.4149 C   0  0  0  0  0  0  0  0  0  0  0  0
  146.8450  137.5422  152.8568 N   0  0  0  0  0  0  0  0  0  0  0  0
  146.6203  138.8097  153.5451 C   0  0  0  0  0  0  0  0  0  0  0  0
  147.8658  139.7149  153.5040 C   0  0  1  0  0  0  0  0  0  0  0  0
  147.7498  140.9535  154.3681 C   0  0  0  0  0  0  0  0  0  0  0  0
  149.2070  141.3853  154.5028 C   0  0  0  0  0  0  0  0  0  0  0  0
  149.9765  140.1880  154.4386 O   0  0  0  0  0  0  0  0  0  0  0  0
  149.1452  139.0928  154.0672 C   0  0  0  0  0  0  0  0  0  0  0  0
  146.4159  135.6274  151.8288 N   0  0  0  0  0  0  0  0  0  0  0  0
  145.7370  134.5182  151.2599 C   0  0  0  0  0  0  0  0  0  0  0  0
  144.4208  134.4797  151.0210 N   0  0  0  0  0  0  0  0  0  0  0  0
  144.0254  133.2643  150.4568 C   0  0  0  0  0  0  0  0  0  0  0  0
  145.0606  132.3817  150.2727 C   0  0  0  0  0  0  0  0  0  0  0  0
  146.5826  133.0464  150.8034 S   0  0  0  0  0  0  0  0  0  0  0  0
  147.8068  137.2745  152.7070 H   0  0  0  0  0  0  0  0  0  0  0  0
  145.7913  139.3113  153.0456 H   0  0  0  0  0  0  0  0  0  0  0  0
  146.2980  138.6425  154.5744 H   0  0  0  0  0  0  0  0  0  0  0  0
  148.0519  140.0295  152.4756 H   0  0  0  0  0  0  0  0  0  0  0  0
  147.1180  141.7262  153.9288 H   0  0  0  0  0  0  0  0  0  0  0  0
  147.3447  140.6973  155.3482 H   0  0  0  0  0  0  0  0  0  0  0  0
  149.4934  142.0251  153.6672 H   0  0  0  0  0  0  0  0  0  0  0  0
  149.3941  141.9319  155.4272 H   0  0  0  0  0  0  0  0  0  0  0  0
  148.9286  138.5085  154.9626 H   0  0  0  0  0  0  0  0  0  0  0  0
  149.6451  138.4402  153.3512 H   0  0  0  0  0  0  0  0  0  0  0  0
  147.4235  135.5835  151.7913 H   0  0  0  0  0  0  0  0  0  0  0  0
  142.9838  133.1112  150.2164 H   0  0  0  0  0  0  0  0  0  0  0  0
  145.0201  131.3855  149.8584 H   0  0  0  0  0  0  0  0  0  0  0  0
  1  2  2  0  0  0  0
  2  3  1  0  0  0  0
  2 10  1  0  0  0  0
  3  4  1  0  0  0  0
  3 16  1  0  0  0  0
  4  5  1  0  0  0  0
  4 17  1  0  0  0  0
  4 18  1  0  0  0  0
  5  9  1  0  0  0  0
  5  6  1  0  0  0  0
  5 19  1  0  0  0  0
  6  7  1  0  0  0  0
  6 20  1  0  0  0  0
  6 21  1  0  0  0  0
  7  8  1  0  0  0  0
  7 22  1  0  0  0  0
  7 23  1  0  0  0  0
  8  9  1  0  0  0  0
  9 24  1  0  0  0  0
  9 25  1  0  0  0  0
 10 11  1  0  0  0  0
 10 26  1  0  0  0  0
 11 15  1  0  0  0  0
 11 12  2  0  0  0  0
 12 13  1  0  0  0  0
 13 14  2  0  0  0  0
 13 27  1  0  0  0  0
 14 15  1  0  0  0  0
 14 28  1  0  0  0  0
M  END
> <s_m_source_file>
AV-unprocessed.smi

> <i_m_source_file_index>
1901

> <i_lp_mmshare_version>
43012

> <i_f3d_flags>
0

> <s_epik_input>
czFbY0hdW2NIXW5jMVtOSF1DKD1PKVtOSF1bQ0gyXVtDQEBIXTJbQ0gyXVtDSDJdT1tDSDJdMg==

> <s_epik_cmdline>
J2VwaWtfcHl0aG9uJywgJy1waCcsICc3LjAnLCAnLXRuJywgJzgnLCAnLW1hJywgJzIwMCcsICctbWV0YWxfYmluZGluZycsICctaW1hZScsICc8aW5maWxlLm1hZT4nLCAnLW9tYWUnLCAnPG91dGZpbGUubWFlPic=

> <r_lp_tautomer_probability>
0.999

> <r_epik_Ionization_Penalty>
0.000365592

> <r_epik_Ionization_Penalty_Charging>
0

> <r_epik_Ionization_Penalty_Neutral>
0.000365592

> <r_epik_State_Penalty>
0.000177984

> <r_epik_Charging_Adjusted_Penalty>
0.000177984

> <i_epik_Tot_Q>
0

> <i_epik_Tot_abs_Q>
0

> <r_epik_Metal_State_Penalty>
0.00682492

> <b_epik_Metal_Only>
0

> <s_lp_Force_Field>
OPLS_2005

> <r_lp_Energy>
17.1136

> <b_lp_Chiralities_Consistent>
1

> <s_lp_Variant>
AV-unprocessed.smi:1901-2

> <Gold.Version>
5.8.1

> <Gold.Id.Protein>
6NUR|6NUR_protein|mol2

> <Gold.PLP.Fitness>
36.5542

> <Gold.PLP.PLP>
-25.1018

> <Gold.PLP.part.hbond>
-3.0000

> <Gold.PLP.part.metal>
0.0000

> <Gold.PLP.part.buried>
-0.9047

> <Gold.PLP.part.nonpolar>
-21.1269

> <Gold.PLP.part.repulsive>
0.5606

> <Gold.PLP.ligand.clash>
0.0000

> <Gold.PLP.ligand.torsion>
0.1811

> <Gold.PLP.Chemscore.Hbond>
2.9360

> <Gold.PLP.Chemscore.CHOScore>
1.0000

> <Gold.PLP.Chemscore.Metal>
0.0000

> <Gold.Chemscore.Hbonds>
donor molecule, donor type, donor heavy atom, donor atom, acceptor molecule, acceptor atom, score
      L1  H     3    16       P1  7948  0.96
      L1  H    10    26       P1  7948  1.00
      P1  H  7989  7998       L1     8  0.98
      L1  C    13    27       P1 10186  1.00

> <Gold.PLP.Chemscore.Internal.Correction>
0.0067

> <Gold.Rescore>
     Score         DG    S(hbond)    S(metal)    S(lipo)     H(rot)  DE(clash)    DE(int)     intcor
     14.67     -16.31       2.25        0.00      57.27       1.32       0.25       1.39       ----

> <Gold.Chemscore.Fitness>
14.6655

> <Gold.Chemscore.DG>
-16.3089

> <Gold.Chemscore.ZeroCoef>
-5.4800

> <Gold.Chemscore.Hbond>
2.2451

> <Gold.Chemscore.Metal>
0.0000

> <Gold.Chemscore.Lipo>
57.2657

> <Gold.Chemscore.Internal_Hbond>
0.0000

> <Gold.Chemscore.DEClash>
0.2531

> <Gold.Chemscore.DEInternal>
1.3903

> <Gold.Chemscore.Rot>
1.3163

> <Gold.Chemscore.Internal.Correction>
   9.000000E+99

> <Gold.Chemscore.Hbonds>
donor molecule, donor type, donor heavy atom, donor atom, acceptor molecule, acceptor atom, score
      L1  H     3    16       P1  7948  0.92
      L1  H    10    26       P1  7948  0.97
      P1  H  7989  7998       L1     8  0.23

> <Gold.Chemscore.Hbond.Weighted>
-7.4986

> <Gold.Chemscore.Metal.Weighted>
-0.0000

> <Gold.Chemscore.Lipo.Weighted>
-6.7001

> <Gold.Chemscore.Internal_Hbond.Weighted>
0.0000

> <Gold.Chemscore.DEClash.Weighted>
0.2531

> <Gold.Chemscore.DEInternal.Weighted>
1.3903

> <Gold.Chemscore.Rot.Weighted>
3.3698

> <Gold.Chemscore.Internal.Correction.Weighted>
   9.000000E+99

> <Gold.Protein.RotatedTorsions>
[ 6907 6896 6895 6894 ] final  -80.13 input  -60.11 | X-H torsion
[ 7974 7965 7964 7962 ] final  -90.83 input  175.53 | X-H torsion
[ 8008 7997 7996 7995 ] final   61.35 input   59.86 | X-H torsion
[ 10167 10162 10161 10158 ] final   74.34 input  -65.29 | X-H torsion
[ 10718 10713 10712 10709 ] final -108.91 input   66.30 | X-H torsion
[ 10763 10752 10751 10750 ] final    0.34 input  -60.55 | X-H torsion
[ 11005 11000 10999 10996 ] final  -80.33 input  -57.11 | X-H torsion

> <Gold.Protein.ActiveResidues>
 VAL166  LYS551  ARG553  GLY616  TRP617  ASP618  TYR619  PRO620  LYS621  CYS622 
 ASP623  PHE694  ASN695  SER759  ASP760  ASP761  ALA762  ILE779  LEU786  VAL792 
 PHE793  MET794  SER795  GLU796  ALA797  LYS798  CYS799  TRP800  GLU811  SER814 

> <Gold.Protein.RotatedAtoms>
  150.6935  134.4016  159.5121 H   0  0  0  0  0  0  0  0  0  0  0  0  # atno 6907 bound_to 6896
  152.1789  134.8768  160.0537 H   0  0  0  0  0  0  0  0  0  0  0  0  # atno 6908 bound_to 6896
  151.9767  133.3709  159.4128 H   0  0  0  0  0  0  0  0  0  0  0  0  # atno 6909 bound_to 6896
  145.4213  140.9551  143.2179 H   0  0  0  0  0  0  0  0  0  0  0  0  # atno 7974 bound_to 7965
  155.5970  140.3493  155.4583 H   0  0  0  0  0  0  0  0  0  0  0  0  # atno 8008 bound_to 7997
  156.0257  140.1263  157.0335 H   0  0  0  0  0  0  0  0  0  0  0  0  # atno 8009 bound_to 7997
  154.4332  140.1053  156.6014 H   0  0  0  0  0  0  0  0  0  0  0  0  # atno 8010 bound_to 7997
  140.0148  144.5586  150.7629 H   0  0  0  0  0  0  0  0  0  0  0  0  # atno 10167 bound_to 10162
  156.0510  130.5737  150.8027 H   0  0  0  0  0  0  0  0  0  0  0  0  # atno 10718 bound_to 10713
  153.3219  135.6969  153.7023 H   0  0  0  0  0  0  0  0  0  0  0  0  # atno 10763 bound_to 10752
  153.5860  135.3489  155.2893 H   0  0  0  0  0  0  0  0  0  0  0  0  # atno 10764 bound_to 10752
  154.8599  135.4306  154.2385 H   0  0  0  0  0  0  0  0  0  0  0  0  # atno 10765 bound_to 10752
  141.1668  133.7145  156.8257 H   0  0  0  0  0  0  0  0  0  0  0  0  # atno 11005 bound_to 11000
  144.8243  139.5736  143.6972 LP  0  0  0  0  0  0  0  0  0  0  0  0  # atno 17320 bound_to 7965
  146.2655  139.6510  142.9332 LP  0  0  0  0  0  0  0  0  0  0  0  0  # atno 17321 bound_to 7965
  140.7367  143.2756  151.3753 LP  0  0  0  0  0  0  0  0  0  0  0  0  # atno 17342 bound_to 10162
  139.6180  144.0964  152.2364 LP  0  0  0  0  0  0  0  0  0  0  0  0  # atno 17343 bound_to 10162
  157.5435  131.0941  150.9794 LP  0  0  0  0  0  0  0  0  0  0  0  0  # atno 17370 bound_to 10713
  157.0071  130.5622  149.5317 LP  0  0  0  0  0  0  0  0  0  0  0  0  # atno 17371 bound_to 10713
  140.2087  134.8843  157.3251 LP  0  0  0  0  0  0  0  0  0  0  0  0  # atno 17394 bound_to 11000
  140.2109  134.4139  155.7613 LP  0  0  0  0  0  0  0  0  0  0  0  0  # atno 17395 bound_to 11000

$$$$
