#       Name:                AV-unprocessed.smi:3164
#       Creating user name   scv26
#       Creation time:       Fri Mar 27 17:51:18 2020


#       File generated by GOLD software.
#

@<TRIPOS>MOLECULE
AV-unprocessed.smi:3164
    43    44     1
SMALL
NO_CHARGES


@<TRIPOS>ATOM
      1 ****        -4.8548   1.9502   0.4219 C.3            1 S1                 0.0000
      2 ****        -3.4030   1.8858   0.5018 N.3            1 S1                 0.0000
      3 ****        -2.9046   2.5045   1.7229 C.3            1 S1                 0.0000
      4 ****        -1.3715   2.4237   1.8144 C.3            1 S1                 0.0000
      5 ****        -0.9580   1.0643   1.7060 O.3            1 S1                 0.0000
      6 ****        -1.3799   0.4449   0.4923 C.3            1 S1                 0.0000
      7 ****        -0.8668  -1.0015   0.4849 C.3            1 S1                 0.0000
      8 ****         0.6070  -1.0394   0.4177 N.4            1 S1                 1.0000
      9 ****         1.1754  -2.4013   0.3585 C.3            1 S1                 0.0000
     10 ****         2.7109  -2.3706   0.2981 C.3            1 S1                 0.0000
     11 ****         3.2411  -1.6469  -0.9273 C.ar           1 S1                 0.0000
     12 ****         3.7682  -0.3416  -0.8235 C.ar           1 S1                 0.0000
     13 ****         4.2378   0.2873  -1.9932 C.ar           1 S1                 0.0000
     14 ****         4.1608  -0.4090  -3.2146 C.ar           1 S1                 0.0000
     15 ****         3.6162  -1.7086  -3.2126 C.ar           1 S1                 0.0000
     16 ****         3.1621  -2.3198  -2.0969 N.ar           1 S1                 0.0000
     17 ****        -2.9185   0.5144   0.4142 C.3            1 S1                 0.0000
     18 ****        -5.1985   2.9845   0.4615 H              1 S1                 0.0000
     19 ****        -5.3202   1.4063   1.2451 H              1 S1                 0.0000
     20 ****        -5.2101   1.5187  -0.5144 H              1 S1                 0.0000
     21 ****        -3.2175   3.5486   1.7639 H              1 S1                 0.0000
     22 ****        -3.3432   2.0131   2.5929 H              1 S1                 0.0000
     23 ****        -0.9052   3.0172   1.0264 H              1 S1                 0.0000
     24 ****        -1.0259   2.8271   2.7663 H              1 S1                 0.0000
     25 ****        -0.9514   0.9834  -0.3555 H              1 S1                 0.0000
     26 ****        -1.2090  -1.5318   1.3747 H              1 S1                 0.0000
     27 ****        -1.2692  -1.5294  -0.3807 H              1 S1                 0.0000
     28 ****         0.9041  -0.5354  -0.4059 H              1 S1                 0.0000
     29 ****         0.8549  -2.9604   1.2383 H              1 S1                 0.0000
     30 ****         0.7767  -2.9218  -0.5134 H              1 S1                 0.0000
     31 ****         3.1089  -1.9012   1.1987 H              1 S1                 0.0000
     32 ****         3.0966  -3.3910   0.2943 H              1 S1                 0.0000
     33 ****         3.8146   0.1682   0.1277 H              1 S1                 0.0000
     34 ****         4.6493   1.2851  -1.9543 H              1 S1                 0.0000
     35 ****         4.5127   0.0407  -4.1315 H              1 S1                 0.0000
     36 ****         3.5423  -2.2713  -4.1312 H              1 S1                 0.0000
     37 ****        -3.3505  -0.0810   1.2205 H              1 S1                 0.0000
     38 ****        -3.2565   0.0650  -0.5204 H              1 S1                 0.0000
     39 ****         0.9750  -0.5699   1.2331 H              1 S1                 0.0000
     40 ****        -3.0528   2.3979  -0.2825 LP             1 S1                 0.0000
     41 ****        -1.3424   0.5527   2.4745 LP             1 S1                 0.0000
     42 ****         0.0405   1.0311   1.7496 LP             1 S1                 0.0000
     43 ****         2.7789  -3.2427  -2.1351 LP             1 S1                 0.0000
@<TRIPOS>BOND
    1    1    2 1     
    2    1   18 1     
    3    1   19 1     
    4    1   20 1     
    5    2   17 1     
    6    2    3 1     
    7    3    4 1     
    8    3   21 1     
    9    3   22 1     
   10    4    5 1     
   11    4   23 1     
   12    4   24 1     
   13    5    6 1     
   14    6    7 1     
   15    6   17 1     
   16    6   25 1     
   17    7    8 1     
   18    7   26 1     
   19    7   27 1     
   20    8    9 1     
   21    8   28 1     
   22    8   39 1     
   23    9   10 1     
   24    9   29 1     
   25    9   30 1     
   26   10   11 1     
   27   10   31 1     
   28   10   32 1     
   29   11   16 ar    
   30   11   12 ar    
   31   12   13 ar    
   32   12   33 1     
   33   13   14 ar    
   34   13   34 1     
   35   14   15 ar    
   36   14   35 1     
   37   15   16 ar    
   38   15   36 1     
   39   17   37 1     
   40   17   38 1     
   41    2   40 1     
   42    5   41 1     
   43    5   42 1     
   44   16   43 1     
@<TRIPOS>SUBSTRUCTURE
      1 S1             1
@<TRIPOS>SET
LONE_PAIRS      STATIC     ATOMS    <user>   **** ""
4 40 41 42 43
DONOR_HYDROGENS      STATIC     ATOMS    <user>   **** ""
2 28 39
ATOM$BLUE        STATIC     ATOMS    COLORGROUP SYSTEM
4 40 41 42 43
ATOM$RED        STATIC     ATOMS    COLORGROUP SYSTEM
2 28 39
