AV-unprocessed.smi:813|AV-procd|sdf|3818|dock7
  -GOLD-   22720 1253D 1   1.00000     0.00000
 Structure written by MMmdl.
 36 37  0  0  0  0  0  0  0  0  1 V2000
  146.7806  139.2820  151.4019 C   0  0  0  0  0  0  0  0  0  0  0  0
  146.2882  138.3400  152.5134 C   0  0  1  0  0  0  0  0  0  0  0  0
  146.5274  136.9636  152.0819 N   0  0  0  0  0  0  0  0  0  0  0  0
  145.5709  136.0753  151.7714 C   0  0  0  0  0  0  0  0  0  0  0  0
  144.3677  136.3358  151.8036 O   0  0  0  0  0  0  0  0  0  0  0  0
  146.1011  134.8875  151.4311 N   0  0  0  0  0  0  0  0  0  0  0  0
  145.4251  133.7068  151.0236 C   0  0  0  0  0  0  0  0  0  0  0  0
  146.0493  132.5578  150.7206 N   0  0  0  0  0  0  0  0  0  0  0  0
  145.1542  131.5599  150.3571 N   0  0  0  0  0  0  0  0  0  0  0  0
  143.8917  131.9948  150.3997 C   0  0  0  0  0  0  0  0  0  0  0  0
  143.6726  133.6660  150.8893 S   0  0  0  0  0  0  0  0  0  0  0  0
  147.0848  138.6443  153.7917 C   0  0  0  0  0  0  0  0  0  0  0  0
  146.5439  139.1990  154.7498 O   0  0  0  0  0  0  0  0  0  0  0  0
  148.3722  138.2677  153.7900 N   0  0  0  0  0  0  0  0  0  0  0  0
  149.3122  138.4766  154.8879 C   0  0  0  0  0  0  0  0  0  0  0  0
  150.5356  139.2968  154.4328 C   0  0  0  0  0  0  0  0  0  0  0  0
  151.6855  138.2977  154.3150 C   0  0  0  0  0  0  0  0  0  0  0  0
  151.3909  137.2666  155.3994 C   0  0  0  0  0  0  0  0  0  0  0  0
  149.8663  137.1304  155.3960 C   0  0  0  0  0  0  0  0  0  0  0  0
  146.6180  140.3272  151.6684 H   0  0  0  0  0  0  0  0  0  0  0  0
  146.2429  139.0988  150.4710 H   0  0  0  0  0  0  0  0  0  0  0  0
  147.8446  139.1519  151.1980 H   0  0  0  0  0  0  0  0  0  0  0  0
  145.2210  138.4993  152.6811 H   0  0  0  0  0  0  0  0  0  0  0  0
  147.4904  136.6645  152.0359 H   0  0  0  0  0  0  0  0  0  0  0  0
  147.1076  134.8205  151.4629 H   0  0  0  0  0  0  0  0  0  0  0  0
  143.0835  131.3266  150.1419 H   0  0  0  0  0  0  0  0  0  0  0  0
  148.7330  137.8198  152.9601 H   0  0  0  0  0  0  0  0  0  0  0  0
  148.8057  138.9959  155.7038 H   0  0  0  0  0  0  0  0  0  0  0  0
  150.3742  139.8473  153.5048 H   0  0  0  0  0  0  0  0  0  0  0  0
  150.7786  140.0318  155.2011 H   0  0  0  0  0  0  0  0  0  0  0  0
  151.6586  137.8201  153.3346 H   0  0  0  0  0  0  0  0  0  0  0  0
  152.6628  138.7664  154.4328 H   0  0  0  0  0  0  0  0  0  0  0  0
  151.8970  136.3167  155.2250 H   0  0  0  0  0  0  0  0  0  0  0  0
  151.7234  137.6481  156.3657 H   0  0  0  0  0  0  0  0  0  0  0  0
  149.4833  136.8773  156.3850 H   0  0  0  0  0  0  0  0  0  0  0  0
  149.5829  136.3172  154.7259 H   0  0  0  0  0  0  0  0  0  0  0  0
  1  2  1  0  0  0  0
  1 20  1  0  0  0  0
  1 21  1  0  0  0  0
  1 22  1  0  0  0  0
  2  3  1  0  0  0  0
  2 12  1  0  0  0  0
  2 23  1  0  0  0  0
  3  4  1  0  0  0  0
  3 24  1  0  0  0  0
  4  5  2  0  0  0  0
  4  6  1  0  0  0  0
  6  7  1  0  0  0  0
  6 25  1  0  0  0  0
  7 11  1  0  0  0  0
  7  8  2  0  0  0  0
  8  9  1  0  0  0  0
  9 10  2  0  0  0  0
 10 11  1  0  0  0  0
 10 26  1  0  0  0  0
 12 13  2  0  0  0  0
 12 14  1  0  0  0  0
 14 15  1  0  0  0  0
 14 27  1  0  0  0  0
 15 19  1  0  0  0  0
 15 16  1  0  0  0  0
 15 28  1  0  0  0  0
 16 17  1  0  0  0  0
 16 29  1  0  0  0  0
 16 30  1  0  0  0  0
 17 18  1  0  0  0  0
 17 31  1  0  0  0  0
 17 32  1  0  0  0  0
 18 19  1  0  0  0  0
 18 33  1  0  0  0  0
 18 34  1  0  0  0  0
 19 35  1  0  0  0  0
 19 36  1  0  0  0  0
M  END
> <s_m_source_file>
AV-unprocessed.smi

> <i_m_source_file_index>
813

> <i_lp_mmshare_version>
43012

> <i_f3d_flags>
0

> <s_epik_input>
W0NIMl0xW0NIMl1bQ0gyXVtDSDJdW0NIXTFbTkhdQyg9TylbQ0BIXShbQ0gzXSlbTkhdQyg9TylbTkhdYzJubltjSF1zMg==

> <s_epik_cmdline>
J2VwaWtfcHl0aG9uJywgJy1waCcsICc3LjAnLCAnLXRuJywgJzgnLCAnLW1hJywgJzIwMCcsICctbWV0YWxfYmluZGluZycsICctaW1hZScsICc8aW5maWxlLm1hZT4nLCAnLW9tYWUnLCAnPG91dGZpbGUubWFlPic=

> <r_lp_tautomer_probability>
1

> <r_epik_Ionization_Penalty>
0.00321247

> <r_epik_Ionization_Penalty_Charging>
0

> <r_epik_Ionization_Penalty_Neutral>
0.00321247

> <r_epik_State_Penalty>
-0

> <r_epik_Charging_Adjusted_Penalty>
0

> <i_epik_Tot_Q>
0

> <i_epik_Tot_abs_Q>
0

> <r_epik_Metal_State_Penalty>
0.363968

> <b_epik_Metal_Only>
0

> <s_lp_Force_Field>
OPLS_2005

> <r_lp_Energy>
15.9742

> <b_lp_Chiralities_Consistent>
1

> <s_lp_Variant>
AV-unprocessed.smi:813-2

> <Gold.Version>
5.8.1

> <Gold.Id.Protein>
6NUR|6NUR_protein|mol2

> <Gold.PLP.Fitness>
38.5296

> <Gold.PLP.PLP>
-29.5325

> <Gold.PLP.part.hbond>
-2.6210

> <Gold.PLP.part.metal>
0.0000

> <Gold.PLP.part.buried>
-2.7411

> <Gold.PLP.part.nonpolar>
-25.6124

> <Gold.PLP.part.repulsive>
1.1951

> <Gold.PLP.ligand.clash>
0.0000

> <Gold.PLP.ligand.torsion>
0.3426

> <Gold.PLP.Chemscore.Hbond>
2.2298

> <Gold.PLP.Chemscore.CHOScore>
0.9947

> <Gold.PLP.Chemscore.Metal>
0.0000

> <Gold.Chemscore.Hbonds>
donor molecule, donor type, donor heavy atom, donor atom, acceptor molecule, acceptor atom, score
      L1  H     3    24       P1  7948  0.98
      L1  H     6    25       P1  7948  0.24
      L1  H    14    27       P1  7948  1.00
      L1  C    10    26       P1 10952  1.00

> <Gold.PLP.Chemscore.Internal.Correction>
0.0090

> <Gold.Rescore>
     Score         DG    S(hbond)    S(metal)    S(lipo)     H(rot)  DE(clash)    DE(int)     intcor
     13.88     -15.80       2.11        0.00      66.01       1.74       0.34       1.58       ----

> <Gold.Chemscore.Fitness>
13.8843

> <Gold.Chemscore.DG>
-15.7965

> <Gold.Chemscore.ZeroCoef>
-5.4800

> <Gold.Chemscore.Hbond>
2.1128

> <Gold.Chemscore.Metal>
0.0000

> <Gold.Chemscore.Lipo>
66.0050

> <Gold.Chemscore.Internal_Hbond>
0.0000

> <Gold.Chemscore.DEClash>
0.3353

> <Gold.Chemscore.DEInternal>
1.5769

> <Gold.Chemscore.Rot>
1.7433

> <Gold.Chemscore.Internal.Correction>
   9.000000E+99

> <Gold.Chemscore.Hbonds>
donor molecule, donor type, donor heavy atom, donor atom, acceptor molecule, acceptor atom, score
      L1  H     3    24       P1  7948  0.91
      L1  H     6    25       P1  7948  0.17
      L1  H    14    27       P1  7948  0.96

> <Gold.Chemscore.Hbond.Weighted>
-7.0566

> <Gold.Chemscore.Metal.Weighted>
-0.0000

> <Gold.Chemscore.Lipo.Weighted>
-7.7226

> <Gold.Chemscore.Internal_Hbond.Weighted>
0.0000

> <Gold.Chemscore.DEClash.Weighted>
0.3353

> <Gold.Chemscore.DEInternal.Weighted>
1.5769

> <Gold.Chemscore.Rot.Weighted>
4.4628

> <Gold.Chemscore.Internal.Correction.Weighted>
   9.000000E+99

> <Gold.Protein.RotatedTorsions>
[ 6907 6896 6895 6894 ] final  -87.52 input  -60.11 | X-H torsion
[ 7974 7965 7964 7962 ] final   88.91 input  175.53 | X-H torsion
[ 8008 7997 7996 7995 ] final  145.64 input   59.86 | X-H torsion
[ 10167 10162 10161 10158 ] final   65.45 input  -65.29 | X-H torsion
[ 10718 10713 10712 10709 ] final  118.87 input   66.30 | X-H torsion
[ 10763 10752 10751 10750 ] final -134.44 input  -60.55 | X-H torsion
[ 11005 11000 10999 10996 ] final   54.94 input  -57.11 | X-H torsion

> <Gold.Protein.ActiveResidues>
 VAL166  LYS551  ARG553  GLY616  TRP617  ASP618  TYR619  PRO620  LYS621  CYS622 
 ASP623  PHE694  ASN695  SER759  ASP760  ASP761  ALA762  ILE779  LEU786  VAL792 
 PHE793  MET794  SER795  GLU796  ALA797  LYS798  CYS799  TRP800  GLU811  SER814 

> <Gold.Protein.RotatedAtoms>
  150.6866  134.2884  159.4656 H   0  0  0  0  0  0  0  0  0  0  0  0  # atno 6907 bound_to 6896
  152.0791  134.9480  160.0583 H   0  0  0  0  0  0  0  0  0  0  0  0  # atno 6908 bound_to 6896
  152.0840  133.4132  159.4551 H   0  0  0  0  0  0  0  0  0  0  0  0  # atno 6909 bound_to 6896
  145.5394  139.2287  143.2574 H   0  0  0  0  0  0  0  0  0  0  0  0  # atno 7974 bound_to 7965
  156.2878  140.2204  156.5247 H   0  0  0  0  0  0  0  0  0  0  0  0  # atno 8008 bound_to 7997
  154.7499  140.0481  157.0906 H   0  0  0  0  0  0  0  0  0  0  0  0  # atno 8009 bound_to 7997
  155.0123  140.3114  155.4828 H   0  0  0  0  0  0  0  0  0  0  0  0  # atno 8010 bound_to 7997
  140.1111  144.4817  150.6977 H   0  0  0  0  0  0  0  0  0  0  0  0  # atno 10167 bound_to 10162
  157.6000  131.1052  150.7817 H   0  0  0  0  0  0  0  0  0  0  0  0  # atno 10718 bound_to 10713
  154.8719  135.3734  154.4736 H   0  0  0  0  0  0  0  0  0  0  0  0  # atno 10763 bound_to 10752
  153.5394  135.7026  153.5649 H   0  0  0  0  0  0  0  0  0  0  0  0  # atno 10764 bound_to 10752
  153.3817  135.3995  155.1826 H   0  0  0  0  0  0  0  0  0  0  0  0  # atno 10765 bound_to 10752
  140.0646  134.5554  155.9114 H   0  0  0  0  0  0  0  0  0  0  0  0  # atno 11005 bound_to 11000
  146.1991  140.6213  142.9110 LP  0  0  0  0  0  0  0  0  0  0  0  0  # atno 17320 bound_to 7965
  144.7585  140.5365  143.6752 LP  0  0  0  0  0  0  0  0  0  0  0  0  # atno 17321 bound_to 7965
  140.6925  143.2384  151.5092 LP  0  0  0  0  0  0  0  0  0  0  0  0  # atno 17342 bound_to 10162
  139.5618  144.2137  152.1704 LP  0  0  0  0  0  0  0  0  0  0  0  0  # atno 17343 bound_to 10162
  156.8219  130.4987  149.5342 LP  0  0  0  0  0  0  0  0  0  0  0  0  # atno 17370 bound_to 10713
  156.1071  130.6013  150.9989 LP  0  0  0  0  0  0  0  0  0  0  0  0  # atno 17371 bound_to 10713
  141.1987  133.6603  156.5807 LP  0  0  0  0  0  0  0  0  0  0  0  0  # atno 17394 bound_to 11000
  140.3718  134.7599  157.4604 LP  0  0  0  0  0  0  0  0  0  0  0  0  # atno 17395 bound_to 11000

$$$$
