AV-unprocessed.smi:203|AV-procd|sdf|1587|dock5
  -GOLD-   2262019483D 1   1.00000     0.00000
 Structure written by MMmdl.
 57 61  0  0  0  0  0  0  0  0  1 V2000
  148.2857  128.7117  161.8191 O   0  0  0  0  0  0  0  0  0  0  0  0
  148.0932  129.6024  160.9948 C   0  0  0  0  0  0  0  0  0  0  0  0
  149.1406  130.6360  160.6167 C   0  0  0  0  0  0  0  0  0  0  0  0
  148.3583  131.6511  159.7597 C   0  0  2  0  0  0  0  0  0  0  0  0
  148.1826  133.0496  160.4328 C   0  0  2  0  0  0  0  0  0  0  0  0
  147.4465  132.9711  161.7969 C   0  0  0  0  0  0  0  0  0  0  0  0
  147.2861  134.3551  162.4394 C   0  0  0  0  0  0  0  0  0  0  0  0
  146.5754  135.3032  161.4682 C   0  0  0  0  0  0  0  0  0  0  0  0
  147.3311  135.3652  160.1346 C   0  0  0  0  0  0  0  0  0  0  0  0
  147.5108  134.0312  159.5619 N   0  0  0  0  0  0  0  0  0  0  0  0
  147.9669  134.1205  158.2927 C   0  0  0  0  0  0  0  0  0  0  0  0
  149.2114  134.6284  158.1168 N   0  0  0  0  0  0  0  0  0  0  0  0
  149.7153  134.7454  156.8842 C   0  0  0  0  0  0  0  0  0  0  0  0
  149.1559  134.4159  155.7178 N   0  0  0  0  0  0  0  0  0  0  0  0
  147.9058  133.8990  155.8952 C   0  0  0  0  0  0  0  0  0  0  0  0
  147.2378  133.7184  157.1384 C   0  0  0  0  0  0  0  0  0  0  0  0
  145.9793  133.1681  156.9263 N   0  0  0  0  0  0  0  0  0  0  0  0
  145.9081  133.0299  155.6303 C   0  0  0  0  0  0  0  0  0  0  0  0
  147.0217  133.4417  154.9344 N   0  0  0  0  0  0  0  0  0  0  0  0
  147.2116  133.3955  153.4956 C   0  0  0  0  0  0  0  0  0  0  0  0
  145.9763  133.9034  152.7220 C   0  0  1  0  0  0  0  0  0  0  0  0
  146.3243  134.9877  151.8841 O   0  0  0  0  0  0  0  0  0  0  0  0
  145.2738  132.8259  151.8701 C   0  0  2  0  0  0  0  0  0  0  0  0
  146.0566  132.3936  150.6237 C   0  0  0  0  0  0  0  0  0  0  0  0
  144.9822  132.0851  149.5886 C   0  0  0  0  0  0  0  0  0  0  0  0
  143.6697  132.3946  150.3063 C   0  0  0  0  0  0  0  0  0  0  0  0
  144.0463  133.2975  151.3325 O   0  0  0  0  0  0  0  0  0  0  0  0
  147.0256  130.9442  159.4231 C   0  0  0  0  0  0  0  0  0  0  0  0
  146.9678  129.8007  160.3122 N   0  0  0  0  0  0  0  0  0  0  0  0
  149.6093  131.0776  161.4960 H   0  0  0  0  0  0  0  0  0  0  0  0
  149.9207  130.1485  160.0312 H   0  0  0  0  0  0  0  0  0  0  0  0
  148.9227  131.7743  158.8348 H   0  0  0  0  0  0  0  0  0  0  0  0
  149.1814  133.4382  160.6341 H   0  0  0  0  0  0  0  0  0  0  0  0
  146.4587  132.5277  161.6694 H   0  0  0  0  0  0  0  0  0  0  0  0
  147.9817  132.3251  162.4916 H   0  0  0  0  0  0  0  0  0  0  0  0
  146.7215  134.2759  163.3688 H   0  0  0  0  0  0  0  0  0  0  0  0
  148.2660  134.7573  162.6998 H   0  0  0  0  0  0  0  0  0  0  0  0
  145.5545  134.9595  161.2969 H   0  0  0  0  0  0  0  0  0  0  0  0
  146.5011  136.3003  161.9027 H   0  0  0  0  0  0  0  0  0  0  0  0
  146.7829  136.0002  159.4367 H   0  0  0  0  0  0  0  0  0  0  0  0
  148.3065  135.8294  160.2872 H   0  0  0  0  0  0  0  0  0  0  0  0
  150.7099  135.1622  156.8238 H   0  0  0  0  0  0  0  0  0  0  0  0
  145.0356  132.6205  155.1423 H   0  0  0  0  0  0  0  0  0  0  0  0
  148.0935  133.9861  153.2443 H   0  0  0  0  0  0  0  0  0  0  0  0
  147.4407  132.3661  153.2200 H   0  0  0  0  0  0  0  0  0  0  0  0
  145.2511  134.2982  153.4348 H   0  0  0  0  0  0  0  0  0  0  0  0
  147.1628  135.3226  152.1638 H   0  0  0  0  0  0  0  0  0  0  0  0
  145.0730  131.9383  152.4737 H   0  0  0  0  0  0  0  0  0  0  0  0
  146.6985  133.1946  150.2557 H   0  0  0  0  0  0  0  0  0  0  0  0
  146.6928  131.5324  150.8297 H   0  0  0  0  0  0  0  0  0  0  0  0
  145.1048  132.7334  148.7201 H   0  0  0  0  0  0  0  0  0  0  0  0
  145.0181  131.0516  149.2433 H   0  0  0  0  0  0  0  0  0  0  0  0
  142.9189  132.8275  149.6450 H   0  0  0  0  0  0  0  0  0  0  0  0
  143.2520  131.4919  150.7552 H   0  0  0  0  0  0  0  0  0  0  0  0
  146.1528  131.5837  159.5549 H   0  0  0  0  0  0  0  0  0  0  0  0
  147.0236  130.5920  158.3909 H   0  0  0  0  0  0  0  0  0  0  0  0
  146.1430  129.2252  160.4030 H   0  0  0  0  0  0  0  0  0  0  0  0
  1  2  2  0  0  0  0
  2 29  1  0  0  0  0
  2  3  1  0  0  0  0
  3  4  1  0  0  0  0
  3 30  1  0  0  0  0
  3 31  1  0  0  0  0
  4  5  1  0  0  0  0
  4 28  1  0  0  0  0
  4 32  1  0  0  0  0
  5 10  1  0  0  0  0
  5  6  1  0  0  0  0
  5 33  1  0  0  0  0
  6  7  1  0  0  0  0
  6 34  1  0  0  0  0
  6 35  1  0  0  0  0
  7  8  1  0  0  0  0
  7 36  1  0  0  0  0
  7 37  1  0  0  0  0
  8  9  1  0  0  0  0
  8 38  1  0  0  0  0
  8 39  1  0  0  0  0
  9 10  1  0  0  0  0
  9 40  1  0  0  0  0
  9 41  1  0  0  0  0
 10 11  1  0  0  0  0
 11 16  1  0  0  0  0
 11 12  2  0  0  0  0
 12 13  1  0  0  0  0
 13 14  2  0  0  0  0
 13 42  1  0  0  0  0
 14 15  1  0  0  0  0
 15 19  1  0  0  0  0
 15 16  2  0  0  0  0
 16 17  1  0  0  0  0
 17 18  2  0  0  0  0
 18 19  1  0  0  0  0
 18 43  1  0  0  0  0
 19 20  1  0  0  0  0
 20 21  1  0  0  0  0
 20 44  1  0  0  0  0
 20 45  1  0  0  0  0
 21 22  1  0  0  0  0
 21 23  1  0  0  0  0
 21 46  1  0  0  0  0
 22 47  1  0  0  0  0
 23 27  1  0  0  0  0
 23 24  1  0  0  0  0
 23 48  1  0  0  0  0
 24 25  1  0  0  0  0
 24 49  1  0  0  0  0
 24 50  1  0  0  0  0
 25 26  1  0  0  0  0
 25 51  1  0  0  0  0
 25 52  1  0  0  0  0
 26 27  1  0  0  0  0
 26 53  1  0  0  0  0
 26 54  1  0  0  0  0
 28 29  1  0  0  0  0
 28 55  1  0  0  0  0
 28 56  1  0  0  0  0
 29 57  1  0  0  0  0
M  END
> <s_m_source_file>
AV-unprocessed.smi

> <i_m_source_file_index>
203

> <i_lp_mmshare_version>
43012

> <i_f3d_flags>
0

> <s_epik_input>
Tz1DMVtDSDJdW0NASF0oW0NIMl1bTkhdMSlbQ0BASF0yW0NIMl1bQ0gyXVtDSDJdW0NIMl1OMmMobltjSF1uMyljKGMzNCluW2NIXW40W0NIMl1bQ0BIXShbT0hdKVtDQEBIXTVbQ0gyXVtDSDJdW0NIMl1PNQ==

> <s_epik_cmdline>
J2VwaWtfcHl0aG9uJywgJy1waCcsICc3LjAnLCAnLXRuJywgJzgnLCAnLW1hJywgJzIwMCcsICctbWV0YWxfYmluZGluZycsICctaW1hZScsICc8aW5maWxlLm1hZT4nLCAnLW9tYWUnLCAnPG91dGZpbGUubWFlPic=

> <r_lp_tautomer_probability>
1

> <r_epik_Ionization_Penalty>
0.00175146

> <r_epik_Ionization_Penalty_Charging>
0

> <r_epik_Ionization_Penalty_Neutral>
0.00175146

> <r_epik_State_Penalty>
0.00109045

> <r_epik_Charging_Adjusted_Penalty>
0.00109045

> <i_epik_Tot_Q>
0

> <i_epik_Tot_abs_Q>
0

> <r_epik_Metal_State_Penalty>
-0

> <b_epik_Metal_Only>
0

> <s_lp_Force_Field>
OPLS_2005

> <r_lp_Energy>
57.3727

> <b_lp_Chiralities_Consistent>
1

> <s_lp_Variant>
AV-unprocessed.smi:203-6

> <Gold.Version>
5.8.1

> <Gold.Id.Protein>
6NUR|6NUR_protein|mol2

> <Gold.PLP.Fitness>
40.2290

> <Gold.PLP.PLP>
-33.4412

> <Gold.PLP.part.hbond>
-2.0000

> <Gold.PLP.part.metal>
0.0000

> <Gold.PLP.part.buried>
-5.7119

> <Gold.PLP.part.nonpolar>
-26.5467

> <Gold.PLP.part.repulsive>
0.2247

> <Gold.PLP.ligand.clash>
0.0000

> <Gold.PLP.ligand.torsion>
1.1108

> <Gold.PLP.Chemscore.Hbond>
1.9920

> <Gold.PLP.Chemscore.CHOScore>
0.9195

> <Gold.PLP.Chemscore.Metal>
0.0000

> <Gold.Chemscore.Hbonds>
donor molecule, donor type, donor heavy atom, donor atom, acceptor molecule, acceptor atom, score
      L1  H    22    47       P1  7948  1.00
      P1  H  6896  6907       L1    12  1.00
      L1  C    18    43       P1 10957  1.00

> <Gold.PLP.Chemscore.Internal.Correction>
0.2749

> <Gold.Rescore>
     Score         DG    S(hbond)    S(metal)    S(lipo)     H(rot)  DE(clash)    DE(int)     intcor
     13.84     -14.93       1.87        0.00      86.79       2.72       0.04       1.05       ----

> <Gold.Chemscore.Fitness>
13.8370

> <Gold.Chemscore.DG>
-14.9326

> <Gold.Chemscore.ZeroCoef>
-5.4800

> <Gold.Chemscore.Hbond>
1.8724

> <Gold.Chemscore.Metal>
0.0000

> <Gold.Chemscore.Lipo>
86.7907

> <Gold.Chemscore.Internal_Hbond>
0.0000

> <Gold.Chemscore.DEClash>
0.0418

> <Gold.Chemscore.DEInternal>
1.0538

> <Gold.Chemscore.Rot>
2.7171

> <Gold.Chemscore.Internal.Correction>
   9.000000E+99

> <Gold.Chemscore.Hbonds>
donor molecule, donor type, donor heavy atom, donor atom, acceptor molecule, acceptor atom, score
      L1  H    22    47       P1  7948  0.93
      P1  H  6896  6907       L1    12  0.72

> <Gold.Chemscore.Hbond.Weighted>
-6.2538

> <Gold.Chemscore.Metal.Weighted>
-0.0000

> <Gold.Chemscore.Lipo.Weighted>
-10.1545

> <Gold.Chemscore.Internal_Hbond.Weighted>
0.0000

> <Gold.Chemscore.DEClash.Weighted>
0.0418

> <Gold.Chemscore.DEInternal.Weighted>
1.0538

> <Gold.Chemscore.Rot.Weighted>
6.9557

> <Gold.Chemscore.Internal.Correction.Weighted>
   9.000000E+99

> <Gold.Protein.RotatedTorsions>
[ 6907 6896 6895 6894 ] final  -92.23 input  -60.11 | X-H torsion
[ 7974 7965 7964 7962 ] final   52.83 input  175.53 | X-H torsion
[ 8008 7997 7996 7995 ] final  115.08 input   59.86 | X-H torsion
[ 10167 10162 10161 10158 ] final   53.07 input  -65.29 | X-H torsion
[ 10718 10713 10712 10709 ] final   19.67 input   66.30 | X-H torsion
[ 10763 10752 10751 10750 ] final  -79.76 input  -60.55 | X-H torsion
[ 11005 11000 10999 10996 ] final  107.30 input  -57.11 | X-H torsion

> <Gold.Protein.ActiveResidues>
 VAL166  LYS551  ARG553  GLY616  TRP617  ASP618  TYR619  PRO620  LYS621  CYS622 
 ASP623  PHE694  ASN695  SER759  ASP760  ASP761  ALA762  ILE779  LEU786  VAL792 
 PHE793  MET794  SER795  GLU796  ALA797  LYS798  CYS799  TRP800  GLU811  SER814 

> <Gold.Protein.RotatedAtoms>
  150.6903  134.2155  159.4375 H   0  0  0  0  0  0  0  0  0  0  0  0  # atno 6907 bound_to 6896
  152.0114  134.9871  160.0577 H   0  0  0  0  0  0  0  0  0  0  0  0  # atno 6908 bound_to 6896
  152.1485  133.4472  159.4838 H   0  0  0  0  0  0  0  0  0  0  0  0  # atno 6909 bound_to 6896
  145.9774  139.4208  143.0153 H   0  0  0  0  0  0  0  0  0  0  0  0  # atno 7974 bound_to 7965
  156.2360  140.2946  156.0314 H   0  0  0  0  0  0  0  0  0  0  0  0  # atno 8008 bound_to 7997
  155.2090  140.0412  157.2947 H   0  0  0  0  0  0  0  0  0  0  0  0  # atno 8009 bound_to 7997
  154.6080  140.2444  155.7713 H   0  0  0  0  0  0  0  0  0  0  0  0  # atno 8010 bound_to 7997
  140.2446  144.3546  150.6368 H   0  0  0  0  0  0  0  0  0  0  0  0  # atno 10167 bound_to 10162
  157.1138  130.6520  149.5904 H   0  0  0  0  0  0  0  0  0  0  0  0  # atno 10718 bound_to 10713
  154.5427  135.5684  153.6854 H   0  0  0  0  0  0  0  0  0  0  0  0  # atno 10763 bound_to 10752
  152.9968  135.6232  154.2480 H   0  0  0  0  0  0  0  0  0  0  0  0  # atno 10764 bound_to 10752
  154.2411  135.2862  155.2833 H   0  0  0  0  0  0  0  0  0  0  0  0  # atno 10765 bound_to 10752
  139.8826  134.9396  156.5798 H   0  0  0  0  0  0  0  0  0  0  0  0  # atno 11005 bound_to 11000
  145.7819  140.9852  143.1095 LP  0  0  0  0  0  0  0  0  0  0  0  0  # atno 17320 bound_to 7965
  144.6852  139.9575  143.7479 LP  0  0  0  0  0  0  0  0  0  0  0  0  # atno 17321 bound_to 7965
  140.6087  143.2168  151.6929 LP  0  0  0  0  0  0  0  0  0  0  0  0  # atno 17342 bound_to 10162
  139.5066  144.3676  152.0501 LP  0  0  0  0  0  0  0  0  0  0  0  0  # atno 17343 bound_to 10162
  155.9844  130.4869  150.6982 LP  0  0  0  0  0  0  0  0  0  0  0  0  # atno 17370 bound_to 10713
  157.4536  131.0875  151.0820 LP  0  0  0  0  0  0  0  0  0  0  0  0  # atno 17371 bound_to 10713
  140.8036  133.8486  155.8748 LP  0  0  0  0  0  0  0  0  0  0  0  0  # atno 17394 bound_to 11000
  140.9570  134.1704  157.4683 LP  0  0  0  0  0  0  0  0  0  0  0  0  # atno 17395 bound_to 11000

$$$$
