#       Name:                AV-unprocessed.smi:446
#       Creating user name   scv26
#       Creation time:       Thu Mar 26 22:59:06 2020


#       File generated by GOLD software.
#

@<TRIPOS>MOLECULE
AV-unprocessed.smi:446
    38    40     1
SMALL
NO_CHARGES


@<TRIPOS>ATOM
      1 ****        -1.4640   1.2588  -2.9295 C.3            1 S1                 0.0000
      2 ****        -1.4571   1.6651  -1.4940 C.2            1 S1                 0.0000
      3 ****        -1.8691   2.8664  -0.9989 N.pl3          1 S1                 1.0000
      4 ****        -1.7174   2.8828   0.3885 C.ar           1 S1                 0.0000
      5 ****        -1.9981   3.8725   1.3256 C.ar           1 S1                 0.0000
      6 ****        -1.7248   3.5625   2.6743 C.ar           1 S1                 0.0000
      7 ****        -1.1921   2.3111   3.0472 C.ar           1 S1                 0.0000
      8 ****        -0.9105   1.3160   2.0880 C.ar           1 S1                 0.0000
      9 ****        -1.1859   1.6303   0.7577 C.ar           1 S1                 0.0000
     10 ****        -1.0423   0.9131  -0.4345 N.pl3          1 S1                 0.0000
     11 ****        -0.5062  -0.4554  -0.3877 C.3            1 S1                 0.0000
     12 ****         1.0321  -0.4977  -0.2915 C.3            1 S1                 0.0000
     13 ****         1.5997   0.1792  -1.3961 O.3            1 S1                 0.0000
     14 ****         1.5363  -1.9269  -0.1729 C.ar           1 S1                 0.0000
     15 ****         1.9889  -2.4145   1.0721 C.ar           1 S1                 0.0000
     16 ****         2.4456  -3.7416   1.1912 C.ar           1 S1                 0.0000
     17 ****         2.4503  -4.5892   0.0670 C.ar           1 S1                 0.0000
     18 ****         2.8876  -5.8655   0.1826 F              1 S1                 0.0000
     19 ****         1.9981  -4.1092  -1.1770 C.ar           1 S1                 0.0000
     20 ****         1.5416  -2.7821  -1.2969 C.ar           1 S1                 0.0000
     21 ****        -1.8288   2.0723  -3.5570 H              1 S1                 0.0000
     22 ****        -2.1113   0.3935  -3.0729 H              1 S1                 0.0000
     23 ****        -0.4562   0.9977  -3.2526 H              1 S1                 0.0000
     24 ****        -2.4055   4.8319   1.0423 H              1 S1                 0.0000
     25 ****        -1.9275   4.2995   3.4379 H              1 S1                 0.0000
     26 ****        -0.9955   2.1099   4.0904 H              1 S1                 0.0000
     27 ****        -0.5015   0.3609   2.3825 H              1 S1                 0.0000
     28 ****        -0.9625  -0.9723   0.4576 H              1 S1                 0.0000
     29 ****        -0.8465  -0.9764  -1.2834 H              1 S1                 0.0000
     30 ****         1.3462   0.0482   0.5989 H              1 S1                 0.0000
     31 ****         2.5374   0.2060  -1.2812 H              1 S1                 0.0000
     32 ****         1.9865  -1.7739   1.9417 H              1 S1                 0.0000
     33 ****         2.7909  -4.1101   2.1458 H              1 S1                 0.0000
     34 ****         1.9993  -4.7595  -2.0393 H              1 S1                 0.0000
     35 ****         1.1919  -2.4237  -2.2541 H              1 S1                 0.0000
     36 ****        -2.2286   3.6191  -1.5716 H              1 S1                 0.0000
     37 ****         1.2387   1.1106  -1.4429 LP             1 S1                 0.0000
     38 ****         1.3770  -0.3074  -2.2408 LP             1 S1                 0.0000
@<TRIPOS>BOND
    1    1    2 1     
    2    1   21 1     
    3    1   22 1     
    4    1   23 1     
    5    2   10 1     
    6    2    3 2     
    7    3    4 1     
    8    3   36 1     
    9    4    9 ar    
   10    4    5 ar    
   11    5    6 ar    
   12    5   24 1     
   13    6    7 ar    
   14    6   25 1     
   15    7    8 ar    
   16    7   26 1     
   17    8    9 ar    
   18    8   27 1     
   19    9   10 1     
   20   10   11 1     
   21   11   12 1     
   22   11   28 1     
   23   11   29 1     
   24   12   13 1     
   25   12   14 1     
   26   12   30 1     
   27   13   31 1     
   28   14   20 ar    
   29   14   15 ar    
   30   15   16 ar    
   31   15   32 1     
   32   16   17 ar    
   33   16   33 1     
   34   17   18 1     
   35   17   19 ar    
   36   19   20 ar    
   37   19   34 1     
   38   20   35 1     
   39   13   37 1     
   40   13   38 1     
@<TRIPOS>SUBSTRUCTURE
      1 S1             1
@<TRIPOS>SET
LONE_PAIRS      STATIC     ATOMS    <user>   **** ""
2 37 38
DONOR_HYDROGENS      STATIC     ATOMS    <user>   **** ""
2 36 31
ATOM$BLUE        STATIC     ATOMS    COLORGROUP SYSTEM
2 37 38
ATOM$RED        STATIC     ATOMS    COLORGROUP SYSTEM
2 36 31
