#       Name:                AV-unprocessed.smi:72
#       Creating user name   scv26
#       Creation time:       Thu Mar 26 17:05:17 2020


#       File generated by GOLD software.
#

@<TRIPOS>MOLECULE
AV-unprocessed.smi:72
    41    42     1
SMALL
NO_CHARGES


@<TRIPOS>ATOM
      1 ****        -2.3056   4.5659   1.1117 N.2            1 S1                 0.0000
      2 ****        -1.9084   3.4388   0.7106 C.2            1 S1                 0.0000
      3 ****        -0.4936   3.1385   0.6722 N.2            1 S1                 0.0000
      4 ****        -0.1355   1.9705   0.2350 C.2            1 S1                 0.0000
      5 ****        -1.1102   0.9881  -0.2194 N.am           1 S1                 0.0000
      6 ****        -0.6826  -0.3790  -0.7090 C.3            1 S1                 0.0000
      7 ****         0.6100  -0.2997  -1.2392 O.3            1 S1                 0.0000
      8 ****         1.4169  -1.3536  -0.7224 C.3            1 S1                 0.0000
      9 ****         2.8938  -0.9294  -0.7278 C.3            1 S1                 0.0000
     10 ****         3.4624  -1.1566  -1.9998 O.3            1 S1                 0.0000
     11 ****         0.8422  -1.5512   0.6805 C.3            1 S1                 0.0000
     12 ****         1.1823  -2.7990   1.2553 O.3            1 S1                 0.0000
     13 ****        -0.6558  -1.3783   0.4584 C.3            1 S1                 0.0000
     14 ****        -1.3023  -2.5865   0.1026 O.3            1 S1                 0.0000
     15 ****        -2.4938   1.2966  -0.1372 C.2            1 S1                 0.0000
     16 ****        -3.3034   0.4330  -0.4764 O.2            1 S1                 0.0000
     17 ****        -2.8633   2.5250   0.3225 N.pl3          1 S1                -1.0000
     18 ****        -1.3725  -0.6467  -1.5113 H              1 S1                 0.0000
     19 ****         1.2575  -2.2565  -1.3156 H              1 S1                 0.0000
     20 ****         1.1969  -0.7532   1.3349 H              1 S1                 0.0000
     21 ****        -1.1499  -0.9711   1.3420 H              1 S1                 0.0000
     22 ****        -3.3119   4.6466   1.0922 H              1 S1                 0.0000
     23 ****         0.9068   1.6534   0.1866 H              1 S1                 0.0000
     24 ****         3.0068   0.1168  -0.4420 H              1 S1                 0.0000
     25 ****         3.4574  -1.5240  -0.0084 H              1 S1                 0.0000
     26 ****         4.3702  -0.8957  -1.9739 H              1 S1                 0.0000
     27 ****         0.6968  -2.8985   2.0597 H              1 S1                 0.0000
     28 ****        -2.2101  -2.3951  -0.0788 H              1 S1                 0.0000
     29 ****        -1.6939   5.2967   1.4145 LP             1 S1                 0.0000
     30 ****         0.1853   3.8085   0.9724 LP             1 S1                 0.0000
     31 ****         1.0159   0.5798  -0.9909 LP             1 S1                 0.0000
     32 ****         0.5641  -0.3763  -2.2353 LP             1 S1                 0.0000
     33 ****         2.9761  -0.6177  -2.6877 LP             1 S1                 0.0000
     34 ****         3.3970  -2.1276  -2.2298 LP             1 S1                 0.0000
     35 ****         2.1633  -2.8264   1.4471 LP             1 S1                 0.0000
     36 ****         0.9453  -3.5375   0.6241 LP             1 S1                 0.0000
     37 ****        -1.2387  -3.2391   0.8576 LP             1 S1                 0.0000
     38 ****        -0.8695  -2.9747  -0.7110 LP             1 S1                 0.0000
     39 ****        -2.9799  -0.4566  -0.7989 LP             1 S1                 0.0000
     40 ****        -4.2844   0.6213  -0.4295 LP             1 S1                 0.0000
     41 ****        -3.8327   2.7643   0.3784 LP             1 S1                 0.0000
@<TRIPOS>BOND
    1    1    2 2     
    2    1   22 1     
    3    2   17 1     
    4    2    3 1     
    5    3    4 2     
    6    4    5 1     
    7    4   23 1     
    8    5    6 1     
    9    5   15 am    
   10    6   18 1     
   11    6   13 1     
   12    6    7 1     
   13    7    8 1     
   14    8   19 1     
   15    8    9 1     
   16    8   11 1     
   17    9   10 1     
   18    9   24 1     
   19    9   25 1     
   20   10   26 1     
   21   11   20 1     
   22   11   12 1     
   23   11   13 1     
   24   12   27 1     
   25   13   21 1     
   26   13   14 1     
   27   14   28 1     
   28   15   16 2     
   29   15   17 1     
   30    1   29 1     
   31    3   30 1     
   32    7   31 1     
   33    7   32 1     
   34   10   33 1     
   35   10   34 1     
   36   12   35 1     
   37   12   36 1     
   38   14   37 1     
   39   14   38 1     
   40   16   39 1     
   41   16   40 1     
   42   17   41 1     
@<TRIPOS>SUBSTRUCTURE
      1 S1             1
@<TRIPOS>SET
LONE_PAIRS      STATIC     ATOMS    <user>   **** ""
13 29 30 31 32 33 34 35 36 37 38 39 40 41
DONOR_HYDROGENS      STATIC     ATOMS    <user>   **** ""
4 22 26 27 28
ATOM$BLUE        STATIC     ATOMS    COLORGROUP SYSTEM
13 29 30 31 32 33 34 35 36 37 38 39 40 41
ATOM$RED        STATIC     ATOMS    COLORGROUP SYSTEM
4 22 26 27 28
