AV-unprocessed.smi:1432|AV-procd|sdf|5831|dock4
  -GOLD-   22720 5493D 1   1.00000     0.00000
 Structure written by MMmdl.
 47 48  0  0  0  0  0  0  0  0  2 V2000
  147.6674  132.7457  152.9443 C   0  0  0  0  0  0  0  0  0  0  0  0
  146.6013  133.8315  152.6948 C   0  0  2  0  0  0  0  0  0  0  0  0
  146.3366  133.9367  151.1765 C   0  0  0  0  0  0  0  0  0  0  0  0
  145.3010  135.0161  150.8467 C   0  0  0  0  0  0  0  0  0  0  0  0
  145.7557  136.3539  151.4328 C   0  0  0  0  0  0  0  0  0  0  0  0
  145.9936  136.2241  152.9437 C   0  0  0  0  0  0  0  0  0  0  0  0
  146.9879  135.1628  153.2619 N   0  3  1  0  0  0  0  0  0  0  0  0
  147.3073  135.1395  154.7158 C   0  0  0  0  0  0  0  0  0  0  0  0
  147.8515  136.4947  155.1903 C   0  0  0  0  0  0  0  0  0  0  0  0
  148.4652  136.3655  156.5038 N   0  0  0  0  0  0  0  0  0  0  0  0
  147.8102  136.0113  157.6212 C   0  0  0  0  0  0  0  0  0  0  0  0
  146.6095  135.7445  157.6278 O   0  0  0  0  0  0  0  0  0  0  0  0
  148.5986  135.9458  158.9413 C   0  0  0  0  0  0  0  0  0  0  0  0
  147.9058  135.2588  160.0466 N   0  0  0  0  0  0  0  0  0  0  0  0
  147.6461  133.8838  159.8841 C   0  0  0  0  0  0  0  0  0  0  0  0
  147.0142  133.1421  160.8136 C   0  0  0  0  0  0  0  0  0  0  0  0
  146.8073  131.6463  160.6329 C   0  0  0  0  0  0  0  0  0  0  0  0
  146.1443  131.3837  159.5066 F   0  0  0  0  0  0  0  0  0  0  0  0
  147.9864  131.0287  160.5764 F   0  0  0  0  0  0  0  0  0  0  0  0
  146.1185  131.1332  161.6531 F   0  0  0  0  0  0  0  0  0  0  0  0
  146.6251  133.8276  162.0307 C   0  0  0  0  0  0  0  0  0  0  0  0
  146.8789  135.1389  162.2084 C   0  0  0  0  0  0  0  0  0  0  0  0
  147.5576  135.9343  161.1830 C   0  0  0  0  0  0  0  0  0  0  0  0
  147.8066  137.1296  161.3390 O   0  0  0  0  0  0  0  0  0  0  0  0
  147.3761  131.8036  152.4790 H   0  0  0  0  0  0  0  0  0  0  0  0
  147.8111  132.5365  154.0039 H   0  0  0  0  0  0  0  0  0  0  0  0
  148.6319  133.0324  152.5239 H   0  0  0  0  0  0  0  0  0  0  0  0
  145.6760  133.5180  153.1815 H   0  0  0  0  0  0  0  0  0  0  0  0
  147.2683  134.1603  150.6544 H   0  0  0  0  0  0  0  0  0  0  0  0
  145.9923  132.9768  150.7897 H   0  0  0  0  0  0  0  0  0  0  0  0
  145.1734  135.0998  149.7671 H   0  0  0  0  0  0  0  0  0  0  0  0
  144.3295  134.7388  151.2580 H   0  0  0  0  0  0  0  0  0  0  0  0
  146.6720  136.6830  150.9406 H   0  0  0  0  0  0  0  0  0  0  0  0
  145.0055  137.1207  151.2376 H   0  0  0  0  0  0  0  0  0  0  0  0
  146.3485  137.1821  153.3269 H   0  0  0  0  0  0  0  0  0  0  0  0
  145.0532  136.0065  153.4527 H   0  0  0  0  0  0  0  0  0  0  0  0
  146.4124  134.9148  155.2989 H   0  0  0  0  0  0  0  0  0  0  0  0
  148.0044  134.3332  154.9479 H   0  0  0  0  0  0  0  0  0  0  0  0
  148.5950  136.8843  154.4950 H   0  0  0  0  0  0  0  0  0  0  0  0
  147.0394  137.2228  155.2321 H   0  0  0  0  0  0  0  0  0  0  0  0
  149.4514  136.5702  156.5756 H   0  0  0  0  0  0  0  0  0  0  0  0
  149.5621  135.4711  158.7464 H   0  0  0  0  0  0  0  0  0  0  0  0
  148.8466  136.9670  159.2343 H   0  0  0  0  0  0  0  0  0  0  0  0
  148.0054  133.4655  158.9547 H   0  0  0  0  0  0  0  0  0  0  0  0
  146.1168  133.2829  162.8128 H   0  0  0  0  0  0  0  0  0  0  0  0
  146.5726  135.6175  163.1272 H   0  0  0  0  0  0  0  0  0  0  0  0
  147.8394  135.4357  152.7920 H   0  0  0  0  0  0  0  0  0  0  0  0
  1  2  1  0  0  0  0
  1 25  1  0  0  0  0
  1 26  1  0  0  0  0
  1 27  1  0  0  0  0
  2  7  1  0  0  0  0
  2  3  1  0  0  0  0
  2 28  1  0  0  0  0
  3  4  1  0  0  0  0
  3 29  1  0  0  0  0
  3 30  1  0  0  0  0
  4  5  1  0  0  0  0
  4 31  1  0  0  0  0
  4 32  1  0  0  0  0
  5  6  1  0  0  0  0
  5 33  1  0  0  0  0
  5 34  1  0  0  0  0
  6  7  1  0  0  0  0
  6 35  1  0  0  0  0
  6 36  1  0  0  0  0
  7  8  1  0  0  0  0
  7 47  1  0  0  0  0
  8  9  1  0  0  0  0
  8 37  1  0  0  0  0
  8 38  1  0  0  0  0
  9 10  1  0  0  0  0
  9 39  1  0  0  0  0
  9 40  1  0  0  0  0
 10 11  1  0  0  0  0
 10 41  1  0  0  0  0
 11 12  2  0  0  0  0
 11 13  1  0  0  0  0
 13 14  1  0  0  0  0
 13 42  1  0  0  0  0
 13 43  1  0  0  0  0
 14 23  1  0  0  0  0
 14 15  1  0  0  0  0
 15 16  2  0  0  0  0
 15 44  1  0  0  0  0
 16 17  1  0  0  0  0
 16 21  1  0  0  0  0
 17 18  1  0  0  0  0
 17 19  1  0  0  0  0
 17 20  1  0  0  0  0
 21 22  2  0  0  0  0
 21 45  1  0  0  0  0
 22 23  1  0  0  0  0
 22 46  1  0  0  0  0
 23 24  2  0  0  0  0
M  CHG  1   7   1
M  END
> <s_m_source_file>
AV-unprocessed.smi

> <i_m_source_file_index>
1432

> <i_lp_mmshare_version>
43012

> <i_f3d_flags>
0

> <s_epik_input>
W0NIM11bQ0BASF0xW0NIMl1bQ0gyXVtDSDJdW0NIMl1OMVtDSDJdW0NIMl1bTkhdQyg9TylbQ0gyXW4yW2NIXWMoQyhGKShGKUYpW2NIXVtjSF1jMj1P

> <s_epik_cmdline>
J2VwaWtfcHl0aG9uJywgJy1waCcsICc3LjAnLCAnLXRuJywgJzgnLCAnLW1hJywgJzIwMCcsICctbWV0YWxfYmluZGluZycsICctaW1hZScsICc8aW5maWxlLm1hZT4nLCAnLW9tYWUnLCAnPG91dGZpbGUubWFlPic=

> <r_lp_tautomer_probability>
1

> <r_epik_Ionization_Penalty>
0.00237222

> <r_epik_Ionization_Penalty_Charging>
0.00237213

> <r_epik_Ionization_Penalty_Neutral>
8.2065e-08

> <r_epik_State_Penalty>
0.00163922

> <r_epik_Charging_Adjusted_Penalty>
0.00401135

> <i_epik_Tot_Q>
1

> <i_epik_Tot_abs_Q>
1

> <r_epik_Metal_State_Penalty>
-0

> <b_epik_Metal_Only>
0

> <s_lp_Force_Field>
OPLS_2005

> <r_lp_Energy>
33.1317

> <b_lp_Chiralities_Consistent>
1

> <s_lp_Variant>
AV-unprocessed.smi:1432-1

> <Gold.Version>
5.8.1

> <Gold.Id.Protein>
6NUR|6NUR_protein|mol2

> <Gold.PLP.Fitness>
48.0815

> <Gold.PLP.PLP>
-37.2066

> <Gold.PLP.part.hbond>
-3.0000

> <Gold.PLP.part.metal>
0.0000

> <Gold.PLP.part.buried>
-3.7042

> <Gold.PLP.part.nonpolar>
-29.6972

> <Gold.PLP.part.repulsive>
0.0000

> <Gold.PLP.ligand.clash>
0.0000

> <Gold.PLP.ligand.torsion>
0.3271

> <Gold.PLP.Chemscore.Hbond>
3.8080

> <Gold.PLP.Chemscore.CHOScore>
0.0000

> <Gold.PLP.Chemscore.Metal>
0.0000

> <Gold.Chemscore.Hbonds>
donor molecule, donor type, donor heavy atom, donor atom, acceptor molecule, acceptor atom, score
      L1  H     7    47       P1  7948  2.00
      P1  H  6931  6943       L1    24  1.00
      P1  H  6934  6947       L1    24  0.78

> <Gold.PLP.Chemscore.Internal.Correction>
0.1051

> <Gold.Rescore>
     Score         DG    S(hbond)    S(metal)    S(lipo)     H(rot)  DE(clash)    DE(int)     intcor
     17.06     -17.45       2.76        0.00      68.96       2.08       0.01       0.37       ----

> <Gold.Chemscore.Fitness>
17.0635

> <Gold.Chemscore.DG>
-17.4472

> <Gold.Chemscore.ZeroCoef>
-5.4800

> <Gold.Chemscore.Hbond>
2.7587

> <Gold.Chemscore.Metal>
0.0000

> <Gold.Chemscore.Lipo>
68.9584

> <Gold.Chemscore.Internal_Hbond>
0.0000

> <Gold.Chemscore.DEClash>
0.0101

> <Gold.Chemscore.DEInternal>
0.3736

> <Gold.Chemscore.Rot>
2.0762

> <Gold.Chemscore.Internal.Correction>
   9.000000E+99

> <Gold.Chemscore.Hbonds>
donor molecule, donor type, donor heavy atom, donor atom, acceptor molecule, acceptor atom, score
      L1  H     7    47       P1  7948  0.99
      P1  H  6931  6943       L1    24  0.96
      P1  H  6934  6947       L1    24  0.73

> <Gold.Chemscore.Hbond.Weighted>
-9.2141

> <Gold.Chemscore.Metal.Weighted>
-0.0000

> <Gold.Chemscore.Lipo.Weighted>
-8.0681

> <Gold.Chemscore.Internal_Hbond.Weighted>
0.0000

> <Gold.Chemscore.DEClash.Weighted>
0.0101

> <Gold.Chemscore.DEInternal.Weighted>
0.3736

> <Gold.Chemscore.Rot.Weighted>
5.3150

> <Gold.Chemscore.Internal.Correction.Weighted>
   9.000000E+99

> <Gold.Protein.RotatedTorsions>
[ 6907 6896 6895 6894 ] final  139.96 input  -60.11 | X-H torsion
[ 7974 7965 7964 7962 ] final  145.51 input  175.53 | X-H torsion
[ 8008 7997 7996 7995 ] final -156.96 input   59.86 | X-H torsion
[ 10167 10162 10161 10158 ] final  -73.38 input  -65.29 | X-H torsion
[ 10718 10713 10712 10709 ] final   33.39 input   66.30 | X-H torsion
[ 10763 10752 10751 10750 ] final  -32.19 input  -60.55 | X-H torsion
[ 11005 11000 10999 10996 ] final  119.78 input  -57.11 | X-H torsion

> <Gold.Protein.ActiveResidues>
 VAL166  LYS551  ARG553  GLY616  TRP617  ASP618  TYR619  PRO620  LYS621  CYS622 
 ASP623  PHE694  ASN695  SER759  ASP760  ASP761  ALA762  ILE779  LEU786  VAL792 
 PHE793  MET794  SER795  GLU796  ALA797  LYS798  CYS799  TRP800  GLU811  SER814 

> <Gold.Protein.RotatedAtoms>
  152.2488  133.5197  159.5312 H   0  0  0  0  0  0  0  0  0  0  0  0  # atno 6907 bound_to 6896
  150.7087  134.0989  159.3967 H   0  0  0  0  0  0  0  0  0  0  0  0  # atno 6908 bound_to 6896
  151.8909  135.0417  160.0548 H   0  0  0  0  0  0  0  0  0  0  0  0  # atno 6909 bound_to 6896
  144.8746  139.5792  143.5871 H   0  0  0  0  0  0  0  0  0  0  0  0  # atno 7974 bound_to 7965
  155.7252  140.0795  157.2313 H   0  0  0  0  0  0  0  0  0  0  0  0  # atno 8008 bound_to 7997
  154.4040  140.1605  156.2501 H   0  0  0  0  0  0  0  0  0  0  0  0  # atno 8009 bound_to 7997
  155.9160  140.3401  155.6138 H   0  0  0  0  0  0  0  0  0  0  0  0  # atno 8010 bound_to 7997
  140.5115  143.2344  151.7585 H   0  0  0  0  0  0  0  0  0  0  0  0  # atno 10167 bound_to 10162
  157.2972  130.7332  149.6645 H   0  0  0  0  0  0  0  0  0  0  0  0  # atno 10718 bound_to 10713
  153.8097  135.6883  153.4843 H   0  0  0  0  0  0  0  0  0  0  0  0  # atno 10763 bound_to 10752
  153.1636  135.4570  154.9805 H   0  0  0  0  0  0  0  0  0  0  0  0  # atno 10764 bound_to 10752
  154.7973  135.3324  154.7578 H   0  0  0  0  0  0  0  0  0  0  0  0  # atno 10765 bound_to 10752
  139.9159  134.9630  156.7707 H   0  0  0  0  0  0  0  0  0  0  0  0  # atno 11005 bound_to 11000
  146.2954  139.7262  142.9130 LP  0  0  0  0  0  0  0  0  0  0  0  0  # atno 17320 bound_to 7965
  145.4066  141.0391  143.3040 LP  0  0  0  0  0  0  0  0  0  0  0  0  # atno 17321 bound_to 7965
  139.4897  144.4384  151.9793 LP  0  0  0  0  0  0  0  0  0  0  0  0  # atno 17342 bound_to 10162
  140.3476  144.3128  150.5955 LP  0  0  0  0  0  0  0  0  0  0  0  0  # atno 17343 bound_to 10162
  155.9669  130.4291  150.4817 LP  0  0  0  0  0  0  0  0  0  0  0  0  # atno 17370 bound_to 10713
  157.2791  131.0603  151.2210 LP  0  0  0  0  0  0  0  0  0  0  0  0  # atno 17371 bound_to 10713
  140.6623  133.9634  155.7811 LP  0  0  0  0  0  0  0  0  0  0  0  0  # atno 17394 bound_to 11000
  141.0634  134.0312  157.3626 LP  0  0  0  0  0  0  0  0  0  0  0  0  # atno 17395 bound_to 11000

$$$$
