AV-unprocessed.smi:2019|AV-procd|sdf|8172|dock1
  -GOLD-   2272010423D 1   1.00000     0.00000
 Structure written by MMmdl.
 36 37  0  0  0  0  0  0  0  0  1 V2000
  150.0058  141.6708  158.1123 O   0  0  0  0  0  0  0  0  0  0  0  0
  150.4547  142.4067  157.2325 C   0  0  0  0  0  0  0  0  0  0  0  0
  151.4037  143.5602  157.5842 C   0  0  0  0  0  0  0  0  0  0  0  0
  151.8408  143.5358  158.9898 N   0  0  0  0  0  0  0  0  0  0  0  0
  152.5367  142.3912  159.4275 C   0  0  0  0  0  0  0  0  0  0  0  0
  152.9835  142.2704  160.6878 C   0  0  0  0  0  0  0  0  0  0  0  0
  152.7345  143.3555  161.6071 C   0  0  0  0  0  0  0  0  0  0  0  0
  152.0716  144.4556  161.1983 C   0  0  0  0  0  0  0  0  0  0  0  0
  151.5818  144.5921  159.8216 C   0  0  0  0  0  0  0  0  0  0  0  0
  150.9756  145.5935  159.4399 O   0  0  0  0  0  0  0  0  0  0  0  0
  150.1449  142.2733  155.9329 N   0  0  0  0  0  0  0  0  0  0  0  0
  149.2850  141.2314  155.3669 C   0  0  1  0  0  0  0  0  0  0  0  0
  148.3640  141.9014  154.3214 C   0  0  0  0  0  0  0  0  0  0  0  0
  147.0767  141.1100  154.0307 C   0  0  0  0  0  0  0  0  0  0  0  0
  147.2920  139.7397  153.3701 C   0  0  0  0  0  0  0  0  0  0  0  0
  148.0918  138.7535  154.2384 C   0  0  0  0  0  0  0  0  0  0  0  0
  149.5210  139.0364  154.2136 N   0  0  0  0  0  0  0  0  0  0  0  0
  150.1326  140.1387  154.6729 C   0  0  0  0  0  0  0  0  0  0  0  0
  151.3483  140.2763  154.5370 O   0  0  0  0  0  0  0  0  0  0  0  0
  152.2726  143.5363  156.9232 H   0  0  0  0  0  0  0  0  0  0  0  0
  150.8959  144.4978  157.3541 H   0  0  0  0  0  0  0  0  0  0  0  0
  152.6878  141.6286  158.6773 H   0  0  0  0  0  0  0  0  0  0  0  0
  153.5182  141.3869  161.0045 H   0  0  0  0  0  0  0  0  0  0  0  0
  153.0826  143.2857  162.6271 H   0  0  0  0  0  0  0  0  0  0  0  0
  151.8954  145.2580  161.8998 H   0  0  0  0  0  0  0  0  0  0  0  0
  150.5614  142.9206  155.2796 H   0  0  0  0  0  0  0  0  0  0  0  0
  148.6868  140.7911  156.1669 H   0  0  0  0  0  0  0  0  0  0  0  0
  148.0579  142.8805  154.6933 H   0  0  0  0  0  0  0  0  0  0  0  0
  148.9038  142.0991  153.3932 H   0  0  0  0  0  0  0  0  0  0  0  0
  146.5151  140.9811  154.9570 H   0  0  0  0  0  0  0  0  0  0  0  0
  146.4399  141.7103  153.3802 H   0  0  0  0  0  0  0  0  0  0  0  0
  146.3125  139.3048  153.1679 H   0  0  0  0  0  0  0  0  0  0  0  0
  147.7713  139.8603  152.3973 H   0  0  0  0  0  0  0  0  0  0  0  0
  147.7210  138.7378  155.2642 H   0  0  0  0  0  0  0  0  0  0  0  0
  147.9582  137.7439  153.8492 H   0  0  0  0  0  0  0  0  0  0  0  0
  150.1056  138.3385  153.7762 H   0  0  0  0  0  0  0  0  0  0  0  0
  1  2  2  0  0  0  0
  2  3  1  0  0  0  0
  2 11  1  0  0  0  0
  3  4  1  0  0  0  0
  3 20  1  0  0  0  0
  3 21  1  0  0  0  0
  4  9  1  0  0  0  0
  4  5  1  0  0  0  0
  5  6  2  0  0  0  0
  5 22  1  0  0  0  0
  6  7  1  0  0  0  0
  6 23  1  0  0  0  0
  7  8  2  0  0  0  0
  7 24  1  0  0  0  0
  8  9  1  0  0  0  0
  8 25  1  0  0  0  0
  9 10  2  0  0  0  0
 11 12  1  0  0  0  0
 11 26  1  0  0  0  0
 12 18  1  0  0  0  0
 12 13  1  0  0  0  0
 12 27  1  0  0  0  0
 13 14  1  0  0  0  0
 13 28  1  0  0  0  0
 13 29  1  0  0  0  0
 14 15  1  0  0  0  0
 14 30  1  0  0  0  0
 14 31  1  0  0  0  0
 15 16  1  0  0  0  0
 15 32  1  0  0  0  0
 15 33  1  0  0  0  0
 16 17  1  0  0  0  0
 16 34  1  0  0  0  0
 16 35  1  0  0  0  0
 17 18  1  0  0  0  0
 17 36  1  0  0  0  0
 18 19  2  0  0  0  0
M  END
> <s_m_source_file>
AV-unprocessed.smi

> <i_m_source_file_index>
2019

> <i_lp_mmshare_version>
43012

> <i_f3d_flags>
0

> <s_epik_input>
Tz1jMVtjSF1bY0hdW2NIXVtjSF1uMVtDSDJdQyg9TylbTkhdW0NAQEhdMltDSDJdW0NIMl1bQ0gyXVtDSDJdW05IXUMyPU8=

> <s_epik_cmdline>
J2VwaWtfcHl0aG9uJywgJy1waCcsICc3LjAnLCAnLXRuJywgJzgnLCAnLW1hJywgJzIwMCcsICctbWV0YWxfYmluZGluZycsICctaW1hZScsICc8aW5maWxlLm1hZT4nLCAnLW9tYWUnLCAnPG91dGZpbGUubWFlPic=

> <r_lp_tautomer_probability>
1

> <r_epik_Ionization_Penalty>
3.70786e-07

> <r_epik_Ionization_Penalty_Charging>
3.17464e-07

> <r_epik_Ionization_Penalty_Neutral>
5.33217e-08

> <r_epik_State_Penalty>
-0

> <r_epik_Charging_Adjusted_Penalty>
3.17464e-07

> <i_epik_Tot_Q>
0

> <i_epik_Tot_abs_Q>
0

> <r_epik_Metal_State_Penalty>
-0

> <b_epik_Metal_Only>
0

> <s_lp_Force_Field>
OPLS_2005

> <r_lp_Energy>
20.0442

> <b_lp_Chiralities_Consistent>
1

> <s_lp_Variant>
AV-unprocessed.smi:2019-2

> <Gold.Version>
5.8.1

> <Gold.Id.Protein>
6NUR|6NUR_protein|mol2

> <Gold.PLP.Fitness>
46.3791

> <Gold.PLP.PLP>
-43.9612

> <Gold.PLP.part.hbond>
-2.9170

> <Gold.PLP.part.metal>
0.0000

> <Gold.PLP.part.buried>
-3.7432

> <Gold.PLP.part.nonpolar>
-37.1121

> <Gold.PLP.part.repulsive>
0.4695

> <Gold.PLP.ligand.clash>
0.0000

> <Gold.PLP.ligand.torsion>
0.2942

> <Gold.PLP.Chemscore.Hbond>
1.0000

> <Gold.PLP.Chemscore.CHOScore>
0.0000

> <Gold.PLP.Chemscore.Metal>
0.0000

> <Gold.Chemscore.Hbonds>
donor molecule, donor type, donor heavy atom, donor atom, acceptor molecule, acceptor atom, score
      P1  H  7989  7998       L1    19  0.24

> <Gold.PLP.Chemscore.Internal.Correction>
0.0063

> <Gold.Rescore>
     Score         DG    S(hbond)    S(metal)    S(lipo)     H(rot)  DE(clash)    DE(int)     intcor
     16.07     -16.70       1.71        0.00      81.88       1.59       0.23       0.40       ----

> <Gold.Chemscore.Fitness>
16.0669

> <Gold.Chemscore.DG>
-16.7032

> <Gold.Chemscore.ZeroCoef>
-5.4800

> <Gold.Chemscore.Hbond>
1.7137

> <Gold.Chemscore.Metal>
0.0000

> <Gold.Chemscore.Lipo>
81.8782

> <Gold.Chemscore.Internal_Hbond>
0.0000

> <Gold.Chemscore.DEClash>
0.2345

> <Gold.Chemscore.DEInternal>
0.4017

> <Gold.Chemscore.Rot>
1.5939

> <Gold.Chemscore.Internal.Correction>
   9.000000E+99

> <Gold.Chemscore.Hbonds>
donor molecule, donor type, donor heavy atom, donor atom, acceptor molecule, acceptor atom, score
      P1  H  7989  7998       L1    19  0.21

> <Gold.Chemscore.Hbond.Weighted>
-5.7238

> <Gold.Chemscore.Metal.Weighted>
-0.0000

> <Gold.Chemscore.Lipo.Weighted>
-9.5798

> <Gold.Chemscore.Internal_Hbond.Weighted>
0.0000

> <Gold.Chemscore.DEClash.Weighted>
0.2345

> <Gold.Chemscore.DEInternal.Weighted>
0.4017

> <Gold.Chemscore.Rot.Weighted>
4.0804

> <Gold.Chemscore.Internal.Correction.Weighted>
   9.000000E+99

> <Gold.Protein.RotatedTorsions>
[ 6907 6896 6895 6894 ] final  -51.98 input  -60.11 | X-H torsion
[ 7974 7965 7964 7962 ] final  -21.68 input  175.53 | X-H torsion
[ 8008 7997 7996 7995 ] final   29.84 input   59.86 | X-H torsion
[ 10167 10162 10161 10158 ] final  128.99 input  -65.29 | X-H torsion
[ 10718 10713 10712 10709 ] final  170.80 input   66.30 | X-H torsion
[ 10763 10752 10751 10750 ] final  105.25 input  -60.55 | X-H torsion
[ 11005 11000 10999 10996 ] final   16.41 input  -57.11 | X-H torsion

> <Gold.Protein.ActiveResidues>
 VAL166  LYS551  ARG553  GLY616  TRP617  ASP618  TYR619  PRO620  LYS621  CYS622 
 ASP623  PHE694  ASN695  SER759  ASP760  ASP761  ALA762  ILE779  LEU786  VAL792 
 PHE793  MET794  SER795  GLU796  ALA797  LYS798  CYS799  TRP800  GLU811  SER814 

> <Gold.Protein.RotatedAtoms>
  150.8560  134.7899  159.7045 H   0  0  0  0  0  0  0  0  0  0  0  0  # atno 6907 bound_to 6896
  152.4611  134.5178  159.9783 H   0  0  0  0  0  0  0  0  0  0  0  0  # atno 6908 bound_to 6896
  151.5290  133.3414  159.2950 H   0  0  0  0  0  0  0  0  0  0  0  0  # atno 6909 bound_to 6896
  146.1719  140.4375  142.8529 H   0  0  0  0  0  0  0  0  0  0  0  0  # atno 7974 bound_to 7965
  155.0809  140.3210  155.4602 H   0  0  0  0  0  0  0  0  0  0  0  0  # atno 8008 bound_to 7997
  156.2767  140.2095  156.5882 H   0  0  0  0  0  0  0  0  0  0  0  0  # atno 8009 bound_to 7997
  154.6979  140.0510  157.0416 H   0  0  0  0  0  0  0  0  0  0  0  0  # atno 8010 bound_to 7997
  139.5500  144.6805  151.4354 H   0  0  0  0  0  0  0  0  0  0  0  0  # atno 10167 bound_to 10162
  157.0029  131.0181  151.2825 H   0  0  0  0  0  0  0  0  0  0  0  0  # atno 10718 bound_to 10713
  153.3768  135.3916  155.1828 H   0  0  0  0  0  0  0  0  0  0  0  0  # atno 10763 bound_to 10752
  154.8702  135.3716  154.4908 H   0  0  0  0  0  0  0  0  0  0  0  0  # atno 10764 bound_to 10752
  153.5381  135.7085  153.5711 H   0  0  0  0  0  0  0  0  0  0  0  0  # atno 10765 bound_to 10752
  140.4474  134.1259  155.7698 H   0  0  0  0  0  0  0  0  0  0  0  0  # atno 11005 bound_to 11000
  144.8176  140.6494  143.6374 LP  0  0  0  0  0  0  0  0  0  0  0  0  # atno 17320 bound_to 7965
  145.4317  139.1548  143.4018 LP  0  0  0  0  0  0  0  0  0  0  0  0  # atno 17321 bound_to 7965
  140.6759  143.8190  150.7058 LP  0  0  0  0  0  0  0  0  0  0  0  0  # atno 17342 bound_to 10162
  140.1628  143.4260  152.2055 LP  0  0  0  0  0  0  0  0  0  0  0  0  # atno 17343 bound_to 10162
  157.5377  130.8099  149.7992 LP  0  0  0  0  0  0  0  0  0  0  0  0  # atno 17370 bound_to 10713
  156.0164  130.3812  150.2096 LP  0  0  0  0  0  0  0  0  0  0  0  0  # atno 17371 bound_to 10713
  141.1679  133.8667  157.1660 LP  0  0  0  0  0  0  0  0  0  0  0  0  # atno 17394 bound_to 11000
  140.0029  135.0020  157.0229 LP  0  0  0  0  0  0  0  0  0  0  0  0  # atno 17395 bound_to 11000

$$$$
