AV-unprocessed.smi:438|AV-procd|sdf|2577|dock1
  -GOLD-   2262022563D 1   1.00000     0.00000
 Structure written by MMmdl.
 48 49  0  0  0  0  0  0  0  0  1 V2000
  144.5820  135.0140  151.5770 C   0  0  0  0  0  0  0  0  0  0  0  0
  145.6093  134.0504  152.1421 C   0  0  0  0  0  0  0  0  0  0  0  0
  146.2690  134.4734  153.2428 N   0  0  0  0  0  0  0  0  0  0  0  0
  147.1680  133.6341  153.7581 C   0  0  0  0  0  0  0  0  0  0  0  0
  148.0547  134.1926  155.1942 S   0  0  0  0  0  0  0  0  0  0  0  0
  147.6250  132.8995  156.3980 C   0  0  0  0  0  0  0  0  0  0  0  0
  148.4503  133.0120  157.6759 C   0  0  0  0  0  0  0  0  0  0  0  0
  149.6706  133.1558  157.6084 O   0  0  0  0  0  0  0  0  0  0  0  0
  147.7675  132.9545  158.8305 N   0  0  0  0  0  0  0  0  0  0  0  0
  148.3296  133.0841  160.1762 C   0  0  2  0  0  0  0  0  0  0  0  0
  148.1145  131.7762  160.9646 C   0  0  0  0  0  0  0  0  0  0  0  0
  146.6367  131.5490  161.3272 C   0  0  0  0  0  0  0  0  0  0  0  0
  146.0581  132.7539  162.0835 C   0  0  0  0  0  0  0  0  0  0  0  0
  146.2452  134.0559  161.2882 C   0  0  0  0  0  0  0  0  0  0  0  0
  147.7270  134.2965  160.9319 C   0  0  2  0  0  0  0  0  0  0  0  0
  147.9182  135.6287  160.1864 C   0  0  0  0  0  0  0  0  0  0  0  0
  147.4998  132.4254  153.3051 N   0  0  0  0  0  0  0  0  0  0  0  0
  146.8501  131.9886  152.2049 C   0  0  0  0  0  0  0  0  0  0  0  0
  147.1628  130.7483  151.7291 O   0  0  0  0  0  0  0  0  0  0  0  0
  145.8688  132.7827  151.5603 C   0  0  0  0  0  0  0  0  0  0  0  0
  145.1351  132.2890  150.3196 C   0  0  0  0  0  0  0  0  0  0  0  0
  143.6258  132.1482  150.5581 C   0  0  0  0  0  0  0  0  0  0  0  0
  142.9702  131.8965  149.3346 O   0  0  0  0  0  0  0  0  0  0  0  0
  143.6266  134.5123  151.4222 H   0  0  0  0  0  0  0  0  0  0  0  0
  144.9241  135.4122  150.6214 H   0  0  0  0  0  0  0  0  0  0  0  0
  144.4112  135.8545  152.2512 H   0  0  0  0  0  0  0  0  0  0  0  0
  146.5650  132.9808  156.6402 H   0  0  0  0  0  0  0  0  0  0  0  0
  147.7736  131.9087  155.9682 H   0  0  0  0  0  0  0  0  0  0  0  0
  146.7662  132.8383  158.7732 H   0  0  0  0  0  0  0  0  0  0  0  0
  149.4073  133.2387  160.1017 H   0  0  0  0  0  0  0  0  0  0  0  0
  148.4954  130.9260  160.3973 H   0  0  0  0  0  0  0  0  0  0  0  0
  148.7024  131.8129  161.8826 H   0  0  0  0  0  0  0  0  0  0  0  0
  146.0559  131.3718  160.4213 H   0  0  0  0  0  0  0  0  0  0  0  0
  146.5392  130.6488  161.9349 H   0  0  0  0  0  0  0  0  0  0  0  0
  144.9991  132.5918  162.2867 H   0  0  0  0  0  0  0  0  0  0  0  0
  146.5485  132.8451  163.0535 H   0  0  0  0  0  0  0  0  0  0  0  0
  145.6443  134.0181  160.3786 H   0  0  0  0  0  0  0  0  0  0  0  0
  145.8632  134.8940  161.8720 H   0  0  0  0  0  0  0  0  0  0  0  0
  148.2723  134.3860  161.8728 H   0  0  0  0  0  0  0  0  0  0  0  0
  147.3498  135.6573  159.2563 H   0  0  0  0  0  0  0  0  0  0  0  0
  148.9676  135.7939  159.9413 H   0  0  0  0  0  0  0  0  0  0  0  0
  147.5873  136.4687  160.7975 H   0  0  0  0  0  0  0  0  0  0  0  0
  148.0123  130.7217  151.3163 H   0  0  0  0  0  0  0  0  0  0  0  0
  145.3203  132.9640  149.4841 H   0  0  0  0  0  0  0  0  0  0  0  0
  145.5539  131.3297  150.0131 H   0  0  0  0  0  0  0  0  0  0  0  0
  143.4180  131.3294  151.2477 H   0  0  0  0  0  0  0  0  0  0  0  0
  143.2165  133.0583  150.9975 H   0  0  0  0  0  0  0  0  0  0  0  0
  142.2631  132.5163  149.2392 H   0  0  0  0  0  0  0  0  0  0  0  0
  1  2  1  0  0  0  0
  1 24  1  0  0  0  0
  1 25  1  0  0  0  0
  1 26  1  0  0  0  0
  2 20  1  0  0  0  0
  2  3  2  0  0  0  0
  3  4  1  0  0  0  0
  4  5  1  0  0  0  0
  4 17  2  0  0  0  0
  5  6  1  0  0  0  0
  6  7  1  0  0  0  0
  6 27  1  0  0  0  0
  6 28  1  0  0  0  0
  7  8  2  0  0  0  0
  7  9  1  0  0  0  0
  9 10  1  0  0  0  0
  9 29  1  0  0  0  0
 10 15  1  0  0  0  0
 10 11  1  0  0  0  0
 10 30  1  0  0  0  0
 11 12  1  0  0  0  0
 11 31  1  0  0  0  0
 11 32  1  0  0  0  0
 12 13  1  0  0  0  0
 12 33  1  0  0  0  0
 12 34  1  0  0  0  0
 13 14  1  0  0  0  0
 13 35  1  0  0  0  0
 13 36  1  0  0  0  0
 14 15  1  0  0  0  0
 14 37  1  0  0  0  0
 14 38  1  0  0  0  0
 15 16  1  0  0  0  0
 15 39  1  0  0  0  0
 16 40  1  0  0  0  0
 16 41  1  0  0  0  0
 16 42  1  0  0  0  0
 17 18  1  0  0  0  0
 18 19  1  0  0  0  0
 18 20  2  0  0  0  0
 19 43  1  0  0  0  0
 20 21  1  0  0  0  0
 21 22  1  0  0  0  0
 21 44  1  0  0  0  0
 21 45  1  0  0  0  0
 22 23  1  0  0  0  0
 22 46  1  0  0  0  0
 22 47  1  0  0  0  0
 23 48  1  0  0  0  0
M  END
> <s_m_source_file>
AV-unprocessed.smi

> <i_m_source_file_index>
438

> <i_lp_mmshare_version>
43012

> <i_f3d_flags>
0

> <s_epik_input>
W09IXVtDSDJdW0NIMl1jMWMoW09IXSluYyhuYzFbQ0gzXSlTW0NIMl1DKD1PKVtOSF1bQ0BASF0yW0NIMl1bQ0gyXVtDSDJdW0NIMl1bQ0BIXTJbQ0gzXQ==

> <s_epik_cmdline>
J2VwaWtfcHl0aG9uJywgJy1waCcsICc3LjAnLCAnLXRuJywgJzgnLCAnLW1hJywgJzIwMCcsICctbWV0YWxfYmluZGluZycsICctaW1hZScsICc8aW5maWxlLm1hZT4nLCAnLW9tYWUnLCAnPG91dGZpbGUubWFlPic=

> <r_lp_tautomer_probability>
0.0660145

> <r_epik_Ionization_Penalty>
2.91405

> <r_epik_Ionization_Penalty_Charging>
0

> <r_epik_Ionization_Penalty_Neutral>
2.91405

> <r_epik_State_Penalty>
2.44767

> <r_epik_Charging_Adjusted_Penalty>
2.44767

> <i_epik_Tot_Q>
0

> <i_epik_Tot_abs_Q>
0

> <r_epik_Metal_State_Penalty>
3.04288

> <b_epik_Metal_Only>
0

> <s_lp_Force_Field>
OPLS_2005

> <r_lp_Energy>
3.55381

> <b_lp_Chiralities_Consistent>
1

> <s_lp_Variant>
AV-unprocessed.smi:438-15

> <Gold.Version>
5.8.1

> <Gold.Id.Protein>
6NUR|6NUR_protein|mol2

> <Gold.PLP.Fitness>
45.2448

> <Gold.PLP.PLP>
-34.3210

> <Gold.PLP.part.hbond>
-4.8328

> <Gold.PLP.part.metal>
0.0000

> <Gold.PLP.part.buried>
-7.0465

> <Gold.PLP.part.nonpolar>
-23.1911

> <Gold.PLP.part.repulsive>
0.2298

> <Gold.PLP.ligand.clash>
0.0000

> <Gold.PLP.ligand.torsion>
0.1859

> <Gold.PLP.Chemscore.Hbond>
3.7225

> <Gold.PLP.Chemscore.CHOScore>
0.0000

> <Gold.PLP.Chemscore.Metal>
0.0000

> <Gold.Chemscore.Hbonds>
donor molecule, donor type, donor heavy atom, donor atom, acceptor molecule, acceptor atom, score
      L1  H    19    43       P1 10747  0.71
      L1  H    23    48       P1 10186  0.36
      P1  H  6896  6907       L1     8  0.86
      P1  H 10785 10796       L1    23  1.00

> <Gold.PLP.Chemscore.Internal.Correction>
0.1282

> <Gold.Rescore>
     Score         DG    S(hbond)    S(metal)    S(lipo)     H(rot)  DE(clash)    DE(int)     intcor
     17.83     -17.99       3.59        0.00      79.50       3.44       0.04       0.12       ----

> <Gold.Chemscore.Fitness>
17.8292

> <Gold.Chemscore.DG>
-17.9900

> <Gold.Chemscore.ZeroCoef>
-5.4800

> <Gold.Chemscore.Hbond>
3.5942

> <Gold.Chemscore.Metal>
0.0000

> <Gold.Chemscore.Lipo>
79.5003

> <Gold.Chemscore.Internal_Hbond>
0.0000

> <Gold.Chemscore.DEClash>
0.0370

> <Gold.Chemscore.DEInternal>
0.1238

> <Gold.Chemscore.Rot>
3.4359

> <Gold.Chemscore.Internal.Correction>
   9.000000E+99

> <Gold.Chemscore.Hbonds>
donor molecule, donor type, donor heavy atom, donor atom, acceptor molecule, acceptor atom, score
      L1  H    19    43       P1 10747  0.70
      L1  H    23    48       P1 10186  0.35
      P1  H  6896  6907       L1     8  0.84
      P1  H 10785 10796       L1    23  0.85

> <Gold.Chemscore.Hbond.Weighted>
-12.0045

> <Gold.Chemscore.Metal.Weighted>
-0.0000

> <Gold.Chemscore.Lipo.Weighted>
-9.3015

> <Gold.Chemscore.Internal_Hbond.Weighted>
0.0000

> <Gold.Chemscore.DEClash.Weighted>
0.0370

> <Gold.Chemscore.DEInternal.Weighted>
0.1238

> <Gold.Chemscore.Rot.Weighted>
8.7960

> <Gold.Chemscore.Internal.Correction.Weighted>
   9.000000E+99

> <Gold.Protein.RotatedTorsions>
[ 6907 6896 6895 6894 ] final -126.99 input  -60.11 | X-H torsion
[ 7974 7965 7964 7962 ] final -103.22 input  175.53 | X-H torsion
[ 8008 7997 7996 7995 ] final   14.17 input   59.86 | X-H torsion
[ 10167 10162 10161 10158 ] final -111.05 input  -65.29 | X-H torsion
[ 10718 10713 10712 10709 ] final   45.45 input   66.30 | X-H torsion
[ 10763 10752 10751 10750 ] final  127.95 input  -60.55 | X-H torsion
[ 11005 11000 10999 10996 ] final  159.01 input  -57.11 | X-H torsion

> <Gold.Protein.ActiveResidues>
 VAL166  LYS551  ARG553  GLY616  TRP617  ASP618  TYR619  PRO620  LYS621  CYS622 
 ASP623  PHE694  ASN695  SER759  ASP760  ASP761  ALA762  ILE779  LEU786  VAL792 
 PHE793  MET794  SER795  GLU796  ALA797  LYS798  CYS799  TRP800  GLU811  SER814 

> <Gold.Protein.RotatedAtoms>
  150.9027  133.7098  159.2874 H   0  0  0  0  0  0  0  0  0  0  0  0  # atno 6907 bound_to 6896
  151.4611  135.1037  159.9735 H   0  0  0  0  0  0  0  0  0  0  0  0  # atno 6908 bound_to 6896
  152.4886  133.8389  159.7198 H   0  0  0  0  0  0  0  0  0  0  0  0  # atno 6909 bound_to 6896
  145.2587  140.9262  143.3053 H   0  0  0  0  0  0  0  0  0  0  0  0  # atno 7974 bound_to 7965
  154.8447  140.2920  155.5637 H   0  0  0  0  0  0  0  0  0  0  0  0  # atno 8008 bound_to 7997
  156.3013  140.2507  156.3327 H   0  0  0  0  0  0  0  0  0  0  0  0  # atno 8009 bound_to 7997
  154.9087  140.0389  157.1923 H   0  0  0  0  0  0  0  0  0  0  0  0  # atno 8010 bound_to 7997
  140.1378  143.4305  152.1583 H   0  0  0  0  0  0  0  0  0  0  0  0  # atno 10167 bound_to 10162
  157.4377  130.8062  149.7664 H   0  0  0  0  0  0  0  0  0  0  0  0  # atno 10718 bound_to 10713
  153.7176  135.3258  155.3260 H   0  0  0  0  0  0  0  0  0  0  0  0  # atno 10763 bound_to 10752
  154.8366  135.4492  154.1250 H   0  0  0  0  0  0  0  0  0  0  0  0  # atno 10764 bound_to 10752
  153.2361  135.6965  153.7914 H   0  0  0  0  0  0  0  0  0  0  0  0  # atno 10765 bound_to 10752
  140.1920  134.8400  157.2923 H   0  0  0  0  0  0  0  0  0  0  0  0  # atno 11005 bound_to 11000
  144.9438  139.4159  143.6436 LP  0  0  0  0  0  0  0  0  0  0  0  0  # atno 17320 bound_to 7965
  146.3281  139.8411  142.8890 LP  0  0  0  0  0  0  0  0  0  0  0  0  # atno 17321 bound_to 7965
  139.5487  144.7320  151.4502 LP  0  0  0  0  0  0  0  0  0  0  0  0  # atno 17342 bound_to 10162
  140.6779  143.8149  150.7082 LP  0  0  0  0  0  0  0  0  0  0  0  0  # atno 17343 bound_to 10162
  155.9937  130.3923  150.2891 LP  0  0  0  0  0  0  0  0  0  0  0  0  # atno 17370 bound_to 10713
  157.1053  131.0206  151.3069 LP  0  0  0  0  0  0  0  0  0  0  0  0  # atno 17371 bound_to 10713
  140.2148  134.4094  155.7594 LP  0  0  0  0  0  0  0  0  0  0  0  0  # atno 17394 bound_to 11000
  141.2226  133.7136  156.8397 LP  0  0  0  0  0  0  0  0  0  0  0  0  # atno 17395 bound_to 11000

$$$$
