AV-unprocessed.smi:2511|AV-procd|sdf|9888|dock2
  -GOLD-   2272013523D 1   1.00000     0.00000
 Structure written by MMmdl.
 40 41  0  0  0  0  0  0  0  0  1 V2000
  146.0332  139.1588  150.9105 N   0  0  0  0  0  0  0  0  0  0  0  0
  146.3554  138.5654  152.0649 C   0  0  0  0  0  0  0  0  0  0  0  0
  146.0946  137.3843  152.2888 O   0  0  0  0  0  0  0  0  0  0  0  0
  147.0169  139.4344  153.1011 C   0  0  0  0  0  0  0  0  0  0  0  0
  147.8172  138.8462  154.1069 C   0  0  0  0  0  0  0  0  0  0  0  0
  148.4361  139.6741  155.0630 C   0  0  0  0  0  0  0  0  0  0  0  0
  148.2356  141.0724  154.9891 C   0  0  0  0  0  0  0  0  0  0  0  0
  148.8138  142.0163  155.8797 N   0  0  0  0  0  0  0  0  0  0  0  0
  149.4498  141.7994  157.0480 C   0  0  0  0  0  0  0  0  0  0  0  0
  149.6514  140.6922  157.5417 O   0  0  0  0  0  0  0  0  0  0  0  0
  149.8483  142.9212  157.6757 N   0  0  0  0  0  0  0  0  0  0  0  0
  150.5589  143.0506  158.9501 C   0  0  2  0  0  0  0  0  0  0  0  0
  151.0906  144.4880  159.0931 C   0  0  0  0  0  0  0  0  0  0  0  0
  151.8978  144.6594  160.3884 C   0  0  0  0  0  0  0  0  0  0  0  0
  153.0445  143.6398  160.4704 C   0  0  0  0  0  0  0  0  0  0  0  0
  152.5278  142.1915  160.3413 C   0  0  2  0  0  0  0  0  0  0  0  0
  153.6692  141.1585  160.4410 C   0  0  0  0  0  0  0  0  0  0  0  0
  154.6897  141.5008  159.6539 F   0  0  0  0  0  0  0  0  0  0  0  0
  154.1031  141.0779  161.6989 F   0  0  0  0  0  0  0  0  0  0  0  0
  153.2284  139.9544  160.0761 F   0  0  0  0  0  0  0  0  0  0  0  0
  151.7165  142.0324  159.0377 C   0  0  0  0  0  0  0  0  0  0  0  0
  147.4368  141.5640  153.9372 C   0  0  0  0  0  0  0  0  0  0  0  0
  146.8394  140.7756  153.0193 N   0  0  0  0  0  0  0  0  0  0  0  0
  145.5896  138.6265  150.1765 H   0  0  0  0  0  0  0  0  0  0  0  0
  146.2399  140.1389  150.7815 H   0  0  0  0  0  0  0  0  0  0  0  0
  147.9605  137.7762  154.1519 H   0  0  0  0  0  0  0  0  0  0  0  0
  149.0579  139.2207  155.8189 H   0  0  0  0  0  0  0  0  0  0  0  0
  148.6659  142.9846  155.6356 H   0  0  0  0  0  0  0  0  0  0  0  0
  149.6273  143.7910  157.2122 H   0  0  0  0  0  0  0  0  0  0  0  0
  149.8638  142.8740  159.7730 H   0  0  0  0  0  0  0  0  0  0  0  0
  151.7222  144.7373  158.2389 H   0  0  0  0  0  0  0  0  0  0  0  0
  150.2614  145.1967  159.0819 H   0  0  0  0  0  0  0  0  0  0  0  0
  152.2979  145.6722  160.4446 H   0  0  0  0  0  0  0  0  0  0  0  0
  151.2388  144.5390  161.2491 H   0  0  0  0  0  0  0  0  0  0  0  0
  153.7695  143.8460  159.6822 H   0  0  0  0  0  0  0  0  0  0  0  0
  153.5733  143.7673  161.4153 H   0  0  0  0  0  0  0  0  0  0  0  0
  151.8497  142.0067  161.1764 H   0  0  0  0  0  0  0  0  0  0  0  0
  151.3227  141.0178  158.9753 H   0  0  0  0  0  0  0  0  0  0  0  0
  152.3774  142.1556  158.1785 H   0  0  0  0  0  0  0  0  0  0  0  0
  147.2662  142.6255  153.8295 H   0  0  0  0  0  0  0  0  0  0  0  0
  1  2  1  0  0  0  0
  1 24  1  0  0  0  0
  1 25  1  0  0  0  0
  2  3  2  0  0  0  0
  2  4  1  0  0  0  0
  4 23  1  0  0  0  0
  4  5  2  0  0  0  0
  5  6  1  0  0  0  0
  5 26  1  0  0  0  0
  6  7  2  0  0  0  0
  6 27  1  0  0  0  0
  7  8  1  0  0  0  0
  7 22  1  0  0  0  0
  8  9  1  0  0  0  0
  8 28  1  0  0  0  0
  9 10  2  0  0  0  0
  9 11  1  0  0  0  0
 11 12  1  0  0  0  0
 11 29  1  0  0  0  0
 12 21  1  0  0  0  0
 12 13  1  0  0  0  0
 12 30  1  0  0  0  0
 13 14  1  0  0  0  0
 13 31  1  0  0  0  0
 13 32  1  0  0  0  0
 14 15  1  0  0  0  0
 14 33  1  0  0  0  0
 14 34  1  0  0  0  0
 15 16  1  0  0  0  0
 15 35  1  0  0  0  0
 15 36  1  0  0  0  0
 16 17  1  0  0  0  0
 16 21  1  0  0  0  0
 16 37  1  0  0  0  0
 17 18  1  0  0  0  0
 17 19  1  0  0  0  0
 17 20  1  0  0  0  0
 21 38  1  0  0  0  0
 21 39  1  0  0  0  0
 22 23  2  0  0  0  0
 22 40  1  0  0  0  0
M  END
> <s_m_source_file>
AV-unprocessed.smi

> <i_m_source_file_index>
2511

> <i_lp_mmshare_version>
43012

> <i_f3d_flags>
0

> <s_epik_input>
W05IMl1DKD1PKWMxW2NIXVtjSF1jKFtjSF1uMSlbTkhdQyg9TylbTkhdW0NAQEhdMltDSDJdW0NIMl1bQ0gyXVtDQEBIXShDKEYpKEYpRilbQ0gyXTI=

> <s_epik_cmdline>
J2VwaWtfcHl0aG9uJywgJy1waCcsICc3LjAnLCAnLXRuJywgJzgnLCAnLW1hJywgJzIwMCcsICctbWV0YWxfYmluZGluZycsICctaW1hZScsICc8aW5maWxlLm1hZT4nLCAnLW9tYWUnLCAnPG91dGZpbGUubWFlPic=

> <r_lp_tautomer_probability>
1

> <r_epik_Ionization_Penalty>
4.28758e-05

> <r_epik_Ionization_Penalty_Charging>
0

> <r_epik_Ionization_Penalty_Neutral>
4.28758e-05

> <r_epik_State_Penalty>
-0

> <r_epik_Charging_Adjusted_Penalty>
0

> <i_epik_Tot_Q>
0

> <i_epik_Tot_abs_Q>
0

> <r_epik_Metal_State_Penalty>
-0

> <b_epik_Metal_Only>
0

> <s_lp_Force_Field>
OPLS_2005

> <r_lp_Energy>
28.5247

> <b_lp_Chiralities_Consistent>
1

> <s_lp_Variant>
AV-unprocessed.smi:2511-3

> <Gold.Version>
5.8.1

> <Gold.Id.Protein>
6NUR|6NUR_protein|mol2

> <Gold.PLP.Fitness>
50.0958

> <Gold.PLP.PLP>
-44.2338

> <Gold.PLP.part.hbond>
-3.1604

> <Gold.PLP.part.metal>
0.0000

> <Gold.PLP.part.buried>
-6.6190

> <Gold.PLP.part.nonpolar>
-35.2870

> <Gold.PLP.part.repulsive>
1.6050

> <Gold.PLP.ligand.clash>
0.0000

> <Gold.PLP.ligand.torsion>
0.7523

> <Gold.PLP.Chemscore.Hbond>
2.4480

> <Gold.PLP.Chemscore.CHOScore>
0.0000

> <Gold.PLP.Chemscore.Metal>
0.0000

> <Gold.Chemscore.Hbonds>
donor molecule, donor type, donor heavy atom, donor atom, acceptor molecule, acceptor atom, score
      L1  H     1    24       P1 10171  0.53
      L1  H     8    28       P1  8028  1.00
      L1  H    11    29       P1  8028  1.00

> <Gold.PLP.Chemscore.Internal.Correction>
0.0225

> <Gold.Rescore>
     Score         DG    S(hbond)    S(metal)    S(lipo)     H(rot)  DE(clash)    DE(int)     intcor
     19.19     -22.43       2.36        0.00      99.42       1.00       0.39       2.85       ----

> <Gold.Chemscore.Fitness>
19.1921

> <Gold.Chemscore.DG>
-22.4313

> <Gold.Chemscore.ZeroCoef>
-5.4800

> <Gold.Chemscore.Hbond>
2.3589

> <Gold.Chemscore.Metal>
0.0000

> <Gold.Chemscore.Lipo>
99.4244

> <Gold.Chemscore.Internal_Hbond>
0.0000

> <Gold.Chemscore.DEClash>
0.3852

> <Gold.Chemscore.DEInternal>
2.8539

> <Gold.Chemscore.Rot>
1.0000

> <Gold.Chemscore.Internal.Correction>
   9.000000E+99

> <Gold.Chemscore.Hbonds>
donor molecule, donor type, donor heavy atom, donor atom, acceptor molecule, acceptor atom, score
      L1  H     1    24       P1 10171  0.54
      L1  H     8    28       P1  8028  0.99
      L1  H    11    29       P1  8028  0.70

> <Gold.Chemscore.Hbond.Weighted>
-7.8786

> <Gold.Chemscore.Metal.Weighted>
-0.0000

> <Gold.Chemscore.Lipo.Weighted>
-11.6326

> <Gold.Chemscore.Internal_Hbond.Weighted>
0.0000

> <Gold.Chemscore.DEClash.Weighted>
0.3852

> <Gold.Chemscore.DEInternal.Weighted>
2.8539

> <Gold.Chemscore.Rot.Weighted>
2.5600

> <Gold.Chemscore.Internal.Correction.Weighted>
   9.000000E+99

> <Gold.Protein.RotatedTorsions>
[ 6907 6896 6895 6894 ] final  134.24 input  -60.11 | X-H torsion
[ 7974 7965 7964 7962 ] final  165.69 input  175.53 | X-H torsion
[ 8008 7997 7996 7995 ] final  -93.53 input   59.86 | X-H torsion
[ 10167 10162 10161 10158 ] final  144.41 input  -65.29 | X-H torsion
[ 10718 10713 10712 10709 ] final -111.93 input   66.30 | X-H torsion
[ 10763 10752 10751 10750 ] final  129.14 input  -60.55 | X-H torsion
[ 11005 11000 10999 10996 ] final   87.15 input  -57.11 | X-H torsion

> <Gold.Protein.ActiveResidues>
 VAL166  LYS551  ARG553  GLY616  TRP617  ASP618  TYR619  PRO620  LYS621  CYS622 
 ASP623  PHE694  ASN695  SER759  ASP760  ASP761  ALA762  ILE779  LEU786  VAL792 
 PHE793  MET794  SER795  GLU796  ALA797  LYS798  CYS799  TRP800  GLU811  SER814 

> <Gold.Protein.RotatedAtoms>
  152.3134  133.5776  159.5695 H   0  0  0  0  0  0  0  0  0  0  0  0  # atno 6907 bound_to 6896
  150.7334  134.0119  159.3681 H   0  0  0  0  0  0  0  0  0  0  0  0  # atno 6908 bound_to 6896
  151.8010  135.0709  160.0451 H   0  0  0  0  0  0  0  0  0  0  0  0  # atno 6909 bound_to 6896
  144.7492  139.8506  143.6372 H   0  0  0  0  0  0  0  0  0  0  0  0  # atno 7974 bound_to 7965
  154.7369  140.0498  157.0776 H   0  0  0  0  0  0  0  0  0  0  0  0  # atno 8008 bound_to 7997
  155.0229  140.3149  155.4767 H   0  0  0  0  0  0  0  0  0  0  0  0  # atno 8009 bound_to 7997
  156.2855  140.2164  156.5348 H   0  0  0  0  0  0  0  0  0  0  0  0  # atno 8010 bound_to 7997
  139.4947  144.5974  151.6554 H   0  0  0  0  0  0  0  0  0  0  0  0  # atno 10167 bound_to 10162
  156.0676  130.5893  150.8440 H   0  0  0  0  0  0  0  0  0  0  0  0  # atno 10718 bound_to 10713
  153.7369  135.3230  155.3297 H   0  0  0  0  0  0  0  0  0  0  0  0  # atno 10763 bound_to 10752
  154.8307  135.4535  154.1065 H   0  0  0  0  0  0  0  0  0  0  0  0  # atno 10764 bound_to 10752
  153.2229  135.6950  153.8061 H   0  0  0  0  0  0  0  0  0  0  0  0  # atno 10765 bound_to 10752
  139.8926  134.8403  156.2820 H   0  0  0  0  0  0  0  0  0  0  0  0  # atno 11005 bound_to 11000
  146.1418  139.4477  143.0104 LP  0  0  0  0  0  0  0  0  0  0  0  0  # atno 17320 bound_to 7965
  145.7006  141.0137  143.1506 LP  0  0  0  0  0  0  0  0  0  0  0  0  # atno 17321 bound_to 7965
  140.5615  144.0261  150.6172 LP  0  0  0  0  0  0  0  0  0  0  0  0  # atno 17342 bound_to 10162
  140.3348  143.3055  152.0650 LP  0  0  0  0  0  0  0  0  0  0  0  0  # atno 17343 bound_to 10162
  157.5727  131.0946  150.9393 LP  0  0  0  0  0  0  0  0  0  0  0  0  # atno 17370 bound_to 10713
  156.9606  130.5453  149.5286 LP  0  0  0  0  0  0  0  0  0  0  0  0  # atno 17371 bound_to 10713
  141.0032  133.7139  156.0994 LP  0  0  0  0  0  0  0  0  0  0  0  0  # atno 17394 bound_to 11000
  140.7469  134.4088  157.5547 LP  0  0  0  0  0  0  0  0  0  0  0  0  # atno 17395 bound_to 11000

$$$$
