AV-unprocessed.smi:658|AV-procd|sdf|3236|dock7
  -GOLD-   22720 0183D 1   1.00000     0.00000
 Structure written by MMmdl.
 37 37  0  0  0  0  0  0  0  0  3 V2000
  145.5361  136.4087  150.6504 C   0  0  0  0  0  0  0  0  0  0  0  0
  145.4955  135.8401  152.0805 C   0  0  2  0  0  0  0  0  0  0  0  0
  146.3060  136.7100  152.9626 N   0  3  0  0  0  0  0  0  0  0  0  0
  145.9314  138.1382  152.9375 C   0  0  0  0  0  0  0  0  0  0  0  0
  147.1748  139.0305  152.9986 C   0  0  0  0  0  0  0  0  0  0  0  0
  147.6104  139.3238  154.4390 C   0  0  0  0  0  0  0  0  0  0  0  0
  149.0599  140.4574  154.4673 S   0  0  0  0  0  0  0  0  0  0  0  0
  150.1554  139.5685  153.6861 N   0  5  0  0  0  0  0  0  0  0  0  0
  148.6488  141.6479  153.7073 O   0  0  0  0  0  0  0  0  0  0  0  0
  149.3960  140.6451  155.8865 O   0  0  0  0  0  0  0  0  0  0  0  0
  145.9865  134.3688  152.1602 C   0  0  1  0  0  0  0  0  0  0  0  0
  145.8840  133.7727  153.5776 C   0  0  0  0  0  0  0  0  0  0  0  0
  145.2911  133.5121  151.2081 N   0  0  0  0  0  0  0  0  0  0  0  0
  145.8331  132.6134  150.3120 C   0  0  0  0  0  0  0  0  0  0  0  0
  144.7975  132.0423  149.6296 C   0  0  0  0  0  0  0  0  0  0  0  0
  143.6435  132.6619  150.1842 C   0  0  0  0  0  0  0  0  0  0  0  0
  143.9414  133.5420  151.1261 N   0  0  0  0  0  0  0  0  0  0  0  0
  144.8628  135.8724  149.9812 H   0  0  0  0  0  0  0  0  0  0  0  0
  146.5403  136.3513  150.2289 H   0  0  0  0  0  0  0  0  0  0  0  0
  145.2302  137.4555  150.6376 H   0  0  0  0  0  0  0  0  0  0  0  0
  144.4543  135.8776  152.4067 H   0  0  0  0  0  0  0  0  0  0  0  0
  146.2295  136.3693  153.9101 H   0  0  0  0  0  0  0  0  0  0  0  0
  145.3680  138.3438  152.0264 H   0  0  0  0  0  0  0  0  0  0  0  0
  145.2753  138.3604  153.7798 H   0  0  0  0  0  0  0  0  0  0  0  0
  147.9947  138.5494  152.4639 H   0  0  0  0  0  0  0  0  0  0  0  0
  146.9769  139.9705  152.4818 H   0  0  0  0  0  0  0  0  0  0  0  0
  146.8036  139.7938  155.0018 H   0  0  0  0  0  0  0  0  0  0  0  0
  147.8897  138.4065  154.9578 H   0  0  0  0  0  0  0  0  0  0  0  0
  149.8126  139.4052  152.7319 H   0  0  0  0  0  0  0  0  0  0  0  0
  147.0405  134.3533  151.8776 H   0  0  0  0  0  0  0  0  0  0  0  0
  146.5296  134.2985  154.2808 H   0  0  0  0  0  0  0  0  0  0  0  0
  146.1904  132.7261  153.5842 H   0  0  0  0  0  0  0  0  0  0  0  0
  144.8645  133.8220  153.9614 H   0  0  0  0  0  0  0  0  0  0  0  0
  146.8990  132.4566  150.2347 H   0  0  0  0  0  0  0  0  0  0  0  0
  144.8548  131.2940  148.8530 H   0  0  0  0  0  0  0  0  0  0  0  0
  142.6060  132.4996  149.9322 H   0  0  0  0  0  0  0  0  0  0  0  0
  147.2721  136.6407  152.6761 H   0  0  0  0  0  0  0  0  0  0  0  0
  1  2  1  0  0  0  0
  1 18  1  0  0  0  0
  1 19  1  0  0  0  0
  1 20  1  0  0  0  0
  2  3  1  0  0  0  0
  2 11  1  0  0  0  0
  2 21  1  0  0  0  0
  3  4  1  0  0  0  0
  3 22  1  0  0  0  0
  3 37  1  0  0  0  0
  4  5  1  0  0  0  0
  4 23  1  0  0  0  0
  4 24  1  0  0  0  0
  5  6  1  0  0  0  0
  5 25  1  0  0  0  0
  5 26  1  0  0  0  0
  6  7  1  0  0  0  0
  6 27  1  0  0  0  0
  6 28  1  0  0  0  0
  7  8  1  0  0  0  0
  7  9  2  0  0  0  0
  7 10  2  0  0  0  0
  8 29  1  0  0  0  0
 11 12  1  0  0  0  0
 11 13  1  0  0  0  0
 11 30  1  0  0  0  0
 12 31  1  0  0  0  0
 12 32  1  0  0  0  0
 12 33  1  0  0  0  0
 13 17  1  0  0  0  0
 13 14  1  0  0  0  0
 14 15  2  0  0  0  0
 14 34  1  0  0  0  0
 15 16  1  0  0  0  0
 15 35  1  0  0  0  0
 16 17  2  0  0  0  0
 16 36  1  0  0  0  0
M  CHG  1   3   1
M  CHG  1   8  -1
M  END
> <s_m_source_file>
AV-unprocessed.smi

> <i_m_source_file_index>
658

> <i_lp_mmshare_version>
43012

> <i_f3d_flags>
0

> <s_epik_input>
bjFbY0hdW2NIXVtjSF1uMVtDQEBIXShbQ0gzXSlbQ0BIXShbQ0gzXSlbTkhdW0NIMl1bQ0gyXVtDSDJdUyg9TykoPU8pW05IMl0=

> <s_epik_cmdline>
J2VwaWtfcHl0aG9uJywgJy1waCcsICc3LjAnLCAnLXRuJywgJzgnLCAnLW1hJywgJzIwMCcsICctbWV0YWxfYmluZGluZycsICctaW1hZScsICc8aW5maWxlLm1hZT4nLCAnLW9tYWUnLCAnPG91dGZpbGUubWFlPic=

> <r_lp_tautomer_probability>
1

> <r_epik_Ionization_Penalty>
4.63642

> <r_epik_Ionization_Penalty_Charging>
4.63641

> <r_epik_Ionization_Penalty_Neutral>
1.08396e-05

> <r_epik_State_Penalty>
4.63466

> <r_epik_Charging_Adjusted_Penalty>
9.27106

> <i_epik_Tot_Q>
0

> <i_epik_Tot_abs_Q>
2

> <r_epik_Metal_State_Penalty>
0.890424

> <b_epik_Metal_Only>
1

> <s_lp_Force_Field>
OPLS_2005

> <r_lp_Energy>
-1.73265

> <b_lp_Chiralities_Consistent>
1

> <s_lp_Variant>
AV-unprocessed.smi:658-7

> <Gold.Version>
5.8.1

> <Gold.Id.Protein>
6NUR|6NUR_protein|mol2

> <Gold.PLP.Fitness>
47.0112

> <Gold.PLP.PLP>
-29.4558

> <Gold.PLP.part.hbond>
-4.0000

> <Gold.PLP.part.metal>
0.0000

> <Gold.PLP.part.buried>
-2.5205

> <Gold.PLP.part.nonpolar>
-24.0047

> <Gold.PLP.part.repulsive>
0.4084

> <Gold.PLP.ligand.clash>
0.0000

> <Gold.PLP.ligand.torsion>
0.8241

> <Gold.PLP.Chemscore.Hbond>
4.5520

> <Gold.PLP.Chemscore.CHOScore>
1.8033

> <Gold.PLP.Chemscore.Metal>
0.0000

> <Gold.Chemscore.Hbonds>
donor molecule, donor type, donor heavy atom, donor atom, acceptor molecule, acceptor atom, score
      L1  H     3    37       P1  7948  2.00
      L1  H     8    29       P1  7957  0.94
      P1  H  7989  7998       L1     8  0.88
      P1  H  8011  8017       L1     9  0.64
      L1  C    14    34       P1 10747  0.80
      L1  C    16    36       P1 10186  0.85
      L1  C    16    36       P1 10952  0.30

> <Gold.PLP.Chemscore.Internal.Correction>
0.1377

> <Gold.Rescore>
     Score         DG    S(hbond)    S(metal)    S(lipo)     H(rot)  DE(clash)    DE(int)     intcor
     13.73     -14.66       2.67        0.00      68.90       3.04       0.11       0.81       ----

> <Gold.Chemscore.Fitness>
13.7343

> <Gold.Chemscore.DG>
-14.6587

> <Gold.Chemscore.ZeroCoef>
-5.4800

> <Gold.Chemscore.Hbond>
2.6654

> <Gold.Chemscore.Metal>
0.0000

> <Gold.Chemscore.Lipo>
68.8965

> <Gold.Chemscore.Internal_Hbond>
0.0000

> <Gold.Chemscore.DEClash>
0.1094

> <Gold.Chemscore.DEInternal>
0.8149

> <Gold.Chemscore.Rot>
3.0409

> <Gold.Chemscore.Internal.Correction>
   9.000000E+99

> <Gold.Chemscore.Hbonds>
donor molecule, donor type, donor heavy atom, donor atom, acceptor molecule, acceptor atom, score
      L1  H     3    37       P1  7948  1.00
      L1  H     8    29       P1  7957  0.90
      P1  H  7989  7998       L1     8  0.11
      P1  H  8011  8017       L1     9  0.63

> <Gold.Chemscore.Hbond.Weighted>
-8.9026

> <Gold.Chemscore.Metal.Weighted>
-0.0000

> <Gold.Chemscore.Lipo.Weighted>
-8.0609

> <Gold.Chemscore.Internal_Hbond.Weighted>
0.0000

> <Gold.Chemscore.DEClash.Weighted>
0.1094

> <Gold.Chemscore.DEInternal.Weighted>
0.8149

> <Gold.Chemscore.Rot.Weighted>
7.7848

> <Gold.Chemscore.Internal.Correction.Weighted>
   9.000000E+99

> <Gold.Protein.RotatedTorsions>
[ 6907 6896 6895 6894 ] final  -51.10 input  -60.11 | X-H torsion
[ 7974 7965 7964 7962 ] final  -71.21 input  175.53 | X-H torsion
[ 8008 7997 7996 7995 ] final  -44.48 input   59.86 | X-H torsion
[ 10167 10162 10161 10158 ] final  131.19 input  -65.29 | X-H torsion
[ 10718 10713 10712 10709 ] final   82.16 input   66.30 | X-H torsion
[ 10763 10752 10751 10750 ] final   94.10 input  -60.55 | X-H torsion
[ 11005 11000 10999 10996 ] final   86.49 input  -57.11 | X-H torsion

> <Gold.Protein.ActiveResidues>
 VAL166  LYS551  ARG553  GLY616  TRP617  ASP618  TYR619  PRO620  LYS621  CYS622 
 ASP623  PHE694  ASN695  SER759  ASP760  ASP761  ALA762  ILE779  LEU786  VAL792 
 PHE793  MET794  SER795  GLU796  ALA797  LYS798  CYS799  TRP800  GLU811  SER814 

> <Gold.Protein.RotatedAtoms>
  150.8643  134.8003  159.7106 H   0  0  0  0  0  0  0  0  0  0  0  0  # atno 6907 bound_to 6896
  152.4670  134.5049  159.9746 H   0  0  0  0  0  0  0  0  0  0  0  0  # atno 6908 bound_to 6896
  151.5148  133.3439  159.2926 H   0  0  0  0  0  0  0  0  0  0  0  0  # atno 6909 bound_to 6896
  145.6810  140.9188  143.0832 H   0  0  0  0  0  0  0  0  0  0  0  0  # atno 7974 bound_to 7965
  154.3997  140.1421  156.3689 H   0  0  0  0  0  0  0  0  0  0  0  0  # atno 8008 bound_to 7997
  155.8111  140.3473  155.5437 H   0  0  0  0  0  0  0  0  0  0  0  0  # atno 8009 bound_to 7997
  155.8385  140.0923  157.1739 H   0  0  0  0  0  0  0  0  0  0  0  0  # atno 8010 bound_to 7997
  139.5395  144.6717  151.4671 H   0  0  0  0  0  0  0  0  0  0  0  0  # atno 10167 bound_to 10162
  157.6850  131.0036  150.2334 H   0  0  0  0  0  0  0  0  0  0  0  0  # atno 10718 bound_to 10713
  153.2378  135.4301  155.0665 H   0  0  0  0  0  0  0  0  0  0  0  0  # atno 10763 bound_to 10752
  154.8327  135.3395  154.6693 H   0  0  0  0  0  0  0  0  0  0  0  0  # atno 10764 bound_to 10752
  153.7118  135.7022  153.5092 H   0  0  0  0  0  0  0  0  0  0  0  0  # atno 10765 bound_to 10752
  139.8943  134.8358  156.2727 H   0  0  0  0  0  0  0  0  0  0  0  0  # atno 11005 bound_to 11000
  144.7026  139.8697  143.7439 LP  0  0  0  0  0  0  0  0  0  0  0  0  # atno 17320 bound_to 7965
  146.0964  139.3956  143.0374 LP  0  0  0  0  0  0  0  0  0  0  0  0  # atno 17321 bound_to 7965
  140.6619  143.8481  150.6897 LP  0  0  0  0  0  0  0  0  0  0  0  0  # atno 17342 bound_to 10162
  140.1878  143.4061  152.1886 LP  0  0  0  0  0  0  0  0  0  0  0  0  # atno 17343 bound_to 10162
  156.2962  130.3752  149.7794 LP  0  0  0  0  0  0  0  0  0  0  0  0  # atno 17370 bound_to 10713
  156.5438  130.8311  151.3277 LP  0  0  0  0  0  0  0  0  0  0  0  0  # atno 17371 bound_to 10713
  141.0090  133.7107  156.1081 LP  0  0  0  0  0  0  0  0  0  0  0  0  # atno 17394 bound_to 11000
  140.7394  134.4167  157.5556 LP  0  0  0  0  0  0  0  0  0  0  0  0  # atno 17395 bound_to 11000

$$$$
