AV-unprocessed.smi:243|AV-procd|sdf|1852|dock10
  -GOLD-   2262020473D 1   1.00000     0.00000
 Structure written by MMmdl.
 58 61  0  0  0  0  0  0  0  0  2 V2000
  146.4815  132.9445  152.3785 C   0  0  0  0  0  0  0  0  0  0  0  0
  147.9033  133.0476  152.9579 C   0  0  0  0  0  0  0  0  0  0  0  0
  148.1598  134.2882  153.7341 N   0  3  2  0  0  0  0  0  0  0  0  0
  149.3865  134.2392  154.5683 C   0  0  0  0  0  0  0  0  0  0  0  0
  149.7240  135.6375  155.1046 C   0  0  0  0  0  0  0  0  0  0  0  0
  148.5268  136.2213  155.8916 C   0  0  1  0  0  0  0  0  0  0  0  0
  148.7888  137.4871  156.5959 N   0  0  0  0  0  0  0  0  0  0  0  0
  148.0325  137.8050  157.8019 C   0  0  0  0  0  0  0  0  0  0  0  0
  149.5552  138.4904  156.0921 C   0  0  0  0  0  0  0  0  0  0  0  0
  150.0568  138.3925  154.8341 N   0  0  0  0  0  0  0  0  0  0  0  0
  150.8006  139.3760  154.3204 C   0  0  0  0  0  0  0  0  0  0  0  0
  151.1609  140.5294  154.8841 N   0  0  0  0  0  0  0  0  0  0  0  0
  150.6618  140.6380  156.1482 C   0  0  0  0  0  0  0  0  0  0  0  0
  149.8519  139.6785  156.8201 C   0  0  0  0  0  0  0  0  0  0  0  0
  149.5378  140.1383  158.0938 N   0  0  0  0  0  0  0  0  0  0  0  0
  150.1238  141.3017  158.1686 C   0  0  0  0  0  0  0  0  0  0  0  0
  150.8312  141.6752  157.0486 N   0  0  0  0  0  0  0  0  0  0  0  0
  151.5880  142.9038  156.8645 C   0  0  0  0  0  0  0  0  0  0  0  0
  152.2847  143.3943  158.1557 C   0  0  2  0  0  0  0  0  0  0  0  0
  153.1771  144.4456  157.8298 O   0  0  0  0  0  0  0  0  0  0  0  0
  153.0657  142.3103  158.8948 C   0  0  0  0  0  0  0  0  0  0  0  0
  152.9177  142.7185  160.3537 C   0  0  0  0  0  0  0  0  0  0  0  0
  151.5752  143.1678  160.4104 O   0  0  0  0  0  0  0  0  0  0  0  0
  151.2980  143.9056  159.2247 C   0  0  0  0  0  0  0  0  0  0  0  0
  147.2247  136.2063  155.0436 C   0  0  1  0  0  0  0  0  0  0  0  0
  147.1643  137.2548  153.9182 C   0  0  0  0  0  0  0  0  0  0  0  0
  146.9822  134.7847  154.4924 C   0  0  0  0  0  0  0  0  0  0  0  0
  146.3655  132.0122  151.8257 H   0  0  0  0  0  0  0  0  0  0  0  0
  146.2639  133.7575  151.6862 H   0  0  0  0  0  0  0  0  0  0  0  0
  145.7218  132.9506  153.1598 H   0  0  0  0  0  0  0  0  0  0  0  0
  148.0964  132.1881  153.6007 H   0  0  0  0  0  0  0  0  0  0  0  0
  148.6308  132.9856  152.1479 H   0  0  0  0  0  0  0  0  0  0  0  0
  149.2491  133.5465  155.3992 H   0  0  0  0  0  0  0  0  0  0  0  0
  150.2217  133.8658  153.9745 H   0  0  0  0  0  0  0  0  0  0  0  0
  150.6035  135.5805  155.7471 H   0  0  0  0  0  0  0  0  0  0  0  0
  149.9962  136.2666  154.2589 H   0  0  0  0  0  0  0  0  0  0  0  0
  148.3548  135.5141  156.7048 H   0  0  0  0  0  0  0  0  0  0  0  0
  147.6312  138.8180  157.7552 H   0  0  0  0  0  0  0  0  0  0  0  0
  148.6667  137.7250  158.6843 H   0  0  0  0  0  0  0  0  0  0  0  0
  147.1957  137.1210  157.9397 H   0  0  0  0  0  0  0  0  0  0  0  0
  151.1587  139.2160  153.3142 H   0  0  0  0  0  0  0  0  0  0  0  0
  150.0629  141.9190  159.0532 H   0  0  0  0  0  0  0  0  0  0  0  0
  152.3229  142.7434  156.0743 H   0  0  0  0  0  0  0  0  0  0  0  0
  150.9042  143.6689  156.4943 H   0  0  0  0  0  0  0  0  0  0  0  0
  153.7989  144.1258  157.1945 H   0  0  0  0  0  0  0  0  0  0  0  0
  152.5880  141.3396  158.7559 H   0  0  0  0  0  0  0  0  0  0  0  0
  154.1048  142.2178  158.5757 H   0  0  0  0  0  0  0  0  0  0  0  0
  153.0974  141.8946  161.0444 H   0  0  0  0  0  0  0  0  0  0  0  0
  153.5936  143.5375  160.6049 H   0  0  0  0  0  0  0  0  0  0  0  0
  151.4230  144.9716  159.4230 H   0  0  0  0  0  0  0  0  0  0  0  0
  150.2572  143.7479  158.9405 H   0  0  0  0  0  0  0  0  0  0  0  0
  146.3876  136.4258  155.7065 H   0  0  0  0  0  0  0  0  0  0  0  0
  147.9944  137.1525  153.2194 H   0  0  0  0  0  0  0  0  0  0  0  0
  147.1830  138.2667  154.3223 H   0  0  0  0  0  0  0  0  0  0  0  0
  146.2408  137.1616  153.3466 H   0  0  0  0  0  0  0  0  0  0  0  0
  146.0987  134.7789  153.8524 H   0  0  0  0  0  0  0  0  0  0  0  0
  146.7711  134.1064  155.3200 H   0  0  0  0  0  0  0  0  0  0  0  0
  148.3421  134.9954  153.0363 H   0  0  0  0  0  0  0  0  0  0  0  0
  1  2  1  0  0  0  0
  1 28  1  0  0  0  0
  1 29  1  0  0  0  0
  1 30  1  0  0  0  0
  2  3  1  0  0  0  0
  2 31  1  0  0  0  0
  2 32  1  0  0  0  0
  3 27  1  0  0  0  0
  3  4  1  0  0  0  0
  3 58  1  0  0  0  0
  4  5  1  0  0  0  0
  4 33  1  0  0  0  0
  4 34  1  0  0  0  0
  5  6  1  0  0  0  0
  5 35  1  0  0  0  0
  5 36  1  0  0  0  0
  6  7  1  0  0  0  0
  6 25  1  0  0  0  0
  6 37  1  0  0  0  0
  7  8  1  0  0  0  0
  7  9  1  0  0  0  0
  8 38  1  0  0  0  0
  8 39  1  0  0  0  0
  8 40  1  0  0  0  0
  9 14  1  0  0  0  0
  9 10  2  0  0  0  0
 10 11  1  0  0  0  0
 11 12  2  0  0  0  0
 11 41  1  0  0  0  0
 12 13  1  0  0  0  0
 13 17  1  0  0  0  0
 13 14  2  0  0  0  0
 14 15  1  0  0  0  0
 15 16  2  0  0  0  0
 16 17  1  0  0  0  0
 16 42  1  0  0  0  0
 17 18  1  0  0  0  0
 18 19  1  0  0  0  0
 18 43  1  0  0  0  0
 18 44  1  0  0  0  0
 19 24  1  0  0  0  0
 19 20  1  0  0  0  0
 19 21  1  0  0  0  0
 20 45  1  0  0  0  0
 21 22  1  0  0  0  0
 21 46  1  0  0  0  0
 21 47  1  0  0  0  0
 22 23  1  0  0  0  0
 22 48  1  0  0  0  0
 22 49  1  0  0  0  0
 23 24  1  0  0  0  0
 24 50  1  0  0  0  0
 24 51  1  0  0  0  0
 25 26  1  0  0  0  0
 25 27  1  0  0  0  0
 25 52  1  0  0  0  0
 26 53  1  0  0  0  0
 26 54  1  0  0  0  0
 26 55  1  0  0  0  0
 27 56  1  0  0  0  0
 27 57  1  0  0  0  0
M  CHG  1   3   1
M  END
> <s_m_source_file>
AV-unprocessed.smi

> <i_m_source_file_index>
243

> <i_lp_mmshare_version>
43012

> <i_f3d_flags>
0

> <s_epik_input>
W0NIM11bQ0gyXU4xW0NIMl1bQ0gyXVtDQEhdKFtDQEBIXShbQ0gzXSlbQ0gyXTEpTihbQ0gzXSljKG5bY0hdbjIpYyhjMjMpbltjSF1uM1tDSDJdW0NAQF00KFtPSF0pW0NIMl1bQ0gyXU9bQ0gyXTQ=

> <s_epik_cmdline>
J2VwaWtfcHl0aG9uJywgJy1waCcsICc3LjAnLCAnLXRuJywgJzgnLCAnLW1hJywgJzIwMCcsICctbWV0YWxfYmluZGluZycsICctaW1hZScsICc8aW5maWxlLm1hZT4nLCAnLW9tYWUnLCAnPG91dGZpbGUubWFlPic=

> <r_lp_tautomer_probability>
1

> <r_epik_Ionization_Penalty>
0.00253099

> <r_epik_Ionization_Penalty_Charging>
0.00137877

> <r_epik_Ionization_Penalty_Neutral>
0.00115221

> <r_epik_State_Penalty>
-0

> <r_epik_Charging_Adjusted_Penalty>
0.00137877

> <i_epik_Tot_Q>
1

> <i_epik_Tot_abs_Q>
1

> <r_epik_Metal_State_Penalty>
-0

> <b_epik_Metal_Only>
0

> <s_lp_Force_Field>
OPLS_2005

> <r_lp_Energy>
49.3868

> <b_lp_Chiralities_Consistent>
1

> <s_lp_Variant>
AV-unprocessed.smi:243-5

> <Gold.Version>
5.8.1

> <Gold.Id.Protein>
6NUR|6NUR_protein|mol2

> <Gold.PLP.Fitness>
43.8896

> <Gold.PLP.PLP>
-36.9784

> <Gold.PLP.part.hbond>
-3.0480

> <Gold.PLP.part.metal>
0.0000

> <Gold.PLP.part.buried>
-2.1587

> <Gold.PLP.part.nonpolar>
-31.8908

> <Gold.PLP.part.repulsive>
0.2957

> <Gold.PLP.ligand.clash>
0.0000

> <Gold.PLP.ligand.torsion>
1.3015

> <Gold.PLP.Chemscore.Hbond>
2.0928

> <Gold.PLP.Chemscore.CHOScore>
0.9791

> <Gold.PLP.Chemscore.Metal>
0.0000

> <Gold.Chemscore.Hbonds>
donor molecule, donor type, donor heavy atom, donor atom, acceptor molecule, acceptor atom, score
      L1  H     3    58       P1  7948  2.00
      P1  H  7989  7998       L1    12  0.23
      L1  C    11    41       P1  7957  0.36

> <Gold.PLP.Chemscore.Internal.Correction>
0.2986

> <Gold.Rescore>
     Score         DG    S(hbond)    S(metal)    S(lipo)     H(rot)  DE(clash)    DE(int)     intcor
      8.39     -12.51       1.04        0.00      79.41       2.24       0.01       4.11       ----

> <Gold.Chemscore.Fitness>
8.3925

> <Gold.Chemscore.DG>
-12.5092

> <Gold.Chemscore.ZeroCoef>
-5.4800

> <Gold.Chemscore.Hbond>
1.0380

> <Gold.Chemscore.Metal>
0.0000

> <Gold.Chemscore.Lipo>
79.4119

> <Gold.Chemscore.Internal_Hbond>
0.0000

> <Gold.Chemscore.DEClash>
0.0097

> <Gold.Chemscore.DEInternal>
4.1070

> <Gold.Chemscore.Rot>
2.2379

> <Gold.Chemscore.Internal.Correction>
   9.000000E+99

> <Gold.Chemscore.Hbonds>
donor molecule, donor type, donor heavy atom, donor atom, acceptor molecule, acceptor atom, score
      L1  H     3    58       P1  7948  0.82

> <Gold.Chemscore.Hbond.Weighted>
-3.4671

> <Gold.Chemscore.Metal.Weighted>
-0.0000

> <Gold.Chemscore.Lipo.Weighted>
-9.2912

> <Gold.Chemscore.Internal_Hbond.Weighted>
0.0000

> <Gold.Chemscore.DEClash.Weighted>
0.0097

> <Gold.Chemscore.DEInternal.Weighted>
4.1070

> <Gold.Chemscore.Rot.Weighted>
5.7291

> <Gold.Chemscore.Internal.Correction.Weighted>
   9.000000E+99

> <Gold.Protein.RotatedTorsions>
[ 6907 6896 6895 6894 ] final  108.84 input  -60.11 | X-H torsion
[ 7974 7965 7964 7962 ] final  -12.63 input  175.53 | X-H torsion
[ 8008 7997 7996 7995 ] final    9.55 input   59.86 | X-H torsion
[ 10167 10162 10161 10158 ] final -110.21 input  -65.29 | X-H torsion
[ 10718 10713 10712 10709 ] final -129.67 input   66.30 | X-H torsion
[ 10763 10752 10751 10750 ] final   56.36 input  -60.55 | X-H torsion
[ 11005 11000 10999 10996 ] final -174.86 input  -57.11 | X-H torsion

> <Gold.Protein.ActiveResidues>
 VAL166  LYS551  ARG553  GLY616  TRP617  ASP618  TYR619  PRO620  LYS621  CYS622 
 ASP623  PHE694  ASN695  SER759  ASP760  ASP761  ALA762  ILE779  LEU786  VAL792 
 PHE793  MET794  SER795  GLU796  ALA797  LYS798  CYS799  TRP800  GLU811  SER814 

> <Gold.Protein.RotatedAtoms>
  152.5094  133.9031  159.7450 H   0  0  0  0  0  0  0  0  0  0  0  0  # atno 6907 bound_to 6896
  150.9442  133.6613  159.2791 H   0  0  0  0  0  0  0  0  0  0  0  0  # atno 6908 bound_to 6896
  151.3914  135.0961  159.9580 H   0  0  0  0  0  0  0  0  0  0  0  0  # atno 6909 bound_to 6896
  146.2145  140.3085  142.8380 H   0  0  0  0  0  0  0  0  0  0  0  0  # atno 7974 bound_to 7965
  154.7815  140.2819  155.6060 H   0  0  0  0  0  0  0  0  0  0  0  0  # atno 8008 bound_to 7997
  156.2950  140.2622  156.2569 H   0  0  0  0  0  0  0  0  0  0  0  0  # atno 8009 bound_to 7997
  154.9779  140.0375  157.2254 H   0  0  0  0  0  0  0  0  0  0  0  0  # atno 8010 bound_to 7997
  140.1469  143.4232  152.1522 H   0  0  0  0  0  0  0  0  0  0  0  0  # atno 10167 bound_to 10162
  156.2069  130.6894  151.0605 H   0  0  0  0  0  0  0  0  0  0  0  0  # atno 10718 bound_to 10713
  152.9831  135.5679  154.5216 H   0  0  0  0  0  0  0  0  0  0  0  0  # atno 10763 bound_to 10752
  154.4703  135.2784  155.1650 H   0  0  0  0  0  0  0  0  0  0  0  0  # atno 10764 bound_to 10752
  154.3201  135.6271  153.5557 H   0  0  0  0  0  0  0  0  0  0  0  0  # atno 10765 bound_to 10752
  140.4697  134.6176  157.4877 H   0  0  0  0  0  0  0  0  0  0  0  0  # atno 11005 bound_to 11000
  144.9005  140.7637  143.5870 LP  0  0  0  0  0  0  0  0  0  0  0  0  # atno 17320 bound_to 7965
  145.3011  139.1850  143.4689 LP  0  0  0  0  0  0  0  0  0  0  0  0  # atno 17321 bound_to 7965
  139.5445  144.7286  151.4628 LP  0  0  0  0  0  0  0  0  0  0  0  0  # atno 17342 bound_to 10162
  140.6726  143.8260  150.7018 LP  0  0  0  0  0  0  0  0  0  0  0  0  # atno 17343 bound_to 10162
  157.7017  131.0773  150.6798 LP  0  0  0  0  0  0  0  0  0  0  0  0  # atno 17370 bound_to 10713
  156.6856  130.4580  149.5615 LP  0  0  0  0  0  0  0  0  0  0  0  0  # atno 17371 bound_to 10713
  139.9893  134.7011  155.9718 LP  0  0  0  0  0  0  0  0  0  0  0  0  # atno 17394 bound_to 11000
  141.1582  133.6541  156.4232 LP  0  0  0  0  0  0  0  0  0  0  0  0  # atno 17395 bound_to 11000

$$$$
