AV-unprocessed.smi:1707|AV-procd|sdf|6888|dock8
  -GOLD-   22720 8 93D 1   1.00000     0.00000
 Structure written by MMmdl.
 40 41  0  0  0  0  0  0  0  0  2 V2000
  153.6638  137.6738  161.3485 O   0  0  0  0  0  0  0  0  0  0  0  0
  154.8160  137.7587  161.7732 C   0  0  0  0  0  0  0  0  0  0  0  0
  155.5632  138.8649  161.6471 N   0  0  0  0  0  0  0  0  0  0  0  0
  155.1282  140.0996  161.0048 C   0  0  0  0  0  0  0  0  0  0  0  0
  154.3929  141.0209  161.9939 C   0  0  0  0  0  0  0  0  0  0  0  0
  153.5710  142.0940  161.2997 C   0  0  0  0  0  0  0  0  0  0  0  0
  153.2269  142.0007  160.0004 C   0  0  0  0  0  0  0  0  0  0  0  0
  152.4171  143.0470  159.2548 C   0  0  0  0  0  0  0  0  0  0  0  0
  152.3218  144.3737  160.0265 C   0  0  0  0  0  0  0  0  0  0  0  0
  152.0441  144.1297  161.5151 C   0  0  0  0  0  0  0  0  0  0  0  0
  153.1547  143.2819  162.1604 C   0  0  0  0  0  0  0  0  0  0  0  0
  155.5042  136.7873  162.4002 N   0  0  0  0  0  0  0  0  0  0  0  0
  155.1047  135.4864  162.7528 C   0  0  0  0  0  0  0  0  0  0  0  0
  155.0793  134.9925  164.0221 C   0  0  0  0  0  0  0  0  0  0  0  0
  154.6662  133.6269  164.3204 C   0  0  0  0  0  0  0  0  0  0  0  0
  154.5334  133.0758  165.7291 C   0  0  0  0  0  0  0  0  0  0  0  0
  155.7217  132.9991  166.3288 F   0  0  0  0  0  0  0  0  0  0  0  0
  153.7519  133.8731  166.4560 F   0  0  0  0  0  0  0  0  0  0  0  0
  153.9892  131.8591  165.7169 F   0  0  0  0  0  0  0  0  0  0  0  0
  154.3055  132.9285  163.1846 C   0  0  0  0  0  0  0  0  0  0  0  0
  154.3261  133.3318  161.8955 N   0  5  0  0  0  0  0  0  0  0  0  0
  154.7159  134.6101  161.6279 C   0  0  0  0  0  0  0  0  0  0  0  0
  154.7514  135.0440  160.4758 O   0  0  0  0  0  0  0  0  0  0  0  0
  156.5001  138.8510  162.0229 H   0  0  0  0  0  0  0  0  0  0  0  0
  155.9877  140.6056  160.5622 H   0  0  0  0  0  0  0  0  0  0  0  0
  154.4645  139.8359  160.1810 H   0  0  0  0  0  0  0  0  0  0  0  0
  153.7419  140.4215  162.6321 H   0  0  0  0  0  0  0  0  0  0  0  0
  155.1054  141.5108  162.6587 H   0  0  0  0  0  0  0  0  0  0  0  0
  153.5220  141.1342  159.4270 H   0  0  0  0  0  0  0  0  0  0  0  0
  152.8648  143.2191  158.2757 H   0  0  0  0  0  0  0  0  0  0  0  0
  151.4209  142.6395  159.0808 H   0  0  0  0  0  0  0  0  0  0  0  0
  153.2585  144.9231  159.9236 H   0  0  0  0  0  0  0  0  0  0  0  0
  151.5449  145.0035  159.5921 H   0  0  0  0  0  0  0  0  0  0  0  0
  151.9463  145.0784  162.0435 H   0  0  0  0  0  0  0  0  0  0  0  0
  151.0870  143.6175  161.6216 H   0  0  0  0  0  0  0  0  0  0  0  0
  152.8208  142.9275  163.1360 H   0  0  0  0  0  0  0  0  0  0  0  0
  154.0343  143.9025  162.3341 H   0  0  0  0  0  0  0  0  0  0  0  0
  156.4623  137.0006  162.6363 H   0  0  0  0  0  0  0  0  0  0  0  0
  155.3848  135.5960  164.8599 H   0  0  0  0  0  0  0  0  0  0  0  0
  153.9408  131.8900  163.3349 H   0  0  0  0  0  0  0  0  0  0  0  0
  1  2  2  0  0  0  0
  2  3  1  0  0  0  0
  2 12  1  0  0  0  0
  3  4  1  0  0  0  0
  3 24  1  0  0  0  0
  4  5  1  0  0  0  0
  4 25  1  0  0  0  0
  4 26  1  0  0  0  0
  5  6  1  0  0  0  0
  5 27  1  0  0  0  0
  5 28  1  0  0  0  0
  6 11  1  0  0  0  0
  6  7  2  0  0  0  0
  7  8  1  0  0  0  0
  7 29  1  0  0  0  0
  8  9  1  0  0  0  0
  8 30  1  0  0  0  0
  8 31  1  0  0  0  0
  9 10  1  0  0  0  0
  9 32  1  0  0  0  0
  9 33  1  0  0  0  0
 10 11  1  0  0  0  0
 10 34  1  0  0  0  0
 10 35  1  0  0  0  0
 11 36  1  0  0  0  0
 11 37  1  0  0  0  0
 12 13  1  0  0  0  0
 12 38  1  0  0  0  0
 13 22  1  0  0  0  0
 13 14  2  0  0  0  0
 14 15  1  0  0  0  0
 14 39  1  0  0  0  0
 15 16  1  0  0  0  0
 15 20  2  0  0  0  0
 16 17  1  0  0  0  0
 16 18  1  0  0  0  0
 16 19  1  0  0  0  0
 20 21  1  0  0  0  0
 20 40  1  0  0  0  0
 21 22  1  0  0  0  0
 22 23  2  0  0  0  0
M  CHG  1  21  -1
M  END
> <s_m_source_file>
AV-unprocessed.smi

> <i_m_source_file_index>
1707

> <i_lp_mmshare_version>
43012

> <i_f3d_flags>
0

> <s_epik_input>
Tz1jMVtuSF1bY0hdYyhDKEYpKEYpRilbY0hdYzFbTkhdQyg9TylbTkhdW0NIMl1bQ0gyXUMyPVtDSF1bQ0gyXVtDSDJdW0NIMl1bQ0gyXTI=

> <s_epik_cmdline>
J2VwaWtfcHl0aG9uJywgJy1waCcsICc3LjAnLCAnLXRuJywgJzgnLCAnLW1hJywgJzIwMCcsICctbWV0YWxfYmluZGluZycsICctaW1hZScsICc8aW5maWxlLm1hZT4nLCAnLW9tYWUnLCAnPG91dGZpbGUubWFlPic=

> <r_lp_tautomer_probability>
1

> <r_epik_Ionization_Penalty>
3.1649

> <r_epik_Ionization_Penalty_Charging>
0.171543

> <r_epik_Ionization_Penalty_Neutral>
2.99336

> <r_epik_State_Penalty>
2.98952

> <r_epik_Charging_Adjusted_Penalty>
3.16106

> <i_epik_Tot_Q>
-1

> <i_epik_Tot_abs_Q>
1

> <r_epik_Metal_State_Penalty>
0.452963

> <b_epik_Metal_Only>
1

> <s_lp_Force_Field>
OPLS_2005

> <r_lp_Energy>
21.1574

> <b_lp_Chiralities_Consistent>
1

> <s_lp_Variant>
AV-unprocessed.smi:1707-2

> <Gold.Version>
5.8.1

> <Gold.Id.Protein>
6NUR|6NUR_protein|mol2

> <Gold.PLP.Fitness>
44.6260

> <Gold.PLP.PLP>
-46.8282

> <Gold.PLP.part.hbond>
0.0000

> <Gold.PLP.part.metal>
0.0000

> <Gold.PLP.part.buried>
-4.6480

> <Gold.PLP.part.nonpolar>
-42.0409

> <Gold.PLP.part.repulsive>
0.0000

> <Gold.PLP.ligand.clash>
0.0000

> <Gold.PLP.ligand.torsion>
1.1339

> <Gold.PLP.Chemscore.Hbond>
0.0000

> <Gold.PLP.Chemscore.CHOScore>
0.0000

> <Gold.PLP.Chemscore.Metal>
0.0000

> <Gold.Chemscore.Hbonds>
donor molecule, donor type, donor heavy atom, donor atom, acceptor molecule, acceptor atom, score
      P1  H  6896  6907       L1    23  0.20

> <Gold.PLP.Chemscore.Internal.Correction>
0.0656

> <Gold.Rescore>
     Score         DG    S(hbond)    S(metal)    S(lipo)     H(rot)  DE(clash)    DE(int)     intcor
     14.13     -15.41       0.00        0.00     118.80       1.55       0.08       1.19       ----

> <Gold.Chemscore.Fitness>
14.1337

> <Gold.Chemscore.DG>
-15.4061

> <Gold.Chemscore.ZeroCoef>
-5.4800

> <Gold.Chemscore.Hbond>
0.0000

> <Gold.Chemscore.Metal>
0.0000

> <Gold.Chemscore.Lipo>
118.8044

> <Gold.Chemscore.Internal_Hbond>
0.0000

> <Gold.Chemscore.DEClash>
0.0774

> <Gold.Chemscore.DEInternal>
1.1950

> <Gold.Chemscore.Rot>
1.5523

> <Gold.Chemscore.Internal.Correction>
   9.000000E+99

> <Gold.Chemscore.Hbonds>
donor molecule, donor type, donor heavy atom, donor atom, acceptor molecule, acceptor atom, score
      P1  H  6896  6907       L1    23  0.03

> <Gold.Chemscore.Hbond.Weighted>
-0.0000

> <Gold.Chemscore.Metal.Weighted>
-0.0000

> <Gold.Chemscore.Lipo.Weighted>
-13.9001

> <Gold.Chemscore.Internal_Hbond.Weighted>
0.0000

> <Gold.Chemscore.DEClash.Weighted>
0.0774

> <Gold.Chemscore.DEInternal.Weighted>
1.1950

> <Gold.Chemscore.Rot.Weighted>
3.9740

> <Gold.Chemscore.Internal.Correction.Weighted>
   9.000000E+99

> <Gold.Protein.RotatedTorsions>
[ 6907 6896 6895 6894 ] final   75.25 input  -60.11 | X-H torsion
[ 7974 7965 7964 7962 ] final  -28.56 input  175.53 | X-H torsion
[ 8008 7997 7996 7995 ] final  105.88 input   59.86 | X-H torsion
[ 10167 10162 10161 10158 ] final  -71.97 input  -65.29 | X-H torsion
[ 10718 10713 10712 10709 ] final  -83.72 input   66.30 | X-H torsion
[ 10763 10752 10751 10750 ] final   -3.30 input  -60.55 | X-H torsion
[ 11005 11000 10999 10996 ] final    6.37 input  -57.11 | X-H torsion

> <Gold.Protein.ActiveResidues>
 VAL166  LYS551  ARG553  GLY616  TRP617  ASP618  TYR619  PRO620  LYS621  CYS622 
 ASP623  PHE694  ASN695  SER759  ASP760  ASP761  ALA762  ILE779  LEU786  VAL792 
 PHE793  MET794  SER795  GLU796  ALA797  LYS798  CYS799  TRP800  GLU811  SER814 

> <Gold.Protein.RotatedAtoms>
  152.5017  134.4148  159.9460 H   0  0  0  0  0  0  0  0  0  0  0  0  # atno 6907 bound_to 6896
  151.4118  133.3719  159.2752 H   0  0  0  0  0  0  0  0  0  0  0  0  # atno 6908 bound_to 6896
  150.9286  134.8724  159.7596 H   0  0  0  0  0  0  0  0  0  0  0  0  # atno 6909 bound_to 6896
  146.1279  140.5299  142.8706 H   0  0  0  0  0  0  0  0  0  0  0  0  # atno 7974 bound_to 7965
  156.1697  140.3122  155.8951 H   0  0  0  0  0  0  0  0  0  0  0  0  # atno 8008 bound_to 7997
  155.3613  140.0476  157.3063 H   0  0  0  0  0  0  0  0  0  0  0  0  # atno 8009 bound_to 7997
  154.5228  140.2204  155.8955 H   0  0  0  0  0  0  0  0  0  0  0  0  # atno 8010 bound_to 7997
  140.5230  143.2329  151.7397 H   0  0  0  0  0  0  0  0  0  0  0  0  # atno 10167 bound_to 10162
  156.0015  130.4674  150.4300 H   0  0  0  0  0  0  0  0  0  0  0  0  # atno 10718 bound_to 10713
  153.3695  135.6994  153.6649 H   0  0  0  0  0  0  0  0  0  0  0  0  # atno 10763 bound_to 10752
  153.5305  135.3593  155.2674 H   0  0  0  0  0  0  0  0  0  0  0  0  # atno 10764 bound_to 10752
  154.8679  135.4179  154.2969 H   0  0  0  0  0  0  0  0  0  0  0  0  # atno 10765 bound_to 10752
  140.5603  134.0199  155.7969 H   0  0  0  0  0  0  0  0  0  0  0  0  # atno 11005 bound_to 11000
  144.7661  140.5532  143.6702 LP  0  0  0  0  0  0  0  0  0  0  0  0  # atno 17320 bound_to 7965
  145.5325  139.1475  143.3492 LP  0  0  0  0  0  0  0  0  0  0  0  0  # atno 17321 bound_to 7965
  139.4929  144.4227  151.9959 LP  0  0  0  0  0  0  0  0  0  0  0  0  # atno 17342 bound_to 10162
  140.3325  144.3299  150.5984 LP  0  0  0  0  0  0  0  0  0  0  0  0  # atno 17343 bound_to 10162
  157.2349  131.0512  151.2470 LP  0  0  0  0  0  0  0  0  0  0  0  0  # atno 17370 bound_to 10713
  157.3676  130.7164  149.6543 LP  0  0  0  0  0  0  0  0  0  0  0  0  # atno 17371 bound_to 10713
  141.1119  133.9603  157.2895 LP  0  0  0  0  0  0  0  0  0  0  0  0  # atno 17394 bound_to 11000
  139.9411  135.0191  156.8711 LP  0  0  0  0  0  0  0  0  0  0  0  0  # atno 17395 bound_to 11000

$$$$
