AV-unprocessed.smi:3206|AV-procd|sdf|12257|dock5
  -GOLD-   2272018 93D 1   1.00000     0.00000
 Structure written by MMmdl.
 42 43  0  0  0  0  0  0  0  0  2 V2000
  154.0893  141.5551  160.7010 C   0  0  0  0  0  0  0  0  0  0  0  0
  153.4472  142.8956  160.3168 C   0  0  2  0  0  0  0  0  0  0  0  0
  152.0988  143.1001  161.0317 C   0  0  0  0  0  0  0  0  0  0  0  0
  151.4497  144.4409  160.6442 C   0  0  0  0  0  0  0  0  0  0  0  0
  151.2727  144.5959  159.1185 C   0  0  2  0  0  0  0  0  0  0  0  0
  150.1359  143.7072  158.5565 C   0  0  0  0  0  0  0  0  0  0  0  0
  150.4124  143.2824  157.1693 N   0  3  0  0  0  0  0  0  0  0  0  0
  149.8356  141.9704  156.8167 C   0  0  0  0  0  0  0  0  0  0  0  0
  150.4257  141.4423  155.4984 C   0  0  0  0  0  0  0  0  0  0  0  0
  149.5634  140.4365  154.7923 C   0  0  0  0  0  0  0  0  0  0  0  0
  149.8468  139.1430  154.6618 N   0  0  0  0  0  0  0  0  0  0  0  0
  148.7570  138.7193  153.9586 C   0  0  0  0  0  0  0  0  0  0  0  0
  147.8585  139.6550  153.6658 N   0  0  0  0  0  0  0  0  0  0  0  0
  148.3983  140.7665  154.2154 N   0  0  0  0  0  0  0  0  0  0  0  0
  147.7002  142.0337  154.1085 C   0  0  0  0  0  0  0  0  0  0  0  0
  152.6206  144.3599  158.4041 C   0  0  0  0  0  0  0  0  0  0  0  0
  153.2694  143.0190  158.7922 C   0  0  0  0  0  0  0  0  0  0  0  0
  153.4619  140.7143  160.4035 H   0  0  0  0  0  0  0  0  0  0  0  0
  154.2457  141.4890  161.7780 H   0  0  0  0  0  0  0  0  0  0  0  0
  155.0602  141.4326  160.2200 H   0  0  0  0  0  0  0  0  0  0  0  0
  154.1232  143.6880  160.6414 H   0  0  0  0  0  0  0  0  0  0  0  0
  151.4252  142.2772  160.7905 H   0  0  0  0  0  0  0  0  0  0  0  0
  152.2437  143.0675  162.1122 H   0  0  0  0  0  0  0  0  0  0  0  0
  150.4894  144.5512  161.1492 H   0  0  0  0  0  0  0  0  0  0  0  0
  152.0768  145.2533  161.0138 H   0  0  0  0  0  0  0  0  0  0  0  0
  151.0037  145.6384  158.9401 H   0  0  0  0  0  0  0  0  0  0  0  0
  149.9990  142.8154  159.1692 H   0  0  0  0  0  0  0  0  0  0  0  0
  149.1829  144.2374  158.5712 H   0  0  0  0  0  0  0  0  0  0  0  0
  150.0365  143.9784  156.5411 H   0  0  0  0  0  0  0  0  0  0  0  0
  150.0344  141.2658  157.6256 H   0  0  0  0  0  0  0  0  0  0  0  0
  148.7526  142.0701  156.7296 H   0  0  0  0  0  0  0  0  0  0  0  0
  150.6021  142.2766  154.8182 H   0  0  0  0  0  0  0  0  0  0  0  0
  151.3958  140.9829  155.6918 H   0  0  0  0  0  0  0  0  0  0  0  0
  148.6224  137.6918  153.6541 H   0  0  0  0  0  0  0  0  0  0  0  0
  148.2599  142.8294  154.5987 H   0  0  0  0  0  0  0  0  0  0  0  0
  146.7198  141.9532  154.5790 H   0  0  0  0  0  0  0  0  0  0  0  0
  147.5695  142.2929  153.0574 H   0  0  0  0  0  0  0  0  0  0  0  0
  152.4895  144.4125  157.3228 H   0  0  0  0  0  0  0  0  0  0  0  0
  153.3061  145.1680  158.6619 H   0  0  0  0  0  0  0  0  0  0  0  0
  154.2375  142.9293  158.2979 H   0  0  0  0  0  0  0  0  0  0  0  0
  152.6624  142.1915  158.4237 H   0  0  0  0  0  0  0  0  0  0  0  0
  151.4135  143.2384  157.0421 H   0  0  0  0  0  0  0  0  0  0  0  0
  1  2  1  0  0  0  0
  1 18  1  0  0  0  0
  1 19  1  0  0  0  0
  1 20  1  0  0  0  0
  2 17  1  0  0  0  0
  2  3  1  0  0  0  0
  2 21  1  0  0  0  0
  3  4  1  0  0  0  0
  3 22  1  0  0  0  0
  3 23  1  0  0  0  0
  4  5  1  0  0  0  0
  4 24  1  0  0  0  0
  4 25  1  0  0  0  0
  5  6  1  0  0  0  0
  5 16  1  0  0  0  0
  5 26  1  0  0  0  0
  6  7  1  0  0  0  0
  6 27  1  0  0  0  0
  6 28  1  0  0  0  0
  7  8  1  0  0  0  0
  7 29  1  0  0  0  0
  7 42  1  0  0  0  0
  8  9  1  0  0  0  0
  8 30  1  0  0  0  0
  8 31  1  0  0  0  0
  9 10  1  0  0  0  0
  9 32  1  0  0  0  0
  9 33  1  0  0  0  0
 10 14  1  0  0  0  0
 10 11  2  0  0  0  0
 11 12  1  0  0  0  0
 12 13  2  0  0  0  0
 12 34  1  0  0  0  0
 13 14  1  0  0  0  0
 14 15  1  0  0  0  0
 15 35  1  0  0  0  0
 15 36  1  0  0  0  0
 15 37  1  0  0  0  0
 16 17  1  0  0  0  0
 16 38  1  0  0  0  0
 16 39  1  0  0  0  0
 17 40  1  0  0  0  0
 17 41  1  0  0  0  0
M  CHG  1   7   1
M  END
> <s_m_source_file>
AV-unprocessed.smi

> <i_m_source_file_index>
3206

> <i_lp_mmshare_version>
43012

> <i_f3d_flags>
0

> <s_epik_input>
W0NIM11bQ0BASF0xW0NIMl1bQ0gyXVtDQEhdKFtDSDJdW0NIMl0xKVtDSDJdW05IXVtDSDJdW0NIMl1jMm5bY0hdbm4yW0NIM10=

> <s_epik_cmdline>
J2VwaWtfcHl0aG9uJywgJy1waCcsICc3LjAnLCAnLXRuJywgJzgnLCAnLW1hJywgJzIwMCcsICctbWV0YWxfYmluZGluZycsICctaW1hZScsICc8aW5maWxlLm1hZT4nLCAnLW9tYWUnLCAnPG91dGZpbGUubWFlPic=

> <r_lp_tautomer_probability>
1

> <r_epik_Ionization_Penalty>
0.00114491

> <r_epik_Ionization_Penalty_Charging>
0.00114083

> <r_epik_Ionization_Penalty_Neutral>
4.0852e-06

> <r_epik_State_Penalty>
-0

> <r_epik_Charging_Adjusted_Penalty>
0.00114083

> <i_epik_Tot_Q>
1

> <i_epik_Tot_abs_Q>
1

> <r_epik_Metal_State_Penalty>
-0

> <b_epik_Metal_Only>
0

> <s_lp_Force_Field>
OPLS_2005

> <r_lp_Energy>
20.2126

> <b_lp_Chiralities_Consistent>
1

> <s_lp_Variant>
AV-unprocessed.smi:3206-2

> <Gold.Version>
5.8.1

> <Gold.Id.Protein>
6NUR|6NUR_protein|mol2

> <Gold.PLP.Fitness>
48.4840

> <Gold.PLP.PLP>
-41.2113

> <Gold.PLP.part.hbond>
-1.0000

> <Gold.PLP.part.metal>
0.0000

> <Gold.PLP.part.buried>
-3.8785

> <Gold.PLP.part.nonpolar>
-36.5223

> <Gold.PLP.part.repulsive>
0.2915

> <Gold.PLP.ligand.clash>
0.0057

> <Gold.PLP.ligand.torsion>
0.8765

> <Gold.PLP.Chemscore.Hbond>
2.0000

> <Gold.PLP.Chemscore.CHOScore>
1.0000

> <Gold.PLP.Chemscore.Metal>
0.0000

> <Gold.Chemscore.Hbonds>
donor molecule, donor type, donor heavy atom, donor atom, acceptor molecule, acceptor atom, score
      L1  H     7    29       P1  8028  2.00
      L1  C    12    34       P1  7948  1.00

> <Gold.PLP.Chemscore.Internal.Correction>
0.0314

> <Gold.Rescore>
     Score         DG    S(hbond)    S(metal)    S(lipo)     H(rot)  DE(clash)    DE(int)     intcor
     15.82     -16.74       0.99        0.00     112.74       2.05       0.01       0.91       ----

> <Gold.Chemscore.Fitness>
15.8164

> <Gold.Chemscore.DG>
-16.7354

> <Gold.Chemscore.ZeroCoef>
-5.4800

> <Gold.Chemscore.Hbond>
0.9940

> <Gold.Chemscore.Metal>
0.0000

> <Gold.Chemscore.Lipo>
112.7404

> <Gold.Chemscore.Internal_Hbond>
0.0000

> <Gold.Chemscore.DEClash>
0.0131

> <Gold.Chemscore.DEInternal>
0.9059

> <Gold.Chemscore.Rot>
2.0528

> <Gold.Chemscore.Internal.Correction>
   9.000000E+99

> <Gold.Chemscore.Hbonds>
donor molecule, donor type, donor heavy atom, donor atom, acceptor molecule, acceptor atom, score
      L1  H     7    29       P1  8028  0.98

> <Gold.Chemscore.Hbond.Weighted>
-3.3198

> <Gold.Chemscore.Metal.Weighted>
-0.0000

> <Gold.Chemscore.Lipo.Weighted>
-13.1906

> <Gold.Chemscore.Internal_Hbond.Weighted>
0.0000

> <Gold.Chemscore.DEClash.Weighted>
0.0131

> <Gold.Chemscore.DEInternal.Weighted>
0.9059

> <Gold.Chemscore.Rot.Weighted>
5.2551

> <Gold.Chemscore.Internal.Correction.Weighted>
   9.000000E+99

> <Gold.Protein.RotatedTorsions>
[ 6907 6896 6895 6894 ] final -131.53 input  -60.11 | X-H torsion
[ 7974 7965 7964 7962 ] final -116.17 input  175.53 | X-H torsion
[ 8008 7997 7996 7995 ] final  170.74 input   59.86 | X-H torsion
[ 10167 10162 10161 10158 ] final  -63.63 input  -65.29 | X-H torsion
[ 10718 10713 10712 10709 ] final    2.40 input   66.30 | X-H torsion
[ 10763 10752 10751 10750 ] final  -45.44 input  -60.55 | X-H torsion
[ 11005 11000 10999 10996 ] final -111.74 input  -57.11 | X-H torsion

> <Gold.Protein.ActiveResidues>
 VAL166  LYS551  ARG553  GLY616  TRP617  ASP618  TYR619  PRO620  LYS621  CYS622 
 ASP623  PHE694  ASN695  SER759  ASP760  ASP761  ALA762  ILE779  LEU786  VAL792 
 PHE793  MET794  SER795  GLU796  ALA797  LYS798  CYS799  TRP800  GLU811  SER814 

> <Gold.Protein.RotatedAtoms>
  150.9520  133.6539  159.2769 H   0  0  0  0  0  0  0  0  0  0  0  0  # atno 6907 bound_to 6896
  151.3891  135.0952  159.9530 H   0  0  0  0  0  0  0  0  0  0  0  0  # atno 6908 bound_to 6896
  152.5114  133.9038  159.7509 H   0  0  0  0  0  0  0  0  0  0  0  0  # atno 6909 bound_to 6896
  145.0999  140.8545  143.3932 H   0  0  0  0  0  0  0  0  0  0  0  0  # atno 7974 bound_to 7965
  156.1337  140.1530  156.9027 H   0  0  0  0  0  0  0  0  0  0  0  0  # atno 8008 bound_to 7997
  154.4930  140.0846  156.7675 H   0  0  0  0  0  0  0  0  0  0  0  0  # atno 8009 bound_to 7997
  155.4208  140.3423  155.4273 H   0  0  0  0  0  0  0  0  0  0  0  0  # atno 8010 bound_to 7997
  140.5857  143.2333  151.6247 H   0  0  0  0  0  0  0  0  0  0  0  0  # atno 10167 bound_to 10162
  156.8624  130.5591  149.5662 H   0  0  0  0  0  0  0  0  0  0  0  0  # atno 10718 bound_to 10713
  154.0285  135.6660  153.4778 H   0  0  0  0  0  0  0  0  0  0  0  0  # atno 10763 bound_to 10752
  153.0550  135.5061  154.7955 H   0  0  0  0  0  0  0  0  0  0  0  0  # atno 10764 bound_to 10752
  154.6893  135.3058  154.9468 H   0  0  0  0  0  0  0  0  0  0  0  0  # atno 10765 bound_to 10752
  141.0717  133.9369  157.2472 H   0  0  0  0  0  0  0  0  0  0  0  0  # atno 11005 bound_to 11000
  145.0968  139.2851  143.5707 LP  0  0  0  0  0  0  0  0  0  0  0  0  # atno 17320 bound_to 7965
  146.3530  140.0522  142.8635 LP  0  0  0  0  0  0  0  0  0  0  0  0  # atno 17321 bound_to 7965
  139.5196  144.3247  152.0879 LP  0  0  0  0  0  0  0  0  0  0  0  0  # atno 17342 bound_to 10162
  140.2404  144.4275  150.6262 LP  0  0  0  0  0  0  0  0  0  0  0  0  # atno 17343 bound_to 10162
  156.0769  130.5789  150.9491 LP  0  0  0  0  0  0  0  0  0  0  0  0  # atno 17370 bound_to 10713
  157.6242  131.0927  150.8565 LP  0  0  0  0  0  0  0  0  0  0  0  0  # atno 17371 bound_to 10713
  139.9530  135.0171  156.9048 LP  0  0  0  0  0  0  0  0  0  0  0  0  # atno 17394 bound_to 11000
  140.5660  134.0489  155.7414 LP  0  0  0  0  0  0  0  0  0  0  0  0  # atno 17395 bound_to 11000

$$$$
