AV-unprocessed.smi:240|AV-procd|sdf|1834|dock9
  -GOLD-   2262020443D 1   1.00000     0.00000
 Structure written by MMmdl.
 55 59  0  0  0  0  0  0  0  0  1 V2000
  150.4005  139.8432  153.7783 O   0  0  0  0  0  0  0  0  0  0  0  0
  149.1533  139.8422  154.4419 C   0  0  2  0  0  0  0  0  0  0  0  0
  148.4267  141.1732  154.1703 C   0  0  0  0  0  0  0  0  0  0  0  0
  147.8823  141.6388  155.5221 C   0  0  0  0  0  0  0  0  0  0  0  0
  148.8930  141.1001  156.5309 C   0  0  0  0  0  0  0  0  0  0  0  0
  149.2377  139.7083  155.9851 C   0  0  2  0  0  0  0  0  0  0  0  0
  150.4726  139.0004  156.6292 C   0  0  2  0  0  0  0  0  0  0  0  0
  151.8136  139.7586  156.4434 C   0  0  0  0  0  0  0  0  0  0  0  0
  152.8746  139.0538  157.0777 O   0  0  0  0  0  0  0  0  0  0  0  0
  153.0585  137.7586  156.5237 C   0  0  0  0  0  0  0  0  0  0  0  0
  151.7893  136.9326  156.7665 C   0  0  0  0  0  0  0  0  0  0  0  0
  150.6298  137.6052  156.1929 N   0  0  0  0  0  0  0  0  0  0  0  0
  149.5399  136.8065  156.2470 C   0  0  0  0  0  0  0  0  0  0  0  0
  148.9416  136.5076  155.0679 N   0  0  0  0  0  0  0  0  0  0  0  0
  147.8583  135.7258  155.0479 C   0  0  0  0  0  0  0  0  0  0  0  0
  147.2288  135.1451  156.0716 N   0  0  0  0  0  0  0  0  0  0  0  0
  147.8387  135.4308  157.2578 C   0  0  0  0  0  0  0  0  0  0  0  0
  148.9903  136.2480  157.4361 C   0  0  0  0  0  0  0  0  0  0  0  0
  149.3208  136.3116  158.7843 N   0  0  0  0  0  0  0  0  0  0  0  0
  148.4124  135.5805  159.3698 C   0  0  0  0  0  0  0  0  0  0  0  0
  147.4890  135.0032  158.5273 N   0  0  0  0  0  0  0  0  0  0  0  0
  146.3777  134.1422  158.9053 C   0  0  0  0  0  0  0  0  0  0  0  0
  146.5563  133.4615  160.2848 C   0  0  2  0  0  0  0  0  0  0  0  0
  147.7726  132.7365  160.2870 O   0  0  0  0  0  0  0  0  0  0  0  0
  145.4078  132.5062  160.6185 C   0  0  0  0  0  0  0  0  0  0  0  0
  144.6517  133.2251  161.7294 C   0  0  0  0  0  0  0  0  0  0  0  0
  145.6886  133.8812  162.4364 O   0  0  0  0  0  0  0  0  0  0  0  0
  146.5564  134.4509  161.4675 C   0  0  0  0  0  0  0  0  0  0  0  0
  150.2558  139.6116  152.8731 H   0  0  0  0  0  0  0  0  0  0  0  0
  148.5704  139.0119  154.0411 H   0  0  0  0  0  0  0  0  0  0  0  0
  149.1270  141.9233  153.7983 H   0  0  0  0  0  0  0  0  0  0  0  0
  147.6390  141.0702  153.4234 H   0  0  0  0  0  0  0  0  0  0  0  0
  147.7690  142.7220  155.5781 H   0  0  0  0  0  0  0  0  0  0  0  0
  146.9045  141.1902  155.7032 H   0  0  0  0  0  0  0  0  0  0  0  0
  149.7637  141.7546  156.5332 H   0  0  0  0  0  0  0  0  0  0  0  0
  148.4940  141.0658  157.5451 H   0  0  0  0  0  0  0  0  0  0  0  0
  148.3701  139.1057  156.2583 H   0  0  0  0  0  0  0  0  0  0  0  0
  150.2969  138.9796  157.7048 H   0  0  0  0  0  0  0  0  0  0  0  0
  152.0635  139.9139  155.3947 H   0  0  0  0  0  0  0  0  0  0  0  0
  151.7674  140.7438  156.9050 H   0  0  0  0  0  0  0  0  0  0  0  0
  153.2848  137.8284  155.4584 H   0  0  0  0  0  0  0  0  0  0  0  0
  153.9141  137.2835  157.0036 H   0  0  0  0  0  0  0  0  0  0  0  0
  151.9056  135.9420  156.3246 H   0  0  0  0  0  0  0  0  0  0  0  0
  151.6372  136.7920  157.8378 H   0  0  0  0  0  0  0  0  0  0  0  0
  147.4355  135.5381  154.0719 H   0  0  0  0  0  0  0  0  0  0  0  0
  148.3948  135.4400  160.4407 H   0  0  0  0  0  0  0  0  0  0  0  0
  145.4666  134.7422  158.8992 H   0  0  0  0  0  0  0  0  0  0  0  0
  146.2502  133.3883  158.1275 H   0  0  0  0  0  0  0  0  0  0  0  0
  147.7879  132.1755  159.5267 H   0  0  0  0  0  0  0  0  0  0  0  0
  144.7691  132.2776  159.7646 H   0  0  0  0  0  0  0  0  0  0  0  0
  145.7861  131.5580  161.0045 H   0  0  0  0  0  0  0  0  0  0  0  0
  143.9593  133.9627  161.3200 H   0  0  0  0  0  0  0  0  0  0  0  0
  144.0936  132.5428  162.3707 H   0  0  0  0  0  0  0  0  0  0  0  0
  147.5480  134.6406  161.8805 H   0  0  0  0  0  0  0  0  0  0  0  0
  146.1316  135.4119  161.1762 H   0  0  0  0  0  0  0  0  0  0  0  0
  1  2  1  0  0  0  0
  1 29  1  0  0  0  0
  2  6  1  0  0  0  0
  2  3  1  0  0  0  0
  2 30  1  0  0  0  0
  3  4  1  0  0  0  0
  3 31  1  0  0  0  0
  3 32  1  0  0  0  0
  4  5  1  0  0  0  0
  4 33  1  0  0  0  0
  4 34  1  0  0  0  0
  5  6  1  0  0  0  0
  5 35  1  0  0  0  0
  5 36  1  0  0  0  0
  6  7  1  0  0  0  0
  6 37  1  0  0  0  0
  7 12  1  0  0  0  0
  7  8  1  0  0  0  0
  7 38  1  0  0  0  0
  8  9  1  0  0  0  0
  8 39  1  0  0  0  0
  8 40  1  0  0  0  0
  9 10  1  0  0  0  0
 10 11  1  0  0  0  0
 10 41  1  0  0  0  0
 10 42  1  0  0  0  0
 11 12  1  0  0  0  0
 11 43  1  0  0  0  0
 11 44  1  0  0  0  0
 12 13  1  0  0  0  0
 13 18  1  0  0  0  0
 13 14  2  0  0  0  0
 14 15  1  0  0  0  0
 15 16  2  0  0  0  0
 15 45  1  0  0  0  0
 16 17  1  0  0  0  0
 17 21  1  0  0  0  0
 17 18  2  0  0  0  0
 18 19  1  0  0  0  0
 19 20  2  0  0  0  0
 20 21  1  0  0  0  0
 20 46  1  0  0  0  0
 21 22  1  0  0  0  0
 22 23  1  0  0  0  0
 22 47  1  0  0  0  0
 22 48  1  0  0  0  0
 23 28  1  0  0  0  0
 23 24  1  0  0  0  0
 23 25  1  0  0  0  0
 24 49  1  0  0  0  0
 25 26  1  0  0  0  0
 25 50  1  0  0  0  0
 25 51  1  0  0  0  0
 26 27  1  0  0  0  0
 26 52  1  0  0  0  0
 26 53  1  0  0  0  0
 27 28  1  0  0  0  0
 28 54  1  0  0  0  0
 28 55  1  0  0  0  0
M  END
> <s_m_source_file>
AV-unprocessed.smi

> <i_m_source_file_index>
240

> <i_lp_mmshare_version>
43012

> <i_f3d_flags>
0

> <s_epik_input>
W09IXVtDQEBIXTFbQ0gyXVtDSDJdW0NIMl1bQ0BIXTFbQ0BASF0yW0NIMl1PW0NIMl1bQ0gyXU4yYyhuW2NIXW4zKWMoYzM0KW5bY0hdbjRbQ0gyXVtDQEBdNShbT0hdKVtDSDJdW0NIMl1PW0NIMl01

> <s_epik_cmdline>
J2VwaWtfcHl0aG9uJywgJy1waCcsICc3LjAnLCAnLXRuJywgJzgnLCAnLW1hJywgJzIwMCcsICctbWV0YWxfYmluZGluZycsICctaW1hZScsICc8aW5maWxlLm1hZT4nLCAnLW9tYWUnLCAnPG91dGZpbGUubWFlPic=

> <r_lp_tautomer_probability>
1

> <r_epik_Ionization_Penalty>
0.000130618

> <r_epik_Ionization_Penalty_Charging>
0

> <r_epik_Ionization_Penalty_Neutral>
0.000130618

> <r_epik_State_Penalty>
-0

> <r_epik_Charging_Adjusted_Penalty>
0

> <i_epik_Tot_Q>
0

> <i_epik_Tot_abs_Q>
0

> <r_epik_Metal_State_Penalty>
-0

> <b_epik_Metal_Only>
0

> <s_lp_Force_Field>
OPLS_2005

> <r_lp_Energy>
66.7643

> <b_lp_Chiralities_Consistent>
1

> <s_lp_Variant>
AV-unprocessed.smi:240-11

> <Gold.Version>
5.8.1

> <Gold.Id.Protein>
6NUR|6NUR_protein|mol2

> <Gold.PLP.Fitness>
38.6285

> <Gold.PLP.PLP>
-30.8310

> <Gold.PLP.part.hbond>
-4.1728

> <Gold.PLP.part.metal>
0.0000

> <Gold.PLP.part.buried>
-3.1994

> <Gold.PLP.part.nonpolar>
-22.5084

> <Gold.PLP.part.repulsive>
0.1103

> <Gold.PLP.ligand.clash>
0.0000

> <Gold.PLP.ligand.torsion>
0.5309

> <Gold.PLP.Chemscore.Hbond>
2.8720

> <Gold.PLP.Chemscore.CHOScore>
0.0000

> <Gold.PLP.Chemscore.Metal>
0.0000

> <Gold.Chemscore.Hbonds>
donor molecule, donor type, donor heavy atom, donor atom, acceptor molecule, acceptor atom, score
      L1  H     1    29       P1  7957  1.00
      P1  H  6896  6908       L1    19  0.03
      P1  H  7989  7998       L1     1  0.72
      P1  H  7997  8009       L1     9  0.95
      L1  C    15    45       P1  7948  0.32

> <Gold.PLP.Chemscore.Internal.Correction>
0.2435

> <Gold.Rescore>
     Score         DG    S(hbond)    S(metal)    S(lipo)     H(rot)  DE(clash)    DE(int)     intcor
     10.92     -14.84       2.30        0.00      80.05       3.00       0.56       3.36       ----

> <Gold.Chemscore.Fitness>
10.9202

> <Gold.Chemscore.DG>
-14.8397

> <Gold.Chemscore.ZeroCoef>
-5.4800

> <Gold.Chemscore.Hbond>
2.3005

> <Gold.Chemscore.Metal>
0.0000

> <Gold.Chemscore.Lipo>
80.0504

> <Gold.Chemscore.Internal_Hbond>
0.0000

> <Gold.Chemscore.DEClash>
0.5585

> <Gold.Chemscore.DEInternal>
3.3609

> <Gold.Chemscore.Rot>
3.0039

> <Gold.Chemscore.Internal.Correction>
   9.000000E+99

> <Gold.Chemscore.Hbonds>
donor molecule, donor type, donor heavy atom, donor atom, acceptor molecule, acceptor atom, score
      L1  H     1    29       P1  7957  0.91
      P1  H  7989  7998       L1     1  0.09
      P1  H  7997  8009       L1     9  0.11

> <Gold.Chemscore.Hbond.Weighted>
-7.6837

> <Gold.Chemscore.Metal.Weighted>
-0.0000

> <Gold.Chemscore.Lipo.Weighted>
-9.3659

> <Gold.Chemscore.Internal_Hbond.Weighted>
0.0000

> <Gold.Chemscore.DEClash.Weighted>
0.5585

> <Gold.Chemscore.DEInternal.Weighted>
3.3609

> <Gold.Chemscore.Rot.Weighted>
7.6899

> <Gold.Chemscore.Internal.Correction.Weighted>
   9.000000E+99

> <Gold.Protein.RotatedTorsions>
[ 6907 6896 6895 6894 ] final  172.93 input  -60.11 | X-H torsion
[ 7974 7965 7964 7962 ] final  102.64 input  175.53 | X-H torsion
[ 8008 7997 7996 7995 ] final -166.07 input   59.86 | X-H torsion
[ 10167 10162 10161 10158 ] final -166.32 input  -65.29 | X-H torsion
[ 10718 10713 10712 10709 ] final    5.98 input   66.30 | X-H torsion
[ 10763 10752 10751 10750 ] final  -27.21 input  -60.55 | X-H torsion
[ 11005 11000 10999 10996 ] final  -31.30 input  -57.11 | X-H torsion

> <Gold.Protein.ActiveResidues>
 VAL166  LYS551  ARG553  GLY616  TRP617  ASP618  TYR619  PRO620  LYS621  CYS622 
 ASP623  PHE694  ASN695  SER759  ASP760  ASP761  ALA762  ILE779  LEU786  VAL792 
 PHE793  MET794  SER795  GLU796  ALA797  LYS798  CYS799  TRP800  GLU811  SER814 

> <Gold.Protein.RotatedAtoms>
  151.7764  133.3345  159.3458 H   0  0  0  0  0  0  0  0  0  0  0  0  # atno 6907 bound_to 6896
  150.7442  134.5971  159.6027 H   0  0  0  0  0  0  0  0  0  0  0  0  # atno 6908 bound_to 6896
  152.3306  134.7265  160.0342 H   0  0  0  0  0  0  0  0  0  0  0  0  # atno 6909 bound_to 6896
  145.3565  139.2427  143.3530 H   0  0  0  0  0  0  0  0  0  0  0  0  # atno 7974 bound_to 7965
  155.8587  140.0974  157.1628 H   0  0  0  0  0  0  0  0  0  0  0  0  # atno 8008 bound_to 7997
  154.3989  140.1369  156.3996 H   0  0  0  0  0  0  0  0  0  0  0  0  # atno 8009 bound_to 7997
  155.7881  140.3456  155.5336 H   0  0  0  0  0  0  0  0  0  0  0  0  # atno 8010 bound_to 7997
  139.6122  144.0791  152.1853 H   0  0  0  0  0  0  0  0  0  0  0  0  # atno 10167 bound_to 10162
  156.9154  130.5771  149.5647 H   0  0  0  0  0  0  0  0  0  0  0  0  # atno 10718 bound_to 10713
  153.7284  135.6940  153.4995 H   0  0  0  0  0  0  0  0  0  0  0  0  # atno 10763 bound_to 10752
  153.2154  135.4388  155.0427 H   0  0  0  0  0  0  0  0  0  0  0  0  # atno 10764 bound_to 10752
  154.8261  135.3447  154.6814 H   0  0  0  0  0  0  0  0  0  0  0  0  # atno 10765 bound_to 10752
  140.9457  133.7252  156.1142 H   0  0  0  0  0  0  0  0  0  0  0  0  # atno 11005 bound_to 11000
  146.2946  140.4191  142.8726 LP  0  0  0  0  0  0  0  0  0  0  0  0  # atno 17320 bound_to 7965
  144.8678  140.7231  143.6066 LP  0  0  0  0  0  0  0  0  0  0  0  0  # atno 17321 bound_to 7965
  140.0412  144.6006  150.7409 LP  0  0  0  0  0  0  0  0  0  0  0  0  # atno 17342 bound_to 10162
  140.7327  143.2709  151.3893 LP  0  0  0  0  0  0  0  0  0  0  0  0  # atno 17343 bound_to 10162
  156.0516  130.5584  150.9001 LP  0  0  0  0  0  0  0  0  0  0  0  0  # atno 17370 bound_to 10713
  157.5941  131.0943  150.9070 LP  0  0  0  0  0  0  0  0  0  0  0  0  # atno 17371 bound_to 10713
  140.7673  134.3872  157.5514 LP  0  0  0  0  0  0  0  0  0  0  0  0  # atno 17394 bound_to 11000
  139.8832  134.9000  156.2778 LP  0  0  0  0  0  0  0  0  0  0  0  0  # atno 17395 bound_to 11000

$$$$
