#       Name:                AV-unprocessed.smi:1803
#       Creating user name   scv26
#       Creation time:       Fri Mar 27 08:54:56 2020


#       File generated by GOLD software.
#

@<TRIPOS>MOLECULE
AV-unprocessed.smi:1803
    40    42     1
SMALL
NO_CHARGES


@<TRIPOS>ATOM
      1 ****        -2.4673  -2.8751   0.7689 O.2            1 S1                 0.0000
      2 ****        -1.2463  -2.8898   0.6183 C.2            1 S1                 0.0000
      3 ****        -0.5035  -4.0269   0.6382 N.pl3          1 S1                -1.0000
      4 ****         0.8278  -4.0273   0.4384 C.2            1 S1                 0.0000
      5 ****         1.7089  -3.9339   1.4476 N.2            1 S1                 0.0000
      6 ****         3.0299  -3.9442   1.0209 N.2            1 S1                 0.0000
      7 ****         3.1120  -4.0570  -0.3045 C.2            1 S1                 0.0000
      8 ****         1.5830  -4.1532  -1.1524 S.3            1 S1                 0.0000
      9 ****        -0.6020  -1.7239   0.4247 N.am           1 S1                 0.0000
     10 ****        -1.2201  -0.4053   0.3664 C.3            1 S1                 0.0000
     11 ****        -1.6476   0.1497   1.7388 C.3            1 S1                 0.0000
     12 ****        -1.3237   1.6559   1.6878 C.3            1 S1                 0.0000
     13 ****        -0.8446   1.9054   0.3145 N.4            1 S1                 1.0000
     14 ****         0.0355   3.0760   0.1069 C.3            1 S1                 0.0000
     15 ****         0.3631   3.2068  -1.3947 C.3            1 S1                 0.0000
     16 ****         0.9337   1.8956  -1.9741 C.3            1 S1                 0.0000
     17 ****         0.0194   0.6990  -1.6469 C.3            1 S1                 0.0000
     18 ****        -0.2317   0.6460  -0.1315 C.3            1 S1                 0.0000
     19 ****         4.0782  -4.0835  -0.7858 H              1 S1                 0.0000
     20 ****         0.4003  -1.7639   0.3104 H              1 S1                 0.0000
     21 ****        -2.0841  -0.4289  -0.3010 H              1 S1                 0.0000
     22 ****        -2.7068  -0.0334   1.9223 H              1 S1                 0.0000
     23 ****        -1.0891  -0.3209   2.5495 H              1 S1                 0.0000
     24 ****        -2.1912   2.2763   1.9136 H              1 S1                 0.0000
     25 ****        -0.5398   1.8935   2.4088 H              1 S1                 0.0000
     26 ****        -0.4634   3.9774   0.4641 H              1 S1                 0.0000
     27 ****         0.9512   2.9603   0.6889 H              1 S1                 0.0000
     28 ****        -0.5438   3.4735  -1.9392 H              1 S1                 0.0000
     29 ****         1.0680   4.0233  -1.5537 H              1 S1                 0.0000
     30 ****         1.0630   1.9856  -3.0530 H              1 S1                 0.0000
     31 ****         1.9261   1.7175  -1.5577 H              1 S1                 0.0000
     32 ****        -0.9258   0.7970  -2.1824 H              1 S1                 0.0000
     33 ****         0.4786  -0.2297  -1.9873 H              1 S1                 0.0000
     34 ****         0.7201   0.5191   0.3904 H              1 S1                 0.0000
     35 ****        -1.6670   2.0388  -0.2564 H              1 S1                 0.0000
     36 ****        -2.9634  -3.7309   0.9153 LP             1 S1                 0.0000
     37 ****        -2.9637  -2.0073   0.7450 LP             1 S1                 0.0000
     38 ****        -0.9639  -4.8982   0.8080 LP             1 S1                 0.0000
     39 ****         1.4407  -3.8641   2.4085 LP             1 S1                 0.0000
     40 ****         3.8195  -3.8757   1.6306 LP             1 S1                 0.0000
@<TRIPOS>BOND
    1    1    2 2     
    2    2    3 1     
    3    2    9 am    
    4    3    4 1     
    5    4    8 1     
    6    4    5 2     
    7    5    6 1     
    8    6    7 2     
    9    7    8 1     
   10    7   19 1     
   11    9   10 1     
   12    9   20 1     
   13   10   18 1     
   14   10   11 1     
   15   10   21 1     
   16   11   12 1     
   17   11   22 1     
   18   11   23 1     
   19   12   13 1     
   20   12   24 1     
   21   12   25 1     
   22   13   18 1     
   23   13   14 1     
   24   13   35 1     
   25   14   15 1     
   26   14   26 1     
   27   14   27 1     
   28   15   16 1     
   29   15   28 1     
   30   15   29 1     
   31   16   17 1     
   32   16   30 1     
   33   16   31 1     
   34   17   18 1     
   35   17   32 1     
   36   17   33 1     
   37   18   34 1     
   38    1   36 1     
   39    1   37 1     
   40    3   38 1     
   41    5   39 1     
   42    6   40 1     
@<TRIPOS>SUBSTRUCTURE
      1 S1             1
@<TRIPOS>SET
LONE_PAIRS      STATIC     ATOMS    <user>   **** ""
5 36 37 38 39 40
DONOR_HYDROGENS      STATIC     ATOMS    <user>   **** ""
2 20 35
ATOM$BLUE        STATIC     ATOMS    COLORGROUP SYSTEM
5 36 37 38 39 40
ATOM$RED        STATIC     ATOMS    COLORGROUP SYSTEM
2 20 35
