AV-unprocessed.smi:1220|AV-procd|sdf|5114|dock2
  -GOLD-   22720 4173D 1   1.00000     0.00000
 Structure written by MMmdl.
 35 36  0  0  0  0  0  0  0  0  1 V2000
  149.8535  140.7282  155.6582 C   0  0  0  0  0  0  0  0  0  0  0  0
  150.2684  141.4554  156.9443 C   0  0  2  0  0  0  0  0  0  0  0  0
  151.2232  142.6307  156.6420 C   0  0  0  0  0  0  0  0  0  0  0  0
  151.4941  143.4510  157.8098 N   0  0  0  0  0  0  0  0  0  0  0  0
  151.2115  144.7871  158.0031 C   0  0  0  0  0  0  0  0  0  0  0  0
  151.6700  145.1239  159.2441 C   0  0  0  0  0  0  0  0  0  0  0  0
  152.2194  143.9094  159.7420 C   0  0  0  0  0  0  0  0  0  0  0  0
  152.1088  142.9089  158.8830 N   0  0  0  0  0  0  0  0  0  0  0  0
  150.8994  140.4961  157.8502 N   0  0  0  0  0  0  0  0  0  0  0  0
  151.9429  139.7053  157.5516 C   0  0  0  0  0  0  0  0  0  0  0  0
  152.5273  139.7335  156.4684 O   0  0  0  0  0  0  0  0  0  0  0  0
  152.3747  138.7124  158.6366 C   0  0  2  0  0  0  0  0  0  0  0  0
  152.8919  139.4165  159.9095 C   0  0  0  0  0  0  0  0  0  0  0  0
  153.5946  138.3759  160.7878 C   0  0  0  0  0  0  0  0  0  0  0  0
  154.3714  137.1907  159.6273 S   0  0  0  0  0  0  0  0  0  0  0  0
  155.8012  137.5048  159.4881 O   0  0  0  0  0  0  0  0  0  0  0  0
  153.9240  135.8308  159.9633 O   0  0  0  0  0  0  0  0  0  0  0  0
  153.4862  137.7745  158.1330 C   0  0  0  0  0  0  0  0  0  0  0  0
  149.3520  141.4077  154.9686 H   0  0  0  0  0  0  0  0  0  0  0  0
  149.1638  139.9114  155.8735 H   0  0  0  0  0  0  0  0  0  0  0  0
  150.7174  140.3086  155.1417 H   0  0  0  0  0  0  0  0  0  0  0  0
  149.3573  141.8507  157.3972 H   0  0  0  0  0  0  0  0  0  0  0  0
  152.1709  142.2620  156.2472 H   0  0  0  0  0  0  0  0  0  0  0  0
  150.7953  143.2729  155.8709 H   0  0  0  0  0  0  0  0  0  0  0  0
  150.7212  145.3820  157.2467 H   0  0  0  0  0  0  0  0  0  0  0  0
  151.6223  146.0906  159.7231 H   0  0  0  0  0  0  0  0  0  0  0  0
  152.6915  143.7260  160.6957 H   0  0  0  0  0  0  0  0  0  0  0  0
  150.4871  140.4030  158.7671 H   0  0  0  0  0  0  0  0  0  0  0  0
  151.5200  138.0971  158.9237 H   0  0  0  0  0  0  0  0  0  0  0  0
  153.6139  140.1899  159.6425 H   0  0  0  0  0  0  0  0  0  0  0  0
  152.0854  139.9090  160.4536 H   0  0  0  0  0  0  0  0  0  0  0  0
  154.3470  138.8094  161.4468 H   0  0  0  0  0  0  0  0  0  0  0  0
  152.8719  137.8295  161.3939 H   0  0  0  0  0  0  0  0  0  0  0  0
  153.0950  136.9198  157.5809 H   0  0  0  0  0  0  0  0  0  0  0  0
  154.2058  138.2942  157.4984 H   0  0  0  0  0  0  0  0  0  0  0  0
  1  2  1  0  0  0  0
  1 19  1  0  0  0  0
  1 20  1  0  0  0  0
  1 21  1  0  0  0  0
  2  3  1  0  0  0  0
  2  9  1  0  0  0  0
  2 22  1  0  0  0  0
  3  4  1  0  0  0  0
  3 23  1  0  0  0  0
  3 24  1  0  0  0  0
  4  8  1  0  0  0  0
  4  5  1  0  0  0  0
  5  6  2  0  0  0  0
  5 25  1  0  0  0  0
  6  7  1  0  0  0  0
  6 26  1  0  0  0  0
  7  8  2  0  0  0  0
  7 27  1  0  0  0  0
  9 10  1  0  0  0  0
  9 28  1  0  0  0  0
 10 11  2  0  0  0  0
 10 12  1  0  0  0  0
 12 18  1  0  0  0  0
 12 13  1  0  0  0  0
 12 29  1  0  0  0  0
 13 14  1  0  0  0  0
 13 30  1  0  0  0  0
 13 31  1  0  0  0  0
 14 15  1  0  0  0  0
 14 32  1  0  0  0  0
 14 33  1  0  0  0  0
 15 16  2  0  0  0  0
 15 17  2  0  0  0  0
 15 18  1  0  0  0  0
 18 34  1  0  0  0  0
 18 35  1  0  0  0  0
M  END
> <s_m_source_file>
AV-unprocessed.smi

> <i_m_source_file_index>
1220

> <i_lp_mmshare_version>
43012

> <i_f3d_flags>
0

> <s_epik_input>
bjFbY0hdW2NIXVtjSF1uMVtDSDJdW0NAQEhdKFtDSDNdKVtOSF1DKD1PKVtDQEBIXShbQ0gyXTIpW0NIMl1bQ0gyXVMyKD1PKT1P

> <s_epik_cmdline>
J2VwaWtfcHl0aG9uJywgJy1waCcsICc3LjAnLCAnLXRuJywgJzgnLCAnLW1hJywgJzIwMCcsICctbWV0YWxfYmluZGluZycsICctaW1hZScsICc8aW5maWxlLm1hZT4nLCAnLW9tYWUnLCAnPG91dGZpbGUubWFlPic=

> <r_lp_tautomer_probability>
1

> <r_epik_Ionization_Penalty>
0.000293905

> <r_epik_Ionization_Penalty_Charging>
0

> <r_epik_Ionization_Penalty_Neutral>
0.000293905

> <r_epik_State_Penalty>
-0

> <r_epik_Charging_Adjusted_Penalty>
0

> <i_epik_Tot_Q>
0

> <i_epik_Tot_abs_Q>
0

> <r_epik_Metal_State_Penalty>
-0

> <b_epik_Metal_Only>
0

> <s_lp_Force_Field>
OPLS_2005

> <r_lp_Energy>
3.03909

> <b_lp_Chiralities_Consistent>
1

> <s_lp_Variant>
AV-unprocessed.smi:1220-1

> <Gold.Version>
5.8.1

> <Gold.Id.Protein>
6NUR|6NUR_protein|mol2

> <Gold.PLP.Fitness>
39.3446

> <Gold.PLP.PLP>
-30.7279

> <Gold.PLP.part.hbond>
-2.0000

> <Gold.PLP.part.metal>
0.0000

> <Gold.PLP.part.buried>
-5.9386

> <Gold.PLP.part.nonpolar>
-23.0210

> <Gold.PLP.part.repulsive>
0.0870

> <Gold.PLP.ligand.clash>
0.0000

> <Gold.PLP.ligand.torsion>
0.1138

> <Gold.PLP.Chemscore.Hbond>
2.0000

> <Gold.PLP.Chemscore.CHOScore>
0.9426

> <Gold.PLP.Chemscore.Metal>
0.0000

> <Gold.Chemscore.Hbonds>
donor molecule, donor type, donor heavy atom, donor atom, acceptor molecule, acceptor atom, score
      P1  H  6896  6907       L1    17  1.00
      P1  H  7997  8009       L1    11  1.00
      L1  C     5    25       P1  8028  0.82

> <Gold.PLP.Chemscore.Internal.Correction>
0.0165

> <Gold.Rescore>
     Score         DG    S(hbond)    S(metal)    S(lipo)     H(rot)  DE(clash)    DE(int)     intcor
     15.43     -16.83       1.97        0.00      78.97       1.75       0.01       1.38       ----

> <Gold.Chemscore.Fitness>
15.4339

> <Gold.Chemscore.DG>
-16.8331

> <Gold.Chemscore.ZeroCoef>
-5.4800

> <Gold.Chemscore.Hbond>
1.9709

> <Gold.Chemscore.Metal>
0.0000

> <Gold.Chemscore.Lipo>
78.9733

> <Gold.Chemscore.Internal_Hbond>
0.0000

> <Gold.Chemscore.DEClash>
0.0149

> <Gold.Chemscore.DEInternal>
1.3844

> <Gold.Chemscore.Rot>
1.7460

> <Gold.Chemscore.Internal.Correction>
   9.000000E+99

> <Gold.Chemscore.Hbonds>
donor molecule, donor type, donor heavy atom, donor atom, acceptor molecule, acceptor atom, score
      P1  H  6896  6907       L1    17  1.00
      P1  H  7997  8009       L1    11  0.98

> <Gold.Chemscore.Hbond.Weighted>
-6.5830

> <Gold.Chemscore.Metal.Weighted>
-0.0000

> <Gold.Chemscore.Lipo.Weighted>
-9.2399

> <Gold.Chemscore.Internal_Hbond.Weighted>
0.0000

> <Gold.Chemscore.DEClash.Weighted>
0.0149

> <Gold.Chemscore.DEInternal.Weighted>
1.3844

> <Gold.Chemscore.Rot.Weighted>
4.4697

> <Gold.Chemscore.Internal.Correction.Weighted>
   9.000000E+99

> <Gold.Protein.RotatedTorsions>
[ 6907 6896 6895 6894 ] final   64.04 input  -60.11 | X-H torsion
[ 7974 7965 7964 7962 ] final -177.69 input  175.53 | X-H torsion
[ 8008 7997 7996 7995 ] final -152.20 input   59.86 | X-H torsion
[ 10167 10162 10161 10158 ] final  128.79 input  -65.29 | X-H torsion
[ 10718 10713 10712 10709 ] final  -57.81 input   66.30 | X-H torsion
[ 10763 10752 10751 10750 ] final -135.27 input  -60.55 | X-H torsion
[ 11005 11000 10999 10996 ] final  -56.38 input  -57.11 | X-H torsion

> <Gold.Protein.ActiveResidues>
 VAL166  LYS551  ARG553  GLY616  TRP617  ASP618  TYR619  PRO620  LYS621  CYS622 
 ASP623  PHE694  ASN695  SER759  ASP760  ASP761  ALA762  ILE779  LEU786  VAL792 
 PHE793  MET794  SER795  GLU796  ALA797  LYS798  CYS799  TRP800  GLU811  SER814 

> <Gold.Protein.RotatedAtoms>
  152.4300  134.5795  159.9943 H   0  0  0  0  0  0  0  0  0  0  0  0  # atno 6907 bound_to 6896
  151.5920  133.3360  159.3037 H   0  0  0  0  0  0  0  0  0  0  0  0  # atno 6908 bound_to 6896
  150.8193  134.7428  159.6822 H   0  0  0  0  0  0  0  0  0  0  0  0  # atno 6909 bound_to 6896
  144.7128  140.0981  143.6418 H   0  0  0  0  0  0  0  0  0  0  0  0  # atno 7974 bound_to 7965
  155.6514  140.0712  157.2585 H   0  0  0  0  0  0  0  0  0  0  0  0  # atno 8008 bound_to 7997
  154.4161  140.1732  156.1729 H   0  0  0  0  0  0  0  0  0  0  0  0  # atno 8009 bound_to 7997
  155.9773  140.3357  155.6634 H   0  0  0  0  0  0  0  0  0  0  0  0  # atno 8010 bound_to 7997
  139.5510  144.6813  151.4325 H   0  0  0  0  0  0  0  0  0  0  0  0  # atno 10167 bound_to 10162
  156.1182  130.4168  150.0491 H   0  0  0  0  0  0  0  0  0  0  0  0  # atno 10718 bound_to 10713
  154.8706  135.3708  154.4872 H   0  0  0  0  0  0  0  0  0  0  0  0  # atno 10763 bound_to 10752
  153.5521  135.7024  153.5591 H   0  0  0  0  0  0  0  0  0  0  0  0  # atno 10764 bound_to 10752
  153.3705  135.4022  155.1749 H   0  0  0  0  0  0  0  0  0  0  0  0  # atno 10765 bound_to 10752
  141.1117  133.6610  156.4610 H   0  0  0  0  0  0  0  0  0  0  0  0  # atno 11005 bound_to 11000
  145.9562  139.2768  143.1183 LP  0  0  0  0  0  0  0  0  0  0  0  0  # atno 17320 bound_to 7965
  145.9270  140.9075  143.0376 LP  0  0  0  0  0  0  0  0  0  0  0  0  # atno 17321 bound_to 7965
  140.6772  143.8163  150.7074 LP  0  0  0  0  0  0  0  0  0  0  0  0  # atno 17342 bound_to 10162
  140.1605  143.4279  152.2070 LP  0  0  0  0  0  0  0  0  0  0  0  0  # atno 17343 bound_to 10162
  156.8436  130.9434  151.3630 LP  0  0  0  0  0  0  0  0  0  0  0  0  # atno 17370 bound_to 10713
  157.6366  130.8771  149.9370 LP  0  0  0  0  0  0  0  0  0  0  0  0  # atno 17371 bound_to 10713
  140.4756  134.6712  157.5149 LP  0  0  0  0  0  0  0  0  0  0  0  0  # atno 17394 bound_to 11000
  140.0015  134.6829  155.9523 LP  0  0  0  0  0  0  0  0  0  0  0  0  # atno 17395 bound_to 11000

$$$$
