AV-unprocessed.smi:69|AV-procd|sdf|644|dock5
  -GOLD-   2262016543D 1   1.00000     0.00000
 Structure written by MMmdl.
 32 34  0  0  0  0  0  0  0  0  1 V2000
  150.3582  132.7566  155.0891 N   0  0  0  0  0  0  0  0  0  0  0  0
  149.5245  133.8057  155.0799 C   0  0  0  0  0  0  0  0  0  0  0  0
  148.2393  133.6049  154.7037 N   0  0  0  0  0  0  0  0  0  0  0  0
  147.3889  134.6372  154.6852 C   0  0  0  0  0  0  0  0  0  0  0  0
  147.6183  135.9162  154.9977 N   0  0  0  0  0  0  0  0  0  0  0  0
  148.9148  136.1122  155.3779 C   0  0  0  0  0  0  0  0  0  0  0  0
  149.9260  135.1155  155.4445 C   0  0  0  0  0  0  0  0  0  0  0  0
  151.1205  135.6831  155.8675 N   0  0  0  0  0  0  0  0  0  0  0  0
  150.8268  136.9451  156.0376 C   0  0  0  0  0  0  0  0  0  0  0  0
  149.5192  137.2890  155.7617 N   0  0  0  0  0  0  0  0  0  0  0  0
  148.8466  138.6266  155.8498 C   0  0  1  0  0  0  0  0  0  0  0  0
  149.7149  139.5141  156.4896 O   0  0  0  0  0  0  0  0  0  0  0  0
  150.3191  140.3743  155.5296 C   0  0  2  0  0  0  0  0  0  0  0  0
  150.8324  141.6466  156.2201 C   0  0  0  0  0  0  0  0  0  0  0  0
  149.7785  142.2688  156.9235 O   0  0  0  0  0  0  0  0  0  0  0  0
  149.1505  140.6155  154.5745 C   0  0  1  0  0  0  0  0  0  0  0  0
  149.5528  141.1638  153.3328 O   0  0  0  0  0  0  0  0  0  0  0  0
  148.5283  139.2259  154.4580 C   0  0  1  0  0  0  0  0  0  0  0  0
  149.0697  138.4843  153.3740 O   0  0  0  0  0  0  0  0  0  0  0  0
  147.9656  138.4548  156.4695 H   0  0  0  0  0  0  0  0  0  0  0  0
  151.1239  139.8533  155.0069 H   0  0  0  0  0  0  0  0  0  0  0  0
  148.4319  141.2904  155.0423 H   0  0  0  0  0  0  0  0  0  0  0  0
  147.4474  139.2866  154.3270 H   0  0  0  0  0  0  0  0  0  0  0  0
  151.3210  132.8844  155.3656 H   0  0  0  0  0  0  0  0  0  0  0  0
  150.0225  131.8425  154.8217 H   0  0  0  0  0  0  0  0  0  0  0  0
  146.3807  134.4051  154.3754 H   0  0  0  0  0  0  0  0  0  0  0  0
  151.5650  137.6592  156.3722 H   0  0  0  0  0  0  0  0  0  0  0  0
  151.6063  141.3952  156.9460 H   0  0  0  0  0  0  0  0  0  0  0  0
  151.2729  142.3396  155.5026 H   0  0  0  0  0  0  0  0  0  0  0  0
  149.7015  143.1610  156.6217 H   0  0  0  0  0  0  0  0  0  0  0  0
  149.4016  140.5199  152.6579 H   0  0  0  0  0  0  0  0  0  0  0  0
  149.4379  139.0924  152.7511 H   0  0  0  0  0  0  0  0  0  0  0  0
  1  2  1  0  0  0  0
  1 24  1  0  0  0  0
  1 25  1  0  0  0  0
  2  7  1  0  0  0  0
  2  3  2  0  0  0  0
  3  4  1  0  0  0  0
  4  5  2  0  0  0  0
  4 26  1  0  0  0  0
  5  6  1  0  0  0  0
  6 10  1  0  0  0  0
  6  7  2  0  0  0  0
  7  8  1  0  0  0  0
  8  9  2  0  0  0  0
  9 10  1  0  0  0  0
  9 27  1  0  0  0  0
 10 11  1  0  0  0  0
 11 20  1  0  0  0  0
 11 18  1  0  0  0  0
 11 12  1  0  0  0  0
 12 13  1  0  0  0  0
 13 21  1  0  0  0  0
 13 14  1  0  0  0  0
 13 16  1  0  0  0  0
 14 15  1  0  0  0  0
 14 28  1  0  0  0  0
 14 29  1  0  0  0  0
 15 30  1  0  0  0  0
 16 22  1  0  0  0  0
 16 17  1  0  0  0  0
 16 18  1  0  0  0  0
 17 31  1  0  0  0  0
 18 23  1  0  0  0  0
 18 19  1  0  0  0  0
 19 32  1  0  0  0  0
M  END
> <s_m_source_file>
AV-unprocessed.smi

> <i_m_source_file_index>
69

> <i_lp_mmshare_version>
43012

> <i_f3d_flags>
0

> <s_epik_input>
bjFbY0hdbmMoW05IMl0pYyhjMTIpbltjSF1uMltDQEBIXTNPW0NASF0oW0NIMl1bT0hdKVtDQEBIXShbT0hdKVtDQEhdM1tPSF0=

> <s_epik_cmdline>
J2VwaWtfcHl0aG9uJywgJy1waCcsICc3LjAnLCAnLXRuJywgJzgnLCAnLW1hJywgJzIwMCcsICctbWV0YWxfYmluZGluZycsICctaW1hZScsICc8aW5maWxlLm1hZT4nLCAnLW9tYWUnLCAnPG91dGZpbGUubWFlPic=

> <r_lp_tautomer_probability>
1

> <r_epik_Ionization_Penalty>
0.000428445

> <r_epik_Ionization_Penalty_Charging>
0

> <r_epik_Ionization_Penalty_Neutral>
0.000428445

> <r_epik_State_Penalty>
-0

> <r_epik_Charging_Adjusted_Penalty>
0

> <i_epik_Tot_Q>
0

> <i_epik_Tot_abs_Q>
0

> <r_epik_Metal_State_Penalty>
-0

> <b_epik_Metal_Only>
0

> <s_epik_Chemistry_Notes>
This compound contains an acetal/aminal-like group ( X-CH(R)-Y where X, Y are N, S, or O) that may be acid/base labile, releasing an aldehyde.

> <s_lp_Force_Field>
OPLS_2005

> <r_lp_Energy>
41.389

> <b_lp_Chiralities_Consistent>
1

> <s_lp_Variant>
AV-unprocessed.smi:69-2

> <Gold.Version>
5.8.1

> <Gold.Id.Protein>
6NUR|6NUR_protein|mol2

> <Gold.PLP.Fitness>
38.7616

> <Gold.PLP.PLP>
-24.2376

> <Gold.PLP.part.hbond>
-6.4400

> <Gold.PLP.part.metal>
0.0000

> <Gold.PLP.part.buried>
-3.3803

> <Gold.PLP.part.nonpolar>
-14.1910

> <Gold.PLP.part.repulsive>
0.2514

> <Gold.PLP.ligand.clash>
0.0000

> <Gold.PLP.ligand.torsion>
0.2207

> <Gold.PLP.Chemscore.Hbond>
4.9657

> <Gold.PLP.Chemscore.CHOScore>
0.0000

> <Gold.PLP.Chemscore.Metal>
0.0000

> <Gold.Chemscore.Hbonds>
donor molecule, donor type, donor heavy atom, donor atom, acceptor molecule, acceptor atom, score
      L1  H    15    30       P1  8028  1.00
      L1  H    17    31       P1  7957  0.98
      L1  H    19    32       P1  7957  1.00
      P1  H  7989  7998       L1    17  0.11
      P1  H  8011  8017       L1    17  0.80
      P1  H 10752 10764       L1     8  0.70

> <Gold.PLP.Chemscore.Internal.Correction>
0.0682

> <Gold.Rescore>
     Score         DG    S(hbond)    S(metal)    S(lipo)     H(rot)  DE(clash)    DE(int)     intcor
     12.73     -13.25       4.28        0.00      32.20       4.03       0.08       0.44       ----

> <Gold.Chemscore.Fitness>
12.7271

> <Gold.Chemscore.DG>
-13.2454

> <Gold.Chemscore.ZeroCoef>
-5.4800

> <Gold.Chemscore.Hbond>
4.2842

> <Gold.Chemscore.Metal>
0.0000

> <Gold.Chemscore.Lipo>
32.1963

> <Gold.Chemscore.Internal_Hbond>
0.0000

> <Gold.Chemscore.DEClash>
0.0791

> <Gold.Chemscore.DEInternal>
0.4391

> <Gold.Chemscore.Rot>
4.0277

> <Gold.Chemscore.Internal.Correction>
   9.000000E+99

> <Gold.Chemscore.Hbonds>
donor molecule, donor type, donor heavy atom, donor atom, acceptor molecule, acceptor atom, score
      L1  H    15    30       P1  8028  0.95
      L1  H    17    31       P1  7957  0.91
      L1  H    19    32       P1  7957  0.98
      P1  H  7989  7998       L1    17  0.01
      P1  H  8011  8017       L1    17  0.11
      P1  H 10752 10764       L1     8  0.53

> <Gold.Chemscore.Hbond.Weighted>
-14.3094

> <Gold.Chemscore.Metal.Weighted>
-0.0000

> <Gold.Chemscore.Lipo.Weighted>
-3.7670

> <Gold.Chemscore.Internal_Hbond.Weighted>
0.0000

> <Gold.Chemscore.DEClash.Weighted>
0.0791

> <Gold.Chemscore.DEInternal.Weighted>
0.4391

> <Gold.Chemscore.Rot.Weighted>
10.3110

> <Gold.Chemscore.Internal.Correction.Weighted>
   9.000000E+99

> <Gold.Protein.RotatedTorsions>
[ 6907 6896 6895 6894 ] final  -15.40 input  -60.11 | X-H torsion
[ 7974 7965 7964 7962 ] final  -55.01 input  175.53 | X-H torsion
[ 8008 7997 7996 7995 ] final -163.13 input   59.86 | X-H torsion
[ 10167 10162 10161 10158 ] final  167.87 input  -65.29 | X-H torsion
[ 10718 10713 10712 10709 ] final  -91.62 input   66.30 | X-H torsion
[ 10763 10752 10751 10750 ] final  -45.06 input  -60.55 | X-H torsion
[ 11005 11000 10999 10996 ] final -104.94 input  -57.11 | X-H torsion

> <Gold.Protein.ActiveResidues>
 VAL166  LYS551  ARG553  GLY616  TRP617  ASP618  TYR619  PRO620  LYS621  CYS622 
 ASP623  PHE694  ASN695  SER759  ASP760  ASP761  ALA762  ILE779  LEU786  VAL792 
 PHE793  MET794  SER795  GLU796  ALA797  LYS798  CYS799  TRP800  GLU811  SER814 

> <Gold.Protein.RotatedAtoms>
  151.3245  135.0827  159.9317 H   0  0  0  0  0  0  0  0  0  0  0  0  # atno 6907 bound_to 6896
  152.5249  133.9605  159.7725 H   0  0  0  0  0  0  0  0  0  0  0  0  # atno 6908 bound_to 6896
  150.9932  133.6076  159.2735 H   0  0  0  0  0  0  0  0  0  0  0  0  # atno 6909 bound_to 6896
  145.8791  140.8158  142.9849 H   0  0  0  0  0  0  0  0  0  0  0  0  # atno 7974 bound_to 7965
  155.8168  140.0913  157.1872 H   0  0  0  0  0  0  0  0  0  0  0  0  # atno 8008 bound_to 7997
  154.3979  140.1444  156.3512 H   0  0  0  0  0  0  0  0  0  0  0  0  # atno 8009 bound_to 7997
  155.8308  140.3443  155.5573 H   0  0  0  0  0  0  0  0  0  0  0  0  # atno 8010 bound_to 7997
  139.4955  144.3875  151.9554 H   0  0  0  0  0  0  0  0  0  0  0  0  # atno 10167 bound_to 10162
  155.9995  130.4955  150.5502 H   0  0  0  0  0  0  0  0  0  0  0  0  # atno 10718 bound_to 10713
  154.0224  135.6667  153.4773 H   0  0  0  0  0  0  0  0  0  0  0  0  # atno 10763 bound_to 10752
  153.0575  135.5047  154.8011 H   0  0  0  0  0  0  0  0  0  0  0  0  # atno 10764 bound_to 10752
  154.6929  135.3064  154.9418 H   0  0  0  0  0  0  0  0  0  0  0  0  # atno 10765 bound_to 10752
  141.1077  133.8765  157.1673 H   0  0  0  0  0  0  0  0  0  0  0  0  # atno 11005 bound_to 11000
  144.6727  140.1356  143.7440 LP  0  0  0  0  0  0  0  0  0  0  0  0  # atno 17320 bound_to 7965
  145.9045  139.2450  143.1474 LP  0  0  0  0  0  0  0  0  0  0  0  0  # atno 17321 bound_to 7965
  140.3312  144.3314  150.5987 LP  0  0  0  0  0  0  0  0  0  0  0  0  # atno 17342 bound_to 10162
  140.5643  143.2188  151.7711 LP  0  0  0  0  0  0  0  0  0  0  0  0  # atno 17343 bound_to 10162
  157.3426  131.0719  151.1776 LP  0  0  0  0  0  0  0  0  0  0  0  0  # atno 17370 bound_to 10713
  157.2619  130.6663  149.5979 LP  0  0  0  0  0  0  0  0  0  0  0  0  # atno 17371 bound_to 10713
  139.9955  135.0048  157.0072 LP  0  0  0  0  0  0  0  0  0  0  0  0  # atno 17394 bound_to 11000
  140.4859  134.1242  155.7224 LP  0  0  0  0  0  0  0  0  0  0  0  0  # atno 17395 bound_to 11000

$$$$
