#       Name:                AV-unprocessed.smi:826
#       Creating user name   scv26
#       Creation time:       Fri Mar 27 01:30:16 2020


#       File generated by GOLD software.
#

@<TRIPOS>MOLECULE
AV-unprocessed.smi:826
    45    46     1
SMALL
NO_CHARGES


@<TRIPOS>ATOM
      1 ****        -6.9624   2.2867   1.7976 C.3            1 S1                 0.0000
      2 ****        -5.5174   1.9323   1.7116 C.2            1 S1                 0.0000
      3 ****        -4.6954   2.4791   0.8080 N.2            1 S1                 0.0000
      4 ****        -3.3991   1.9951   0.9152 N.2            1 S1                 0.0000
      5 ****        -3.2817   1.0942   1.9005 C.2            1 S1                 0.0000
      6 ****        -2.0678   0.4323   2.2239 N.am           1 S1                 0.0000
      7 ****        -0.8632   0.5731   1.6438 C.2            1 S1                 0.0000
      8 ****        -0.5977   1.3594   0.7339 O.2            1 S1                 0.0000
      9 ****         0.0371  -0.2640   2.1821 N.am           1 S1                 0.0000
     10 ****         1.4282  -0.3928   1.7501 C.3            1 S1                 0.0000
     11 ****         2.2080  -1.1284   2.8525 C.3            1 S1                 0.0000
     12 ****         1.5130  -1.2193   0.4570 C.2            1 S1                 0.0000
     13 ****         0.8821  -2.2716   0.3441 O.2            1 S1                 0.0000
     14 ****         2.3013  -0.7262  -0.5098 N.am           1 S1                 0.0000
     15 ****         2.4976  -1.3316  -1.8238 C.3            1 S1                 0.0000
     16 ****         3.7718  -0.7835  -2.4947 C.3            1 S1                 0.0000
     17 ****         3.3681  -0.3949  -3.9180 C.3            1 S1                 0.0000
     18 ****         1.8976  -0.0086  -3.8003 C.3            1 S1                 0.0000
     19 ****         1.3333  -0.9956  -2.7782 C.3            1 S1                 0.0000
     20 ****        -4.7603   0.7626   2.7866 S.3            1 S1                 0.0000
     21 ****        -7.0766   3.3602   1.9505 H              1 S1                 0.0000
     22 ****        -7.4337   1.7632   2.6295 H              1 S1                 0.0000
     23 ****        -7.4715   2.0065   0.8751 H              1 S1                 0.0000
     24 ****        -2.1290  -0.2435   2.9711 H              1 S1                 0.0000
     25 ****        -0.2658  -0.8787   2.9232 H              1 S1                 0.0000
     26 ****         1.8607   0.5982   1.5973 H              1 S1                 0.0000
     27 ****         3.2567  -1.2520   2.5792 H              1 S1                 0.0000
     28 ****         1.7968  -2.1196   3.0504 H              1 S1                 0.0000
     29 ****         2.1811  -0.5685   3.7879 H              1 S1                 0.0000
     30 ****         2.7810   0.1443  -0.3320 H              1 S1                 0.0000
     31 ****         2.5811  -2.4149  -1.7187 H              1 S1                 0.0000
     32 ****         4.1294   0.1059  -1.9735 H              1 S1                 0.0000
     33 ****         4.5857  -1.5089  -2.4864 H              1 S1                 0.0000
     34 ****         3.9832   0.4082  -4.3247 H              1 S1                 0.0000
     35 ****         3.4677  -1.2579  -4.5774 H              1 S1                 0.0000
     36 ****         1.8143   1.0080  -3.4139 H              1 S1                 0.0000
     37 ****         1.3742  -0.0470  -4.7559 H              1 S1                 0.0000
     38 ****         1.0185  -1.9046  -3.2923 H              1 S1                 0.0000
     39 ****         0.4536  -0.5964  -2.2709 H              1 S1                 0.0000
     40 ****        -4.9824   3.1586   0.1328 LP             1 S1                 0.0000
     41 ****        -2.6432   2.2839   0.3276 LP             1 S1                 0.0000
     42 ****        -1.3090   1.9599   0.3685 LP             1 S1                 0.0000
     43 ****         0.3291   1.3973   0.3604 LP             1 S1                 0.0000
     44 ****         0.3090  -2.5943   1.0974 LP             1 S1                 0.0000
     45 ****         0.9431  -2.8030  -0.5008 LP             1 S1                 0.0000
@<TRIPOS>BOND
    1    1    2 1     
    2    1   21 1     
    3    1   22 1     
    4    1   23 1     
    5    2   20 1     
    6    2    3 2     
    7    3    4 1     
    8    4    5 2     
    9    5    6 1     
   10    5   20 1     
   11    6    7 am    
   12    6   24 1     
   13    7    8 2     
   14    7    9 am    
   15    9   10 1     
   16    9   25 1     
   17   10   11 1     
   18   10   12 1     
   19   10   26 1     
   20   11   27 1     
   21   11   28 1     
   22   11   29 1     
   23   12   13 2     
   24   12   14 am    
   25   14   15 1     
   26   14   30 1     
   27   15   19 1     
   28   15   16 1     
   29   15   31 1     
   30   16   17 1     
   31   16   32 1     
   32   16   33 1     
   33   17   18 1     
   34   17   34 1     
   35   17   35 1     
   36   18   19 1     
   37   18   36 1     
   38   18   37 1     
   39   19   38 1     
   40   19   39 1     
   41    3   40 1     
   42    4   41 1     
   43    8   42 1     
   44    8   43 1     
   45   13   44 1     
   46   13   45 1     
@<TRIPOS>SUBSTRUCTURE
      1 S1             1
@<TRIPOS>SET
LONE_PAIRS      STATIC     ATOMS    <user>   **** ""
6 40 41 42 43 44 45
DONOR_HYDROGENS      STATIC     ATOMS    <user>   **** ""
3 24 25 30
ATOM$BLUE        STATIC     ATOMS    COLORGROUP SYSTEM
6 40 41 42 43 44 45
ATOM$RED        STATIC     ATOMS    COLORGROUP SYSTEM
3 24 25 30
