AV-unprocessed.smi:1280|AV-procd|sdf|5357|dock2
  -GOLD-   22720 4493D 1   1.00000     0.00000
 Structure written by MMmdl.
 45 46  0  0  0  0  0  0  0  0  1 V2000
  156.6438  136.0778  158.4938 C   0  0  0  0  0  0  0  0  0  0  0  0
  154.8154  136.2394  158.4071 S   0  0  0  0  0  0  0  0  0  0  0  0
  154.4321  136.4506  157.0029 O   0  0  0  0  0  0  0  0  0  0  0  0
  154.2007  135.1545  159.1871 O   0  0  0  0  0  0  0  0  0  0  0  0
  154.5311  137.7122  159.2561 N   0  0  0  0  0  0  0  0  0  0  0  0
  154.8323  137.7445  160.6855 C   0  0  0  0  0  0  0  0  0  0  0  0
  154.1125  138.9216  161.3550 C   0  0  0  0  0  0  0  0  0  0  0  0
  154.8588  140.2499  161.1550 C   0  0  0  0  0  0  0  0  0  0  0  0
  153.9838  141.2782  160.6074 N   0  0  0  0  0  0  0  0  0  0  0  0
  153.4081  141.2392  159.3946 C   0  0  0  0  0  0  0  0  0  0  0  0
  153.5217  140.2889  158.6203 O   0  0  0  0  0  0  0  0  0  0  0  0
  152.5333  142.4137  159.0414 C   0  0  0  0  0  0  0  0  0  0  0  0
  152.6848  143.6100  159.7779 C   0  0  0  0  0  0  0  0  0  0  0  0
  151.8887  144.7258  159.4657 C   0  0  0  0  0  0  0  0  0  0  0  0
  150.9553  144.6044  158.4227 C   0  0  0  0  0  0  0  0  0  0  0  0
  150.7803  143.4674  157.7202 N   0  0  0  0  0  0  0  0  0  0  0  0
  151.5369  142.3817  158.0178 C   0  0  0  0  0  0  0  0  0  0  0  0
  151.2557  141.2076  157.2901 N   0  0  0  0  0  0  0  0  0  0  0  0
  150.7908  140.0960  158.1106 C   0  0  0  0  0  0  0  0  0  0  0  0
  150.8076  138.7977  157.2858 C   0  0  0  0  0  0  0  0  0  0  0  0
  150.0315  138.9703  156.1028 O   0  0  0  0  0  0  0  0  0  0  0  0
  150.5384  140.0129  155.2737 C   0  0  0  0  0  0  0  0  0  0  0  0
  150.5100  141.3444  156.0435 C   0  0  0  0  0  0  0  0  0  0  0  0
  156.9506  135.1662  157.9815 H   0  0  0  0  0  0  0  0  0  0  0  0
  156.9586  136.0304  159.5358 H   0  0  0  0  0  0  0  0  0  0  0  0
  157.1087  136.9373  158.0112 H   0  0  0  0  0  0  0  0  0  0  0  0
  154.9757  138.4951  158.7771 H   0  0  0  0  0  0  0  0  0  0  0  0
  154.5264  136.8004  161.1377 H   0  0  0  0  0  0  0  0  0  0  0  0
  155.9108  137.8360  160.8196 H   0  0  0  0  0  0  0  0  0  0  0  0
  153.1028  139.0040  160.9501 H   0  0  0  0  0  0  0  0  0  0  0  0
  154.0032  138.7235  162.4222 H   0  0  0  0  0  0  0  0  0  0  0  0
  155.2422  140.6088  162.1105 H   0  0  0  0  0  0  0  0  0  0  0  0
  155.7252  140.1101  160.5062 H   0  0  0  0  0  0  0  0  0  0  0  0
  153.8158  142.0899  161.1842 H   0  0  0  0  0  0  0  0  0  0  0  0
  153.4145  143.6821  160.5717 H   0  0  0  0  0  0  0  0  0  0  0  0
  151.9941  145.6525  160.0101 H   0  0  0  0  0  0  0  0  0  0  0  0
  150.3273  145.4396  158.1495 H   0  0  0  0  0  0  0  0  0  0  0  0
  151.4132  139.9806  158.9982 H   0  0  0  0  0  0  0  0  0  0  0  0
  149.7780  140.3071  158.4568 H   0  0  0  0  0  0  0  0  0  0  0  0
  151.8297  138.5177  157.0251 H   0  0  0  0  0  0  0  0  0  0  0  0
  150.3906  137.9763  157.8688 H   0  0  0  0  0  0  0  0  0  0  0  0
  151.5524  139.7727  154.9496 H   0  0  0  0  0  0  0  0  0  0  0  0
  149.9244  140.0842  154.3759 H   0  0  0  0  0  0  0  0  0  0  0  0
  149.4777  141.6237  156.2596 H   0  0  0  0  0  0  0  0  0  0  0  0
  150.9436  142.1393  155.4354 H   0  0  0  0  0  0  0  0  0  0  0  0
  1  2  1  0  0  0  0
  1 24  1  0  0  0  0
  1 25  1  0  0  0  0
  1 26  1  0  0  0  0
  2  3  2  0  0  0  0
  2  4  2  0  0  0  0
  2  5  1  0  0  0  0
  5  6  1  0  0  0  0
  5 27  1  0  0  0  0
  6  7  1  0  0  0  0
  6 28  1  0  0  0  0
  6 29  1  0  0  0  0
  7  8  1  0  0  0  0
  7 30  1  0  0  0  0
  7 31  1  0  0  0  0
  8  9  1  0  0  0  0
  8 32  1  0  0  0  0
  8 33  1  0  0  0  0
  9 10  1  0  0  0  0
  9 34  1  0  0  0  0
 10 11  2  0  0  0  0
 10 12  1  0  0  0  0
 12 17  1  0  0  0  0
 12 13  2  0  0  0  0
 13 14  1  0  0  0  0
 13 35  1  0  0  0  0
 14 15  2  0  0  0  0
 14 36  1  0  0  0  0
 15 16  1  0  0  0  0
 15 37  1  0  0  0  0
 16 17  2  0  0  0  0
 17 18  1  0  0  0  0
 18 23  1  0  0  0  0
 18 19  1  0  0  0  0
 19 20  1  0  0  0  0
 19 38  1  0  0  0  0
 19 39  1  0  0  0  0
 20 21  1  0  0  0  0
 20 40  1  0  0  0  0
 20 41  1  0  0  0  0
 21 22  1  0  0  0  0
 22 23  1  0  0  0  0
 22 42  1  0  0  0  0
 22 43  1  0  0  0  0
 23 44  1  0  0  0  0
 23 45  1  0  0  0  0
M  END
> <s_m_source_file>
AV-unprocessed.smi

> <i_m_source_file_index>
1280

> <i_lp_mmshare_version>
43012

> <i_f3d_flags>
0

> <s_epik_input>
W0NIM11TKD1PKSg9TylbTkhdW0NIMl1bQ0gyXVtDSDJdW05IXUMoPU8pYzFbY0hdW2NIXVtjSF1uYzFOMltDSDJdW0NIMl1PW0NIMl1bQ0gyXTI=

> <s_epik_cmdline>
J2VwaWtfcHl0aG9uJywgJy1waCcsICc3LjAnLCAnLXRuJywgJzgnLCAnLW1hJywgJzIwMCcsICctbWV0YWxfYmluZGluZycsICctaW1hZScsICc8aW5maWxlLm1hZT4nLCAnLW9tYWUnLCAnPG91dGZpbGUubWFlPic=

> <r_lp_tautomer_probability>
1

> <r_epik_Ionization_Penalty>
2.29251e-05

> <r_epik_Ionization_Penalty_Charging>
0

> <r_epik_Ionization_Penalty_Neutral>
2.29251e-05

> <r_epik_State_Penalty>
-0

> <r_epik_Charging_Adjusted_Penalty>
0

> <i_epik_Tot_Q>
0

> <i_epik_Tot_abs_Q>
0

> <r_epik_Metal_State_Penalty>
0.00766126

> <b_epik_Metal_Only>
0

> <s_lp_Force_Field>
OPLS_2005

> <r_lp_Energy>
17.2463

> <b_lp_Chiralities_Consistent>
1

> <s_lp_Variant>
AV-unprocessed.smi:1280-1

> <Gold.Version>
5.8.1

> <Gold.Id.Protein>
6NUR|6NUR_protein|mol2

> <Gold.PLP.Fitness>
45.1765

> <Gold.PLP.PLP>
-35.7631

> <Gold.PLP.part.hbond>
-3.0000

> <Gold.PLP.part.metal>
0.0000

> <Gold.PLP.part.buried>
-5.1446

> <Gold.PLP.part.nonpolar>
-28.8679

> <Gold.PLP.part.repulsive>
0.7490

> <Gold.PLP.ligand.clash>
0.0000

> <Gold.PLP.ligand.torsion>
1.0097

> <Gold.PLP.Chemscore.Hbond>
2.9280

> <Gold.PLP.Chemscore.CHOScore>
0.6549

> <Gold.PLP.Chemscore.Metal>
0.0000

> <Gold.Chemscore.Hbonds>
donor molecule, donor type, donor heavy atom, donor atom, acceptor molecule, acceptor atom, score
      P1  H  6896  6909       L1     4  1.00
      P1  H  7997  8010       L1    11  0.90
      P1  H 10752 10763       L1     3  1.00
      L1  C    15    37       P1  8028  0.01
      L1  C    15    37       P1  8029  0.73

> <Gold.PLP.Chemscore.Internal.Correction>
0.6840

> <Gold.Rescore>
     Score         DG    S(hbond)    S(metal)    S(lipo)     H(rot)  DE(clash)    DE(int)     intcor
     15.98     -18.98       2.94        0.00      87.92       2.58       0.02       2.97       ----

> <Gold.Chemscore.Fitness>
15.9845

> <Gold.Chemscore.DG>
-18.9793

> <Gold.Chemscore.ZeroCoef>
-5.4800

> <Gold.Chemscore.Hbond>
2.9422

> <Gold.Chemscore.Metal>
0.0000

> <Gold.Chemscore.Lipo>
87.9157

> <Gold.Chemscore.Internal_Hbond>
0.0000

> <Gold.Chemscore.DEClash>
0.0234

> <Gold.Chemscore.DEInternal>
2.9714

> <Gold.Chemscore.Rot>
2.5835

> <Gold.Chemscore.Internal.Correction>
   9.000000E+99

> <Gold.Chemscore.Hbonds>
donor molecule, donor type, donor heavy atom, donor atom, acceptor molecule, acceptor atom, score
      P1  H  6896  6909       L1     4  0.95
      P1  H  7997  8010       L1    11  0.88
      P1  H 10752 10763       L1     3  0.93

> <Gold.Chemscore.Hbond.Weighted>
-9.8269

> <Gold.Chemscore.Metal.Weighted>
-0.0000

> <Gold.Chemscore.Lipo.Weighted>
-10.2861

> <Gold.Chemscore.Internal_Hbond.Weighted>
0.0000

> <Gold.Chemscore.DEClash.Weighted>
0.0234

> <Gold.Chemscore.DEInternal.Weighted>
2.9714

> <Gold.Chemscore.Rot.Weighted>
6.6137

> <Gold.Chemscore.Internal.Correction.Weighted>
   9.000000E+99

> <Gold.Protein.RotatedTorsions>
[ 6907 6896 6895 6894 ] final -151.25 input  -60.11 | X-H torsion
[ 7974 7965 7964 7962 ] final -168.71 input  175.53 | X-H torsion
[ 8008 7997 7996 7995 ] final   25.87 input   59.86 | X-H torsion
[ 10167 10162 10161 10158 ] final   49.87 input  -65.29 | X-H torsion
[ 10718 10713 10712 10709 ] final  -92.78 input   66.30 | X-H torsion
[ 10763 10752 10751 10750 ] final  146.91 input  -60.55 | X-H torsion
[ 11005 11000 10999 10996 ] final   64.73 input  -57.11 | X-H torsion

> <Gold.Protein.ActiveResidues>
 VAL166  LYS551  ARG553  GLY616  TRP617  ASP618  TYR619  PRO620  LYS621  CYS622 
 ASP623  PHE694  ASN695  SER759  ASP760  ASP761  ALA762  ILE779  LEU786  VAL792 
 PHE793  MET794  SER795  GLU796  ALA797  LYS798  CYS799  TRP800  GLU811  SER814 

> <Gold.Protein.RotatedAtoms>
  151.2104  133.4559  159.2597 H   0  0  0  0  0  0  0  0  0  0  0  0  # atno 6907 bound_to 6896
  151.0982  134.9956  159.8446 H   0  0  0  0  0  0  0  0  0  0  0  0  # atno 6908 bound_to 6896
  152.5441  134.2033  159.8774 H   0  0  0  0  0  0  0  0  0  0  0  0  # atno 6909 bound_to 6896
  144.7198  140.2329  143.6302 H   0  0  0  0  0  0  0  0  0  0  0  0  # atno 7974 bound_to 7965
  155.0185  140.3145  155.4802 H   0  0  0  0  0  0  0  0  0  0  0  0  # atno 8008 bound_to 7997
  156.2896  140.2202  156.5244 H   0  0  0  0  0  0  0  0  0  0  0  0  # atno 8009 bound_to 7997
  154.7473  140.0469  157.0851 H   0  0  0  0  0  0  0  0  0  0  0  0  # atno 8010 bound_to 7997
  140.2784  144.3185  150.6271 H   0  0  0  0  0  0  0  0  0  0  0  0  # atno 10167 bound_to 10162
  156.0006  130.5001  150.5678 H   0  0  0  0  0  0  0  0  0  0  0  0  # atno 10718 bound_to 10713
  154.0296  135.2899  155.3370 H   0  0  0  0  0  0  0  0  0  0  0  0  # atno 10763 bound_to 10752
  154.6996  135.5194  153.8511 H   0  0  0  0  0  0  0  0  0  0  0  0  # atno 10764 bound_to 10752
  153.0646  135.6626  154.0510 H   0  0  0  0  0  0  0  0  0  0  0  0  # atno 10765 bound_to 10752
  139.9939  134.6547  156.0043 H   0  0  0  0  0  0  0  0  0  0  0  0  # atno 11005 bound_to 11000
  145.8393  139.2122  143.1837 LP  0  0  0  0  0  0  0  0  0  0  0  0  # atno 17320 bound_to 7965
  146.0361  140.8211  142.9852 LP  0  0  0  0  0  0  0  0  0  0  0  0  # atno 17321 bound_to 7965
  140.5832  143.2171  151.7389 LP  0  0  0  0  0  0  0  0  0  0  0  0  # atno 17342 bound_to 10162
  139.4969  144.4049  152.0142 LP  0  0  0  0  0  0  0  0  0  0  0  0  # atno 17343 bound_to 10162
  157.3577  131.0744  151.1662 LP  0  0  0  0  0  0  0  0  0  0  0  0  # atno 17370 bound_to 10713
  157.2457  130.6590  149.5909 LP  0  0  0  0  0  0  0  0  0  0  0  0  # atno 17371 bound_to 10713
  141.1589  133.6540  156.4252 LP  0  0  0  0  0  0  0  0  0  0  0  0  # atno 17394 bound_to 11000
  140.4855  134.6625  157.5189 LP  0  0  0  0  0  0  0  0  0  0  0  0  # atno 17395 bound_to 11000

$$$$
