AV-unprocessed.smi:2310|AV-procd|sdf|9260|dock7
  -GOLD-   2272012483D 1   1.00000     0.00000
 Structure written by MMmdl.
 45 46  0  0  0  0  0  0  0  0  3 V2000
  153.2709  131.2759  158.9175 C   0  0  0  0  0  0  0  0  0  0  0  0
  153.4510  132.3812  157.8588 C   0  0  0  0  0  0  0  0  0  0  0  0
  152.4366  132.3384  156.6936 C   0  0  1  0  0  0  0  0  0  0  0  0
  152.6160  131.0834  155.8156 C   0  0  0  0  0  0  0  0  0  0  0  0
  153.8082  131.0920  154.9483 C   0  0  0  0  0  0  0  0  0  0  0  0
  154.7479  131.0989  154.2707 N   0  0  0  0  0  0  0  0  0  0  0  0
  151.0702  132.3708  157.2276 N   0  5  0  0  0  0  0  0  0  0  0  0
  149.9784  132.8139  156.5490 C   0  0  0  0  0  0  0  0  0  0  0  0
  149.0301  133.4728  156.9911 O   0  0  0  0  0  0  0  0  0  0  0  0
  150.0228  132.4803  155.2475 N   0  0  0  0  0  0  0  0  0  0  0  0
  149.0680  132.7493  154.2296 C   0  0  0  0  0  0  0  0  0  0  0  0
  148.2344  133.8935  154.2470 C   0  0  0  0  0  0  0  0  0  0  0  0
  147.2890  134.0842  153.2197 C   0  0  0  0  0  0  0  0  0  0  0  0
  147.1716  133.1235  152.1885 C   0  0  0  0  0  0  0  0  0  0  0  0
  146.2553  133.2484  151.1272 N   0  0  0  0  0  0  0  0  0  0  0  0
  145.7541  132.0857  150.4057 C   0  0  0  0  0  0  0  0  0  0  0  0
  144.3702  132.4901  149.8851 C   0  0  0  0  0  0  0  0  0  0  0  0
  144.4073  134.0184  149.8766 C   0  0  0  0  0  0  0  0  0  0  0  0
  145.3109  134.3512  151.0630 C   0  0  0  0  0  0  0  0  0  0  0  0
  147.9806  132.0383  152.2210 N   0  3  0  0  0  0  0  0  0  0  0  0
  148.9018  131.8117  153.1840 C   0  0  0  0  0  0  0  0  0  0  0  0
  149.7287  130.5435  153.0792 C   0  0  0  0  0  0  0  0  0  0  0  0
  154.0038  131.3962  159.7154 H   0  0  0  0  0  0  0  0  0  0  0  0
  153.4149  130.2779  158.4997 H   0  0  0  0  0  0  0  0  0  0  0  0
  152.2834  131.3078  159.3812 H   0  0  0  0  0  0  0  0  0  0  0  0
  153.3615  133.3449  158.3611 H   0  0  0  0  0  0  0  0  0  0  0  0
  154.4697  132.3431  157.4705 H   0  0  0  0  0  0  0  0  0  0  0  0
  152.6340  133.2033  156.0580 H   0  0  0  0  0  0  0  0  0  0  0  0
  152.6560  130.1851  156.4325 H   0  0  0  0  0  0  0  0  0  0  0  0
  151.7517  130.9705  155.1611 H   0  0  0  0  0  0  0  0  0  0  0  0
  150.8827  132.0498  154.9402 H   0  0  0  0  0  0  0  0  0  0  0  0
  148.2971  134.6217  155.0417 H   0  0  0  0  0  0  0  0  0  0  0  0
  146.6641  134.9643  153.2415 H   0  0  0  0  0  0  0  0  0  0  0  0
  146.4300  131.8675  149.5784 H   0  0  0  0  0  0  0  0  0  0  0  0
  145.6890  131.1989  151.0375 H   0  0  0  0  0  0  0  0  0  0  0  0
  144.1441  132.0641  148.9073 H   0  0  0  0  0  0  0  0  0  0  0  0
  143.6040  132.1496  150.5826 H   0  0  0  0  0  0  0  0  0  0  0  0
  144.8666  134.3704  148.9517 H   0  0  0  0  0  0  0  0  0  0  0  0
  143.4186  134.4707  149.9565 H   0  0  0  0  0  0  0  0  0  0  0  0
  144.7338  134.3909  151.9878 H   0  0  0  0  0  0  0  0  0  0  0  0
  145.8158  135.3078  150.9259 H   0  0  0  0  0  0  0  0  0  0  0  0
  149.5651  129.9112  153.9521 H   0  0  0  0  0  0  0  0  0  0  0  0
  150.7901  130.7869  153.0257 H   0  0  0  0  0  0  0  0  0  0  0  0
  149.4683  129.9694  152.1893 H   0  0  0  0  0  0  0  0  0  0  0  0
  147.8908  131.3490  151.4748 H   0  0  0  0  0  0  0  0  0  0  0  0
  1  2  1  0  0  0  0
  1 23  1  0  0  0  0
  1 24  1  0  0  0  0
  1 25  1  0  0  0  0
  2  3  1  0  0  0  0
  2 26  1  0  0  0  0
  2 27  1  0  0  0  0
  3  4  1  0  0  0  0
  3  7  1  0  0  0  0
  3 28  1  0  0  0  0
  4  5  1  0  0  0  0
  4 29  1  0  0  0  0
  4 30  1  0  0  0  0
  5  6  3  0  0  0  0
  7  8  1  0  0  0  0
  8  9  2  0  0  0  0
  8 10  1  0  0  0  0
 10 11  1  0  0  0  0
 10 31  1  0  0  0  0
 11 21  1  0  0  0  0
 11 12  2  0  0  0  0
 12 13  1  0  0  0  0
 12 32  1  0  0  0  0
 13 14  2  0  0  0  0
 13 33  1  0  0  0  0
 14 15  1  0  0  0  0
 14 20  1  0  0  0  0
 15 19  1  0  0  0  0
 15 16  1  0  0  0  0
 16 17  1  0  0  0  0
 16 34  1  0  0  0  0
 16 35  1  0  0  0  0
 17 18  1  0  0  0  0
 17 36  1  0  0  0  0
 17 37  1  0  0  0  0
 18 19  1  0  0  0  0
 18 38  1  0  0  0  0
 18 39  1  0  0  0  0
 19 40  1  0  0  0  0
 19 41  1  0  0  0  0
 20 21  2  0  0  0  0
 20 45  1  0  0  0  0
 21 22  1  0  0  0  0
 22 42  1  0  0  0  0
 22 43  1  0  0  0  0
 22 44  1  0  0  0  0
M  CHG  1   7  -1
M  CHG  1  20   1
M  END
> <s_m_source_file>
AV-unprocessed.smi

> <i_m_source_file_index>
2310

> <i_lp_mmshare_version>
43012

> <i_f3d_flags>
0

> <s_epik_input>
TiNDW0NIMl1bQ0BASF0oW0NIMl1bQ0gzXSlbTkhdQyg9TylbTkhdYzFbY0hdW2NIXWMobmMxW0NIM10pTjJbQ0gyXVtDSDJdW0NIMl1bQ0gyXTI=

> <s_epik_cmdline>
J2VwaWtfcHl0aG9uJywgJy1waCcsICc3LjAnLCAnLXRuJywgJzgnLCAnLW1hJywgJzIwMCcsICctbWV0YWxfYmluZGluZycsICctaW1hZScsICc8aW5maWxlLm1hZT4nLCAnLW9tYWUnLCAnPG91dGZpbGUubWFlPic=

> <r_lp_tautomer_probability>
0.999994

> <r_epik_Ionization_Penalty>
7.34515

> <r_epik_Ionization_Penalty_Charging>
7.34514

> <r_epik_Ionization_Penalty_Neutral>
2.56118e-06

> <r_epik_State_Penalty>
6.99243

> <r_epik_Charging_Adjusted_Penalty>
14.3376

> <i_epik_Tot_Q>
0

> <i_epik_Tot_abs_Q>
2

> <r_epik_Metal_State_Penalty>
3.10684

> <b_epik_Metal_Only>
1

> <s_lp_Force_Field>
OPLS_2005

> <r_lp_Energy>
34.805

> <b_lp_Chiralities_Consistent>
1

> <s_lp_Variant>
AV-unprocessed.smi:2310-6

> <Gold.Version>
5.8.1

> <Gold.Id.Protein>
6NUR|6NUR_protein|mol2

> <Gold.PLP.Fitness>
41.7666

> <Gold.PLP.PLP>
-37.6356

> <Gold.PLP.part.hbond>
-2.0347

> <Gold.PLP.part.metal>
0.0000

> <Gold.PLP.part.buried>
-4.5737

> <Gold.PLP.part.nonpolar>
-29.9842

> <Gold.PLP.part.repulsive>
0.0466

> <Gold.PLP.ligand.clash>
0.0083

> <Gold.PLP.ligand.torsion>
1.0645

> <Gold.PLP.Chemscore.Hbond>
2.0010

> <Gold.PLP.Chemscore.CHOScore>
0.0000

> <Gold.PLP.Chemscore.Metal>
0.0000

> <Gold.Chemscore.Hbonds>
donor molecule, donor type, donor heavy atom, donor atom, acceptor molecule, acceptor atom, score
      L1  H    20    45       P1 10747  0.62
      P1  H  6896  6907       L1     7  0.25

> <Gold.PLP.Chemscore.Internal.Correction>
0.2652

> <Gold.Rescore>
     Score         DG    S(hbond)    S(metal)    S(lipo)     H(rot)  DE(clash)    DE(int)     intcor
     11.11     -13.53       0.85        0.00      76.16       1.45       0.20       2.22       ----

> <Gold.Chemscore.Fitness>
11.1129

> <Gold.Chemscore.DG>
-13.5339

> <Gold.Chemscore.ZeroCoef>
-5.4800

> <Gold.Chemscore.Hbond>
0.8543

> <Gold.Chemscore.Metal>
0.0000

> <Gold.Chemscore.Lipo>
76.1569

> <Gold.Chemscore.Internal_Hbond>
0.0000

> <Gold.Chemscore.DEClash>
0.1969

> <Gold.Chemscore.DEInternal>
2.2241

> <Gold.Chemscore.Rot>
1.4492

> <Gold.Chemscore.Internal.Correction>
   9.000000E+99

> <Gold.Chemscore.Hbonds>
donor molecule, donor type, donor heavy atom, donor atom, acceptor molecule, acceptor atom, score
      L1  H    20    45       P1 10747  0.62
      P1  H  6896  6907       L1     7  0.01

> <Gold.Chemscore.Hbond.Weighted>
-2.8535

> <Gold.Chemscore.Metal.Weighted>
-0.0000

> <Gold.Chemscore.Lipo.Weighted>
-8.9104

> <Gold.Chemscore.Internal_Hbond.Weighted>
0.0000

> <Gold.Chemscore.DEClash.Weighted>
0.1969

> <Gold.Chemscore.DEInternal.Weighted>
2.2241

> <Gold.Chemscore.Rot.Weighted>
3.7100

> <Gold.Chemscore.Internal.Correction.Weighted>
   9.000000E+99

> <Gold.Protein.RotatedTorsions>
[ 6907 6896 6895 6894 ] final  174.90 input  -60.11 | X-H torsion
[ 7974 7965 7964 7962 ] final   -5.70 input  175.53 | X-H torsion
[ 8008 7997 7996 7995 ] final   62.19 input   59.86 | X-H torsion
[ 10167 10162 10161 10158 ] final  168.44 input  -65.29 | X-H torsion
[ 10718 10713 10712 10709 ] final  135.19 input   66.30 | X-H torsion
[ 10763 10752 10751 10750 ] final  -69.65 input  -60.55 | X-H torsion
[ 11005 11000 10999 10996 ] final   63.23 input  -57.11 | X-H torsion

> <Gold.Protein.ActiveResidues>
 VAL166  LYS551  ARG553  GLY616  TRP617  ASP618  TYR619  PRO620  LYS621  CYS622 
 ASP623  PHE694  ASN695  SER759  ASP760  ASP761  ALA762  ILE779  LEU786  VAL792 
 PHE793  MET794  SER795  GLU796  ALA797  LYS798  CYS799  TRP800  GLU811  SER814 

> <Gold.Protein.RotatedAtoms>
  151.7449  133.3324  159.3375 H   0  0  0  0  0  0  0  0  0  0  0  0  # atno 6907 bound_to 6896
  150.7558  134.6245  159.6163 H   0  0  0  0  0  0  0  0  0  0  0  0  # atno 6908 bound_to 6896
  152.3506  134.7012  160.0289 H   0  0  0  0  0  0  0  0  0  0  0  0  # atno 6909 bound_to 6896
  146.2347  140.2060  142.8334 H   0  0  0  0  0  0  0  0  0  0  0  0  # atno 7974 bound_to 7965
  155.6104  140.3495  155.4620 H   0  0  0  0  0  0  0  0  0  0  0  0  # atno 8008 bound_to 7997
  156.0158  140.1243  157.0432 H   0  0  0  0  0  0  0  0  0  0  0  0  # atno 8009 bound_to 7997
  154.4297  140.1072  156.5880 H   0  0  0  0  0  0  0  0  0  0  0  0  # atno 8010 bound_to 7997
  139.4968  144.3814  151.9618 H   0  0  0  0  0  0  0  0  0  0  0  0  # atno 10167 bound_to 10162
  157.4596  131.1072  150.9936 H   0  0  0  0  0  0  0  0  0  0  0  0  # atno 10718 bound_to 10713
  154.4064  135.6019  153.5927 H   0  0  0  0  0  0  0  0  0  0  0  0  # atno 10763 bound_to 10752
  152.9789  135.5919  154.4123 H   0  0  0  0  0  0  0  0  0  0  0  0  # atno 10764 bound_to 10752
  154.3929  135.2842  155.2122 H   0  0  0  0  0  0  0  0  0  0  0  0  # atno 10765 bound_to 10752
  140.0039  134.6400  155.9887 H   0  0  0  0  0  0  0  0  0  0  0  0  # atno 11005 bound_to 11000
  144.9744  140.8400  143.5435 LP  0  0  0  0  0  0  0  0  0  0  0  0  # atno 17320 bound_to 7965
  145.2045  139.2235  143.5175 LP  0  0  0  0  0  0  0  0  0  0  0  0  # atno 17321 bound_to 7965
  140.3251  144.3383  150.6000 LP  0  0  0  0  0  0  0  0  0  0  0  0  # atno 17342 bound_to 10162
  140.5691  143.2183  151.7631 LP  0  0  0  0  0  0  0  0  0  0  0  0  # atno 17343 bound_to 10162
  157.0738  130.5875  149.5407 LP  0  0  0  0  0  0  0  0  0  0  0  0  # atno 17370 bound_to 10713
  156.0022  130.5103  150.7705 LP  0  0  0  0  0  0  0  0  0  0  0  0  # atno 17371 bound_to 10713
  141.1662  133.6537  156.4488 LP  0  0  0  0  0  0  0  0  0  0  0  0  # atno 17394 bound_to 11000
  140.4678  134.6782  157.5115 LP  0  0  0  0  0  0  0  0  0  0  0  0  # atno 17395 bound_to 11000

$$$$
