AV-unprocessed.smi:2124|AV-procd|sdf|8650|dock5
  -GOLD-   2272011393D 1   1.00000     0.00000
 Structure written by MMmdl.
 47 49  0  0  0  0  0  0  0  0  1 V2000
  148.7425  134.5892  159.8401 C   0  0  0  0  0  0  0  0  0  0  0  0
  149.4888  135.5700  158.9607 C   0  0  0  0  0  0  0  0  0  0  0  0
  150.5096  136.2579  159.3540 N   0  0  0  0  0  0  0  0  0  0  0  0
  151.1214  137.1346  158.4473 C   0  0  0  0  0  0  0  0  0  0  0  0
  152.3158  137.9036  158.9852 C   0  0  0  0  0  0  0  0  0  0  0  0
  150.6643  137.2761  157.1683 C   0  0  0  0  0  0  0  0  0  0  0  0
  151.3114  138.2204  156.1566 C   0  0  0  0  0  0  0  0  0  0  0  0
  151.0462  139.7095  156.3868 C   0  0  0  0  0  0  0  0  0  0  0  0
  151.2176  140.5136  155.4711 O   0  0  0  0  0  0  0  0  0  0  0  0
  150.6233  140.0588  157.6117 N   0  0  0  0  0  0  0  0  0  0  0  0
  150.2923  141.4134  158.0487 C   0  0  2  0  0  0  0  0  0  0  0  0
  149.0923  141.9318  157.2388 C   0  0  0  0  0  0  0  0  0  0  0  0
  151.5415  142.3141  157.9010 C   0  0  2  0  0  0  0  0  0  0  0  0
  152.6758  142.0170  158.9090 C   0  0  0  0  0  0  0  0  0  0  0  0
  153.0279  143.4120  159.4580 C   0  0  2  0  0  0  0  0  0  0  0  0
  151.9170  143.8656  160.4223 C   0  0  0  0  0  0  0  0  0  0  0  0
  150.7519  144.1839  159.4678 C   0  0  0  0  0  0  0  0  0  0  0  0
  151.3380  143.8392  158.0828 C   0  0  1  0  0  0  0  0  0  0  0  0
  152.7803  144.3080  158.2499 C   0  0  0  0  0  0  0  0  0  0  0  0
  149.4958  136.4871  156.7310 C   0  0  0  0  0  0  0  0  0  0  0  0
  148.9986  136.5403  155.6072 O   0  0  0  0  0  0  0  0  0  0  0  0
  148.9722  135.6675  157.6699 N   0  0  0  0  0  0  0  0  0  0  0  0
  148.1712  135.1066  157.4191 H   0  0  0  0  0  0  0  0  0  0  0  0
  148.3238  135.1040  160.7050 H   0  0  0  0  0  0  0  0  0  0  0  0
  149.4215  133.8147  160.1977 H   0  0  0  0  0  0  0  0  0  0  0  0
  147.9261  134.1051  159.3020 H   0  0  0  0  0  0  0  0  0  0  0  0
  153.2171  137.6573  158.4239 H   0  0  0  0  0  0  0  0  0  0  0  0
  152.5003  137.6661  160.0336 H   0  0  0  0  0  0  0  0  0  0  0  0
  152.1439  138.9768  158.9146 H   0  0  0  0  0  0  0  0  0  0  0  0
  152.3872  138.0413  156.1537 H   0  0  0  0  0  0  0  0  0  0  0  0
  150.9917  137.9739  155.1435 H   0  0  0  0  0  0  0  0  0  0  0  0
  150.5129  139.3251  158.2965 H   0  0  0  0  0  0  0  0  0  0  0  0
  150.0093  141.3765  159.1011 H   0  0  0  0  0  0  0  0  0  0  0  0
  148.7861  142.9232  157.5723 H   0  0  0  0  0  0  0  0  0  0  0  0
  148.2294  141.2742  157.3493 H   0  0  0  0  0  0  0  0  0  0  0  0
  149.3281  141.9957  156.1761 H   0  0  0  0  0  0  0  0  0  0  0  0
  151.9392  142.1606  156.8957 H   0  0  0  0  0  0  0  0  0  0  0  0
  152.3695  141.3401  159.7077 H   0  0  0  0  0  0  0  0  0  0  0  0
  153.5295  141.5651  158.4026 H   0  0  0  0  0  0  0  0  0  0  0  0
  154.0296  143.4750  159.8841 H   0  0  0  0  0  0  0  0  0  0  0  0
  151.6604  143.0955  161.1506 H   0  0  0  0  0  0  0  0  0  0  0  0
  152.2173  144.7589  160.9714 H   0  0  0  0  0  0  0  0  0  0  0  0
  149.8448  143.6309  159.7069 H   0  0  0  0  0  0  0  0  0  0  0  0
  150.5041  145.2448  159.5198 H   0  0  0  0  0  0  0  0  0  0  0  0
  150.8071  144.3110  157.2553 H   0  0  0  0  0  0  0  0  0  0  0  0
  152.8679  145.3724  158.4754 H   0  0  0  0  0  0  0  0  0  0  0  0
  153.4182  144.0701  157.3967 H   0  0  0  0  0  0  0  0  0  0  0  0
  1  2  1  0  0  0  0
  1 24  1  0  0  0  0
  1 25  1  0  0  0  0
  1 26  1  0  0  0  0
  2 22  1  0  0  0  0
  2  3  2  0  0  0  0
  3  4  1  0  0  0  0
  4  5  1  0  0  0  0
  4  6  2  0  0  0  0
  5 27  1  0  0  0  0
  5 28  1  0  0  0  0
  5 29  1  0  0  0  0
  6  7  1  0  0  0  0
  6 20  1  0  0  0  0
  7  8  1  0  0  0  0
  7 30  1  0  0  0  0
  7 31  1  0  0  0  0
  8  9  2  0  0  0  0
  8 10  1  0  0  0  0
 10 11  1  0  0  0  0
 10 32  1  0  0  0  0
 11 12  1  0  0  0  0
 11 13  1  0  0  0  0
 11 33  1  0  0  0  0
 12 34  1  0  0  0  0
 12 35  1  0  0  0  0
 12 36  1  0  0  0  0
 13 18  1  0  0  0  0
 13 14  1  0  0  0  0
 13 37  1  0  0  0  0
 14 15  1  0  0  0  0
 14 38  1  0  0  0  0
 14 39  1  0  0  0  0
 15 19  1  0  0  0  0
 15 16  1  0  0  0  0
 15 40  1  0  0  0  0
 16 17  1  0  0  0  0
 16 41  1  0  0  0  0
 16 42  1  0  0  0  0
 17 18  1  0  0  0  0
 17 43  1  0  0  0  0
 17 44  1  0  0  0  0
 18 19  1  0  0  0  0
 18 45  1  0  0  0  0
 19 46  1  0  0  0  0
 19 47  1  0  0  0  0
 20 21  2  0  0  0  0
 20 22  1  0  0  0  0
 22 23  1  0  0  0  0
M  END
> <s_m_source_file>
AV-unprocessed.smi

> <i_m_source_file_index>
2124

> <i_lp_mmshare_version>
43012

> <i_f3d_flags>
0

> <s_epik_input>
W0NIM11jMW5jKFtDSDNdKWMoYyg9TylbbkhdMSlbQ0gyXUMoPU8pW05IXVtDQEhdKFtDSDNdKVtDQEhdKFtDSDJdW0NASF0yMylbQ0BIXShbQ0gyXTMpW0NIMl1bQ0gyXTI=

> <s_epik_cmdline>
J2VwaWtfcHl0aG9uJywgJy1waCcsICc3LjAnLCAnLXRuJywgJzgnLCAnLW1hJywgJzIwMCcsICctbWV0YWxfYmluZGluZycsICctaW1hZScsICc8aW5maWxlLm1hZT4nLCAnLW9tYWUnLCAnPG91dGZpbGUubWFlPic=

> <r_lp_tautomer_probability>
0.839158

> <r_epik_Ionization_Penalty>
0.000383628

> <r_epik_Ionization_Penalty_Charging>
0.00035045

> <r_epik_Ionization_Penalty_Neutral>
3.31781e-05

> <r_epik_State_Penalty>
0.09125

> <r_epik_Charging_Adjusted_Penalty>
0.0916005

> <i_epik_Tot_Q>
0

> <i_epik_Tot_abs_Q>
0

> <r_epik_Metal_State_Penalty>
0.255229

> <b_epik_Metal_Only>
0

> <s_lp_Force_Field>
OPLS_2005

> <r_lp_Energy>
53.1602

> <b_lp_Chiralities_Consistent>
1

> <s_lp_Variant>
AV-unprocessed.smi:2124-1

> <Gold.Version>
5.8.1

> <Gold.Id.Protein>
6NUR|6NUR_protein|mol2

> <Gold.PLP.Fitness>
37.2939

> <Gold.PLP.PLP>
-32.6583

> <Gold.PLP.part.hbond>
-2.0000

> <Gold.PLP.part.metal>
0.0000

> <Gold.PLP.part.buried>
-3.7823

> <Gold.PLP.part.nonpolar>
-27.8217

> <Gold.PLP.part.repulsive>
0.1877

> <Gold.PLP.ligand.clash>
0.0000

> <Gold.PLP.ligand.torsion>
0.5439

> <Gold.PLP.Chemscore.Hbond>
1.9040

> <Gold.PLP.Chemscore.CHOScore>
0.0000

> <Gold.PLP.Chemscore.Metal>
0.0000

> <Gold.Chemscore.Hbonds>
donor molecule, donor type, donor heavy atom, donor atom, acceptor molecule, acceptor atom, score
      P1  H  7989  7998       L1     9  0.87

> <Gold.PLP.Chemscore.Internal.Correction>
0.0112

> <Gold.Rescore>
     Score         DG    S(hbond)    S(metal)    S(lipo)     H(rot)  DE(clash)    DE(int)     intcor
     17.22     -18.91       1.76        0.00     100.64       1.65       0.09       1.60       ----

> <Gold.Chemscore.Fitness>
17.2162

> <Gold.Chemscore.DG>
-18.9098

> <Gold.Chemscore.ZeroCoef>
-5.4800

> <Gold.Chemscore.Hbond>
1.7628

> <Gold.Chemscore.Metal>
0.0000

> <Gold.Chemscore.Lipo>
100.6375

> <Gold.Chemscore.Internal_Hbond>
0.0000

> <Gold.Chemscore.DEClash>
0.0916

> <Gold.Chemscore.DEInternal>
1.6021

> <Gold.Chemscore.Rot>
1.6534

> <Gold.Chemscore.Internal.Correction>
   9.000000E+99

> <Gold.Chemscore.Hbonds>
donor molecule, donor type, donor heavy atom, donor atom, acceptor molecule, acceptor atom, score
      P1  H  7989  7998       L1     9  0.81

> <Gold.Chemscore.Hbond.Weighted>
-5.8878

> <Gold.Chemscore.Metal.Weighted>
-0.0000

> <Gold.Chemscore.Lipo.Weighted>
-11.7746

> <Gold.Chemscore.Internal_Hbond.Weighted>
0.0000

> <Gold.Chemscore.DEClash.Weighted>
0.0916

> <Gold.Chemscore.DEInternal.Weighted>
1.6021

> <Gold.Chemscore.Rot.Weighted>
4.2326

> <Gold.Chemscore.Internal.Correction.Weighted>
   9.000000E+99

> <Gold.Protein.RotatedTorsions>
[ 6907 6896 6895 6894 ] final -175.65 input  -60.11 | X-H torsion
[ 7974 7965 7964 7962 ] final  162.04 input  175.53 | X-H torsion
[ 8008 7997 7996 7995 ] final  138.37 input   59.86 | X-H torsion
[ 10167 10162 10161 10158 ] final   79.43 input  -65.29 | X-H torsion
[ 10718 10713 10712 10709 ] final  -47.75 input   66.30 | X-H torsion
[ 10763 10752 10751 10750 ] final    4.83 input  -60.55 | X-H torsion
[ 11005 11000 10999 10996 ] final   57.34 input  -57.11 | X-H torsion

> <Gold.Protein.ActiveResidues>
 VAL166  LYS551  ARG553  GLY616  TRP617  ASP618  TYR619  PRO620  LYS621  CYS622 
 ASP623  PHE694  ASN695  SER759  ASP760  ASP761  ALA762  ILE779  LEU786  VAL792 
 PHE793  MET794  SER795  GLU796  ALA797  LYS798  CYS799  TRP800  GLU811  SER814 

> <Gold.Protein.RotatedAtoms>
  151.5921  133.3365  159.3029 H   0  0  0  0  0  0  0  0  0  0  0  0  # atno 6907 bound_to 6896
  150.8254  134.7486  159.6820 H   0  0  0  0  0  0  0  0  0  0  0  0  # atno 6908 bound_to 6896
  152.4344  134.5721  159.9975 H   0  0  0  0  0  0  0  0  0  0  0  0  # atno 6909 bound_to 6896
  144.7656  139.7983  143.6316 H   0  0  0  0  0  0  0  0  0  0  0  0  # atno 7974 bound_to 7965
  156.2997  140.2395  156.4063 H   0  0  0  0  0  0  0  0  0  0  0  0  # atno 8008 bound_to 7997
  154.8481  140.0425  157.1606 H   0  0  0  0  0  0  0  0  0  0  0  0  # atno 8009 bound_to 7997
  154.9028  140.2979  155.5312 H   0  0  0  0  0  0  0  0  0  0  0  0  # atno 8010 bound_to 7997
  139.9604  144.5965  150.8077 H   0  0  0  0  0  0  0  0  0  0  0  0  # atno 10167 bound_to 10162
  156.2054  130.4158  149.9185 H   0  0  0  0  0  0  0  0  0  0  0  0  # atno 10718 bound_to 10713
  153.2666  135.6928  153.7523 H   0  0  0  0  0  0  0  0  0  0  0  0  # atno 10763 bound_to 10752
  153.6562  135.3368  155.3115 H   0  0  0  0  0  0  0  0  0  0  0  0  # atno 10764 bound_to 10752
  154.8449  135.4466  154.1674 H   0  0  0  0  0  0  0  0  0  0  0  0  # atno 10765 bound_to 10752
  140.0460  134.5805  155.9322 H   0  0  0  0  0  0  0  0  0  0  0  0  # atno 11005 bound_to 11000
  146.1760  139.4931  142.9897 LP  0  0  0  0  0  0  0  0  0  0  0  0  # atno 17320 bound_to 7965
  145.6481  141.0269  143.1775 LP  0  0  0  0  0  0  0  0  0  0  0  0  # atno 17321 bound_to 7965
  140.7555  143.3047  151.2991 LP  0  0  0  0  0  0  0  0  0  0  0  0  # atno 17342 bound_to 10162
  139.6558  144.0278  152.2659 LP  0  0  0  0  0  0  0  0  0  0  0  0  # atno 17343 bound_to 10162
  156.6880  130.8884  151.3584 LP  0  0  0  0  0  0  0  0  0  0  0  0  # atno 17370 bound_to 10713
  157.7009  130.9332  150.0783 LP  0  0  0  0  0  0  0  0  0  0  0  0  # atno 17371 bound_to 10713
  141.1907  133.6569  156.5424 LP  0  0  0  0  0  0  0  0  0  0  0  0  # atno 17394 bound_to 11000
  140.3993  134.7371  157.4769 LP  0  0  0  0  0  0  0  0  0  0  0  0  # atno 17395 bound_to 11000

$$$$
