AV-unprocessed.smi:704|AV-procd|sdf|3444|dock9
  -GOLD-   22720 0433D 1   1.00000     0.00000
 Structure written by MMmdl.
 38 39  0  0  0  0  0  0  0  0  1 V2000
  145.6617  143.3174  154.0232 C   0  0  0  0  0  0  0  0  0  0  0  0
  147.0324  142.9663  154.1780 O   0  0  0  0  0  0  0  0  0  0  0  0
  147.4066  141.6547  153.9559 C   0  0  0  0  0  0  0  0  0  0  0  0
  146.6977  140.9243  153.0586 N   0  0  0  0  0  0  0  0  0  0  0  0
  147.0604  139.6432  152.8429 C   0  0  0  0  0  0  0  0  0  0  0  0
  148.1350  139.0243  153.5076 C   0  0  0  0  0  0  0  0  0  0  0  0
  148.8715  139.7795  154.4386 C   0  0  0  0  0  0  0  0  0  0  0  0
  148.5120  141.1300  154.6653 C   0  0  0  0  0  0  0  0  0  0  0  0
  149.1744  141.9720  155.5999 N   0  0  0  0  0  0  0  0  0  0  0  0
  150.3671  141.7872  156.1898 C   0  0  0  0  0  0  0  0  0  0  0  0
  151.1238  140.8381  155.9849 O   0  0  0  0  0  0  0  0  0  0  0  0
  150.6562  142.7967  157.0227 N   0  0  0  0  0  0  0  0  0  0  0  0
  151.8937  142.9195  157.7950 C   0  0  2  0  0  0  0  0  0  0  0  0
  152.2512  141.5926  158.4909 C   0  0  0  0  0  0  0  0  0  0  0  0
  152.7523  141.9484  159.8969 C   0  0  0  0  0  0  0  0  0  0  0  0
  152.8841  143.4738  159.9241 C   0  0  0  0  0  0  0  0  0  0  0  0
  151.8618  144.0020  158.9066 C   0  0  2  0  0  0  0  0  0  0  0  0
  150.4837  144.2208  159.5684 C   0  0  0  0  0  0  0  0  0  0  0  0
  149.4518  144.4524  158.7530 N   0  0  0  0  0  0  0  0  0  0  0  0
  150.3481  144.1742  160.7901 O   0  0  0  0  0  0  0  0  0  0  0  0
  145.5381  144.3817  154.2218 H   0  0  0  0  0  0  0  0  0  0  0  0
  145.0296  142.7738  154.7266 H   0  0  0  0  0  0  0  0  0  0  0  0
  145.3128  143.1284  153.0069 H   0  0  0  0  0  0  0  0  0  0  0  0
  146.4722  139.0929  152.1236 H   0  0  0  0  0  0  0  0  0  0  0  0
  148.3847  137.9921  153.3120 H   0  0  0  0  0  0  0  0  0  0  0  0
  149.6833  139.3065  154.9693 H   0  0  0  0  0  0  0  0  0  0  0  0
  148.7145  142.8503  155.7907 H   0  0  0  0  0  0  0  0  0  0  0  0
  149.9824  143.5419  157.1215 H   0  0  0  0  0  0  0  0  0  0  0  0
  152.7092  143.1630  157.1107 H   0  0  0  0  0  0  0  0  0  0  0  0
  151.3874  140.9303  158.5675 H   0  0  0  0  0  0  0  0  0  0  0  0
  153.0143  141.0584  157.9238 H   0  0  0  0  0  0  0  0  0  0  0  0
  152.0221  141.6261  160.6400 H   0  0  0  0  0  0  0  0  0  0  0  0
  153.6953  141.4559  160.1357 H   0  0  0  0  0  0  0  0  0  0  0  0
  152.7438  143.8776  160.9278 H   0  0  0  0  0  0  0  0  0  0  0  0
  153.8873  143.7579  159.6036 H   0  0  0  0  0  0  0  0  0  0  0  0
  152.2015  144.9567  158.5010 H   0  0  0  0  0  0  0  0  0  0  0  0
  148.5305  144.6069  159.1365 H   0  0  0  0  0  0  0  0  0  0  0  0
  149.5984  144.4771  157.7542 H   0  0  0  0  0  0  0  0  0  0  0  0
  1  2  1  0  0  0  0
  1 21  1  0  0  0  0
  1 22  1  0  0  0  0
  1 23  1  0  0  0  0
  2  3  1  0  0  0  0
  3  8  1  0  0  0  0
  3  4  2  0  0  0  0
  4  5  1  0  0  0  0
  5  6  2  0  0  0  0
  5 24  1  0  0  0  0
  6  7  1  0  0  0  0
  6 25  1  0  0  0  0
  7  8  2  0  0  0  0
  7 26  1  0  0  0  0
  8  9  1  0  0  0  0
  9 10  1  0  0  0  0
  9 27  1  0  0  0  0
 10 11  2  0  0  0  0
 10 12  1  0  0  0  0
 12 13  1  0  0  0  0
 12 28  1  0  0  0  0
 13 17  1  0  0  0  0
 13 14  1  0  0  0  0
 13 29  1  0  0  0  0
 14 15  1  0  0  0  0
 14 30  1  0  0  0  0
 14 31  1  0  0  0  0
 15 16  1  0  0  0  0
 15 32  1  0  0  0  0
 15 33  1  0  0  0  0
 16 17  1  0  0  0  0
 16 34  1  0  0  0  0
 16 35  1  0  0  0  0
 17 18  1  0  0  0  0
 17 36  1  0  0  0  0
 18 19  1  0  0  0  0
 18 20  2  0  0  0  0
 19 37  1  0  0  0  0
 19 38  1  0  0  0  0
M  END
> <s_m_source_file>
AV-unprocessed.smi

> <i_m_source_file_index>
704

> <i_lp_mmshare_version>
43012

> <i_f3d_flags>
0

> <s_epik_input>
W0NIM11PYzFuW2NIXVtjSF1bY0hdYzFbTkhdQyg9TylbTkhdW0NAQEhdMltDSDJdW0NIMl1bQ0gyXVtDQEhdMkMoPU8pW05IMl0=

> <s_epik_cmdline>
J2VwaWtfcHl0aG9uJywgJy1waCcsICc3LjAnLCAnLXRuJywgJzgnLCAnLW1hJywgJzIwMCcsICctbWV0YWxfYmluZGluZycsICctaW1hZScsICc8aW5maWxlLm1hZT4nLCAnLW9tYWUnLCAnPG91dGZpbGUubWFlPic=

> <r_lp_tautomer_probability>
1

> <r_epik_Ionization_Penalty>
9.09123e-05

> <r_epik_Ionization_Penalty_Charging>
0

> <r_epik_Ionization_Penalty_Neutral>
9.09123e-05

> <r_epik_State_Penalty>
-0

> <r_epik_Charging_Adjusted_Penalty>
0

> <i_epik_Tot_Q>
0

> <i_epik_Tot_abs_Q>
0

> <r_epik_Metal_State_Penalty>
-0

> <b_epik_Metal_Only>
0

> <s_lp_Force_Field>
OPLS_2005

> <r_lp_Energy>
16.4905

> <b_lp_Chiralities_Consistent>
1

> <s_lp_Variant>
AV-unprocessed.smi:704-3

> <Gold.Version>
5.8.1

> <Gold.Id.Protein>
6NUR|6NUR_protein|mol2

> <Gold.PLP.Fitness>
44.3306

> <Gold.PLP.PLP>
-38.6069

> <Gold.PLP.part.hbond>
-5.1944

> <Gold.PLP.part.metal>
0.0000

> <Gold.PLP.part.buried>
-1.5761

> <Gold.PLP.part.nonpolar>
-32.9152

> <Gold.PLP.part.repulsive>
2.5416

> <Gold.PLP.ligand.clash>
0.0000

> <Gold.PLP.ligand.torsion>
0.7372

> <Gold.PLP.Chemscore.Hbond>
2.3933

> <Gold.PLP.Chemscore.CHOScore>
0.0000

> <Gold.PLP.Chemscore.Metal>
0.0000

> <Gold.Chemscore.Hbonds>
donor molecule, donor type, donor heavy atom, donor atom, acceptor molecule, acceptor atom, score
      L1  H     9    27       P1  8028  0.90
      L1  H    12    28       P1  8028  0.44
      L1  H    19    38       P1  8028  0.33
      P1  H  8022  8030       L1     2  0.01

> <Gold.PLP.Chemscore.Internal.Correction>
0.0182

> <Gold.Rescore>
     Score         DG    S(hbond)    S(metal)    S(lipo)     H(rot)  DE(clash)    DE(int)     intcor
     10.97     -16.30       1.62        0.00      86.98       1.86       0.45       4.88       ----

> <Gold.Chemscore.Fitness>
10.9748

> <Gold.Chemscore.DG>
-16.3028

> <Gold.Chemscore.ZeroCoef>
-5.4800

> <Gold.Chemscore.Hbond>
1.6226

> <Gold.Chemscore.Metal>
0.0000

> <Gold.Chemscore.Lipo>
86.9847

> <Gold.Chemscore.Internal_Hbond>
0.0000

> <Gold.Chemscore.DEClash>
0.4510

> <Gold.Chemscore.DEInternal>
4.8769

> <Gold.Chemscore.Rot>
1.8648

> <Gold.Chemscore.Internal.Correction>
   9.000000E+99

> <Gold.Chemscore.Hbonds>
donor molecule, donor type, donor heavy atom, donor atom, acceptor molecule, acceptor atom, score
      L1  H     9    27       P1  8028  0.88
      L1  H    12    28       P1  8028  0.43
      L1  H    19    38       P1  8028  0.02
      P1  H  8022  8030       L1     2  0.03

> <Gold.Chemscore.Hbond.Weighted>
-5.4195

> <Gold.Chemscore.Metal.Weighted>
-0.0000

> <Gold.Chemscore.Lipo.Weighted>
-10.1772

> <Gold.Chemscore.Internal_Hbond.Weighted>
0.0000

> <Gold.Chemscore.DEClash.Weighted>
0.4510

> <Gold.Chemscore.DEInternal.Weighted>
4.8769

> <Gold.Chemscore.Rot.Weighted>
4.7739

> <Gold.Chemscore.Internal.Correction.Weighted>
   9.000000E+99

> <Gold.Protein.RotatedTorsions>
[ 6907 6896 6895 6894 ] final   85.13 input  -60.11 | X-H torsion
[ 7974 7965 7964 7962 ] final  -36.48 input  175.53 | X-H torsion
[ 8008 7997 7996 7995 ] final  -50.05 input   59.86 | X-H torsion
[ 10167 10162 10161 10158 ] final -106.51 input  -65.29 | X-H torsion
[ 10718 10713 10712 10709 ] final -102.57 input   66.30 | X-H torsion
[ 10763 10752 10751 10750 ] final -131.82 input  -60.55 | X-H torsion
[ 11005 11000 10999 10996 ] final    7.10 input  -57.11 | X-H torsion

> <Gold.Protein.ActiveResidues>
 VAL166  LYS551  ARG553  GLY616  TRP617  ASP618  TYR619  PRO620  LYS621  CYS622 
 ASP623  PHE694  ASN695  SER759  ASP760  ASP761  ALA762  ILE779  LEU786  VAL792 
 PHE793  MET794  SER795  GLU796  ALA797  LYS798  CYS799  TRP800  GLU811  SER814 

> <Gold.Protein.RotatedAtoms>
  152.5368  134.2633  159.8943 H   0  0  0  0  0  0  0  0  0  0  0  0  # atno 6907 bound_to 6896
  151.2592  133.4304  159.2623 H   0  0  0  0  0  0  0  0  0  0  0  0  # atno 6908 bound_to 6896
  151.0468  134.9660  159.8247 H   0  0  0  0  0  0  0  0  0  0  0  0  # atno 6909 bound_to 6896
  146.0658  140.6283  142.8976 H   0  0  0  0  0  0  0  0  0  0  0  0  # atno 7974 bound_to 7965
  154.4055  140.1281  156.4603 H   0  0  0  0  0  0  0  0  0  0  0  0  # atno 8008 bound_to 7997
  155.7279  140.3492  155.5026 H   0  0  0  0  0  0  0  0  0  0  0  0  # atno 8009 bound_to 7997
  155.9154  140.1043  157.1238 H   0  0  0  0  0  0  0  0  0  0  0  0  # atno 8010 bound_to 7997
  140.1870  143.3922  152.1237 H   0  0  0  0  0  0  0  0  0  0  0  0  # atno 10167 bound_to 10162
  156.0233  130.5426  150.7127 H   0  0  0  0  0  0  0  0  0  0  0  0  # atno 10718 bound_to 10713
  154.8748  135.3818  154.4308 H   0  0  0  0  0  0  0  0  0  0  0  0  # atno 10763 bound_to 10752
  153.5003  135.7030  153.5841 H   0  0  0  0  0  0  0  0  0  0  0  0  # atno 10764 bound_to 10752
  153.4176  135.3909  155.2057 H   0  0  0  0  0  0  0  0  0  0  0  0  # atno 10765 bound_to 10752
  140.5520  134.0273  155.7940 H   0  0  0  0  0  0  0  0  0  0  0  0  # atno 11005 bound_to 11000
  144.7201  140.4345  143.7014 LP  0  0  0  0  0  0  0  0  0  0  0  0  # atno 17320 bound_to 7965
  145.6480  139.1560  143.2878 LP  0  0  0  0  0  0  0  0  0  0  0  0  # atno 17321 bound_to 7965
  139.5272  144.7116  151.5186 LP  0  0  0  0  0  0  0  0  0  0  0  0  # atno 17342 bound_to 10162
  140.6482  143.8752  150.6758 LP  0  0  0  0  0  0  0  0  0  0  0  0  # atno 17343 bound_to 10162
  157.4762  131.0898  151.0588 LP  0  0  0  0  0  0  0  0  0  0  0  0  # atno 17370 bound_to 10713
  157.1034  130.5991  149.5465 LP  0  0  0  0  0  0  0  0  0  0  0  0  # atno 17371 bound_to 10713
  141.1165  133.9531  157.2811 LP  0  0  0  0  0  0  0  0  0  0  0  0  # atno 17394 bound_to 11000
  139.9450  135.0185  156.8825 LP  0  0  0  0  0  0  0  0  0  0  0  0  # atno 17395 bound_to 11000

$$$$
