#       Name:                AV-unprocessed.smi:249
#       Creating user name   scv26
#       Creation time:       Thu Mar 26 21:01:41 2020


#       File generated by GOLD software.
#

@<TRIPOS>MOLECULE
AV-unprocessed.smi:249
    71    74     1
SMALL
NO_CHARGES


@<TRIPOS>ATOM
      1 ****        -6.9357  -1.5294   3.1261 C.3            1 S1                 0.0000
      2 ****        -6.0911  -2.0810   1.9655 C.3            1 S1                 0.0000
      3 ****        -5.0888  -1.1068   1.4437 N.4            1 S1                 1.0000
      4 ****        -4.0509  -0.7806   2.4647 C.3            1 S1                 0.0000
      5 ****        -3.0922   0.3182   1.9865 C.3            1 S1                 0.0000
      6 ****        -2.4120  -0.0978   0.6748 C.3            1 S1                 0.0000
      7 ****        -1.4555   0.9063   0.1891 N.pl3          1 S1                 0.0000
      8 ****        -1.9269   2.2139  -0.2623 C.3            1 S1                 0.0000
      9 ****        -0.1403   0.8160   0.5350 C.ar           1 S1                 0.0000
     10 ****         0.2179   0.0580   1.6066 N.ar           1 S1                 0.0000
     11 ****         1.4976  -0.0403   1.9765 C.ar           1 S1                 0.0000
     12 ****         2.5708   0.5231   1.4216 N.ar           1 S1                 0.0000
     13 ****         2.2277   1.2756   0.3385 C.ar           1 S1                 0.0000
     14 ****         0.9111   1.4781  -0.1676 C.ar           1 S1                 0.0000
     15 ****         0.9649   2.3023  -1.2870 N.2            1 S1                 0.0000
     16 ****         2.2323   2.5784  -1.4266 C.2            1 S1                 0.0000
     17 ****         3.0643   1.9857  -0.5050 N.pl3          1 S1                 0.0000
     18 ****         4.5082   2.1219  -0.4255 C.3            1 S1                 0.0000
     19 ****         5.3052   0.8081  -0.6631 C.3            1 S1                 0.0000
     20 ****         6.8071   1.0712  -0.3947 C.3            1 S1                 0.0000
     21 ****         7.0347   1.4385   0.9505 O.3            1 S1                 0.0000
     22 ****         5.0774   0.2019  -2.0809 C.3            1 S1                 0.0000
     23 ****         3.6995  -0.4170  -2.3271 C.3            1 S1                 0.0000
     24 ****         3.9530  -1.6155  -3.2456 C.3            1 S1                 0.0000
     25 ****         5.3384  -1.5740  -3.5455 O.3            1 S1                 0.0000
     26 ****         5.9901  -0.9747  -2.4415 C.3            1 S1                 0.0000
     27 ****        -3.4940  -0.4240  -0.3656 C.3            1 S1                 0.0000
     28 ****        -4.4675  -1.5117   0.1391 C.3            1 S1                 0.0000
     29 ****        -5.5024  -1.7971  -0.9694 C.3            1 S1                 0.0000
     30 ****        -7.7521  -2.2137   3.3585 H              1 S1                 0.0000
     31 ****        -7.3782  -0.5659   2.8710 H              1 S1                 0.0000
     32 ****        -6.3582  -1.4095   4.0421 H              1 S1                 0.0000
     33 ****        -5.5935  -3.0053   2.2625 H              1 S1                 0.0000
     34 ****        -6.8026  -2.3478   1.1875 H              1 S1                 0.0000
     35 ****        -4.5116  -0.4338   3.3879 H              1 S1                 0.0000
     36 ****        -3.4898  -1.6829   2.7134 H              1 S1                 0.0000
     37 ****        -3.6444   1.2493   1.8566 H              1 S1                 0.0000
     38 ****        -2.3441   0.5084   2.7566 H              1 S1                 0.0000
     39 ****        -1.8746  -1.0309   0.8497 H              1 S1                 0.0000
     40 ****        -1.8163   2.3001  -1.3433 H              1 S1                 0.0000
     41 ****        -1.3660   3.0226   0.2080 H              1 S1                 0.0000
     42 ****        -2.9779   2.3707  -0.0231 H              1 S1                 0.0000
     43 ****         1.6896  -0.6592   2.8406 H              1 S1                 0.0000
     44 ****         2.5980   3.2140  -2.2200 H              1 S1                 0.0000
     45 ****         4.8238   2.8803  -1.1431 H              1 S1                 0.0000
     46 ****         4.7283   2.5304   0.5613 H              1 S1                 0.0000
     47 ****         4.9799   0.0664   0.0675 H              1 S1                 0.0000
     48 ****         7.4081   0.1804  -0.5728 H              1 S1                 0.0000
     49 ****         7.1882   1.8526  -1.0530 H              1 S1                 0.0000
     50 ****         7.9623   1.5727   1.0730 H              1 S1                 0.0000
     51 ****         5.2409   0.9796  -2.8289 H              1 S1                 0.0000
     52 ****         3.2405  -0.7620  -1.4002 H              1 S1                 0.0000
     53 ****         3.0194   0.2954  -2.7931 H              1 S1                 0.0000
     54 ****         3.7212  -2.5493  -2.7314 H              1 S1                 0.0000
     55 ****         3.3604  -1.5736  -4.1599 H              1 S1                 0.0000
     56 ****         6.9980  -0.6621  -2.7157 H              1 S1                 0.0000
     57 ****         6.0586  -1.6929  -1.6224 H              1 S1                 0.0000
     58 ****        -4.0619   0.4715  -0.6209 H              1 S1                 0.0000
     59 ****        -3.0145  -0.7563  -1.2875 H              1 S1                 0.0000
     60 ****        -3.8969  -2.4264   0.3097 H              1 S1                 0.0000
     61 ****        -5.0127  -1.9227  -1.9357 H              1 S1                 0.0000
     62 ****        -6.2170  -0.9794  -1.0690 H              1 S1                 0.0000
     63 ****        -6.0560  -2.7187  -0.7941 H              1 S1                 0.0000
     64 ****        -5.5939  -0.2515   1.2603 H              1 S1                 0.0000
     65 ****        -0.4849  -0.4311   2.1231 LP             1 S1                 0.0000
     66 ****         3.5061   0.4085   1.7565 LP             1 S1                 0.0000
     67 ****         0.2038   2.6131  -1.8563 LP             1 S1                 0.0000
     68 ****         6.7165   0.7101   1.5572 LP             1 S1                 0.0000
     69 ****         6.5417   2.2836   1.1571 LP             1 S1                 0.0000
     70 ****         5.4938  -1.0309  -4.3707 LP             1 S1                 0.0000
     71 ****         5.6861  -2.5010  -3.6862 LP             1 S1                 0.0000
@<TRIPOS>BOND
    1    1    2 1     
    2    1   30 1     
    3    1   31 1     
    4    1   32 1     
    5    2    3 1     
    6    2   33 1     
    7    2   34 1     
    8    3   28 1     
    9    3    4 1     
   10    3   64 1     
   11    4    5 1     
   12    4   35 1     
   13    4   36 1     
   14    5    6 1     
   15    5   37 1     
   16    5   38 1     
   17    6    7 1     
   18    6   27 1     
   19    6   39 1     
   20    7    8 1     
   21    7    9 1     
   22    8   40 1     
   23    8   41 1     
   24    8   42 1     
   25    9   14 ar    
   26    9   10 ar    
   27   10   11 ar    
   28   11   12 ar    
   29   11   43 1     
   30   12   13 ar    
   31   13   17 1     
   32   13   14 ar    
   33   14   15 1     
   34   15   16 2     
   35   16   17 1     
   36   16   44 1     
   37   17   18 1     
   38   18   19 1     
   39   18   45 1     
   40   18   46 1     
   41   19   20 1     
   42   19   22 1     
   43   19   47 1     
   44   20   21 1     
   45   20   48 1     
   46   20   49 1     
   47   21   50 1     
   48   22   26 1     
   49   22   23 1     
   50   22   51 1     
   51   23   24 1     
   52   23   52 1     
   53   23   53 1     
   54   24   25 1     
   55   24   54 1     
   56   24   55 1     
   57   25   26 1     
   58   26   56 1     
   59   26   57 1     
   60   27   28 1     
   61   27   58 1     
   62   27   59 1     
   63   28   29 1     
   64   28   60 1     
   65   29   61 1     
   66   29   62 1     
   67   29   63 1     
   68   10   65 1     
   69   12   66 1     
   70   15   67 1     
   71   21   68 1     
   72   21   69 1     
   73   25   70 1     
   74   25   71 1     
@<TRIPOS>SUBSTRUCTURE
      1 S1             1
@<TRIPOS>SET
LONE_PAIRS      STATIC     ATOMS    <user>   **** ""
7 65 66 67 68 69 70 71
DONOR_HYDROGENS      STATIC     ATOMS    <user>   **** ""
2 64 50
ATOM$BLUE        STATIC     ATOMS    COLORGROUP SYSTEM
7 65 66 67 68 69 70 71
ATOM$RED        STATIC     ATOMS    COLORGROUP SYSTEM
2 64 50
