AV-unprocessed.smi:2413|AV-procd|sdf|9535|dock4
  -GOLD-   2272013163D 1   1.00000     0.00000
 Structure written by MMmdl.
 45 46  0  0  0  0  0  0  0  0  1 V2000
  146.7537  145.3034  160.4170 C   0  0  0  0  0  0  0  0  0  0  0  0
  148.2343  144.9878  160.6003 C   0  0  0  0  0  0  0  0  0  0  0  0
  148.6200  144.3948  161.6074 O   0  0  0  0  0  0  0  0  0  0  0  0
  149.0531  145.3910  159.6175 N   0  0  0  0  0  0  0  0  0  0  0  0
  150.4998  145.2032  159.6023 C   0  0  0  0  0  0  0  0  0  0  0  0
  150.8790  143.7165  159.4930 C   0  0  1  0  0  0  0  0  0  0  0  0
  150.6633  143.1754  158.0667 C   0  0  0  0  0  0  0  0  0  0  0  0
  151.1428  141.8000  157.9549 N   0  0  0  0  0  0  0  0  0  0  0  0
  150.7650  141.0427  156.8222 C   0  0  0  0  0  0  0  0  0  0  0  0
  151.6593  140.1791  156.1421 C   0  0  0  0  0  0  0  0  0  0  0  0
  151.1569  139.5030  155.0138 C   0  0  0  0  0  0  0  0  0  0  0  0
  149.8844  139.6599  154.5967 N   0  0  0  0  0  0  0  0  0  0  0  0
  149.0952  140.4635  155.3192 C   0  0  0  0  0  0  0  0  0  0  0  0
  147.6920  140.7610  154.7629 C   0  0  0  0  0  0  0  0  0  0  0  0
  147.3710  139.8545  153.5509 C   0  0  0  0  0  0  0  0  0  0  0  0
  147.5938  142.2159  154.2473 C   0  0  0  0  0  0  0  0  0  0  0  0
  146.6445  140.5341  155.8683 C   0  0  0  0  0  0  0  0  0  0  0  0
  149.4923  141.1790  156.3788 N   0  0  0  0  0  0  0  0  0  0  0  0
  152.4998  141.5956  158.4622 C   0  0  0  0  0  0  0  0  0  0  0  0
  152.6534  142.2077  159.8639 C   0  0  0  0  0  0  0  0  0  0  0  0
  152.2540  143.5728  159.8380 O   0  0  0  0  0  0  0  0  0  0  0  0
  146.6125  146.3580  160.1784 H   0  0  0  0  0  0  0  0  0  0  0  0
  146.1943  145.0819  161.3265 H   0  0  0  0  0  0  0  0  0  0  0  0
  146.3372  144.7063  159.6054 H   0  0  0  0  0  0  0  0  0  0  0  0
  148.6486  145.8777  158.8309 H   0  0  0  0  0  0  0  0  0  0  0  0
  150.9352  145.7677  158.7760 H   0  0  0  0  0  0  0  0  0  0  0  0
  150.9123  145.6288  160.5175 H   0  0  0  0  0  0  0  0  0  0  0  0
  150.2681  143.1389  160.1899 H   0  0  0  0  0  0  0  0  0  0  0  0
  149.5980  143.2233  157.8402 H   0  0  0  0  0  0  0  0  0  0  0  0
  151.1859  143.7976  157.3389 H   0  0  0  0  0  0  0  0  0  0  0  0
  152.6825  140.0238  156.4472 H   0  0  0  0  0  0  0  0  0  0  0  0
  151.7829  138.8368  154.4389 H   0  0  0  0  0  0  0  0  0  0  0  0
  146.3961  140.0926  153.1237 H   0  0  0  0  0  0  0  0  0  0  0  0
  147.3438  138.7993  153.8257 H   0  0  0  0  0  0  0  0  0  0  0  0
  148.1127  139.9709  152.7598 H   0  0  0  0  0  0  0  0  0  0  0  0
  148.3423  142.4167  153.4798 H   0  0  0  0  0  0  0  0  0  0  0  0
  147.7364  142.9435  155.0471 H   0  0  0  0  0  0  0  0  0  0  0  0
  146.6150  142.4175  153.8108 H   0  0  0  0  0  0  0  0  0  0  0  0
  145.6350  140.7355  155.5086 H   0  0  0  0  0  0  0  0  0  0  0  0
  146.8251  141.1853  156.7240 H   0  0  0  0  0  0  0  0  0  0  0  0
  146.6661  139.5051  156.2288 H   0  0  0  0  0  0  0  0  0  0  0  0
  152.7552  140.5376  158.5186 H   0  0  0  0  0  0  0  0  0  0  0  0
  153.2061  142.0589  157.7722 H   0  0  0  0  0  0  0  0  0  0  0  0
  152.0619  141.6564  160.5969 H   0  0  0  0  0  0  0  0  0  0  0  0
  153.6931  142.1484  160.1862 H   0  0  0  0  0  0  0  0  0  0  0  0
  1  2  1  0  0  0  0
  1 22  1  0  0  0  0
  1 23  1  0  0  0  0
  1 24  1  0  0  0  0
  2  3  2  0  0  0  0
  2  4  1  0  0  0  0
  4  5  1  0  0  0  0
  4 25  1  0  0  0  0
  5  6  1  0  0  0  0
  5 26  1  0  0  0  0
  5 27  1  0  0  0  0
  6 21  1  0  0  0  0
  6  7  1  0  0  0  0
  6 28  1  0  0  0  0
  7  8  1  0  0  0  0
  7 29  1  0  0  0  0
  7 30  1  0  0  0  0
  8  9  1  0  0  0  0
  8 19  1  0  0  0  0
  9 18  1  0  0  0  0
  9 10  2  0  0  0  0
 10 11  1  0  0  0  0
 10 31  1  0  0  0  0
 11 12  2  0  0  0  0
 11 32  1  0  0  0  0
 12 13  1  0  0  0  0
 13 14  1  0  0  0  0
 13 18  2  0  0  0  0
 14 15  1  0  0  0  0
 14 16  1  0  0  0  0
 14 17  1  0  0  0  0
 15 33  1  0  0  0  0
 15 34  1  0  0  0  0
 15 35  1  0  0  0  0
 16 36  1  0  0  0  0
 16 37  1  0  0  0  0
 16 38  1  0  0  0  0
 17 39  1  0  0  0  0
 17 40  1  0  0  0  0
 17 41  1  0  0  0  0
 19 20  1  0  0  0  0
 19 42  1  0  0  0  0
 19 43  1  0  0  0  0
 20 21  1  0  0  0  0
 20 44  1  0  0  0  0
 20 45  1  0  0  0  0
M  END
> <s_m_source_file>
AV-unprocessed.smi

> <i_m_source_file_index>
2413

> <i_lp_mmshare_version>
43012

> <i_f3d_flags>
0

> <s_epik_input>
W0NIM11DKD1PKVtOSF1bQ0gyXVtDQEBIXTFbQ0gyXU4oW0NIMl1bQ0gyXU8xKWMyW2NIXVtjSF1uYyhuMilDKFtDSDNdKShbQ0gzXSlbQ0gzXQ==

> <s_epik_cmdline>
J2VwaWtfcHl0aG9uJywgJy1waCcsICc3LjAnLCAnLXRuJywgJzgnLCAnLW1hJywgJzIwMCcsICctbWV0YWxfYmluZGluZycsICctaW1hZScsICc8aW5maWxlLm1hZT4nLCAnLW9tYWUnLCAnPG91dGZpbGUubWFlPic=

> <r_lp_tautomer_probability>
1

> <r_epik_Ionization_Penalty>
0.0132021

> <r_epik_Ionization_Penalty_Charging>
0

> <r_epik_Ionization_Penalty_Neutral>
0.0132021

> <r_epik_State_Penalty>
0.0102452

> <r_epik_Charging_Adjusted_Penalty>
0.0102452

> <i_epik_Tot_Q>
0

> <i_epik_Tot_abs_Q>
0

> <r_epik_Metal_State_Penalty>
0.0100219

> <b_epik_Metal_Only>
0

> <s_lp_Force_Field>
OPLS_2005

> <r_lp_Energy>
8.35197

> <b_lp_Chiralities_Consistent>
1

> <s_lp_Variant>
AV-unprocessed.smi:2413-2

> <Gold.Version>
5.8.1

> <Gold.Id.Protein>
6NUR|6NUR_protein|mol2

> <Gold.PLP.Fitness>
40.7956

> <Gold.PLP.PLP>
-36.1297

> <Gold.PLP.part.hbond>
-2.1459

> <Gold.PLP.part.metal>
0.0000

> <Gold.PLP.part.buried>
-6.0808

> <Gold.PLP.part.nonpolar>
-28.6387

> <Gold.PLP.part.repulsive>
1.3155

> <Gold.PLP.ligand.clash>
0.0000

> <Gold.PLP.ligand.torsion>
0.5857

> <Gold.PLP.Chemscore.Hbond>
1.7360

> <Gold.PLP.Chemscore.CHOScore>
0.0000

> <Gold.PLP.Chemscore.Metal>
0.0000

> <Gold.Chemscore.Hbonds>
donor molecule, donor type, donor heavy atom, donor atom, acceptor molecule, acceptor atom, score
      L1  H     4    25       P1  8029  1.00
      P1  H  6933  6944       L1     3  0.72

> <Gold.PLP.Chemscore.Internal.Correction>
0.6292

> <Gold.Rescore>
     Score         DG    S(hbond)    S(metal)    S(lipo)     H(rot)  DE(clash)    DE(int)     intcor
     16.18     -16.79       1.82        0.00      82.67       1.73       0.15       0.45       ----

> <Gold.Chemscore.Fitness>
16.1794

> <Gold.Chemscore.DG>
-16.7859

> <Gold.Chemscore.ZeroCoef>
-5.4800

> <Gold.Chemscore.Hbond>
1.8174

> <Gold.Chemscore.Metal>
0.0000

> <Gold.Chemscore.Lipo>
82.6742

> <Gold.Chemscore.Internal_Hbond>
0.0000

> <Gold.Chemscore.DEClash>
0.1538

> <Gold.Chemscore.DEInternal>
0.4526

> <Gold.Chemscore.Rot>
1.7332

> <Gold.Chemscore.Internal.Correction>
   9.000000E+99

> <Gold.Chemscore.Hbonds>
donor molecule, donor type, donor heavy atom, donor atom, acceptor molecule, acceptor atom, score
      L1  H     4    25       P1  8029  0.98
      P1  H  6933  6944       L1     3  0.62

> <Gold.Chemscore.Hbond.Weighted>
-6.0701

> <Gold.Chemscore.Metal.Weighted>
-0.0000

> <Gold.Chemscore.Lipo.Weighted>
-9.6729

> <Gold.Chemscore.Internal_Hbond.Weighted>
0.0000

> <Gold.Chemscore.DEClash.Weighted>
0.1538

> <Gold.Chemscore.DEInternal.Weighted>
0.4526

> <Gold.Chemscore.Rot.Weighted>
4.4370

> <Gold.Chemscore.Internal.Correction.Weighted>
   9.000000E+99

> <Gold.Protein.RotatedTorsions>
[ 6907 6896 6895 6894 ] final  164.93 input  -60.11 | X-H torsion
[ 7974 7965 7964 7962 ] final -131.36 input  175.53 | X-H torsion
[ 8008 7997 7996 7995 ] final  -24.18 input   59.86 | X-H torsion
[ 10167 10162 10161 10158 ] final -174.71 input  -65.29 | X-H torsion
[ 10718 10713 10712 10709 ] final   72.06 input   66.30 | X-H torsion
[ 10763 10752 10751 10750 ] final -152.60 input  -60.55 | X-H torsion
[ 11005 11000 10999 10996 ] final   17.95 input  -57.11 | X-H torsion

> <Gold.Protein.ActiveResidues>
 VAL166  LYS551  ARG553  GLY616  TRP617  ASP618  TYR619  PRO620  LYS621  CYS622 
 ASP623  PHE694  ASN695  SER759  ASP760  ASP761  ALA762  ILE779  LEU786  VAL792 
 PHE793  MET794  SER795  GLU796  ALA797  LYS798  CYS799  TRP800  GLU811  SER814 

> <Gold.Protein.RotatedAtoms>
  151.9022  133.3541  159.3834 H   0  0  0  0  0  0  0  0  0  0  0  0  # atno 6907 bound_to 6896
  150.7077  134.4816  159.5482 H   0  0  0  0  0  0  0  0  0  0  0  0  # atno 6908 bound_to 6896
  152.2407  134.8232  160.0511 H   0  0  0  0  0  0  0  0  0  0  0  0  # atno 6909 bound_to 6896
  144.9386  140.7213  143.4860 H   0  0  0  0  0  0  0  0  0  0  0  0  # atno 7974 bound_to 7965
  154.4543  140.1960  156.0425 H   0  0  0  0  0  0  0  0  0  0  0  0  # atno 8008 bound_to 7997
  156.0714  140.3284  155.7553 H   0  0  0  0  0  0  0  0  0  0  0  0  # atno 8009 bound_to 7997
  155.5257  140.0573  157.2889 H   0  0  0  0  0  0  0  0  0  0  0  0  # atno 8010 bound_to 7997
  139.5619  144.1849  152.1252 H   0  0  0  0  0  0  0  0  0  0  0  0  # atno 10167 bound_to 10162
  157.6482  130.9560  150.0876 H   0  0  0  0  0  0  0  0  0  0  0  0  # atno 10718 bound_to 10713
  154.7983  135.3232  154.7612 H   0  0  0  0  0  0  0  0  0  0  0  0  # atno 10763 bound_to 10752
  153.8285  135.6881  153.4822 H   0  0  0  0  0  0  0  0  0  0  0  0  # atno 10764 bound_to 10752
  153.1686  135.4632  154.9815 H   0  0  0  0  0  0  0  0  0  0  0  0  # atno 10765 bound_to 10752
  140.4302  134.1428  155.7680 H   0  0  0  0  0  0  0  0  0  0  0  0  # atno 11005 bound_to 11000
  145.3026  139.1845  143.4681 LP  0  0  0  0  0  0  0  0  0  0  0  0  # atno 17320 bound_to 7965
  146.3277  140.3020  142.8621 LP  0  0  0  0  0  0  0  0  0  0  0  0  # atno 17321 bound_to 7965
  140.1364  144.5242  150.6771 LP  0  0  0  0  0  0  0  0  0  0  0  0  # atno 17342 bound_to 10162
  140.6899  143.2370  151.5158 LP  0  0  0  0  0  0  0  0  0  0  0  0  # atno 17343 bound_to 10162
  156.1834  130.3651  149.9004 LP  0  0  0  0  0  0  0  0  0  0  0  0  # atno 17370 bound_to 10713
  156.6951  130.8911  151.3593 LP  0  0  0  0  0  0  0  0  0  0  0  0  # atno 17371 bound_to 10713
  141.1748  133.8535  157.1454 LP  0  0  0  0  0  0  0  0  0  0  0  0  # atno 17394 bound_to 11000
  140.0139  134.9976  157.0454 LP  0  0  0  0  0  0  0  0  0  0  0  0  # atno 17395 bound_to 11000

$$$$
