AV-unprocessed.smi:2890|AV-procd|sdf|11116|dock2
  -GOLD-   2272015583D 1   1.00000     0.00000
 Structure written by MMmdl.
 38 39  0  0  0  0  0  0  0  0  1 V2000
  153.3066  142.9481  162.7488 C   0  0  0  0  0  0  0  0  0  0  0  0
  152.5958  143.7984  161.6905 C   0  0  0  0  0  0  0  0  0  0  0  0
  152.1353  142.9725  160.5206 C   0  0  0  0  0  0  0  0  0  0  0  0
  150.8666  143.0222  160.1498 N   0  0  0  0  0  0  0  0  0  0  0  0
  150.7523  142.1594  159.0561 O   0  0  0  0  0  0  0  0  0  0  0  0
  151.9707  141.6140  158.8096 C   0  0  0  0  0  0  0  0  0  0  0  0
  152.0547  140.6555  157.6679 C   0  0  0  0  0  0  0  0  0  0  0  0
  151.3102  141.1407  156.4202 C   0  0  0  0  0  0  0  0  0  0  0  0
  152.8928  142.0816  159.7060 C   0  0  0  0  0  0  0  0  0  0  0  0
  154.3577  141.7402  159.8116 C   0  0  0  0  0  0  0  0  0  0  0  0
  154.5305  140.2254  159.9213 C   0  0  0  0  0  0  0  0  0  0  0  0
  154.4674  139.5241  158.9123 O   0  0  0  0  0  0  0  0  0  0  0  0
  154.7509  139.7353  161.1513 N   0  0  0  0  0  0  0  0  0  0  0  0
  154.9828  138.3304  161.4711 C   0  0  0  0  0  0  0  0  0  0  0  0
  156.1529  137.7527  160.7810 C   0  0  0  0  0  0  0  0  0  0  0  0
  157.0699  137.2993  160.2406 N   0  0  0  0  0  0  0  0  0  0  0  0
  154.9723  138.0673  162.9855 C   0  0  0  0  0  0  0  0  0  0  0  0
  154.1881  136.7817  162.6904 C   0  0  0  0  0  0  0  0  0  0  0  0
  153.7141  137.4609  161.3991 C   0  0  0  0  0  0  0  0  0  0  0  0
  153.6343  143.5642  163.5862 H   0  0  0  0  0  0  0  0  0  0  0  0
  154.1866  142.4573  162.3315 H   0  0  0  0  0  0  0  0  0  0  0  0
  152.6462  142.1752  163.1429 H   0  0  0  0  0  0  0  0  0  0  0  0
  151.7450  144.3057  162.1472 H   0  0  0  0  0  0  0  0  0  0  0  0
  153.2660  144.5885  161.3519 H   0  0  0  0  0  0  0  0  0  0  0  0
  153.1024  140.4841  157.4202 H   0  0  0  0  0  0  0  0  0  0  0  0
  151.6554  139.6878  157.9721 H   0  0  0  0  0  0  0  0  0  0  0  0
  151.3926  140.4145  155.6113 H   0  0  0  0  0  0  0  0  0  0  0  0
  151.7166  142.0868  156.0611 H   0  0  0  0  0  0  0  0  0  0  0  0
  150.2502  141.2885  156.6289 H   0  0  0  0  0  0  0  0  0  0  0  0
  154.9190  142.1004  158.9490 H   0  0  0  0  0  0  0  0  0  0  0  0
  154.8102  142.2151  160.6830 H   0  0  0  0  0  0  0  0  0  0  0  0
  154.7877  140.3884  161.9202 H   0  0  0  0  0  0  0  0  0  0  0  0
  155.9545  137.9087  163.4322 H   0  0  0  0  0  0  0  0  0  0  0  0
  154.3861  138.7936  163.5521 H   0  0  0  0  0  0  0  0  0  0  0  0
  154.8316  135.9189  162.5092 H   0  0  0  0  0  0  0  0  0  0  0  0
  153.3955  136.5541  163.4040 H   0  0  0  0  0  0  0  0  0  0  0  0
  152.7889  138.0237  161.5367 H   0  0  0  0  0  0  0  0  0  0  0  0
  153.6582  136.8023  160.5318 H   0  0  0  0  0  0  0  0  0  0  0  0
  1  2  1  0  0  0  0
  1 20  1  0  0  0  0
  1 21  1  0  0  0  0
  1 22  1  0  0  0  0
  2  3  1  0  0  0  0
  2 23  1  0  0  0  0
  2 24  1  0  0  0  0
  3  9  1  0  0  0  0
  3  4  2  0  0  0  0
  4  5  1  0  0  0  0
  5  6  1  0  0  0  0
  6  7  1  0  0  0  0
  6  9  2  0  0  0  0
  7  8  1  0  0  0  0
  7 25  1  0  0  0  0
  7 26  1  0  0  0  0
  8 27  1  0  0  0  0
  8 28  1  0  0  0  0
  8 29  1  0  0  0  0
  9 10  1  0  0  0  0
 10 11  1  0  0  0  0
 10 30  1  0  0  0  0
 10 31  1  0  0  0  0
 11 12  2  0  0  0  0
 11 13  1  0  0  0  0
 13 14  1  0  0  0  0
 13 32  1  0  0  0  0
 14 19  1  0  0  0  0
 14 15  1  0  0  0  0
 14 17  1  0  0  0  0
 15 16  3  0  0  0  0
 17 18  1  0  0  0  0
 17 33  1  0  0  0  0
 17 34  1  0  0  0  0
 18 19  1  0  0  0  0
 18 35  1  0  0  0  0
 18 36  1  0  0  0  0
 19 37  1  0  0  0  0
 19 38  1  0  0  0  0
M  END
> <s_m_source_file>
AV-unprocessed.smi

> <i_m_source_file_index>
2890

> <i_lp_mmshare_version>
43012

> <i_f3d_flags>
0

> <s_epik_input>
W0NIM11bQ0gyXWMxbm9jKFtDSDJdW0NIM10pYzFbQ0gyXUMoPU8pW05IXUMyKEMjTilbQ0gyXVtDSDJdW0NIMl0y

> <s_epik_cmdline>
J2VwaWtfcHl0aG9uJywgJy1waCcsICc3LjAnLCAnLXRuJywgJzgnLCAnLW1hJywgJzIwMCcsICctbWV0YWxfYmluZGluZycsICctaW1hZScsICc8aW5maWxlLm1hZT4nLCAnLW9tYWUnLCAnPG91dGZpbGUubWFlPic=

> <r_lp_tautomer_probability>
1

> <r_epik_Ionization_Penalty>
5.40968e-07

> <r_epik_Ionization_Penalty_Charging>
0

> <r_epik_Ionization_Penalty_Neutral>
5.40968e-07

> <r_epik_State_Penalty>
-0

> <r_epik_Charging_Adjusted_Penalty>
0

> <i_epik_Tot_Q>
0

> <i_epik_Tot_abs_Q>
0

> <r_epik_Metal_State_Penalty>
-0

> <b_epik_Metal_Only>
0

> <s_lp_Force_Field>
OPLS_2005

> <r_lp_Energy>
4.95517

> <b_lp_Chiralities_Consistent>
1

> <s_lp_Variant>
AV-unprocessed.smi:2890-1

> <Gold.Version>
5.8.1

> <Gold.Id.Protein>
6NUR|6NUR_protein|mol2

> <Gold.PLP.Fitness>
40.9662

> <Gold.PLP.PLP>
-39.0516

> <Gold.PLP.part.hbond>
-2.5780

> <Gold.PLP.part.metal>
0.0000

> <Gold.PLP.part.buried>
-4.5609

> <Gold.PLP.part.nonpolar>
-30.4485

> <Gold.PLP.part.repulsive>
0.0976

> <Gold.PLP.ligand.clash>
0.0000

> <Gold.PLP.ligand.torsion>
0.6792

> <Gold.PLP.Chemscore.Hbond>
1.0000

> <Gold.PLP.Chemscore.CHOScore>
0.0000

> <Gold.PLP.Chemscore.Metal>
0.0000

> <Gold.Chemscore.Hbonds>
donor molecule, donor type, donor heavy atom, donor atom, acceptor molecule, acceptor atom, score
      P1  H  7997  8008       L1    12  1.00

> <Gold.PLP.Chemscore.Internal.Correction>
0.2730

> <Gold.Rescore>
     Score         DG    S(hbond)    S(metal)    S(lipo)     H(rot)  DE(clash)    DE(int)     intcor
     16.11     -16.85       1.00        0.00     106.28       1.72       0.03       0.72       ----

> <Gold.Chemscore.Fitness>
16.1082

> <Gold.Chemscore.DG>
-16.8530

> <Gold.Chemscore.ZeroCoef>
-5.4800

> <Gold.Chemscore.Hbond>
1.0005

> <Gold.Chemscore.Metal>
0.0000

> <Gold.Chemscore.Lipo>
106.2836

> <Gold.Chemscore.Internal_Hbond>
0.0000

> <Gold.Chemscore.DEClash>
0.0276

> <Gold.Chemscore.DEInternal>
0.7171

> <Gold.Chemscore.Rot>
1.7202

> <Gold.Chemscore.Internal.Correction>
   9.000000E+99

> <Gold.Chemscore.Hbonds>
donor molecule, donor type, donor heavy atom, donor atom, acceptor molecule, acceptor atom, score
      P1  H  7997  8008       L1    12  0.99

> <Gold.Chemscore.Hbond.Weighted>
-3.3415

> <Gold.Chemscore.Metal.Weighted>
-0.0000

> <Gold.Chemscore.Lipo.Weighted>
-12.4352

> <Gold.Chemscore.Internal_Hbond.Weighted>
0.0000

> <Gold.Chemscore.DEClash.Weighted>
0.0276

> <Gold.Chemscore.DEInternal.Weighted>
0.7171

> <Gold.Chemscore.Rot.Weighted>
4.4037

> <Gold.Chemscore.Internal.Correction.Weighted>
   9.000000E+99

> <Gold.Protein.RotatedTorsions>
[ 6907 6896 6895 6894 ] final   -6.61 input  -60.11 | X-H torsion
[ 7974 7965 7964 7962 ] final   39.75 input  175.53 | X-H torsion
[ 8008 7997 7996 7995 ] final -120.63 input   59.86 | X-H torsion
[ 10167 10162 10161 10158 ] final  138.57 input  -65.29 | X-H torsion
[ 10718 10713 10712 10709 ] final -129.77 input   66.30 | X-H torsion
[ 10763 10752 10751 10750 ] final  122.79 input  -60.55 | X-H torsion
[ 11005 11000 10999 10996 ] final -100.55 input  -57.11 | X-H torsion

> <Gold.Protein.ActiveResidues>
 VAL166  LYS551  ARG553  GLY616  TRP617  ASP618  TYR619  PRO620  LYS621  CYS622 
 ASP623  PHE694  ASN695  SER759  ASP760  ASP761  ALA762  ILE779  LEU786  VAL792 
 PHE793  MET794  SER795  GLU796  ALA797  LYS798  CYS799  TRP800  GLU811  SER814 

> <Gold.Protein.RotatedAtoms>
  151.4628  135.1040  159.9729 H   0  0  0  0  0  0  0  0  0  0  0  0  # atno 6907 bound_to 6896
  152.4846  133.8337  159.7127 H   0  0  0  0  0  0  0  0  0  0  0  0  # atno 6908 bound_to 6896
  150.8945  133.7138  159.2922 H   0  0  0  0  0  0  0  0  0  0  0  0  # atno 6909 bound_to 6896
  146.0959  139.5614  142.9445 H   0  0  0  0  0  0  0  0  0  0  0  0  # atno 7974 bound_to 7965
  155.1349  140.0401  157.2784 H   0  0  0  0  0  0  0  0  0  0  0  0  # atno 8008 bound_to 7997
  154.6515  140.2570  155.7182 H   0  0  0  0  0  0  0  0  0  0  0  0  # atno 8009 bound_to 7997
  156.2579  140.2835  156.0951 H   0  0  0  0  0  0  0  0  0  0  0  0  # atno 8010 bound_to 7997
  139.5106  144.6346  151.5730 H   0  0  0  0  0  0  0  0  0  0  0  0  # atno 10167 bound_to 10162
  156.2079  130.6899  151.0615 H   0  0  0  0  0  0  0  0  0  0  0  0  # atno 10718 bound_to 10713
  153.6352  135.3389  155.3054 H   0  0  0  0  0  0  0  0  0  0  0  0  # atno 10763 bound_to 10752
  154.8571  135.4305  154.2063 H   0  0  0  0  0  0  0  0  0  0  0  0  # atno 10764 bound_to 10752
  153.2968  135.7021  153.7314 H   0  0  0  0  0  0  0  0  0  0  0  0  # atno 10765 bound_to 10752
  141.1266  133.8408  157.1117 H   0  0  0  0  0  0  0  0  0  0  0  0  # atno 11005 bound_to 11000
  145.5949  141.0364  143.2050 LP  0  0  0  0  0  0  0  0  0  0  0  0  # atno 17320 bound_to 7965
  144.7395  139.7489  143.7316 LP  0  0  0  0  0  0  0  0  0  0  0  0  # atno 17321 bound_to 7965
  140.6090  143.9471  150.6439 LP  0  0  0  0  0  0  0  0  0  0  0  0  # atno 17342 bound_to 10162
  140.2707  143.3458  152.1240 LP  0  0  0  0  0  0  0  0  0  0  0  0  # atno 17343 bound_to 10162
  157.7022  131.0771  150.6783 LP  0  0  0  0  0  0  0  0  0  0  0  0  # atno 17370 bound_to 10713
  156.6842  130.4576  149.5619 LP  0  0  0  0  0  0  0  0  0  0  0  0  # atno 17371 bound_to 10713
  140.0271  134.9919  157.0707 LP  0  0  0  0  0  0  0  0  0  0  0  0  # atno 17394 bound_to 11000
  140.4345  134.1746  155.7170 LP  0  0  0  0  0  0  0  0  0  0  0  0  # atno 17395 bound_to 11000

$$$$
