AV-unprocessed.smi:2124|AV-procd|sdf|8656|dock4
  -GOLD-   2272011403D 1   1.00000     0.00000
 Structure written by MMmdl.
 47 49  0  0  0  0  0  0  0  0  1 V2000
  143.5603  139.6843  156.0403 C   0  0  0  0  0  0  0  0  0  0  0  0
  144.8595  140.2849  155.5468 C   0  0  0  0  0  0  0  0  0  0  0  0
  144.9561  141.4620  155.0228 N   0  0  0  0  0  0  0  0  0  0  0  0
  146.2167  141.9145  154.6098 C   0  0  0  0  0  0  0  0  0  0  0  0
  146.2491  143.3177  154.0288 C   0  0  0  0  0  0  0  0  0  0  0  0
  147.3343  141.1412  154.7426 C   0  0  0  0  0  0  0  0  0  0  0  0
  148.7296  141.6238  154.3427 C   0  0  0  0  0  0  0  0  0  0  0  0
  149.8068  141.3975  155.4036 C   0  0  0  0  0  0  0  0  0  0  0  0
  150.3180  140.2869  155.5424 O   0  0  0  0  0  0  0  0  0  0  0  0
  150.1686  142.4788  156.1099 N   0  0  0  0  0  0  0  0  0  0  0  0
  151.3449  142.5851  156.9655 C   0  0  2  0  0  0  0  0  0  0  0  0
  151.3940  141.3893  157.9290 C   0  0  0  0  0  0  0  0  0  0  0  0
  151.3072  143.9409  157.7101 C   0  0  1  0  0  0  0  0  0  0  0  0
  150.3125  144.0048  158.8903 C   0  0  0  0  0  0  0  0  0  0  0  0
  151.1754  144.5592  160.0400 C   0  0  1  0  0  0  0  0  0  0  0  0
  152.1355  143.4582  160.5277 C   0  0  0  0  0  0  0  0  0  0  0  0
  153.1604  143.3708  159.3825 C   0  0  0  0  0  0  0  0  0  0  0  0
  152.6302  144.4085  158.3722 C   0  0  2  0  0  0  0  0  0  0  0  0
  152.1240  145.5011  159.3073 C   0  0  0  0  0  0  0  0  0  0  0  0
  147.2104  139.7956  155.3364 C   0  0  0  0  0  0  0  0  0  0  0  0
  148.1503  139.0221  155.5125 O   0  0  0  0  0  0  0  0  0  0  0  0
  145.9597  139.4452  155.7102 N   0  0  0  0  0  0  0  0  0  0  0  0
  145.8236  138.5354  156.1264 H   0  0  0  0  0  0  0  0  0  0  0  0
  143.1271  140.3154  156.8165 H   0  0  0  0  0  0  0  0  0  0  0  0
  143.7090  138.6865  156.4553 H   0  0  0  0  0  0  0  0  0  0  0  0
  142.8460  139.6102  155.2201 H   0  0  0  0  0  0  0  0  0  0  0  0
  146.8833  143.9689  154.6303 H   0  0  0  0  0  0  0  0  0  0  0  0
  145.2519  143.7584  154.0028 H   0  0  0  0  0  0  0  0  0  0  0  0
  146.6329  143.3028  153.0087 H   0  0  0  0  0  0  0  0  0  0  0  0
  149.0542  141.1541  153.4134 H   0  0  0  0  0  0  0  0  0  0  0  0
  148.6820  142.6891  154.1150 H   0  0  0  0  0  0  0  0  0  0  0  0
  149.6614  143.3352  155.9392 H   0  0  0  0  0  0  0  0  0  0  0  0
  152.2450  142.5544  156.3495 H   0  0  0  0  0  0  0  0  0  0  0  0
  152.2748  141.4336  158.5696 H   0  0  0  0  0  0  0  0  0  0  0  0
  151.4354  140.4468  157.3819 H   0  0  0  0  0  0  0  0  0  0  0  0
  150.5149  141.3613  158.5736 H   0  0  0  0  0  0  0  0  0  0  0  0
  151.0247  144.7082  156.9866 H   0  0  0  0  0  0  0  0  0  0  0  0
  149.4891  144.6812  158.6582 H   0  0  0  0  0  0  0  0  0  0  0  0
  149.8816  143.0347  159.1403 H   0  0  0  0  0  0  0  0  0  0  0  0
  150.5944  145.0180  160.8402 H   0  0  0  0  0  0  0  0  0  0  0  0
  152.6246  143.7505  161.4576 H   0  0  0  0  0  0  0  0  0  0  0  0
  151.6244  142.5105  160.7013 H   0  0  0  0  0  0  0  0  0  0  0  0
  154.1512  143.6582  159.7371 H   0  0  0  0  0  0  0  0  0  0  0  0
  153.2458  142.3670  158.9683 H   0  0  0  0  0  0  0  0  0  0  0  0
  153.3838  144.7434  157.6586 H   0  0  0  0  0  0  0  0  0  0  0  0
  151.6132  146.3150  158.7899 H   0  0  0  0  0  0  0  0  0  0  0  0
  152.9023  145.9184  159.9489 H   0  0  0  0  0  0  0  0  0  0  0  0
  1  2  1  0  0  0  0
  1 24  1  0  0  0  0
  1 25  1  0  0  0  0
  1 26  1  0  0  0  0
  2 22  1  0  0  0  0
  2  3  2  0  0  0  0
  3  4  1  0  0  0  0
  4  5  1  0  0  0  0
  4  6  2  0  0  0  0
  5 27  1  0  0  0  0
  5 28  1  0  0  0  0
  5 29  1  0  0  0  0
  6  7  1  0  0  0  0
  6 20  1  0  0  0  0
  7  8  1  0  0  0  0
  7 30  1  0  0  0  0
  7 31  1  0  0  0  0
  8  9  2  0  0  0  0
  8 10  1  0  0  0  0
 10 11  1  0  0  0  0
 10 32  1  0  0  0  0
 11 12  1  0  0  0  0
 11 13  1  0  0  0  0
 11 33  1  0  0  0  0
 12 34  1  0  0  0  0
 12 35  1  0  0  0  0
 12 36  1  0  0  0  0
 13 18  1  0  0  0  0
 13 14  1  0  0  0  0
 13 37  1  0  0  0  0
 14 15  1  0  0  0  0
 14 38  1  0  0  0  0
 14 39  1  0  0  0  0
 15 19  1  0  0  0  0
 15 16  1  0  0  0  0
 15 40  1  0  0  0  0
 16 17  1  0  0  0  0
 16 41  1  0  0  0  0
 16 42  1  0  0  0  0
 17 18  1  0  0  0  0
 17 43  1  0  0  0  0
 17 44  1  0  0  0  0
 18 19  1  0  0  0  0
 18 45  1  0  0  0  0
 19 46  1  0  0  0  0
 19 47  1  0  0  0  0
 20 21  2  0  0  0  0
 20 22  1  0  0  0  0
 22 23  1  0  0  0  0
M  END
> <s_m_source_file>
AV-unprocessed.smi

> <i_m_source_file_index>
2124

> <i_lp_mmshare_version>
43012

> <i_f3d_flags>
0

> <s_epik_input>
W0NIM11jMW5jKFtDSDNdKWMoYyg9TylbbkhdMSlbQ0gyXUMoPU8pW05IXVtDQEhdKFtDSDNdKVtDQEhdKFtDSDJdW0NASF0yMylbQ0BIXShbQ0gyXTMpW0NIMl1bQ0gyXTI=

> <s_epik_cmdline>
J2VwaWtfcHl0aG9uJywgJy1waCcsICc3LjAnLCAnLXRuJywgJzgnLCAnLW1hJywgJzIwMCcsICctbWV0YWxfYmluZGluZycsICctaW1hZScsICc8aW5maWxlLm1hZT4nLCAnLW9tYWUnLCAnPG91dGZpbGUubWFlPic=

> <r_lp_tautomer_probability>
0.839158

> <r_epik_Ionization_Penalty>
0.000383628

> <r_epik_Ionization_Penalty_Charging>
0.00035045

> <r_epik_Ionization_Penalty_Neutral>
3.31781e-05

> <r_epik_State_Penalty>
0.09125

> <r_epik_Charging_Adjusted_Penalty>
0.0916005

> <i_epik_Tot_Q>
0

> <i_epik_Tot_abs_Q>
0

> <r_epik_Metal_State_Penalty>
0.255229

> <b_epik_Metal_Only>
0

> <s_lp_Force_Field>
OPLS_2005

> <r_lp_Energy>
50.9321

> <b_lp_Chiralities_Consistent>
1

> <s_lp_Variant>
AV-unprocessed.smi:2124-7

> <Gold.Version>
5.8.1

> <Gold.Id.Protein>
6NUR|6NUR_protein|mol2

> <Gold.PLP.Fitness>
46.1092

> <Gold.PLP.PLP>
-44.4051

> <Gold.PLP.part.hbond>
-1.0000

> <Gold.PLP.part.metal>
0.0000

> <Gold.PLP.part.buried>
-5.6496

> <Gold.PLP.part.nonpolar>
-38.3533

> <Gold.PLP.part.repulsive>
0.6068

> <Gold.PLP.ligand.clash>
0.0000

> <Gold.PLP.ligand.torsion>
0.6628

> <Gold.PLP.Chemscore.Hbond>
1.0000

> <Gold.PLP.Chemscore.CHOScore>
0.0000

> <Gold.PLP.Chemscore.Metal>
0.0000

> <Gold.Chemscore.Hbonds>
donor molecule, donor type, donor heavy atom, donor atom, acceptor molecule, acceptor atom, score
      L1  H    10    32       P1  8028  1.00

> <Gold.PLP.Chemscore.Internal.Correction>
0.0297

> <Gold.Rescore>
     Score         DG    S(hbond)    S(metal)    S(lipo)     H(rot)  DE(clash)    DE(int)     intcor
     14.53     -19.03       1.00        0.00     123.59       1.65       0.35       4.15       ----

> <Gold.Chemscore.Fitness>
14.5279

> <Gold.Chemscore.DG>
-19.0319

> <Gold.Chemscore.ZeroCoef>
-5.4800

> <Gold.Chemscore.Hbond>
0.9953

> <Gold.Chemscore.Metal>
0.0000

> <Gold.Chemscore.Lipo>
123.5903

> <Gold.Chemscore.Internal_Hbond>
0.0000

> <Gold.Chemscore.DEClash>
0.3500

> <Gold.Chemscore.DEInternal>
4.1540

> <Gold.Chemscore.Rot>
1.6534

> <Gold.Chemscore.Internal.Correction>
   9.000000E+99

> <Gold.Chemscore.Hbonds>
donor molecule, donor type, donor heavy atom, donor atom, acceptor molecule, acceptor atom, score
      L1  H    10    32       P1  8028  0.99

> <Gold.Chemscore.Hbond.Weighted>
-3.3244

> <Gold.Chemscore.Metal.Weighted>
-0.0000

> <Gold.Chemscore.Lipo.Weighted>
-14.4601

> <Gold.Chemscore.Internal_Hbond.Weighted>
0.0000

> <Gold.Chemscore.DEClash.Weighted>
0.3500

> <Gold.Chemscore.DEInternal.Weighted>
4.1540

> <Gold.Chemscore.Rot.Weighted>
4.2326

> <Gold.Chemscore.Internal.Correction.Weighted>
   9.000000E+99

> <Gold.Protein.RotatedTorsions>
[ 6907 6896 6895 6894 ] final  135.92 input  -60.11 | X-H torsion
[ 7974 7965 7964 7962 ] final  123.01 input  175.53 | X-H torsion
[ 8008 7997 7996 7995 ] final  -63.10 input   59.86 | X-H torsion
[ 10167 10162 10161 10158 ] final  -55.66 input  -65.29 | X-H torsion
[ 10718 10713 10712 10709 ] final  -22.88 input   66.30 | X-H torsion
[ 10763 10752 10751 10750 ] final  -55.37 input  -60.55 | X-H torsion
[ 11005 11000 10999 10996 ] final   -9.98 input  -57.11 | X-H torsion

> <Gold.Protein.ActiveResidues>
 VAL166  LYS551  ARG553  GLY616  TRP617  ASP618  TYR619  PRO620  LYS621  CYS622 
 ASP623  PHE694  ASN695  SER759  ASP760  ASP761  ALA762  ILE779  LEU786  VAL792 
 PHE793  MET794  SER795  GLU796  ALA797  LYS798  CYS799  TRP800  GLU811  SER814 

> <Gold.Protein.RotatedAtoms>
  152.2951  133.5599  159.5581 H   0  0  0  0  0  0  0  0  0  0  0  0  # atno 6907 bound_to 6896
  150.7252  134.0373  159.3762 H   0  0  0  0  0  0  0  0  0  0  0  0  # atno 6908 bound_to 6896
  151.8276  135.0632  160.0484 H   0  0  0  0  0  0  0  0  0  0  0  0  # atno 6909 bound_to 6896
  145.1008  139.3520  143.4813 H   0  0  0  0  0  0  0  0  0  0  0  0  # atno 7974 bound_to 7965
  154.4536  140.0982  156.6690 H   0  0  0  0  0  0  0  0  0  0  0  0  # atno 8008 bound_to 7997
  155.5209  140.3479  155.4388 H   0  0  0  0  0  0  0  0  0  0  0  0  # atno 8009 bound_to 7997
  156.0731  140.1354  156.9793 H   0  0  0  0  0  0  0  0  0  0  0  0  # atno 8010 bound_to 7997
  140.6362  143.2483  151.5112 H   0  0  0  0  0  0  0  0  0  0  0  0  # atno 10167 bound_to 10162
  156.4985  130.4582  149.6714 H   0  0  0  0  0  0  0  0  0  0  0  0  # atno 10718 bound_to 10713
  154.1898  135.6429  153.5057 H   0  0  0  0  0  0  0  0  0  0  0  0  # atno 10763 bound_to 10752
  153.0038  135.5426  154.6427 H   0  0  0  0  0  0  0  0  0  0  0  0  # atno 10764 bound_to 10752
  154.5813  135.2925  155.0703 H   0  0  0  0  0  0  0  0  0  0  0  0  # atno 10765 bound_to 10752
  140.7398  133.8679  155.8959 H   0  0  0  0  0  0  0  0  0  0  0  0  # atno 11005 bound_to 11000
  146.3529  140.0885  142.8614 LP  0  0  0  0  0  0  0  0  0  0  0  0  # atno 17320 bound_to 7965
  145.0957  140.9313  143.4742 LP  0  0  0  0  0  0  0  0  0  0  0  0  # atno 17321 bound_to 7965
  139.5572  144.2246  152.1632 LP  0  0  0  0  0  0  0  0  0  0  0  0  # atno 17342 bound_to 10162
  140.1503  144.5121  150.6691 LP  0  0  0  0  0  0  0  0  0  0  0  0  # atno 17343 bound_to 10162
  156.3356  130.7355  151.2291 LP  0  0  0  0  0  0  0  0  0  0  0  0  # atno 17370 bound_to 10713
  157.7465  131.0418  150.4663 LP  0  0  0  0  0  0  0  0  0  0  0  0  # atno 17371 bound_to 10713
  140.9846  134.1359  157.4463 LP  0  0  0  0  0  0  0  0  0  0  0  0  # atno 17394 bound_to 11000
  139.8808  135.0021  156.6109 LP  0  0  0  0  0  0  0  0  0  0  0  0  # atno 17395 bound_to 11000

$$$$
