AV-unprocessed.smi:1507|AV-procd|sdf|6083|dock3
  -GOLD-   22720 6203D 1   1.00000     0.00000
 Structure written by MMmdl.
 33 34  0  0  0  0  0  0  0  0  2 V2000
  152.0962  136.4025  155.9989 N   0  5  0  0  0  0  0  0  0  0  0  0
  150.5869  136.4192  155.4263 S   0  0  0  0  0  0  0  0  0  0  0  0
  150.1639  135.1275  154.8636 O   0  0  0  0  0  0  0  0  0  0  0  0
  149.6520  137.1539  156.2924 O   0  0  0  0  0  0  0  0  0  0  0  0
  150.8896  137.4539  154.0793 N   0  0  0  0  0  0  0  0  0  0  0  0
  150.1839  138.7258  153.9220 C   0  0  0  0  0  0  0  0  0  0  0  0
  150.5311  139.7155  155.0157 C   0  0  0  0  0  0  0  0  0  0  0  0
  151.5747  139.4554  155.9243 C   0  0  0  0  0  0  0  0  0  0  0  0
  151.8566  140.4039  156.9262 C   0  0  0  0  0  0  0  0  0  0  0  0
  151.0844  141.5887  156.9939 C   0  0  0  0  0  0  0  0  0  0  0  0
  151.3509  142.5545  157.9891 N   0  0  0  0  0  0  0  0  0  0  0  0
  152.2051  142.1118  159.0885 C   0  0  0  0  0  0  0  0  0  0  0  0
  152.1668  143.1307  160.2408 C   0  0  0  0  0  0  0  0  0  0  0  0
  152.5148  144.4229  159.7549 O   0  0  0  0  0  0  0  0  0  0  0  0
  151.5993  144.8797  158.7652 C   0  0  0  0  0  0  0  0  0  0  0  0
  151.6222  143.9254  157.5596 C   0  0  0  0  0  0  0  0  0  0  0  0
  150.0731  141.8272  156.1216 N   0  0  0  0  0  0  0  0  0  0  0  0
  149.8084  140.9157  155.1616 C   0  0  0  0  0  0  0  0  0  0  0  0
  152.4142  137.3745  156.0935 H   0  0  0  0  0  0  0  0  0  0  0  0
  151.1457  136.9747  153.2169 H   0  0  0  0  0  0  0  0  0  0  0  0
  150.4298  139.1629  152.9538 H   0  0  0  0  0  0  0  0  0  0  0  0
  149.1098  138.5387  153.9171 H   0  0  0  0  0  0  0  0  0  0  0  0
  152.1492  138.5429  155.8590 H   0  0  0  0  0  0  0  0  0  0  0  0
  152.6459  140.2045  157.6355 H   0  0  0  0  0  0  0  0  0  0  0  0
  151.9029  141.1372  159.4687 H   0  0  0  0  0  0  0  0  0  0  0  0
  153.2258  142.0052  158.7191 H   0  0  0  0  0  0  0  0  0  0  0  0
  151.1786  143.1579  160.7028 H   0  0  0  0  0  0  0  0  0  0  0  0
  152.8737  142.8427  161.0191 H   0  0  0  0  0  0  0  0  0  0  0  0
  150.5953  144.9498  159.1871 H   0  0  0  0  0  0  0  0  0  0  0  0
  151.8846  145.8847  158.4540 H   0  0  0  0  0  0  0  0  0  0  0  0
  152.5969  143.9652  157.0708 H   0  0  0  0  0  0  0  0  0  0  0  0
  150.8769  144.2473  156.8310 H   0  0  0  0  0  0  0  0  0  0  0  0
  148.9944  141.1518  154.4921 H   0  0  0  0  0  0  0  0  0  0  0  0
  1  2  1  0  0  0  0
  1 19  1  0  0  0  0
  2  3  2  0  0  0  0
  2  4  2  0  0  0  0
  2  5  1  0  0  0  0
  5  6  1  0  0  0  0
  5 20  1  0  0  0  0
  6  7  1  0  0  0  0
  6 21  1  0  0  0  0
  6 22  1  0  0  0  0
  7 18  1  0  0  0  0
  7  8  2  0  0  0  0
  8  9  1  0  0  0  0
  8 23  1  0  0  0  0
  9 10  2  0  0  0  0
  9 24  1  0  0  0  0
 10 11  1  0  0  0  0
 10 17  1  0  0  0  0
 11 16  1  0  0  0  0
 11 12  1  0  0  0  0
 12 13  1  0  0  0  0
 12 25  1  0  0  0  0
 12 26  1  0  0  0  0
 13 14  1  0  0  0  0
 13 27  1  0  0  0  0
 13 28  1  0  0  0  0
 14 15  1  0  0  0  0
 15 16  1  0  0  0  0
 15 29  1  0  0  0  0
 15 30  1  0  0  0  0
 16 31  1  0  0  0  0
 16 32  1  0  0  0  0
 17 18  2  0  0  0  0
 18 33  1  0  0  0  0
M  CHG  1   1  -1
M  END
> <s_m_source_file>
AV-unprocessed.smi

> <i_m_source_file_index>
1507

> <i_lp_mmshare_version>
43012

> <i_f3d_flags>
0

> <s_epik_input>
W05IMl1TKD1PKSg9TylbTkhdW0NIMl1jMVtjSF1bY0hdYyhuW2NIXTEpTjJbQ0gyXVtDSDJdT1tDSDJdW0NIMl0y

> <s_epik_cmdline>
J2VwaWtfcHl0aG9uJywgJy1waCcsICc3LjAnLCAnLXRuJywgJzgnLCAnLW1hJywgJzIwMCcsICctbWV0YWxfYmluZGluZycsICctaW1hZScsICc8aW5maWxlLm1hZT4nLCAnLW9tYWUnLCAnPG91dGZpbGUubWFlPic=

> <r_lp_tautomer_probability>
1

> <r_epik_Ionization_Penalty>
2.76303

> <r_epik_Ionization_Penalty_Charging>
2.75358

> <r_epik_Ionization_Penalty_Neutral>
0.00945218

> <r_epik_State_Penalty>
2.93489

> <r_epik_Charging_Adjusted_Penalty>
5.68847

> <i_epik_Tot_Q>
-1

> <i_epik_Tot_abs_Q>
1

> <r_epik_Metal_State_Penalty>
0.838637

> <b_epik_Metal_Only>
1

> <s_lp_Force_Field>
OPLS_2005

> <r_lp_Energy>
17.9143

> <b_lp_Chiralities_Consistent>
1

> <s_lp_Variant>
AV-unprocessed.smi:1507-4

> <Gold.Version>
5.8.1

> <Gold.Id.Protein>
6NUR|6NUR_protein|mol2

> <Gold.PLP.Fitness>
43.1004

> <Gold.PLP.PLP>
-34.3983

> <Gold.PLP.part.hbond>
-2.4358

> <Gold.PLP.part.metal>
0.0000

> <Gold.PLP.part.buried>
-3.7847

> <Gold.PLP.part.nonpolar>
-29.0127

> <Gold.PLP.part.repulsive>
0.4650

> <Gold.PLP.ligand.clash>
0.0000

> <Gold.PLP.ligand.torsion>
0.8453

> <Gold.PLP.Chemscore.Hbond>
3.0000

> <Gold.PLP.Chemscore.CHOScore>
0.0000

> <Gold.PLP.Chemscore.Metal>
0.0000

> <Gold.Chemscore.Hbonds>
donor molecule, donor type, donor heavy atom, donor atom, acceptor molecule, acceptor atom, score
      L1  H     5    20       P1  7949  1.00
      P1  H 10752 10763       L1     1  2.00

> <Gold.PLP.Chemscore.Internal.Correction>
1.3928

> <Gold.Rescore>
     Score         DG    S(hbond)    S(metal)    S(lipo)     H(rot)  DE(clash)    DE(int)     intcor
     12.97     -14.81       1.30        0.00      83.77       1.88       0.30       1.55       ----

> <Gold.Chemscore.Fitness>
12.9711

> <Gold.Chemscore.DG>
-14.8145

> <Gold.Chemscore.ZeroCoef>
-5.4800

> <Gold.Chemscore.Hbond>
1.3025

> <Gold.Chemscore.Metal>
0.0000

> <Gold.Chemscore.Lipo>
83.7661

> <Gold.Chemscore.Internal_Hbond>
0.0000

> <Gold.Chemscore.DEClash>
0.2960

> <Gold.Chemscore.DEInternal>
1.5474

> <Gold.Chemscore.Rot>
1.8814

> <Gold.Chemscore.Internal.Correction>
   9.000000E+99

> <Gold.Chemscore.Hbonds>
donor molecule, donor type, donor heavy atom, donor atom, acceptor molecule, acceptor atom, score
      L1  H     5    20       P1  7949  0.49
      P1  H 10752 10763       L1     1  0.49

> <Gold.Chemscore.Hbond.Weighted>
-4.3503

> <Gold.Chemscore.Metal.Weighted>
-0.0000

> <Gold.Chemscore.Lipo.Weighted>
-9.8006

> <Gold.Chemscore.Internal_Hbond.Weighted>
0.0000

> <Gold.Chemscore.DEClash.Weighted>
0.2960

> <Gold.Chemscore.DEInternal.Weighted>
1.5474

> <Gold.Chemscore.Rot.Weighted>
4.8165

> <Gold.Chemscore.Internal.Correction.Weighted>
   9.000000E+99

> <Gold.Protein.RotatedTorsions>
[ 6907 6896 6895 6894 ] final  146.57 input  -60.11 | X-H torsion
[ 7974 7965 7964 7962 ] final -169.75 input  175.53 | X-H torsion
[ 8008 7997 7996 7995 ] final   85.81 input   59.86 | X-H torsion
[ 10167 10162 10161 10158 ] final  -79.61 input  -65.29 | X-H torsion
[ 10718 10713 10712 10709 ] final  -23.71 input   66.30 | X-H torsion
[ 10763 10752 10751 10750 ] final   75.97 input  -60.55 | X-H torsion
[ 11005 11000 10999 10996 ] final   -3.77 input  -57.11 | X-H torsion

> <Gold.Protein.ActiveResidues>
 VAL166  LYS551  ARG553  GLY616  TRP617  ASP618  TYR619  PRO620  LYS621  CYS622 
 ASP623  PHE694  ASN695  SER759  ASP760  ASP761  ALA762  ILE779  LEU786  VAL792 
 PHE793  MET794  SER795  GLU796  ALA797  LYS798  CYS799  TRP800  GLU811  SER814 

> <Gold.Protein.RotatedAtoms>
  152.1661  133.4613  159.4885 H   0  0  0  0  0  0  0  0  0  0  0  0  # atno 6907 bound_to 6896
  150.6913  134.2011  159.4331 H   0  0  0  0  0  0  0  0  0  0  0  0  # atno 6908 bound_to 6896
  151.9916  134.9976  160.0612 H   0  0  0  0  0  0  0  0  0  0  0  0  # atno 6909 bound_to 6896
  144.7180  140.2175  143.6320 H   0  0  0  0  0  0  0  0  0  0  0  0  # atno 7974 bound_to 7965
  155.9547  140.3398  155.6438 H   0  0  0  0  0  0  0  0  0  0  0  0  # atno 8008 bound_to 7997
  155.6875  140.0745  157.2479 H   0  0  0  0  0  0  0  0  0  0  0  0  # atno 8009 bound_to 7997
  154.4129  140.1663  156.2037 H   0  0  0  0  0  0  0  0  0  0  0  0  # atno 8010 bound_to 7997
  140.4578  143.2463  151.8394 H   0  0  0  0  0  0  0  0  0  0  0  0  # atno 10167 bound_to 10162
  156.4874  130.4559  149.6775 H   0  0  0  0  0  0  0  0  0  0  0  0  # atno 10718 bound_to 10713
  153.0692  135.4969  154.8268 H   0  0  0  0  0  0  0  0  0  0  0  0  # atno 10763 bound_to 10752
  154.6998  135.2999  154.9360 H   0  0  0  0  0  0  0  0  0  0  0  0  # atno 10764 bound_to 10752
  154.0087  135.6757  153.4817 H   0  0  0  0  0  0  0  0  0  0  0  0  # atno 10765 bound_to 10752
  140.6729  133.9220  155.8506 H   0  0  0  0  0  0  0  0  0  0  0  0  # atno 11005 bound_to 11000
  145.8532  139.2186  143.1760 LP  0  0  0  0  0  0  0  0  0  0  0  0  # atno 17320 bound_to 7965
  146.0241  140.8320  142.9908 LP  0  0  0  0  0  0  0  0  0  0  0  0  # atno 17321 bound_to 7965
  139.4803  144.5044  151.9017 LP  0  0  0  0  0  0  0  0  0  0  0  0  # atno 17342 bound_to 10162
  140.4130  144.2343  150.5888 LP  0  0  0  0  0  0  0  0  0  0  0  0  # atno 17343 bound_to 10162
  156.3460  130.7407  151.2360 LP  0  0  0  0  0  0  0  0  0  0  0  0  # atno 17370 bound_to 10713
  157.7477  131.0390  150.4530 LP  0  0  0  0  0  0  0  0  0  0  0  0  # atno 17371 bound_to 10713
  141.0378  134.0665  157.3939 LP  0  0  0  0  0  0  0  0  0  0  0  0  # atno 17394 bound_to 11000
  139.8976  135.0151  156.7107 LP  0  0  0  0  0  0  0  0  0  0  0  0  # atno 17395 bound_to 11000

$$$$
