AV-unprocessed.smi:795|AV-procd|sdf|3764|dock8
  -GOLD-   22720 1193D 1   1.00000     0.00000
 Structure written by MMmdl.
 49 52  0  0  0  0  0  0  0  0  1 V2000
  151.0456  144.2103  158.6044 C   0  0  0  0  0  0  0  0  0  0  0  0
  151.8289  142.9826  158.9844 C   0  0  0  0  0  0  0  0  0  0  0  0
  151.7519  141.9741  158.1802 N   0  0  0  0  0  0  0  0  0  0  0  0
  152.4270  140.7957  158.4347 N   0  0  0  0  0  0  0  0  0  0  0  0
  152.1864  139.7513  157.4296 C   0  0  0  0  0  0  0  0  0  0  0  0
  151.2274  140.2198  156.3276 C   0  0  0  0  0  0  0  0  0  0  0  0
  151.5398  140.1213  155.1407 O   0  0  0  0  0  0  0  0  0  0  0  0
  150.0621  140.7397  156.7410 N   0  0  0  0  0  0  0  0  0  0  0  0
  148.9839  141.2094  155.8731 C   0  0  2  0  0  0  0  0  0  0  0  0
  147.6238  141.1742  156.6141 C   0  0  2  0  0  0  0  0  0  0  0  0
  147.2138  139.7169  156.9365 C   0  0  0  0  0  0  0  0  0  0  0  0
  147.0973  138.9126  155.6239 C   0  0  1  0  0  0  0  0  0  0  0  0
  146.0222  139.5552  154.7209 C   0  0  0  0  0  0  0  0  0  0  0  0
  146.4269  141.0104  154.4000 C   0  0  1  0  0  0  0  0  0  0  0  0
  146.5440  141.8153  155.7140 C   0  0  0  0  0  0  0  0  0  0  0  0
  147.7853  141.0148  153.6641 C   0  0  0  0  0  0  0  0  0  0  0  0
  148.8615  140.3746  154.5690 C   0  0  2  0  0  0  0  0  0  0  0  0
  148.4556  138.9170  154.8901 C   0  0  0  0  0  0  0  0  0  0  0  0
  153.2274  140.5787  159.5183 C   0  0  0  0  0  0  0  0  0  0  0  0
  153.8140  139.5123  159.7074 O   0  0  0  0  0  0  0  0  0  0  0  0
  153.3118  141.7266  160.4245 C   0  0  0  0  0  0  0  0  0  0  0  0
  154.1377  141.5407  161.5738 C   0  0  0  0  0  0  0  0  0  0  0  0
  154.8228  141.4030  162.4967 N   0  0  0  0  0  0  0  0  0  0  0  0
  152.6476  142.8857  160.1882 C   0  0  0  0  0  0  0  0  0  0  0  0
  152.6994  144.1051  161.0987 C   0  0  0  0  0  0  0  0  0  0  0  0
  151.7045  145.0718  158.4932 H   0  0  0  0  0  0  0  0  0  0  0  0
  150.3034  144.4466  159.3671 H   0  0  0  0  0  0  0  0  0  0  0  0
  150.5151  144.0782  157.6600 H   0  0  0  0  0  0  0  0  0  0  0  0
  153.1371  139.4473  156.9863 H   0  0  0  0  0  0  0  0  0  0  0  0
  151.7801  138.8469  157.8850 H   0  0  0  0  0  0  0  0  0  0  0  0
  149.8953  140.7901  157.7355 H   0  0  0  0  0  0  0  0  0  0  0  0
  149.2088  142.2459  155.6135 H   0  0  0  0  0  0  0  0  0  0  0  0
  147.6978  141.7436  157.5416 H   0  0  0  0  0  0  0  0  0  0  0  0
  147.9396  139.2494  157.6029 H   0  0  0  0  0  0  0  0  0  0  0  0
  146.2622  139.7043  157.4694 H   0  0  0  0  0  0  0  0  0  0  0  0
  146.8121  137.8852  155.8521 H   0  0  0  0  0  0  0  0  0  0  0  0
  145.9120  138.9823  153.7994 H   0  0  0  0  0  0  0  0  0  0  0  0
  145.0506  139.5331  155.2156 H   0  0  0  0  0  0  0  0  0  0  0  0
  145.6682  141.4654  153.7626 H   0  0  0  0  0  0  0  0  0  0  0  0
  145.5839  141.8344  156.2313 H   0  0  0  0  0  0  0  0  0  0  0  0
  146.7977  142.8541  155.4995 H   0  0  0  0  0  0  0  0  0  0  0  0
  147.7074  140.4662  152.7245 H   0  0  0  0  0  0  0  0  0  0  0  0
  148.0699  142.0343  153.4012 H   0  0  0  0  0  0  0  0  0  0  0  0
  149.8113  140.3741  154.0336 H   0  0  0  0  0  0  0  0  0  0  0  0
  149.2185  138.4308  155.4991 H   0  0  0  0  0  0  0  0  0  0  0  0
  148.3869  138.3360  153.9697 H   0  0  0  0  0  0  0  0  0  0  0  0
  153.2982  143.9281  161.9915 H   0  0  0  0  0  0  0  0  0  0  0  0
  151.6973  144.3805  161.4287 H   0  0  0  0  0  0  0  0  0  0  0  0
  153.1351  144.9556  160.5734 H   0  0  0  0  0  0  0  0  0  0  0  0
  1  2  1  0  0  0  0
  1 26  1  0  0  0  0
  1 27  1  0  0  0  0
  1 28  1  0  0  0  0
  2 24  1  0  0  0  0
  2  3  2  0  0  0  0
  3  4  1  0  0  0  0
  4  5  1  0  0  0  0
  4 19  1  0  0  0  0
  5  6  1  0  0  0  0
  5 29  1  0  0  0  0
  5 30  1  0  0  0  0
  6  7  2  0  0  0  0
  6  8  1  0  0  0  0
  8  9  1  0  0  0  0
  8 31  1  0  0  0  0
  9 17  1  0  0  0  0
  9 10  1  0  0  0  0
  9 32  1  0  0  0  0
 10 15  1  0  0  0  0
 10 11  1  0  0  0  0
 10 33  1  0  0  0  0
 11 12  1  0  0  0  0
 11 34  1  0  0  0  0
 11 35  1  0  0  0  0
 12 18  1  0  0  0  0
 12 13  1  0  0  0  0
 12 36  1  0  0  0  0
 13 14  1  0  0  0  0
 13 37  1  0  0  0  0
 13 38  1  0  0  0  0
 14 15  1  0  0  0  0
 14 16  1  0  0  0  0
 14 39  1  0  0  0  0
 15 40  1  0  0  0  0
 15 41  1  0  0  0  0
 16 17  1  0  0  0  0
 16 42  1  0  0  0  0
 16 43  1  0  0  0  0
 17 18  1  0  0  0  0
 17 44  1  0  0  0  0
 18 45  1  0  0  0  0
 18 46  1  0  0  0  0
 19 20  2  0  0  0  0
 19 21  1  0  0  0  0
 21 22  1  0  0  0  0
 21 24  2  0  0  0  0
 22 23  3  0  0  0  0
 24 25  1  0  0  0  0
 25 47  1  0  0  0  0
 25 48  1  0  0  0  0
 25 49  1  0  0  0  0
M  END
> <s_m_source_file>
AV-unprocessed.smi

> <i_m_source_file_index>
795

> <i_lp_mmshare_version>
43012

> <i_f3d_flags>
0

> <s_epik_input>
TiNDYyhjMVtDSDNdKWMoPU8pbihuYzFbQ0gzXSlbQ0gyXUMoPU8pW05IXVtDQEhdKFtDQEhdMjMpW0NAQEhdNFtDSDJdW0NASF0oW0NIMl0zKVtDSDJdW0NASF0oW0NIMl0yKVtDSDJdNA==

> <s_epik_cmdline>
J2VwaWtfcHl0aG9uJywgJy1waCcsICc3LjAnLCAnLXRuJywgJzgnLCAnLW1hJywgJzIwMCcsICctbWV0YWxfYmluZGluZycsICctaW1hZScsICc8aW5maWxlLm1hZT4nLCAnLW9tYWUnLCAnPG91dGZpbGUubWFlPic=

> <r_lp_tautomer_probability>
1

> <r_epik_Ionization_Penalty>
2.02301e-08

> <r_epik_Ionization_Penalty_Charging>
2.3673e-11

> <r_epik_Ionization_Penalty_Neutral>
2.02064e-08

> <r_epik_State_Penalty>
-0

> <r_epik_Charging_Adjusted_Penalty>
2.3673e-11

> <i_epik_Tot_Q>
0

> <i_epik_Tot_abs_Q>
0

> <r_epik_Metal_State_Penalty>
-0

> <b_epik_Metal_Only>
0

> <s_lp_Force_Field>
OPLS_2005

> <r_lp_Energy>
43.8057

> <b_lp_Chiralities_Consistent>
1

> <s_lp_Variant>
AV-unprocessed.smi:795-1

> <Gold.Version>
5.8.1

> <Gold.Id.Protein>
6NUR|6NUR_protein|mol2

> <Gold.PLP.Fitness>
44.4856

> <Gold.PLP.PLP>
-42.5110

> <Gold.PLP.part.hbond>
-2.0000

> <Gold.PLP.part.metal>
0.0000

> <Gold.PLP.part.buried>
-5.1661

> <Gold.PLP.part.nonpolar>
-35.0272

> <Gold.PLP.part.repulsive>
0.0878

> <Gold.PLP.ligand.clash>
0.0000

> <Gold.PLP.ligand.torsion>
0.4067

> <Gold.PLP.Chemscore.Hbond>
0.9280

> <Gold.PLP.Chemscore.CHOScore>
0.0000

> <Gold.PLP.Chemscore.Metal>
0.0000

> <Gold.Chemscore.Hbonds>
donor molecule, donor type, donor heavy atom, donor atom, acceptor molecule, acceptor atom, score
      P1  H  7989  7998       L1     7  1.00

> <Gold.PLP.Chemscore.Internal.Correction>
0.0039

> <Gold.Rescore>
     Score         DG    S(hbond)    S(metal)    S(lipo)     H(rot)  DE(clash)    DE(int)     intcor
     15.28     -16.22       0.94        0.00      96.43       1.44       0.01       0.92       ----

> <Gold.Chemscore.Fitness>
15.2806

> <Gold.Chemscore.DG>
-16.2182

> <Gold.Chemscore.ZeroCoef>
-5.4800

> <Gold.Chemscore.Hbond>
0.9439

> <Gold.Chemscore.Metal>
0.0000

> <Gold.Chemscore.Lipo>
96.4346

> <Gold.Chemscore.Internal_Hbond>
0.0000

> <Gold.Chemscore.DEClash>
0.0127

> <Gold.Chemscore.DEInternal>
0.9250

> <Gold.Chemscore.Rot>
1.4442

> <Gold.Chemscore.Internal.Correction>
   9.000000E+99

> <Gold.Chemscore.Hbonds>
donor molecule, donor type, donor heavy atom, donor atom, acceptor molecule, acceptor atom, score
      P1  H  7989  7998       L1     7  0.95

> <Gold.Chemscore.Hbond.Weighted>
-3.1525

> <Gold.Chemscore.Metal.Weighted>
-0.0000

> <Gold.Chemscore.Lipo.Weighted>
-11.2829

> <Gold.Chemscore.Internal_Hbond.Weighted>
0.0000

> <Gold.Chemscore.DEClash.Weighted>
0.0127

> <Gold.Chemscore.DEInternal.Weighted>
0.9250

> <Gold.Chemscore.Rot.Weighted>
3.6971

> <Gold.Chemscore.Internal.Correction.Weighted>
   9.000000E+99

> <Gold.Protein.RotatedTorsions>
[ 6907 6896 6895 6894 ] final -173.59 input  -60.11 | X-H torsion
[ 7974 7965 7964 7962 ] final  107.17 input  175.53 | X-H torsion
[ 8008 7997 7996 7995 ] final   43.35 input   59.86 | X-H torsion
[ 10167 10162 10161 10158 ] final  -76.25 input  -65.29 | X-H torsion
[ 10718 10713 10712 10709 ] final -163.14 input   66.30 | X-H torsion
[ 10763 10752 10751 10750 ] final   43.41 input  -60.55 | X-H torsion
[ 11005 11000 10999 10996 ] final   71.78 input  -57.11 | X-H torsion

> <Gold.Protein.ActiveResidues>
 VAL166  LYS551  ARG553  GLY616  TRP617  ASP618  TYR619  PRO620  LYS621  CYS622 
 ASP623  PHE694  ASN695  SER759  ASP760  ASP761  ALA762  ILE779  LEU786  VAL792 
 PHE793  MET794  SER795  GLU796  ALA797  LYS798  CYS799  TRP800  GLU811  SER814 

> <Gold.Protein.RotatedAtoms>
  151.5586  133.3406  159.2966 H   0  0  0  0  0  0  0  0  0  0  0  0  # atno 6907 bound_to 6896
  150.8436  134.7740  159.6963 H   0  0  0  0  0  0  0  0  0  0  0  0  # atno 6908 bound_to 6896
  152.4498  134.5424  159.9894 H   0  0  0  0  0  0  0  0  0  0  0  0  # atno 6909 bound_to 6896
  145.2971  139.2581  143.3834 H   0  0  0  0  0  0  0  0  0  0  0  0  # atno 7974 bound_to 7965
  155.3013  140.3385  155.4247 H   0  0  0  0  0  0  0  0  0  0  0  0  # atno 8008 bound_to 7997
  156.2000  140.1729  156.7958 H   0  0  0  0  0  0  0  0  0  0  0  0  # atno 8009 bound_to 7997
  154.5547  140.0699  156.8708 H   0  0  0  0  0  0  0  0  0  0  0  0  # atno 8010 bound_to 7997
  140.4873  143.2388  151.7963 H   0  0  0  0  0  0  0  0  0  0  0  0  # atno 10167 bound_to 10162
  156.6205  130.8888  151.2956 H   0  0  0  0  0  0  0  0  0  0  0  0  # atno 10718 bound_to 10713
  152.9861  135.6102  154.3107 H   0  0  0  0  0  0  0  0  0  0  0  0  # atno 10763 bound_to 10752
  154.2823  135.2777  155.2693 H   0  0  0  0  0  0  0  0  0  0  0  0  # atno 10764 bound_to 10752
  154.5027  135.5862  153.6600 H   0  0  0  0  0  0  0  0  0  0  0  0  # atno 10765 bound_to 10752
  139.9525  134.7202  156.0829 H   0  0  0  0  0  0  0  0  0  0  0  0  # atno 11005 bound_to 11000
  146.3165  140.3476  142.8653 LP  0  0  0  0  0  0  0  0  0  0  0  0  # atno 17320 bound_to 7965
  144.9124  140.7773  143.5799 LP  0  0  0  0  0  0  0  0  0  0  0  0  # atno 17321 bound_to 7965
  139.4844  144.4695  151.9443 LP  0  0  0  0  0  0  0  0  0  0  0  0  # atno 17342 bound_to 10162
  140.3781  144.2771  150.5912 LP  0  0  0  0  0  0  0  0  0  0  0  0  # atno 17343 bound_to 10162
  157.7229  130.9582  150.1512 LP  0  0  0  0  0  0  0  0  0  0  0  0  # atno 17370 bound_to 10713
  156.2316  130.3682  149.8439 LP  0  0  0  0  0  0  0  0  0  0  0  0  # atno 17371 bound_to 10713
  141.1191  133.6618  156.3168 LP  0  0  0  0  0  0  0  0  0  0  0  0  # atno 17394 bound_to 11000
  140.5686  134.5863  157.5452 LP  0  0  0  0  0  0  0  0  0  0  0  0  # atno 17395 bound_to 11000

$$$$
