AV-unprocessed.smi:1884|AV-procd|sdf|7647|dock7
  -GOLD-   22720 9373D 1   1.00000     0.00000
 Structure written by MMmdl.
 40 42  0  0  0  0  0  0  0  0  1 V2000
  151.9941  138.8914  155.5745 C   0  0  0  0  0  0  0  0  0  0  0  0
  152.0130  139.9339  156.6468 C   0  0  0  0  0  0  0  0  0  0  0  0
  152.8024  139.8397  157.7170 N   0  0  0  0  0  0  0  0  0  0  0  0
  152.5010  140.9916  158.4180 C   0  0  0  0  0  0  0  0  0  0  0  0
  153.0047  141.4786  159.6453 C   0  0  0  0  0  0  0  0  0  0  0  0
  152.5374  142.6995  160.1748 C   0  0  0  0  0  0  0  0  0  0  0  0
  151.5615  143.4490  159.4865 C   0  0  0  0  0  0  0  0  0  0  0  0
  151.0465  142.9823  158.2620 C   0  0  0  0  0  0  0  0  0  0  0  0
  151.5170  141.7637  157.7373 C   0  0  0  0  0  0  0  0  0  0  0  0
  151.2269  141.0367  156.5867 N   0  0  0  0  0  0  0  0  0  0  0  0
  150.2763  141.4044  155.5465 C   0  0  0  0  0  0  0  0  0  0  0  0
  148.8110  141.1881  155.9774 C   0  0  1  0  0  0  0  0  0  0  0  0
  148.3581  142.2262  156.8235 O   0  0  0  0  0  0  0  0  0  0  0  0
  147.8373  141.0388  154.7967 C   0  0  0  0  0  0  0  0  0  0  0  0
  146.4957  141.1533  155.2559 O   0  0  0  0  0  0  0  0  0  0  0  0
  145.8186  142.3290  155.0149 C   0  0  0  0  0  0  0  0  0  0  0  0
  146.1757  143.0455  153.8543 C   0  0  0  0  0  0  0  0  0  0  0  0
  145.5367  144.2573  153.5283 C   0  0  0  0  0  0  0  0  0  0  0  0
  144.5263  144.7688  154.3661 C   0  0  0  0  0  0  0  0  0  0  0  0
  143.8646  146.0191  154.0329 C   0  0  0  0  0  0  0  0  0  0  0  0
  143.3376  147.0144  153.7677 N   0  0  0  0  0  0  0  0  0  0  0  0
  144.1600  144.0621  155.5287 C   0  0  0  0  0  0  0  0  0  0  0  0
  144.8003  142.8499  155.8528 C   0  0  0  0  0  0  0  0  0  0  0  0
  152.6533  138.0627  155.8355 H   0  0  0  0  0  0  0  0  0  0  0  0
  152.3348  139.3157  154.6299 H   0  0  0  0  0  0  0  0  0  0  0  0
  150.9861  138.4981  155.4440 H   0  0  0  0  0  0  0  0  0  0  0  0
  153.7519  140.9114  160.1804 H   0  0  0  0  0  0  0  0  0  0  0  0
  152.9294  143.0625  161.1134 H   0  0  0  0  0  0  0  0  0  0  0  0
  151.2079  144.3824  159.8994 H   0  0  0  0  0  0  0  0  0  0  0  0
  150.2967  143.5526  157.7337 H   0  0  0  0  0  0  0  0  0  0  0  0
  150.4470  142.4485  155.2818 H   0  0  0  0  0  0  0  0  0  0  0  0
  150.4945  140.8273  154.6478 H   0  0  0  0  0  0  0  0  0  0  0  0
  148.7523  140.2742  156.5690 H   0  0  0  0  0  0  0  0  0  0  0  0
  148.5490  143.0546  156.4103 H   0  0  0  0  0  0  0  0  0  0  0  0
  148.0346  141.8354  154.0775 H   0  0  0  0  0  0  0  0  0  0  0  0
  148.0002  140.0860  154.2898 H   0  0  0  0  0  0  0  0  0  0  0  0
  146.9500  142.6616  153.2061 H   0  0  0  0  0  0  0  0  0  0  0  0
  145.8273  144.7891  152.6334 H   0  0  0  0  0  0  0  0  0  0  0  0
  143.3863  144.4447  156.1788 H   0  0  0  0  0  0  0  0  0  0  0  0
  144.4910  142.3384  156.7514 H   0  0  0  0  0  0  0  0  0  0  0  0
  1  2  1  0  0  0  0
  1 24  1  0  0  0  0
  1 25  1  0  0  0  0
  1 26  1  0  0  0  0
  2 10  1  0  0  0  0
  2  3  2  0  0  0  0
  3  4  1  0  0  0  0
  4  9  2  0  0  0  0
  4  5  1  0  0  0  0
  5  6  2  0  0  0  0
  5 27  1  0  0  0  0
  6  7  1  0  0  0  0
  6 28  1  0  0  0  0
  7  8  2  0  0  0  0
  7 29  1  0  0  0  0
  8  9  1  0  0  0  0
  8 30  1  0  0  0  0
  9 10  1  0  0  0  0
 10 11  1  0  0  0  0
 11 12  1  0  0  0  0
 11 31  1  0  0  0  0
 11 32  1  0  0  0  0
 12 13  1  0  0  0  0
 12 14  1  0  0  0  0
 12 33  1  0  0  0  0
 13 34  1  0  0  0  0
 14 15  1  0  0  0  0
 14 35  1  0  0  0  0
 14 36  1  0  0  0  0
 15 16  1  0  0  0  0
 16 23  1  0  0  0  0
 16 17  2  0  0  0  0
 17 18  1  0  0  0  0
 17 37  1  0  0  0  0
 18 19  2  0  0  0  0
 18 38  1  0  0  0  0
 19 20  1  0  0  0  0
 19 22  1  0  0  0  0
 20 21  3  0  0  0  0
 22 23  2  0  0  0  0
 22 39  1  0  0  0  0
 23 40  1  0  0  0  0
M  END
> <s_m_source_file>
AV-unprocessed.smi

> <i_m_source_file_index>
1884

> <i_lp_mmshare_version>
43012

> <i_f3d_flags>
0

> <s_epik_input>
W2NIXTFbY0hdW2NIXVtjSF1jKGMxMiluKGMobjIpW0NIM10pW0NIMl1bQ0BIXShbT0hdKVtDSDJdT2MzW2NIXVtjSF1jKEMjTilbY0hdW2NIXTM=

> <s_epik_cmdline>
J2VwaWtfcHl0aG9uJywgJy1waCcsICc3LjAnLCAnLXRuJywgJzgnLCAnLW1hJywgJzIwMCcsICctbWV0YWxfYmluZGluZycsICctaW1hZScsICc8aW5maWxlLm1hZT4nLCAnLW9tYWUnLCAnPG91dGZpbGUubWFlPic=

> <r_epik_Ionization_Penalty>
0.110799

> <r_epik_Ionization_Penalty_Charging>
0

> <r_epik_Ionization_Penalty_Neutral>
0.110799

> <r_epik_State_Penalty>
0.100537

> <r_epik_Charging_Adjusted_Penalty>
0.100537

> <i_epik_Tot_Q>
0

> <i_epik_Tot_abs_Q>
0

> <r_epik_Metal_State_Penalty>
0.000109561

> <b_epik_Metal_Only>
0

> <s_lp_Force_Field>
OPLS_2005

> <r_lp_Energy>
15.8786

> <b_lp_Chiralities_Consistent>
1

> <s_lp_Variant>
AV-unprocessed.smi:1884-2

> <Gold.Version>
5.8.1

> <Gold.Id.Protein>
6NUR|6NUR_protein|mol2

> <Gold.PLP.Fitness>
53.0114

> <Gold.PLP.PLP>
-49.3572

> <Gold.PLP.part.hbond>
-4.0000

> <Gold.PLP.part.metal>
0.0000

> <Gold.PLP.part.buried>
-5.3098

> <Gold.PLP.part.nonpolar>
-39.6239

> <Gold.PLP.part.repulsive>
0.1484

> <Gold.PLP.ligand.clash>
0.0000

> <Gold.PLP.ligand.torsion>
1.1962

> <Gold.PLP.Chemscore.Hbond>
2.0000

> <Gold.PLP.Chemscore.CHOScore>
0.0000

> <Gold.PLP.Chemscore.Metal>
0.0000

> <Gold.Chemscore.Hbonds>
donor molecule, donor type, donor heavy atom, donor atom, acceptor molecule, acceptor atom, score
      L1  H    13    34       P1  8028  1.00
      P1  H  7997  8008       L1     3  1.00

> <Gold.PLP.Chemscore.Internal.Correction>
0.0466

> <Gold.Rescore>
     Score         DG    S(hbond)    S(metal)    S(lipo)     H(rot)  DE(clash)    DE(int)     intcor
     15.74     -17.15       1.36        0.00     111.39       2.31       0.18       1.24       ----

> <Gold.Chemscore.Fitness>
15.7361

> <Gold.Chemscore.DG>
-17.1485

> <Gold.Chemscore.ZeroCoef>
-5.4800

> <Gold.Chemscore.Hbond>
1.3622

> <Gold.Chemscore.Metal>
0.0000

> <Gold.Chemscore.Lipo>
111.3922

> <Gold.Chemscore.Internal_Hbond>
0.0000

> <Gold.Chemscore.DEClash>
0.1753

> <Gold.Chemscore.DEInternal>
1.2370

> <Gold.Chemscore.Rot>
2.3102

> <Gold.Chemscore.Internal.Correction>
   9.000000E+99

> <Gold.Chemscore.Hbonds>
donor molecule, donor type, donor heavy atom, donor atom, acceptor molecule, acceptor atom, score
      L1  H    13    34       P1  8028  0.88
      P1  H  7997  8008       L1     3  0.26

> <Gold.Chemscore.Hbond.Weighted>
-4.5497

> <Gold.Chemscore.Metal.Weighted>
-0.0000

> <Gold.Chemscore.Lipo.Weighted>
-13.0329

> <Gold.Chemscore.Internal_Hbond.Weighted>
0.0000

> <Gold.Chemscore.DEClash.Weighted>
0.1753

> <Gold.Chemscore.DEInternal.Weighted>
1.2370

> <Gold.Chemscore.Rot.Weighted>
5.9141

> <Gold.Chemscore.Internal.Correction.Weighted>
   9.000000E+99

> <Gold.Protein.RotatedTorsions>
[ 6907 6896 6895 6894 ] final   67.46 input  -60.11 | X-H torsion
[ 7974 7965 7964 7962 ] final   23.27 input  175.53 | X-H torsion
[ 8008 7997 7996 7995 ] final  -84.18 input   59.86 | X-H torsion
[ 10167 10162 10161 10158 ] final   92.16 input  -65.29 | X-H torsion
[ 10718 10713 10712 10709 ] final   64.79 input   66.30 | X-H torsion
[ 10763 10752 10751 10750 ] final   85.42 input  -60.55 | X-H torsion
[ 11005 11000 10999 10996 ] final -160.29 input  -57.11 | X-H torsion

> <Gold.Protein.ActiveResidues>
 VAL166  LYS551  ARG553  GLY616  TRP617  ASP618  TYR619  PRO620  LYS621  CYS622 
 ASP623  PHE694  ASN695  SER759  ASP760  ASP761  ALA762  ILE779  LEU786  VAL792 
 PHE793  MET794  SER795  GLU796  ALA797  LYS798  CYS799  TRP800  GLU811  SER814 

> <Gold.Protein.RotatedAtoms>
  152.4554  134.5304  159.9808 H   0  0  0  0  0  0  0  0  0  0  0  0  # atno 6907 bound_to 6896
  151.5366  133.3434  159.2935 H   0  0  0  0  0  0  0  0  0  0  0  0  # atno 6908 bound_to 6896
  150.8496  134.7847  159.7061 H   0  0  0  0  0  0  0  0  0  0  0  0  # atno 6909 bound_to 6896
  146.1992  139.7768  142.8774 H   0  0  0  0  0  0  0  0  0  0  0  0  # atno 7974 bound_to 7965
  154.6271  140.0608  156.9686 H   0  0  0  0  0  0  0  0  0  0  0  0  # atno 8008 bound_to 7997
  155.1725  140.3292  155.4371 H   0  0  0  0  0  0  0  0  0  0  0  0  # atno 8009 bound_to 7997
  156.2463  140.1911  156.6826 H   0  0  0  0  0  0  0  0  0  0  0  0  # atno 8010 bound_to 7997
  139.8303  144.6690  150.9408 H   0  0  0  0  0  0  0  0  0  0  0  0  # atno 10167 bound_to 10162
  157.6063  130.9179  149.9892 H   0  0  0  0  0  0  0  0  0  0  0  0  # atno 10718 bound_to 10713
  153.1473  135.4618  154.9585 H   0  0  0  0  0  0  0  0  0  0  0  0  # atno 10763 bound_to 10752
  154.7797  135.3184  154.8019 H   0  0  0  0  0  0  0  0  0  0  0  0  # atno 10764 bound_to 10752
  153.8531  135.6919  153.4844 H   0  0  0  0  0  0  0  0  0  0  0  0  # atno 10765 bound_to 10752
  140.6331  134.4630  157.5230 H   0  0  0  0  0  0  0  0  0  0  0  0  # atno 11005 bound_to 11000
  145.3542  141.0313  143.3321 LP  0  0  0  0  0  0  0  0  0  0  0  0  # atno 17320 bound_to 7965
  144.8645  139.5128  143.6796 LP  0  0  0  0  0  0  0  0  0  0  0  0  # atno 17321 bound_to 7965
  140.7807  143.4007  151.1154 LP  0  0  0  0  0  0  0  0  0  0  0  0  # atno 17342 bound_to 10162
  139.7661  143.8563  152.3111 LP  0  0  0  0  0  0  0  0  0  0  0  0  # atno 17343 bound_to 10162
  156.1151  130.3648  149.9983 LP  0  0  0  0  0  0  0  0  0  0  0  0  # atno 17370 bound_to 10713
  156.8074  130.9312  151.3645 LP  0  0  0  0  0  0  0  0  0  0  0  0  # atno 17371 bound_to 10713
  139.9108  134.8349  156.1535 LP  0  0  0  0  0  0  0  0  0  0  0  0  # atno 17394 bound_to 11000
  141.0661  133.6819  156.2047 LP  0  0  0  0  0  0  0  0  0  0  0  0  # atno 17395 bound_to 11000

$$$$
