AV-unprocessed.smi:686|AV-procd|sdf|3341|dock9
  -GOLD-   22720 0313D 1   1.00000     0.00000
 Structure written by MMmdl.
 41 42  0  0  0  0  0  0  0  0  2 V2000
  150.4007  132.7718  154.9580 C   0  0  0  0  0  0  0  0  0  0  0  0
  148.9839  133.3156  154.7128 C   0  0  2  0  0  0  0  0  0  0  0  0
  148.4748  133.1717  153.2764 C   0  0  0  0  0  0  0  0  0  0  0  0
  147.4159  134.1983  153.1053 N   0  3  1  0  0  0  0  0  0  0  0  0
  146.0608  133.7086  152.7256 C   0  0  0  0  0  0  0  0  0  0  0  0
  146.0720  132.6602  151.5925 C   0  0  0  0  0  0  0  0  0  0  0  0
  145.1296  134.8860  152.3956 C   0  0  0  0  0  0  0  0  0  0  0  0
  147.4526  135.1103  154.2767 C   0  0  0  0  0  0  0  0  0  0  0  0
  148.7493  134.7972  155.0314 C   0  0  2  0  0  0  0  0  0  0  0  0
  149.8402  135.6483  154.5398 N   0  0  0  0  0  0  0  0  0  0  0  0
  150.6944  136.7093  155.6001 S   0  0  0  0  0  0  0  0  0  0  0  0
  149.7311  137.1924  156.6009 O   0  0  0  0  0  0  0  0  0  0  0  0
  151.9130  136.0009  156.0209 O   0  0  0  0  0  0  0  0  0  0  0  0
  151.1488  138.1183  154.4889 C   0  0  0  0  0  0  0  0  0  0  0  0
  150.6593  139.4195  155.0575 C   0  0  0  0  0  0  0  0  0  0  0  0
  149.6214  140.2618  154.5706 C   0  0  0  0  0  0  0  0  0  0  0  0
  149.6025  141.2921  155.4660 C   0  0  0  0  0  0  0  0  0  0  0  0
  150.5432  141.1054  156.4258 O   0  0  0  0  0  0  0  0  0  0  0  0
  151.2115  139.9056  156.1576 N   0  0  0  0  0  0  0  0  0  0  0  0
  151.1427  133.2711  154.3343 H   0  0  0  0  0  0  0  0  0  0  0  0
  150.4501  131.7057  154.7361 H   0  0  0  0  0  0  0  0  0  0  0  0
  150.6947  132.9047  155.9991 H   0  0  0  0  0  0  0  0  0  0  0  0
  148.3052  132.7460  155.3499 H   0  0  0  0  0  0  0  0  0  0  0  0
  149.2737  133.4093  152.5728 H   0  0  0  0  0  0  0  0  0  0  0  0
  148.1534  132.1544  153.0554 H   0  0  0  0  0  0  0  0  0  0  0  0
  145.6483  133.2267  153.6136 H   0  0  0  0  0  0  0  0  0  0  0  0
  145.0677  132.2695  151.4262 H   0  0  0  0  0  0  0  0  0  0  0  0
  146.7091  131.8073  151.8238 H   0  0  0  0  0  0  0  0  0  0  0  0
  146.4098  133.0776  150.6444 H   0  0  0  0  0  0  0  0  0  0  0  0
  144.1135  134.5384  152.2066 H   0  0  0  0  0  0  0  0  0  0  0  0
  145.4599  135.4278  151.5090 H   0  0  0  0  0  0  0  0  0  0  0  0
  145.0836  135.5956  153.2224 H   0  0  0  0  0  0  0  0  0  0  0  0
  147.3822  136.1532  153.9647 H   0  0  0  0  0  0  0  0  0  0  0  0
  146.6067  134.9210  154.9373 H   0  0  0  0  0  0  0  0  0  0  0  0
  148.6274  134.9563  156.1036 H   0  0  0  0  0  0  0  0  0  0  0  0
  149.7525  135.9845  153.5810 H   0  0  0  0  0  0  0  0  0  0  0  0
  152.2304  138.1366  154.3623 H   0  0  0  0  0  0  0  0  0  0  0  0
  150.7135  137.9295  153.5069 H   0  0  0  0  0  0  0  0  0  0  0  0
  148.9927  140.1330  153.7024 H   0  0  0  0  0  0  0  0  0  0  0  0
  149.0066  142.1886  155.5538 H   0  0  0  0  0  0  0  0  0  0  0  0
  147.7236  134.7601  152.3244 H   0  0  0  0  0  0  0  0  0  0  0  0
  1  2  1  0  0  0  0
  1 20  1  0  0  0  0
  1 21  1  0  0  0  0
  1 22  1  0  0  0  0
  2  9  1  0  0  0  0
  2  3  1  0  0  0  0
  2 23  1  0  0  0  0
  3  4  1  0  0  0  0
  3 24  1  0  0  0  0
  3 25  1  0  0  0  0
  4  5  1  0  0  0  0
  4  8  1  0  0  0  0
  4 41  1  0  0  0  0
  5  6  1  0  0  0  0
  5  7  1  0  0  0  0
  5 26  1  0  0  0  0
  6 27  1  0  0  0  0
  6 28  1  0  0  0  0
  6 29  1  0  0  0  0
  7 30  1  0  0  0  0
  7 31  1  0  0  0  0
  7 32  1  0  0  0  0
  8  9  1  0  0  0  0
  8 33  1  0  0  0  0
  8 34  1  0  0  0  0
  9 10  1  0  0  0  0
  9 35  1  0  0  0  0
 10 11  1  0  0  0  0
 10 36  1  0  0  0  0
 11 12  2  0  0  0  0
 11 13  2  0  0  0  0
 11 14  1  0  0  0  0
 14 15  1  0  0  0  0
 14 37  1  0  0  0  0
 14 38  1  0  0  0  0
 15 19  2  0  0  0  0
 15 16  1  0  0  0  0
 16 17  2  0  0  0  0
 16 39  1  0  0  0  0
 17 18  1  0  0  0  0
 17 40  1  0  0  0  0
 18 19  1  0  0  0  0
M  CHG  1   4   1
M  END
> <s_m_source_file>
AV-unprocessed.smi

> <i_m_source_file_index>
686

> <i_lp_mmshare_version>
43012

> <i_f3d_flags>
0

> <s_epik_input>
W0NIM11bQ0BASF0xW0NIMl1OKFtDSF0oW0NIM10pW0NIM10pW0NIMl1bQ0BIXTFbTkhdUyg9TykoPU8pW0NIMl1jMltjSF1bY0hdb24y

> <s_epik_cmdline>
J2VwaWtfcHl0aG9uJywgJy1waCcsICc3LjAnLCAnLXRuJywgJzgnLCAnLW1hJywgJzIwMCcsICctbWV0YWxfYmluZGluZycsICctaW1hZScsICc8aW5maWxlLm1hZT4nLCAnLW9tYWUnLCAnPG91dGZpbGUubWFlPic=

> <r_epik_Ionization_Penalty>
0.00200818

> <r_epik_Ionization_Penalty_Charging>
0.000701289

> <r_epik_Ionization_Penalty_Neutral>
0.00130689

> <r_epik_State_Penalty>
0.00131314

> <r_epik_Charging_Adjusted_Penalty>
0.00201443

> <i_epik_Tot_Q>
1

> <i_epik_Tot_abs_Q>
1

> <r_epik_Metal_State_Penalty>
0.310831

> <b_epik_Metal_Only>
0

> <s_lp_Force_Field>
OPLS_2005

> <r_lp_Energy>
24.0056

> <b_lp_Chiralities_Consistent>
1

> <s_lp_Variant>
AV-unprocessed.smi:686-5

> <Gold.Version>
5.8.1

> <Gold.Id.Protein>
6NUR|6NUR_protein|mol2

> <Gold.PLP.Fitness>
42.7626

> <Gold.PLP.PLP>
-29.4017

> <Gold.PLP.part.hbond>
-3.0000

> <Gold.PLP.part.metal>
0.0000

> <Gold.PLP.part.buried>
-2.5132

> <Gold.PLP.part.nonpolar>
-23.3594

> <Gold.PLP.part.repulsive>
0.1329

> <Gold.PLP.ligand.clash>
0.0000

> <Gold.PLP.ligand.torsion>
0.8335

> <Gold.PLP.Chemscore.Hbond>
3.6140

> <Gold.PLP.Chemscore.CHOScore>
1.0000

> <Gold.PLP.Chemscore.Metal>
0.0000

> <Gold.Chemscore.Hbonds>
donor molecule, donor type, donor heavy atom, donor atom, acceptor molecule, acceptor atom, score
      L1  H     4    41       P1  7948  1.73
      L1  H    10    36       P1  7948  0.85
      P1  H 10752 10765       L1    13  1.00
      L1  C    17    40       P1  8028  1.00

> <Gold.PLP.Chemscore.Internal.Correction>
1.1859

> <Gold.Rescore>
     Score         DG    S(hbond)    S(metal)    S(lipo)     H(rot)  DE(clash)    DE(int)     intcor
     15.53     -16.40       2.48        0.00      58.89       1.66       0.02       0.85       ----

> <Gold.Chemscore.Fitness>
15.5268

> <Gold.Chemscore.DG>
-16.4015

> <Gold.Chemscore.ZeroCoef>
-5.4800

> <Gold.Chemscore.Hbond>
2.4769

> <Gold.Chemscore.Metal>
0.0000

> <Gold.Chemscore.Lipo>
58.8894

> <Gold.Chemscore.Internal_Hbond>
0.0000

> <Gold.Chemscore.DEClash>
0.0202

> <Gold.Chemscore.DEInternal>
0.8545

> <Gold.Chemscore.Rot>
1.6567

> <Gold.Chemscore.Internal.Correction>
   9.000000E+99

> <Gold.Chemscore.Hbonds>
donor molecule, donor type, donor heavy atom, donor atom, acceptor molecule, acceptor atom, score
      L1  H     4    41       P1  7948  0.66
      L1  H    10    36       P1  7948  0.15
      P1  H 10752 10765       L1    13  0.91

> <Gold.Chemscore.Hbond.Weighted>
-8.2727

> <Gold.Chemscore.Metal.Weighted>
-0.0000

> <Gold.Chemscore.Lipo.Weighted>
-6.8901

> <Gold.Chemscore.Internal_Hbond.Weighted>
0.0000

> <Gold.Chemscore.DEClash.Weighted>
0.0202

> <Gold.Chemscore.DEInternal.Weighted>
0.8545

> <Gold.Chemscore.Rot.Weighted>
4.2413

> <Gold.Chemscore.Internal.Correction.Weighted>
   9.000000E+99

> <Gold.Protein.RotatedTorsions>
[ 6907 6896 6895 6894 ] final  174.84 input  -60.11 | X-H torsion
[ 7974 7965 7964 7962 ] final -154.13 input  175.53 | X-H torsion
[ 8008 7997 7996 7995 ] final   91.46 input   59.86 | X-H torsion
[ 10167 10162 10161 10158 ] final -157.61 input  -65.29 | X-H torsion
[ 10718 10713 10712 10709 ] final -120.00 input   66.30 | X-H torsion
[ 10763 10752 10751 10750 ] final -170.45 input  -60.55 | X-H torsion
[ 11005 11000 10999 10996 ] final -162.50 input  -57.11 | X-H torsion

> <Gold.Protein.ActiveResidues>
 VAL166  LYS551  ARG553  GLY616  TRP617  ASP618  TYR619  PRO620  LYS621  CYS622 
 ASP623  PHE694  ASN695  SER759  ASP760  ASP761  ALA762  ILE779  LEU786  VAL792 
 PHE793  MET794  SER795  GLU796  ALA797  LYS798  CYS799  TRP800  GLU811  SER814 

> <Gold.Protein.RotatedAtoms>
  151.7458  133.3324  159.3377 H   0  0  0  0  0  0  0  0  0  0  0  0  # atno 6907 bound_to 6896
  150.7555  134.6237  159.6159 H   0  0  0  0  0  0  0  0  0  0  0  0  # atno 6908 bound_to 6896
  152.3501  134.7020  160.0290 H   0  0  0  0  0  0  0  0  0  0  0  0  # atno 6909 bound_to 6896
  144.7705  140.4431  143.5910 H   0  0  0  0  0  0  0  0  0  0  0  0  # atno 7974 bound_to 7965
  156.0240  140.3337  155.7069 H   0  0  0  0  0  0  0  0  0  0  0  0  # atno 8008 bound_to 7997
  155.5981  140.0653  157.2758 H   0  0  0  0  0  0  0  0  0  0  0  0  # atno 8009 bound_to 7997
  154.4327  140.1815  156.1133 H   0  0  0  0  0  0  0  0  0  0  0  0  # atno 8010 bound_to 7997
  139.6757  143.9668  152.2309 H   0  0  0  0  0  0  0  0  0  0  0  0  # atno 10167 bound_to 10162
  156.1224  130.6333  150.9486 H   0  0  0  0  0  0  0  0  0  0  0  0  # atno 10718 bound_to 10713
  154.6413  135.2899  155.0100 H   0  0  0  0  0  0  0  0  0  0  0  0  # atno 10763 bound_to 10752
  154.1225  135.6546  153.4910 H   0  0  0  0  0  0  0  0  0  0  0  0  # atno 10764 bound_to 10752
  153.0328  135.5291  154.7281 H   0  0  0  0  0  0  0  0  0  0  0  0  # atno 10765 bound_to 10752
  140.6086  134.4873  157.5213 H   0  0  0  0  0  0  0  0  0  0  0  0  # atno 11005 bound_to 11000
  145.6338  139.1540  143.2954 LP  0  0  0  0  0  0  0  0  0  0  0  0  # atno 17320 bound_to 7965
  146.1848  140.6440  142.9173 LP  0  0  0  0  0  0  0  0  0  0  0  0  # atno 17321 bound_to 7965
  139.9444  144.6661  150.8234 LP  0  0  0  0  0  0  0  0  0  0  0  0  # atno 17342 bound_to 10162
  140.7634  143.3223  151.2594 LP  0  0  0  0  0  0  0  0  0  0  0  0  # atno 17343 bound_to 10162
  157.6407  131.0910  150.8257 LP  0  0  0  0  0  0  0  0  0  0  0  0  # atno 17370 bound_to 10713
  156.8352  130.5029  149.5327 LP  0  0  0  0  0  0  0  0  0  0  0  0  # atno 17371 bound_to 10713
  139.9202  134.8165  156.1237 LP  0  0  0  0  0  0  0  0  0  0  0  0  # atno 17394 bound_to 11000
  141.0823  133.6749  156.2363 LP  0  0  0  0  0  0  0  0  0  0  0  0  # atno 17395 bound_to 11000

$$$$
