#       Name:                AV-unprocessed.smi:223
#       Creating user name   scv26
#       Creation time:       Thu Mar 26 20:16:14 2020


#       File generated by GOLD software.
#

@<TRIPOS>MOLECULE
AV-unprocessed.smi:223
    55    58     1
SMALL
NO_CHARGES


@<TRIPOS>ATOM
      1 ****        -5.0660   1.7835   1.3209 C.3            1 S1                 0.0000
      2 ****        -3.6421   2.0671   0.8275 C.3            1 S1                 0.0000
      3 ****        -3.4722   1.5536  -0.5424 C.1            1 S1                 0.0000
      4 ****        -3.3390   1.1497  -1.6185 N.1            1 S1                 0.0000
      5 ****        -2.5957   1.4956   1.8062 C.3            1 S1                 0.0000
      6 ****        -1.2363   1.9806   1.5658 N.pl3          1 S1                 0.0000
      7 ****        -0.5763   1.4644   0.4945 C.ar           1 S1                 0.0000
      8 ****        -0.0543   2.3091  -0.4357 N.ar           1 S1                 0.0000
      9 ****         0.5752   1.8291  -1.5113 C.ar           1 S1                 0.0000
     10 ****         0.7980   0.5583  -1.8484 N.ar           1 S1                 0.0000
     11 ****         0.2897  -0.2969  -0.9162 C.ar           1 S1                 0.0000
     12 ****        -0.4061   0.0668   0.2727 C.ar           1 S1                 0.0000
     13 ****        -0.7641  -1.0790   0.9738 N.2            1 S1                 0.0000
     14 ****        -0.3198  -2.0597   0.2370 C.2            1 S1                 0.0000
     15 ****         0.3359  -1.6803  -0.9120 N.pl3          1 S1                 0.0000
     16 ****         0.9303  -2.5601  -1.9076 C.3            1 S1                 0.0000
     17 ****         2.3186  -3.1085  -1.5009 C.3            1 S1                 0.0000
     18 ****         2.1726  -3.9224  -0.3494 O.3            1 S1                 0.0000
     19 ****         2.9717  -3.9429  -2.5955 C.3            1 S1                 0.0000
     20 ****         4.4572  -3.7520  -2.3211 C.3            1 S1                 0.0000
     21 ****         4.5406  -2.3839  -1.9598 O.3            1 S1                 0.0000
     22 ****         3.3832  -2.0307  -1.2071 C.3            1 S1                 0.0000
     23 ****        -0.9573   3.3669   1.9323 C.3            1 S1                 0.0000
     24 ****         0.4194   3.7316   2.4414 C.3            1 S1                 0.0000
     25 ****        -0.7554   3.7037   3.3909 C.3            1 S1                 0.0000
     26 ****        -5.8060   2.2086   0.6423 H              1 S1                 0.0000
     27 ****        -5.2351   2.2168   2.3071 H              1 S1                 0.0000
     28 ****        -5.2534   0.7114   1.3888 H              1 S1                 0.0000
     29 ****        -3.5210   3.1487   0.7666 H              1 S1                 0.0000
     30 ****        -2.8644   1.7890   2.8215 H              1 S1                 0.0000
     31 ****        -2.6379   0.4083   1.8024 H              1 S1                 0.0000
     32 ****         0.9524   2.5691  -2.2016 H              1 S1                 0.0000
     33 ****        -0.4530  -3.0947   0.5168 H              1 S1                 0.0000
     34 ****         0.2383  -3.3825  -2.0931 H              1 S1                 0.0000
     35 ****         1.0062  -2.0099  -2.8462 H              1 S1                 0.0000
     36 ****         3.0259  -4.2434  -0.1002 H              1 S1                 0.0000
     37 ****         2.6654  -4.9899  -2.5936 H              1 S1                 0.0000
     38 ****         2.7374  -3.5300  -3.5777 H              1 S1                 0.0000
     39 ****         4.7850  -4.3726  -1.4859 H              1 S1                 0.0000
     40 ****         5.0803  -3.9787  -3.1865 H              1 S1                 0.0000
     41 ****         3.0673  -1.0388  -1.5280 H              1 S1                 0.0000
     42 ****         3.6272  -1.9675  -0.1457 H              1 S1                 0.0000
     43 ****        -1.4560   4.1254   1.3315 H              1 S1                 0.0000
     44 ****         1.1564   2.9357   2.5314 H              1 S1                 0.0000
     45 ****         0.8158   4.7041   2.1578 H              1 S1                 0.0000
     46 ****        -1.1410   4.6583   3.7427 H              1 S1                 0.0000
     47 ****        -0.7960   2.8896   4.1120 H              1 S1                 0.0000
     48 ****        -3.2239   0.8006  -2.5485 LP             1 S1                 0.0000
     49 ****        -0.1428   3.2976  -0.3129 LP             1 S1                 0.0000
     50 ****         1.2762   0.2698  -2.6779 LP             1 S1                 0.0000
     51 ****        -1.2515  -1.1381   1.8450 LP             1 S1                 0.0000
     52 ****         1.5688  -4.6927  -0.5548 LP             1 S1                 0.0000
     53 ****         1.7831  -3.3837   0.3977 LP             1 S1                 0.0000
     54 ****         4.5880  -1.8215  -2.7853 LP             1 S1                 0.0000
     55 ****         5.3594  -2.2328  -1.4061 LP             1 S1                 0.0000
@<TRIPOS>BOND
    1    1    2 1     
    2    1   26 1     
    3    1   27 1     
    4    1   28 1     
    5    2    3 1     
    6    2    5 1     
    7    2   29 1     
    8    3    4 3     
    9    5    6 1     
   10    5   30 1     
   11    5   31 1     
   12    6    7 1     
   13    6   23 1     
   14    7   12 ar    
   15    7    8 ar    
   16    8    9 ar    
   17    9   10 ar    
   18    9   32 1     
   19   10   11 ar    
   20   11   15 1     
   21   11   12 ar    
   22   12   13 1     
   23   13   14 2     
   24   14   15 1     
   25   14   33 1     
   26   15   16 1     
   27   16   17 1     
   28   16   34 1     
   29   16   35 1     
   30   17   22 1     
   31   17   18 1     
   32   17   19 1     
   33   18   36 1     
   34   19   20 1     
   35   19   37 1     
   36   19   38 1     
   37   20   21 1     
   38   20   39 1     
   39   20   40 1     
   40   21   22 1     
   41   22   41 1     
   42   22   42 1     
   43   23   25 1     
   44   23   24 1     
   45   23   43 1     
   46   24   25 1     
   47   24   44 1     
   48   24   45 1     
   49   25   46 1     
   50   25   47 1     
   51    4   48 1     
   52    8   49 1     
   53   10   50 1     
   54   13   51 1     
   55   18   52 1     
   56   18   53 1     
   57   21   54 1     
   58   21   55 1     
@<TRIPOS>SUBSTRUCTURE
      1 S1             1
@<TRIPOS>SET
LONE_PAIRS      STATIC     ATOMS    <user>   **** ""
8 48 49 50 51 52 53 54 55
DONOR_HYDROGENS      STATIC     ATOMS    <user>   **** ""
1 36
ATOM$BLUE        STATIC     ATOMS    COLORGROUP SYSTEM
8 48 49 50 51 52 53 54 55
ATOM$RED        STATIC     ATOMS    COLORGROUP SYSTEM
1 36
