AV-unprocessed.smi:1506|AV-procd|sdf|6078|dock6
  -GOLD-   22720 6203D 1   1.00000     0.00000
 Structure written by MMmdl.
 40 42  0  0  0  0  0  0  0  0  2 V2000
  146.4488  134.3387  155.3417 C   0  0  0  0  0  0  0  0  0  0  0  0
  147.9375  134.5776  155.1960 C   0  0  0  0  0  0  0  0  0  0  0  0
  148.8013  133.5119  154.8754 C   0  0  0  0  0  0  0  0  0  0  0  0
  150.1827  133.7435  154.7429 C   0  0  0  0  0  0  0  0  0  0  0  0
  150.7058  135.0373  154.9314 C   0  0  0  0  0  0  0  0  0  0  0  0
  149.8472  136.1175  155.2576 C   0  0  0  0  0  0  0  0  0  0  0  0
  150.2735  137.4125  155.4623 O   0  0  0  0  0  0  0  0  0  0  0  0
  151.5670  137.7766  154.9982 C   0  0  0  0  0  0  0  0  0  0  0  0
  151.7731  139.2826  155.2175 C   0  0  2  0  0  0  0  0  0  0  0  0
  153.0508  139.6333  154.7235 O   0  0  0  0  0  0  0  0  0  0  0  0
  151.6476  139.6795  156.7025 C   0  0  0  0  0  0  0  0  0  0  0  0
  151.2569  141.0842  156.8903 N   0  0  0  0  0  0  0  0  0  0  0  0
  150.4057  141.8533  156.1585 C   0  0  0  0  0  0  0  0  0  0  0  0
  150.3666  143.0869  156.7345 N   0  3  0  0  0  0  0  0  0  0  0  0
  151.2072  143.1079  157.8495 C   0  0  0  0  0  0  0  0  0  0  0  0
  151.4992  144.1271  158.7509 C   0  0  0  0  0  0  0  0  0  0  0  0
  152.4098  143.8181  159.7827 C   0  0  0  0  0  0  0  0  0  0  0  0
  152.9914  142.5382  159.8899 C   0  0  0  0  0  0  0  0  0  0  0  0
  152.6864  141.5119  158.9717 C   0  0  0  0  0  0  0  0  0  0  0  0
  151.7845  141.8245  157.9549 C   0  0  0  0  0  0  0  0  0  0  0  0
  148.4644  135.8714  155.3857 C   0  0  0  0  0  0  0  0  0  0  0  0
  146.1606  133.3718  154.9278 H   0  0  0  0  0  0  0  0  0  0  0  0
  145.8848  135.1117  154.8191 H   0  0  0  0  0  0  0  0  0  0  0  0
  146.1657  134.3584  156.3943 H   0  0  0  0  0  0  0  0  0  0  0  0
  148.4095  132.5157  154.7302 H   0  0  0  0  0  0  0  0  0  0  0  0
  150.8442  132.9262  154.4960 H   0  0  0  0  0  0  0  0  0  0  0  0
  151.7707  135.1736  154.8201 H   0  0  0  0  0  0  0  0  0  0  0  0
  152.3415  137.2158  155.5243 H   0  0  0  0  0  0  0  0  0  0  0  0
  151.6444  137.5447  153.9343 H   0  0  0  0  0  0  0  0  0  0  0  0
  151.0357  139.8329  154.6315 H   0  0  0  0  0  0  0  0  0  0  0  0
  153.2848  139.0245  154.0393 H   0  0  0  0  0  0  0  0  0  0  0  0
  150.8833  139.0696  157.1857 H   0  0  0  0  0  0  0  0  0  0  0  0
  152.5743  139.4881  157.2439 H   0  0  0  0  0  0  0  0  0  0  0  0
  149.8582  141.5405  155.2810 H   0  0  0  0  0  0  0  0  0  0  0  0
  151.0562  145.1089  158.6704 H   0  0  0  0  0  0  0  0  0  0  0  0
  152.6688  144.5784  160.5052 H   0  0  0  0  0  0  0  0  0  0  0  0
  153.6873  142.3391  160.6919 H   0  0  0  0  0  0  0  0  0  0  0  0
  153.1430  140.5372  159.0599 H   0  0  0  0  0  0  0  0  0  0  0  0
  147.8009  136.6874  155.6332 H   0  0  0  0  0  0  0  0  0  0  0  0
  149.8061  143.8559  156.3901 H   0  0  0  0  0  0  0  0  0  0  0  0
  1  2  1  0  0  0  0
  1 22  1  0  0  0  0
  1 23  1  0  0  0  0
  1 24  1  0  0  0  0
  2 21  1  0  0  0  0
  2  3  2  0  0  0  0
  3  4  1  0  0  0  0
  3 25  1  0  0  0  0
  4  5  2  0  0  0  0
  4 26  1  0  0  0  0
  5  6  1  0  0  0  0
  5 27  1  0  0  0  0
  6  7  1  0  0  0  0
  6 21  2  0  0  0  0
  7  8  1  0  0  0  0
  8  9  1  0  0  0  0
  8 28  1  0  0  0  0
  8 29  1  0  0  0  0
  9 10  1  0  0  0  0
  9 11  1  0  0  0  0
  9 30  1  0  0  0  0
 10 31  1  0  0  0  0
 11 12  1  0  0  0  0
 11 32  1  0  0  0  0
 11 33  1  0  0  0  0
 12 20  1  0  0  0  0
 12 13  1  0  0  0  0
 13 14  2  0  0  0  0
 13 34  1  0  0  0  0
 14 15  1  0  0  0  0
 14 40  1  0  0  0  0
 15 20  2  0  0  0  0
 15 16  1  0  0  0  0
 16 17  2  0  0  0  0
 16 35  1  0  0  0  0
 17 18  1  0  0  0  0
 17 36  1  0  0  0  0
 18 19  2  0  0  0  0
 18 37  1  0  0  0  0
 19 20  1  0  0  0  0
 19 38  1  0  0  0  0
 21 39  1  0  0  0  0
M  CHG  1  14   1
M  END
> <s_m_source_file>
AV-unprocessed.smi

> <i_m_source_file_index>
1506

> <i_lp_mmshare_version>
43012

> <i_f3d_flags>
0

> <s_epik_input>
W0NIM11jMVtjSF1bY0hdW2NIXWMoW2NIXTEpT1tDSDJdW0NASF0oW09IXSlbQ0gyXW4oW2NIXW4yKWMoYzIzKVtjSF1bY0hdW2NIXVtjSF0z

> <s_epik_cmdline>
J2VwaWtfcHl0aG9uJywgJy1waCcsICc3LjAnLCAnLXRuJywgJzgnLCAnLW1hJywgJzIwMCcsICctbWV0YWxfYmluZGluZycsICctaW1hZScsICc8aW5maWxlLm1hZT4nLCAnLW9tYWUnLCAnPG91dGZpbGUubWFlPic=

> <r_lp_tautomer_probability>
1

> <r_epik_Ionization_Penalty>
1.37864

> <r_epik_Ionization_Penalty_Charging>
1.37864

> <r_epik_Ionization_Penalty_Neutral>
2.3993e-06

> <r_epik_State_Penalty>
1.45896

> <r_epik_Charging_Adjusted_Penalty>
2.8376

> <i_epik_Tot_Q>
1

> <i_epik_Tot_abs_Q>
1

> <r_epik_Metal_State_Penalty>
5.49899

> <b_epik_Metal_Only>
0

> <s_lp_Force_Field>
OPLS_2005

> <r_lp_Energy>
20.022

> <b_lp_Chiralities_Consistent>
1

> <s_lp_Variant>
AV-unprocessed.smi:1506-3

> <Gold.Version>
5.8.1

> <Gold.Id.Protein>
6NUR|6NUR_protein|mol2

> <Gold.PLP.Fitness>
50.3775

> <Gold.PLP.PLP>
-42.9917

> <Gold.PLP.part.hbond>
-3.0000

> <Gold.PLP.part.metal>
0.0000

> <Gold.PLP.part.buried>
-4.0672

> <Gold.PLP.part.nonpolar>
-35.1468

> <Gold.PLP.part.repulsive>
0.1484

> <Gold.PLP.ligand.clash>
0.0000

> <Gold.PLP.ligand.torsion>
0.8364

> <Gold.PLP.Chemscore.Hbond>
3.0000

> <Gold.PLP.Chemscore.CHOScore>
0.0000

> <Gold.PLP.Chemscore.Metal>
0.0000

> <Gold.Chemscore.Hbonds>
donor molecule, donor type, donor heavy atom, donor atom, acceptor molecule, acceptor atom, score
      L1  H    14    40       P1  8028  1.59
      P1  H  7997  8008       L1    10  1.00

> <Gold.PLP.Chemscore.Internal.Correction>
0.0586

> <Gold.Rescore>
     Score         DG    S(hbond)    S(metal)    S(lipo)     H(rot)  DE(clash)    DE(int)     intcor
     18.73     -19.56       1.98        0.00     113.63       2.27       0.05       0.78       ----

> <Gold.Chemscore.Fitness>
18.7262

> <Gold.Chemscore.DG>
-19.5621

> <Gold.Chemscore.ZeroCoef>
-5.4800

> <Gold.Chemscore.Hbond>
1.9773

> <Gold.Chemscore.Metal>
0.0000

> <Gold.Chemscore.Lipo>
113.6322

> <Gold.Chemscore.Internal_Hbond>
0.0000

> <Gold.Chemscore.DEClash>
0.0513

> <Gold.Chemscore.DEInternal>
0.7846

> <Gold.Chemscore.Rot>
2.2723

> <Gold.Chemscore.Internal.Correction>
   9.000000E+99

> <Gold.Chemscore.Hbonds>
donor molecule, donor type, donor heavy atom, donor atom, acceptor molecule, acceptor atom, score
      L1  H    14    40       P1  8028  0.79
      P1  H  7997  8008       L1    10  0.82

> <Gold.Chemscore.Hbond.Weighted>
-6.6041

> <Gold.Chemscore.Metal.Weighted>
-0.0000

> <Gold.Chemscore.Lipo.Weighted>
-13.2950

> <Gold.Chemscore.Internal_Hbond.Weighted>
0.0000

> <Gold.Chemscore.DEClash.Weighted>
0.0513

> <Gold.Chemscore.DEInternal.Weighted>
0.7846

> <Gold.Chemscore.Rot.Weighted>
5.8170

> <Gold.Chemscore.Internal.Correction.Weighted>
   9.000000E+99

> <Gold.Protein.RotatedTorsions>
[ 6907 6896 6895 6894 ] final   -3.73 input  -60.11 | X-H torsion
[ 7974 7965 7964 7962 ] final -177.72 input  175.53 | X-H torsion
[ 8008 7997 7996 7995 ] final   -1.47 input   59.86 | X-H torsion
[ 10167 10162 10161 10158 ] final  177.10 input  -65.29 | X-H torsion
[ 10718 10713 10712 10709 ] final   82.69 input   66.30 | X-H torsion
[ 10763 10752 10751 10750 ] final  158.34 input  -60.55 | X-H torsion
[ 11005 11000 10999 10996 ] final  -45.95 input  -57.11 | X-H torsion

> <Gold.Protein.ActiveResidues>
 VAL166  LYS551  ARG553  GLY616  TRP617  ASP618  TYR619  PRO620  LYS621  CYS622 
 ASP623  PHE694  ASN695  SER759  ASP760  ASP761  ALA762  ILE779  LEU786  VAL792 
 PHE793  MET794  SER795  GLU796  ALA797  LYS798  CYS799  TRP800  GLU811  SER814 

> <Gold.Protein.RotatedAtoms>
  151.5090  135.1064  159.9848 H   0  0  0  0  0  0  0  0  0  0  0  0  # atno 6907 bound_to 6896
  152.4669  133.7940  159.6927 H   0  0  0  0  0  0  0  0  0  0  0  0  # atno 6908 bound_to 6896
  150.8658  133.7513  159.3003 H   0  0  0  0  0  0  0  0  0  0  0  0  # atno 6909 bound_to 6896
  144.7128  140.0976  143.6418 H   0  0  0  0  0  0  0  0  0  0  0  0  # atno 7974 bound_to 7965
  154.6464  140.2558  155.7263 H   0  0  0  0  0  0  0  0  0  0  0  0  # atno 8008 bound_to 7997
  156.2554  140.2877  156.0800 H   0  0  0  0  0  0  0  0  0  0  0  0  # atno 8009 bound_to 7997
  155.1518  140.0382  157.2813 H   0  0  0  0  0  0  0  0  0  0  0  0  # atno 8010 bound_to 7997
  139.5240  144.2838  152.0523 H   0  0  0  0  0  0  0  0  0  0  0  0  # atno 10167 bound_to 10162
  157.6863  131.0058  150.2412 H   0  0  0  0  0  0  0  0  0  0  0  0  # atno 10718 bound_to 10713
  154.2145  135.2784  155.2947 H   0  0  0  0  0  0  0  0  0  0  0  0  # atno 10763 bound_to 10752
  154.5752  135.5606  153.7136 H   0  0  0  0  0  0  0  0  0  0  0  0  # atno 10764 bound_to 10752
  153.0056  135.6331  154.2284 H   0  0  0  0  0  0  0  0  0  0  0  0  # atno 10765 bound_to 10752
  141.0548  133.6729  156.3086 H   0  0  0  0  0  0  0  0  0  0  0  0  # atno 11005 bound_to 11000
  145.9565  139.2770  143.1181 LP  0  0  0  0  0  0  0  0  0  0  0  0  # atno 17320 bound_to 7965
  145.9266  140.9078  143.0377 LP  0  0  0  0  0  0  0  0  0  0  0  0  # atno 17321 bound_to 7965
  140.2292  144.4386  150.6307 LP  0  0  0  0  0  0  0  0  0  0  0  0  # atno 17342 bound_to 10162
  140.6367  143.2196  151.6380 LP  0  0  0  0  0  0  0  0  0  0  0  0  # atno 17343 bound_to 10162
  156.3026  130.3760  149.7736 LP  0  0  0  0  0  0  0  0  0  0  0  0  # atno 17370 bound_to 10713
  156.5361  130.8279  151.3253 LP  0  0  0  0  0  0  0  0  0  0  0  0  # atno 17371 bound_to 10713
  140.5985  134.5579  157.5513 LP  0  0  0  0  0  0  0  0  0  0  0  0  # atno 17394 bound_to 11000
  139.9381  134.7838  156.0750 LP  0  0  0  0  0  0  0  0  0  0  0  0  # atno 17395 bound_to 11000

$$$$
