AV-unprocessed.smi:3330|AV-procd|sdf|12801|dock4
  -GOLD-   2272019163D 1   1.00000     0.00000
 Structure written by MMmdl.
 39 40  0  0  0  0  0  0  0  0  2 V2000
  151.1802  141.2204  157.1929 C   0  0  0  0  0  0  0  0  0  0  0  0
  150.1488  142.1455  157.8642 C   0  0  2  0  0  0  0  0  0  0  0  0
  149.0883  142.5040  156.8953 N   0  3  0  0  0  0  0  0  0  0  0  0
  147.7730  141.8675  157.1163 C   0  0  0  0  0  0  0  0  0  0  0  0
  146.8319  142.0921  155.9187 C   0  0  0  0  0  0  0  0  0  0  0  0
  147.1914  141.2636  154.7594 N   0  0  0  0  0  0  0  0  0  0  0  0
  146.4792  140.2074  154.3449 C   0  0  0  0  0  0  0  0  0  0  0  0
  145.4376  139.7712  154.8330 O   0  0  0  0  0  0  0  0  0  0  0  0
  147.1619  139.6118  153.1331 C   0  0  0  0  0  0  0  0  0  0  0  0
  148.2751  140.5289  153.0178 N   0  0  0  0  0  0  0  0  0  0  0  0
  148.2602  141.4723  153.9680 C   0  0  0  0  0  0  0  0  0  0  0  0
  149.0804  142.3823  154.0759 O   0  0  0  0  0  0  0  0  0  0  0  0
  150.7863  143.4396  158.4388 C   0  0  2  0  0  0  0  0  0  0  0  0
  151.5143  144.2807  157.3739 C   0  0  0  0  0  0  0  0  0  0  0  0
  151.7008  143.1485  159.5396 N   0  0  0  0  0  0  0  0  0  0  0  0
  152.9350  142.5339  159.4823 C   0  0  0  0  0  0  0  0  0  0  0  0
  153.4167  142.4629  160.7579 C   0  0  0  0  0  0  0  0  0  0  0  0
  152.3893  143.0578  161.5411 C   0  0  0  0  0  0  0  0  0  0  0  0
  151.3658  143.4682  160.8108 N   0  0  0  0  0  0  0  0  0  0  0  0
  151.9291  140.8705  157.9028 H   0  0  0  0  0  0  0  0  0  0  0  0
  151.7015  141.7298  156.3817 H   0  0  0  0  0  0  0  0  0  0  0  0
  150.7073  140.3313  156.7755 H   0  0  0  0  0  0  0  0  0  0  0  0
  149.6879  141.6025  158.6909 H   0  0  0  0  0  0  0  0  0  0  0  0
  148.9426  143.4996  156.9864 H   0  0  0  0  0  0  0  0  0  0  0  0
  147.9094  140.8000  157.2898 H   0  0  0  0  0  0  0  0  0  0  0  0
  147.3127  142.2793  158.0154 H   0  0  0  0  0  0  0  0  0  0  0  0
  145.8011  141.8935  156.2178 H   0  0  0  0  0  0  0  0  0  0  0  0
  146.8524  143.1453  155.6331 H   0  0  0  0  0  0  0  0  0  0  0  0
  147.4980  138.5916  153.3203 H   0  0  0  0  0  0  0  0  0  0  0  0
  146.5204  139.6421  152.2521 H   0  0  0  0  0  0  0  0  0  0  0  0
  148.9722  140.4586  152.2905 H   0  0  0  0  0  0  0  0  0  0  0  0
  149.9852  144.0547  158.8521 H   0  0  0  0  0  0  0  0  0  0  0  0
  150.8289  144.6544  156.6139 H   0  0  0  0  0  0  0  0  0  0  0  0
  152.2896  143.7024  156.8701 H   0  0  0  0  0  0  0  0  0  0  0  0
  151.9924  145.1509  157.8249 H   0  0  0  0  0  0  0  0  0  0  0  0
  153.3653  142.2023  158.5486 H   0  0  0  0  0  0  0  0  0  0  0  0
  154.3579  142.0450  161.0831 H   0  0  0  0  0  0  0  0  0  0  0  0
  152.3587  143.2060  162.6106 H   0  0  0  0  0  0  0  0  0  0  0  0
  149.4072  142.3157  155.9555 H   0  0  0  0  0  0  0  0  0  0  0  0
  1  2  1  0  0  0  0
  1 20  1  0  0  0  0
  1 21  1  0  0  0  0
  1 22  1  0  0  0  0
  2  3  1  0  0  0  0
  2 13  1  0  0  0  0
  2 23  1  0  0  0  0
  3  4  1  0  0  0  0
  3 24  1  0  0  0  0
  3 39  1  0  0  0  0
  4  5  1  0  0  0  0
  4 25  1  0  0  0  0
  4 26  1  0  0  0  0
  5  6  1  0  0  0  0
  5 27  1  0  0  0  0
  5 28  1  0  0  0  0
  6 11  1  0  0  0  0
  6  7  1  0  0  0  0
  7  8  2  0  0  0  0
  7  9  1  0  0  0  0
  9 10  1  0  0  0  0
  9 29  1  0  0  0  0
  9 30  1  0  0  0  0
 10 11  1  0  0  0  0
 10 31  1  0  0  0  0
 11 12  2  0  0  0  0
 13 14  1  0  0  0  0
 13 15  1  0  0  0  0
 13 32  1  0  0  0  0
 14 33  1  0  0  0  0
 14 34  1  0  0  0  0
 14 35  1  0  0  0  0
 15 19  1  0  0  0  0
 15 16  1  0  0  0  0
 16 17  2  0  0  0  0
 16 36  1  0  0  0  0
 17 18  1  0  0  0  0
 17 37  1  0  0  0  0
 18 19  2  0  0  0  0
 18 38  1  0  0  0  0
M  CHG  1   3   1
M  END
> <s_m_source_file>
AV-unprocessed.smi

> <i_m_source_file_index>
3330

> <i_lp_mmshare_version>
43012

> <i_f3d_flags>
0

> <s_epik_input>
bjFbY0hdW2NIXVtjSF1uMVtDQEBIXShbQ0gzXSlbQ0BIXShbQ0gzXSlbTkhdW0NIMl1bQ0gyXU4yQyg9TylbQ0gyXVtOSF1DMj1P

> <s_epik_cmdline>
J2VwaWtfcHl0aG9uJywgJy1waCcsICc3LjAnLCAnLXRuJywgJzgnLCAnLW1hJywgJzIwMCcsICctbWV0YWxfYmluZGluZycsICctaW1hZScsICc8aW5maWxlLm1hZT4nLCAnLW9tYWUnLCAnPG91dGZpbGUubWFlPic=

> <r_lp_tautomer_probability>
1

> <r_epik_Ionization_Penalty>
0.0124905

> <r_epik_Ionization_Penalty_Charging>
0.0123685

> <r_epik_Ionization_Penalty_Neutral>
0.000122059

> <r_epik_State_Penalty>
0.00957041

> <r_epik_Charging_Adjusted_Penalty>
0.0219389

> <i_epik_Tot_Q>
1

> <i_epik_Tot_abs_Q>
1

> <r_epik_Metal_State_Penalty>
0.0858301

> <b_epik_Metal_Only>
0

> <s_lp_Force_Field>
OPLS_2005

> <r_lp_Energy>
30.1395

> <b_lp_Chiralities_Consistent>
1

> <s_lp_Variant>
AV-unprocessed.smi:3330-1

> <Gold.Version>
5.8.1

> <Gold.Id.Protein>
6NUR|6NUR_protein|mol2

> <Gold.PLP.Fitness>
45.5131

> <Gold.PLP.PLP>
-38.2117

> <Gold.PLP.part.hbond>
-3.9208

> <Gold.PLP.part.metal>
0.0000

> <Gold.PLP.part.buried>
-5.1013

> <Gold.PLP.part.nonpolar>
-29.5958

> <Gold.PLP.part.repulsive>
0.5615

> <Gold.PLP.ligand.clash>
0.0000

> <Gold.PLP.ligand.torsion>
1.0710

> <Gold.PLP.Chemscore.Hbond>
3.0560

> <Gold.PLP.Chemscore.CHOScore>
0.0000

> <Gold.PLP.Chemscore.Metal>
0.0000

> <Gold.Chemscore.Hbonds>
donor molecule, donor type, donor heavy atom, donor atom, acceptor molecule, acceptor atom, score
      L1  H     3    24       P1  8028  1.15
      L1  H    10    31       P1  7957  0.57
      P1  H  8011  8017       L1    12  0.19

> <Gold.PLP.Chemscore.Internal.Correction>
0.2755

> <Gold.Rescore>
     Score         DG    S(hbond)    S(metal)    S(lipo)     H(rot)  DE(clash)    DE(int)     intcor
     13.02     -15.81       2.36        0.00      79.17       2.67       0.34       2.45       ----

> <Gold.Chemscore.Fitness>
13.0199

> <Gold.Chemscore.DG>
-15.8059

> <Gold.Chemscore.ZeroCoef>
-5.4800

> <Gold.Chemscore.Hbond>
2.3620

> <Gold.Chemscore.Metal>
0.0000

> <Gold.Chemscore.Lipo>
79.1732

> <Gold.Chemscore.Internal_Hbond>
0.0000

> <Gold.Chemscore.DEClash>
0.3404

> <Gold.Chemscore.DEInternal>
2.4456

> <Gold.Chemscore.Rot>
2.6666

> <Gold.Chemscore.Internal.Correction>
   9.000000E+99

> <Gold.Chemscore.Hbonds>
donor molecule, donor type, donor heavy atom, donor atom, acceptor molecule, acceptor atom, score
      L1  H     3    24       P1  8028  0.34
      L1  H    10    31       P1  7957  0.56
      P1  H  8011  8017       L1    12  0.06
      P1  H  8022  8030       L1    12  0.03

> <Gold.Chemscore.Hbond.Weighted>
-7.8891

> <Gold.Chemscore.Metal.Weighted>
-0.0000

> <Gold.Chemscore.Lipo.Weighted>
-9.2633

> <Gold.Chemscore.Internal_Hbond.Weighted>
0.0000

> <Gold.Chemscore.DEClash.Weighted>
0.3404

> <Gold.Chemscore.DEInternal.Weighted>
2.4456

> <Gold.Chemscore.Rot.Weighted>
6.8265

> <Gold.Chemscore.Internal.Correction.Weighted>
   9.000000E+99

> <Gold.Protein.RotatedTorsions>
[ 6907 6896 6895 6894 ] final  -77.77 input  -60.11 | X-H torsion
[ 7974 7965 7964 7962 ] final  168.51 input  175.53 | X-H torsion
[ 8008 7997 7996 7995 ] final  160.22 input   59.86 | X-H torsion
[ 10167 10162 10161 10158 ] final -108.38 input  -65.29 | X-H torsion
[ 10718 10713 10712 10709 ] final  109.64 input   66.30 | X-H torsion
[ 10763 10752 10751 10750 ] final  153.79 input  -60.55 | X-H torsion
[ 11005 11000 10999 10996 ] final   94.42 input  -57.11 | X-H torsion

> <Gold.Protein.ActiveResidues>
 VAL166  LYS551  ARG553  GLY616  TRP617  ASP618  TYR619  PRO620  LYS621  CYS622 
 ASP623  PHE694  ASN695  SER759  ASP760  ASP761  ALA762  ILE779  LEU786  VAL792 
 PHE793  MET794  SER795  GLU796  ALA797  LYS798  CYS799  TRP800  GLU811  SER814 

> <Gold.Protein.RotatedAtoms>
  150.6990  134.4372  159.5275 H   0  0  0  0  0  0  0  0  0  0  0  0  # atno 6907 bound_to 6896
  152.2088  134.8517  160.0509 H   0  0  0  0  0  0  0  0  0  0  0  0  # atno 6908 bound_to 6896
  151.9410  133.3603  159.4002 H   0  0  0  0  0  0  0  0  0  0  0  0  # atno 6909 bound_to 6896
  144.7386  139.8918  143.6403 H   0  0  0  0  0  0  0  0  0  0  0  0  # atno 7974 bound_to 7965
  156.2187  140.1810  156.7528 H   0  0  0  0  0  0  0  0  0  0  0  0  # atno 8008 bound_to 7997
  154.5831  140.0663  156.9161 H   0  0  0  0  0  0  0  0  0  0  0  0  # atno 8009 bound_to 7997
  155.2467  140.3326  155.4289 H   0  0  0  0  0  0  0  0  0  0  0  0  # atno 8010 bound_to 7997
  140.1668  143.4075  152.1384 H   0  0  0  0  0  0  0  0  0  0  0  0  # atno 10167 bound_to 10162
  157.6532  131.0917  150.6484 H   0  0  0  0  0  0  0  0  0  0  0  0  # atno 10718 bound_to 10713
  154.1419  135.2820  155.3158 H   0  0  0  0  0  0  0  0  0  0  0  0  # atno 10763 bound_to 10752
  154.6281  135.5445  153.7652 H   0  0  0  0  0  0  0  0  0  0  0  0  # atno 10764 bound_to 10752
  153.0248  135.6455  154.1566 H   0  0  0  0  0  0  0  0  0  0  0  0  # atno 10765 bound_to 10752
  139.8799  134.8844  156.3862 H   0  0  0  0  0  0  0  0  0  0  0  0  # atno 11005 bound_to 11000
  146.1136  139.4144  143.0272 LP  0  0  0  0  0  0  0  0  0  0  0  0  # atno 17320 bound_to 7965
  145.7407  141.0009  143.1302 LP  0  0  0  0  0  0  0  0  0  0  0  0  # atno 17321 bound_to 7965
  139.5356  144.7205  151.4906 LP  0  0  0  0  0  0  0  0  0  0  0  0  # atno 17342 bound_to 10162
  140.6608  143.8503  150.6885 LP  0  0  0  0  0  0  0  0  0  0  0  0  # atno 17343 bound_to 10162
  156.6793  130.4562  149.5632 LP  0  0  0  0  0  0  0  0  0  0  0  0  # atno 17370 bound_to 10713
  156.1940  130.6578  151.1094 LP  0  0  0  0  0  0  0  0  0  0  0  0  # atno 17371 bound_to 10713
  140.9364  133.7544  156.0090 LP  0  0  0  0  0  0  0  0  0  0  0  0  # atno 17394 bound_to 11000
  140.8270  134.3222  157.5362 LP  0  0  0  0  0  0  0  0  0  0  0  0  # atno 17395 bound_to 11000

$$$$
