AV-unprocessed.smi:171|AV-procd|sdf|1419|dock3
  -GOLD-   2262019183D 1   1.00000     0.00000
 Structure written by MMmdl.
 56 59  0  0  0  0  0  0  0  0  1 V2000
  151.9119  144.2189  157.7570 C   0  0  0  0  0  0  0  0  0  0  0  0
  151.1756  142.8687  157.7857 C   0  0  0  0  0  0  0  0  0  0  0  0
  151.8884  141.8883  158.7293 C   0  0  0  0  0  0  0  0  0  0  0  0
  151.0160  142.2475  156.3778 C   0  0  0  0  0  0  0  0  0  0  0  0
  150.3245  140.8626  156.3371 C   0  0  1  0  0  0  0  0  0  0  0  0
  149.6492  140.6412  154.9646 C   0  0  0  0  0  0  0  0  0  0  0  0
  148.6673  141.3137  154.6571 O   0  0  0  0  0  0  0  0  0  0  0  0
  150.1480  139.7123  154.1288 N   0  0  0  0  0  0  0  0  0  0  0  0
  151.2937  138.8444  154.3992 C   0  0  0  0  0  0  0  0  0  0  0  0
  152.1561  139.3473  155.5692 C   0  0  0  0  0  0  0  0  0  0  0  0
  151.3001  139.8094  156.6574 N   0  0  0  0  0  0  0  0  0  0  0  0
  150.9713  138.8615  157.5702 C   0  0  0  0  0  0  0  0  0  0  0  0
  151.8606  138.4982  158.5320 N   0  0  0  0  0  0  0  0  0  0  0  0
  151.5310  137.5723  159.4374 C   0  0  0  0  0  0  0  0  0  0  0  0
  150.3859  136.8979  159.5633 N   0  0  0  0  0  0  0  0  0  0  0  0
  149.4902  137.2611  158.6009 C   0  0  0  0  0  0  0  0  0  0  0  0
  149.7003  138.2248  157.5755 C   0  0  0  0  0  0  0  0  0  0  0  0
  148.5698  138.3203  156.7733 N   0  0  0  0  0  0  0  0  0  0  0  0
  147.7353  137.4659  157.2993 C   0  0  0  0  0  0  0  0  0  0  0  0
  148.2033  136.7916  158.4048 N   0  0  0  0  0  0  0  0  0  0  0  0
  147.4877  135.7952  159.1858 C   0  0  0  0  0  0  0  0  0  0  0  0
  147.0038  136.3227  160.5572 C   0  0  1  0  0  0  0  0  0  0  0  0
  148.1115  136.8871  161.2419 O   0  0  0  0  0  0  0  0  0  0  0  0
  145.9152  137.3827  160.4639 C   0  0  0  0  0  0  0  0  0  0  0  0
  145.2169  137.2550  161.8111 C   0  0  0  0  0  0  0  0  0  0  0  0
  145.2125  135.8585  162.0710 O   0  0  0  0  0  0  0  0  0  0  0  0
  146.3164  135.2347  161.4159 C   0  0  2  0  0  0  0  0  0  0  0  0
  147.2035  134.4969  162.4323 C   0  0  0  0  0  0  0  0  0  0  0  0
  152.8957  144.1248  157.2961 H   0  0  0  0  0  0  0  0  0  0  0  0
  152.0532  144.6093  158.7652 H   0  0  0  0  0  0  0  0  0  0  0  0
  151.3511  144.9705  157.2016 H   0  0  0  0  0  0  0  0  0  0  0  0
  150.1838  143.0421  158.2050 H   0  0  0  0  0  0  0  0  0  0  0  0
  152.8964  141.6629  158.3793 H   0  0  0  0  0  0  0  0  0  0  0  0
  151.3435  140.9469  158.8044 H   0  0  0  0  0  0  0  0  0  0  0  0
  151.9703  142.2994  159.7360 H   0  0  0  0  0  0  0  0  0  0  0  0
  150.4577  142.9453  155.7515 H   0  0  0  0  0  0  0  0  0  0  0  0
  152.0020  142.1690  155.9173 H   0  0  0  0  0  0  0  0  0  0  0  0
  149.5215  140.8785  157.0746 H   0  0  0  0  0  0  0  0  0  0  0  0
  149.6878  139.5903  153.2383 H   0  0  0  0  0  0  0  0  0  0  0  0
  150.9050  137.8524  154.6323 H   0  0  0  0  0  0  0  0  0  0  0  0
  151.8967  138.7423  153.4968 H   0  0  0  0  0  0  0  0  0  0  0  0
  152.8489  138.5673  155.8869 H   0  0  0  0  0  0  0  0  0  0  0  0
  152.7754  140.1824  155.2408 H   0  0  0  0  0  0  0  0  0  0  0  0
  152.2936  137.3388  160.1657 H   0  0  0  0  0  0  0  0  0  0  0  0
  146.7462  137.3064  156.8950 H   0  0  0  0  0  0  0  0  0  0  0  0
  146.6396  135.4507  158.5924 H   0  0  0  0  0  0  0  0  0  0  0  0
  148.1364  134.9288  159.3210 H   0  0  0  0  0  0  0  0  0  0  0  0
  148.6947  136.1881  161.4961 H   0  0  0  0  0  0  0  0  0  0  0  0
  146.2939  138.3872  160.2704 H   0  0  0  0  0  0  0  0  0  0  0  0
  145.2101  137.1315  159.6702 H   0  0  0  0  0  0  0  0  0  0  0  0
  145.7876  137.7616  162.5906 H   0  0  0  0  0  0  0  0  0  0  0  0
  144.2071  137.6655  161.8051 H   0  0  0  0  0  0  0  0  0  0  0  0
  145.8743  134.4907  160.7521 H   0  0  0  0  0  0  0  0  0  0  0  0
  148.0555  134.0261  161.9411 H   0  0  0  0  0  0  0  0  0  0  0  0
  146.6385  133.7138  162.9384 H   0  0  0  0  0  0  0  0  0  0  0  0
  147.5840  135.1718  163.1998 H   0  0  0  0  0  0  0  0  0  0  0  0
  1  2  1  0  0  0  0
  1 29  1  0  0  0  0
  1 30  1  0  0  0  0
  1 31  1  0  0  0  0
  2  3  1  0  0  0  0
  2  4  1  0  0  0  0
  2 32  1  0  0  0  0
  3 33  1  0  0  0  0
  3 34  1  0  0  0  0
  3 35  1  0  0  0  0
  4  5  1  0  0  0  0
  4 36  1  0  0  0  0
  4 37  1  0  0  0  0
  5 11  1  0  0  0  0
  5  6  1  0  0  0  0
  5 38  1  0  0  0  0
  6  7  2  0  0  0  0
  6  8  1  0  0  0  0
  8  9  1  0  0  0  0
  8 39  1  0  0  0  0
  9 10  1  0  0  0  0
  9 40  1  0  0  0  0
  9 41  1  0  0  0  0
 10 11  1  0  0  0  0
 10 42  1  0  0  0  0
 10 43  1  0  0  0  0
 11 12  1  0  0  0  0
 12 17  1  0  0  0  0
 12 13  2  0  0  0  0
 13 14  1  0  0  0  0
 14 15  2  0  0  0  0
 14 44  1  0  0  0  0
 15 16  1  0  0  0  0
 16 20  1  0  0  0  0
 16 17  2  0  0  0  0
 17 18  1  0  0  0  0
 18 19  2  0  0  0  0
 19 20  1  0  0  0  0
 19 45  1  0  0  0  0
 20 21  1  0  0  0  0
 21 22  1  0  0  0  0
 21 46  1  0  0  0  0
 21 47  1  0  0  0  0
 22 27  1  0  0  0  0
 22 23  1  0  0  0  0
 22 24  1  0  0  0  0
 23 48  1  0  0  0  0
 24 25  1  0  0  0  0
 24 49  1  0  0  0  0
 24 50  1  0  0  0  0
 25 26  1  0  0  0  0
 25 51  1  0  0  0  0
 25 52  1  0  0  0  0
 26 27  1  0  0  0  0
 27 28  1  0  0  0  0
 27 53  1  0  0  0  0
 28 54  1  0  0  0  0
 28 55  1  0  0  0  0
 28 56  1  0  0  0  0
M  END
> <s_m_source_file>
AV-unprocessed.smi

> <i_m_source_file_index>
171

> <i_lp_mmshare_version>
43012

> <i_f3d_flags>
0

> <s_epik_input>
W0NIM11bQ0hdKFtDSDNdKVtDSDJdW0NAQEhdMUMoPU8pW05IXVtDSDJdW0NIMl1OMWMobltjSF1uMiljKGMyMyluW2NIXW4zW0NIMl1bQ0BAXTQoW09IXSlbQ0gyXVtDSDJdT1tDQEhdNFtDSDNd

> <s_epik_cmdline>
J2VwaWtfcHl0aG9uJywgJy1waCcsICc3LjAnLCAnLXRuJywgJzgnLCAnLW1hJywgJzIwMCcsICctbWV0YWxfYmluZGluZycsICctaW1hZScsICc8aW5maWxlLm1hZT4nLCAnLW9tYWUnLCAnPG91dGZpbGUubWFlPic=

> <r_lp_tautomer_probability>
1

> <r_epik_Ionization_Penalty>
0.000670584

> <r_epik_Ionization_Penalty_Charging>
0

> <r_epik_Ionization_Penalty_Neutral>
0.000670584

> <r_epik_State_Penalty>
0.000304767

> <r_epik_Charging_Adjusted_Penalty>
0.000304767

> <i_epik_Tot_Q>
0

> <i_epik_Tot_abs_Q>
0

> <r_epik_Metal_State_Penalty>
-0

> <b_epik_Metal_Only>
0

> <s_lp_Force_Field>
OPLS_2005

> <r_lp_Energy>
42.7998

> <b_lp_Chiralities_Consistent>
1

> <s_lp_Variant>
AV-unprocessed.smi:171-6

> <Gold.Version>
5.8.1

> <Gold.Id.Protein>
6NUR|6NUR_protein|mol2

> <Gold.PLP.Fitness>
50.4688

> <Gold.PLP.PLP>
-45.1237

> <Gold.PLP.part.hbond>
-3.5690

> <Gold.PLP.part.metal>
0.0000

> <Gold.PLP.part.buried>
-6.6127

> <Gold.PLP.part.nonpolar>
-35.2001

> <Gold.PLP.part.repulsive>
1.4179

> <Gold.PLP.ligand.clash>
0.0000

> <Gold.PLP.ligand.torsion>
1.5561

> <Gold.PLP.Chemscore.Hbond>
2.6934

> <Gold.PLP.Chemscore.CHOScore>
0.0000

> <Gold.PLP.Chemscore.Metal>
0.0000

> <Gold.Chemscore.Hbonds>
donor molecule, donor type, donor heavy atom, donor atom, acceptor molecule, acceptor atom, score
      L1  H     8    39       P1  7957  0.73
      P1  H  6896  6907       L1    15  1.00
      P1  H  6931  6943       L1    23  0.90
      P1  H  6934  6947       L1    23  0.08

> <Gold.PLP.Chemscore.Internal.Correction>
0.3773

> <Gold.Rescore>
     Score         DG    S(hbond)    S(metal)    S(lipo)     H(rot)  DE(clash)    DE(int)     intcor
     15.36     -18.47       2.21        0.00      98.22       2.29       0.35       2.76       ----

> <Gold.Chemscore.Fitness>
15.3612

> <Gold.Chemscore.DG>
-18.4723

> <Gold.Chemscore.ZeroCoef>
-5.4800

> <Gold.Chemscore.Hbond>
2.2066

> <Gold.Chemscore.Metal>
0.0000

> <Gold.Chemscore.Lipo>
98.2213

> <Gold.Chemscore.Internal_Hbond>
0.0000

> <Gold.Chemscore.DEClash>
0.3544

> <Gold.Chemscore.DEInternal>
2.7566

> <Gold.Chemscore.Rot>
2.2928

> <Gold.Chemscore.Internal.Correction>
   9.000000E+99

> <Gold.Chemscore.Hbonds>
donor molecule, donor type, donor heavy atom, donor atom, acceptor molecule, acceptor atom, score
      L1  H     8    39       P1  7957  0.71
      P1  H  6896  6907       L1    15  0.42
      P1  H  6931  6943       L1    23  0.18

> <Gold.Chemscore.Hbond.Weighted>
-7.3700

> <Gold.Chemscore.Metal.Weighted>
-0.0000

> <Gold.Chemscore.Lipo.Weighted>
-11.4919

> <Gold.Chemscore.Internal_Hbond.Weighted>
0.0000

> <Gold.Chemscore.DEClash.Weighted>
0.3544

> <Gold.Chemscore.DEInternal.Weighted>
2.7566

> <Gold.Chemscore.Rot.Weighted>
5.8696

> <Gold.Chemscore.Internal.Correction.Weighted>
   9.000000E+99

> <Gold.Protein.RotatedTorsions>
[ 6907 6896 6895 6894 ] final  -39.75 input  -60.11 | X-H torsion
[ 7974 7965 7964 7962 ] final  -96.87 input  175.53 | X-H torsion
[ 8008 7997 7996 7995 ] final -152.52 input   59.86 | X-H torsion
[ 10167 10162 10161 10158 ] final  154.85 input  -65.29 | X-H torsion
[ 10718 10713 10712 10709 ] final  -93.34 input   66.30 | X-H torsion
[ 10763 10752 10751 10750 ] final   11.92 input  -60.55 | X-H torsion
[ 11005 11000 10999 10996 ] final -172.27 input  -57.11 | X-H torsion

> <Gold.Protein.ActiveResidues>
 VAL166  LYS551  ARG553  GLY616  TRP617  ASP618  TYR619  PRO620  LYS621  CYS622 
 ASP623  PHE694  ASN695  SER759  ASP760  ASP761  ALA762  ILE779  LEU786  VAL792 
 PHE793  MET794  SER795  GLU796  ALA797  LYS798  CYS799  TRP800  GLU811  SER814 

> <Gold.Protein.RotatedAtoms>
  150.9866  134.9210  159.7874 H   0  0  0  0  0  0  0  0  0  0  0  0  # atno 6907 bound_to 6896
  152.5238  134.3339  159.9202 H   0  0  0  0  0  0  0  0  0  0  0  0  # atno 6908 bound_to 6896
  151.3345  133.3946  159.2700 H   0  0  0  0  0  0  0  0  0  0  0  0  # atno 6909 bound_to 6896
  145.3412  140.9460  143.2607 H   0  0  0  0  0  0  0  0  0  0  0  0  # atno 7974 bound_to 7965
  155.6564  140.0718  157.2569 H   0  0  0  0  0  0  0  0  0  0  0  0  # atno 8008 bound_to 7997
  154.4151  140.1724  156.1780 H   0  0  0  0  0  0  0  0  0  0  0  0  # atno 8009 bound_to 7997
  155.9734  140.3360  155.6599 H   0  0  0  0  0  0  0  0  0  0  0  0  # atno 8010 bound_to 7997
  139.4822  144.5150  151.7966 H   0  0  0  0  0  0  0  0  0  0  0  0  # atno 10167 bound_to 10162
  156.0012  130.5023  150.5762 H   0  0  0  0  0  0  0  0  0  0  0  0  # atno 10718 bound_to 10713
  153.1876  135.6837  153.8394 H   0  0  0  0  0  0  0  0  0  0  0  0  # atno 10763 bound_to 10752
  153.7705  135.3197  155.3352 H   0  0  0  0  0  0  0  0  0  0  0  0  # atno 10764 bound_to 10752
  154.8098  135.4725  154.0584 H   0  0  0  0  0  0  0  0  0  0  0  0  # atno 10765 bound_to 10752
  140.4989  134.5913  157.4981 H   0  0  0  0  0  0  0  0  0  0  0  0  # atno 11005 bound_to 11000
  144.8789  139.4932  143.6732 LP  0  0  0  0  0  0  0  0  0  0  0  0  # atno 17320 bound_to 7965
  146.3006  139.7416  142.9094 LP  0  0  0  0  0  0  0  0  0  0  0  0  # atno 17321 bound_to 7965
  140.4657  144.1658  150.5911 LP  0  0  0  0  0  0  0  0  0  0  0  0  # atno 17342 bound_to 10162
  140.4436  143.2516  151.9440 LP  0  0  0  0  0  0  0  0  0  0  0  0  # atno 17343 bound_to 10162
  157.3649  131.0756  151.1606 LP  0  0  0  0  0  0  0  0  0  0  0  0  # atno 17370 bound_to 10713
  157.2378  130.6555  149.5877 LP  0  0  0  0  0  0  0  0  0  0  0  0  # atno 17371 bound_to 10713
  139.9725  134.7269  156.0013 LP  0  0  0  0  0  0  0  0  0  0  0  0  # atno 17394 bound_to 11000
  141.1446  133.6558  156.3829 LP  0  0  0  0  0  0  0  0  0  0  0  0  # atno 17395 bound_to 11000

$$$$
