AV-unprocessed.smi:3354|AV-procd|sdf|12955|dock9
  -GOLD-   2272019393D 1   1.00000     0.00000
 Structure written by MMmdl.
 38 40  0  0  0  0  0  0  0  0  1 V2000
  153.0963  139.2507  159.9827 C   0  0  0  0  0  0  0  0  0  0  0  0
  152.2474  140.3923  159.4669 C   0  0  2  0  0  0  0  0  0  0  0  0
  152.4815  140.9407  158.0793 C   0  0  0  0  0  0  0  0  0  0  0  0
  152.8298  141.7786  159.2943 C   0  0  1  0  0  0  0  0  0  0  0  0
  152.0240  142.9075  159.6568 N   0  0  0  0  0  0  0  0  0  0  0  0
  151.0343  143.4832  158.7566 C   0  0  0  0  0  0  0  0  0  0  0  0
  150.6907  144.8634  159.3494 C   0  0  1  0  0  0  0  0  0  0  0  0
  149.2516  145.1119  159.3668 N   0  0  0  0  0  0  0  0  0  0  0  0
  148.3961  144.6081  160.2672 C   0  0  0  0  0  0  0  0  0  0  0  0
  148.7457  143.8899  161.2034 O   0  0  0  0  0  0  0  0  0  0  0  0
  147.1370  145.0044  160.0125 N   0  0  0  0  0  0  0  0  0  0  0  0
  145.9360  144.6731  160.6982 C   0  0  0  0  0  0  0  0  0  0  0  0
  145.8780  143.9878  161.9368 C   0  0  0  0  0  0  0  0  0  0  0  0
  144.6182  143.7068  162.4999 C   0  0  0  0  0  0  0  0  0  0  0  0
  143.4634  144.1140  161.8045 C   0  0  0  0  0  0  0  0  0  0  0  0
  143.5027  144.7582  160.6194 N   0  0  0  0  0  0  0  0  0  0  0  0
  144.7139  145.0240  160.0854 C   0  0  0  0  0  0  0  0  0  0  0  0
  151.2823  144.8563  160.7650 C   0  0  0  0  0  0  0  0  0  0  0  0
  152.2008  143.6465  160.7579 C   0  0  0  0  0  0  0  0  0  0  0  0
  153.0019  143.4164  161.6630 O   0  0  0  0  0  0  0  0  0  0  0  0
  154.1250  139.3431  159.6335 H   0  0  0  0  0  0  0  0  0  0  0  0
  152.6949  138.2987  159.6355 H   0  0  0  0  0  0  0  0  0  0  0  0
  153.0987  139.2510  161.0727 H   0  0  0  0  0  0  0  0  0  0  0  0
  151.2087  140.3435  159.7894 H   0  0  0  0  0  0  0  0  0  0  0  0
  153.3105  140.5296  157.5067 H   0  0  0  0  0  0  0  0  0  0  0  0
  151.5976  141.1835  157.4937 H   0  0  0  0  0  0  0  0  0  0  0  0
  153.8957  141.8824  159.4926 H   0  0  0  0  0  0  0  0  0  0  0  0
  151.4236  143.5778  157.7420 H   0  0  0  0  0  0  0  0  0  0  0  0
  150.1630  142.8266  158.7264 H   0  0  0  0  0  0  0  0  0  0  0  0
  151.1913  145.6420  158.7699 H   0  0  0  0  0  0  0  0  0  0  0  0
  148.8815  145.6999  158.6343 H   0  0  0  0  0  0  0  0  0  0  0  0
  147.0265  145.6496  159.2441 H   0  0  0  0  0  0  0  0  0  0  0  0
  146.7626  143.6608  162.4597 H   0  0  0  0  0  0  0  0  0  0  0  0
  144.5394  143.1862  163.4428 H   0  0  0  0  0  0  0  0  0  0  0  0
  142.4823  143.9125  162.2085 H   0  0  0  0  0  0  0  0  0  0  0  0
  144.7059  145.5373  159.1347 H   0  0  0  0  0  0  0  0  0  0  0  0
  151.8333  145.7718  160.9835 H   0  0  0  0  0  0  0  0  0  0  0  0
  150.5204  144.7174  161.5334 H   0  0  0  0  0  0  0  0  0  0  0  0
  1  2  1  0  0  0  0
  1 21  1  0  0  0  0
  1 22  1  0  0  0  0
  1 23  1  0  0  0  0
  2  4  1  0  0  0  0
  2  3  1  0  0  0  0
  2 24  1  0  0  0  0
  3  4  1  0  0  0  0
  3 25  1  0  0  0  0
  3 26  1  0  0  0  0
  4  5  1  0  0  0  0
  4 27  1  0  0  0  0
  5 19  1  0  0  0  0
  5  6  1  0  0  0  0
  6  7  1  0  0  0  0
  6 28  1  0  0  0  0
  6 29  1  0  0  0  0
  7  8  1  0  0  0  0
  7 18  1  0  0  0  0
  7 30  1  0  0  0  0
  8  9  1  0  0  0  0
  8 31  1  0  0  0  0
  9 10  2  0  0  0  0
  9 11  1  0  0  0  0
 11 12  1  0  0  0  0
 11 32  1  0  0  0  0
 12 17  1  0  0  0  0
 12 13  2  0  0  0  0
 13 14  1  0  0  0  0
 13 33  1  0  0  0  0
 14 15  2  0  0  0  0
 14 34  1  0  0  0  0
 15 16  1  0  0  0  0
 15 35  1  0  0  0  0
 16 17  2  0  0  0  0
 17 36  1  0  0  0  0
 18 19  1  0  0  0  0
 18 37  1  0  0  0  0
 18 38  1  0  0  0  0
 19 20  2  0  0  0  0
M  END
> <s_m_source_file>
AV-unprocessed.smi

> <i_m_source_file_index>
3354

> <i_lp_mmshare_version>
43012

> <i_f3d_flags>
0

> <s_epik_input>
W0NIM11bQ0BASF0xW0NIMl1bQ0BIXTFOMltDSDJdW0NASF0oW0NIMl1DMj1PKVtOSF1DKD1PKVtOSF1jM1tjSF1bY0hdW2NIXW5bY0hdMw==

> <s_epik_cmdline>
J2VwaWtfcHl0aG9uJywgJy1waCcsICc3LjAnLCAnLXRuJywgJzgnLCAnLW1hJywgJzIwMCcsICctbWV0YWxfYmluZGluZycsICctaW1hZScsICc8aW5maWxlLm1hZT4nLCAnLW9tYWUnLCAnPG91dGZpbGUubWFlPic=

> <r_epik_Ionization_Penalty>
0.00456191

> <r_epik_Ionization_Penalty_Charging>
0

> <r_epik_Ionization_Penalty_Neutral>
0.00456191

> <r_epik_State_Penalty>
0.00327094

> <r_epik_Charging_Adjusted_Penalty>
0.00327094

> <i_epik_Tot_Q>
0

> <i_epik_Tot_abs_Q>
0

> <r_epik_Metal_State_Penalty>
-0

> <b_epik_Metal_Only>
0

> <s_lp_Force_Field>
OPLS_2005

> <r_lp_Energy>
43.1486

> <b_lp_Chiralities_Consistent>
1

> <s_lp_Variant>
AV-unprocessed.smi:3354-1

> <Gold.Version>
5.8.1

> <Gold.Id.Protein>
6NUR|6NUR_protein|mol2

> <Gold.PLP.Fitness>
43.5997

> <Gold.PLP.PLP>
-37.2374

> <Gold.PLP.part.hbond>
-2.6243

> <Gold.PLP.part.metal>
0.0000

> <Gold.PLP.part.buried>
-3.3951

> <Gold.PLP.part.nonpolar>
-31.6212

> <Gold.PLP.part.repulsive>
0.7016

> <Gold.PLP.ligand.clash>
0.0120

> <Gold.PLP.ligand.torsion>
0.6419

> <Gold.PLP.Chemscore.Hbond>
2.4963

> <Gold.PLP.Chemscore.CHOScore>
0.0000

> <Gold.PLP.Chemscore.Metal>
0.0000

> <Gold.Chemscore.Hbonds>
donor molecule, donor type, donor heavy atom, donor atom, acceptor molecule, acceptor atom, score
      L1  H     8    31       P1  8029  1.00
      L1  H    11    32       P1  8029  0.54
      P1  H  6933  6944       L1    10  0.74

> <Gold.PLP.Chemscore.Internal.Correction>
0.1690

> <Gold.Rescore>
     Score         DG    S(hbond)    S(metal)    S(lipo)     H(rot)  DE(clash)    DE(int)     intcor
     17.96     -21.55       2.51        0.00      92.64       1.24       0.36       3.23       ----

> <Gold.Chemscore.Fitness>
17.9612

> <Gold.Chemscore.DG>
-21.5531

> <Gold.Chemscore.ZeroCoef>
-5.4800

> <Gold.Chemscore.Hbond>
2.5144

> <Gold.Chemscore.Metal>
0.0000

> <Gold.Chemscore.Lipo>
92.6440

> <Gold.Chemscore.Internal_Hbond>
0.0000

> <Gold.Chemscore.DEClash>
0.3612

> <Gold.Chemscore.DEInternal>
3.2307

> <Gold.Chemscore.Rot>
1.2361

> <Gold.Chemscore.Internal.Correction>
   9.000000E+99

> <Gold.Chemscore.Hbonds>
donor molecule, donor type, donor heavy atom, donor atom, acceptor molecule, acceptor atom, score
      L1  H     8    31       P1  8029  0.97
      L1  H    11    32       P1  8029  0.55
      P1  H  6933  6944       L1    10  0.70

> <Gold.Chemscore.Hbond.Weighted>
-8.3980

> <Gold.Chemscore.Metal.Weighted>
-0.0000

> <Gold.Chemscore.Lipo.Weighted>
-10.8394

> <Gold.Chemscore.Internal_Hbond.Weighted>
0.0000

> <Gold.Chemscore.DEClash.Weighted>
0.3612

> <Gold.Chemscore.DEInternal.Weighted>
3.2307

> <Gold.Chemscore.Rot.Weighted>
3.1643

> <Gold.Chemscore.Internal.Correction.Weighted>
   9.000000E+99

> <Gold.Protein.RotatedTorsions>
[ 6907 6896 6895 6894 ] final   44.37 input  -60.11 | X-H torsion
[ 7974 7965 7964 7962 ] final  131.89 input  175.53 | X-H torsion
[ 8008 7997 7996 7995 ] final -132.24 input   59.86 | X-H torsion
[ 10167 10162 10161 10158 ] final    9.09 input  -65.29 | X-H torsion
[ 10718 10713 10712 10709 ] final -144.44 input   66.30 | X-H torsion
[ 10763 10752 10751 10750 ] final  -24.42 input  -60.55 | X-H torsion
[ 11005 11000 10999 10996 ] final -128.08 input  -57.11 | X-H torsion

> <Gold.Protein.ActiveResidues>
 VAL166  LYS551  ARG553  GLY616  TRP617  ASP618  TYR619  PRO620  LYS621  CYS622 
 ASP623  PHE694  ASN695  SER759  ASP760  ASP761  ALA762  ILE779  LEU786  VAL792 
 PHE793  MET794  SER795  GLU796  ALA797  LYS798  CYS799  TRP800  GLU811  SER814 

> <Gold.Protein.RotatedAtoms>
  152.2317  134.8315  160.0472 H   0  0  0  0  0  0  0  0  0  0  0  0  # atno 6907 bound_to 6896
  151.9061  133.3545  159.3856 H   0  0  0  0  0  0  0  0  0  0  0  0  # atno 6908 bound_to 6896
  150.7027  134.4704  159.5467 H   0  0  0  0  0  0  0  0  0  0  0  0  # atno 6909 bound_to 6896
  145.0025  139.4298  143.5285 H   0  0  0  0  0  0  0  0  0  0  0  0  # atno 7974 bound_to 7965
  155.3256  140.0464  157.3041 H   0  0  0  0  0  0  0  0  0  0  0  0  # atno 8008 bound_to 7997
  154.5356  140.2271  155.8694 H   0  0  0  0  0  0  0  0  0  0  0  0  # atno 8009 bound_to 7997
  156.1831  140.3069  155.9193 H   0  0  0  0  0  0  0  0  0  0  0  0  # atno 8010 bound_to 7997
  140.6276  143.8067  150.7253 H   0  0  0  0  0  0  0  0  0  0  0  0  # atno 10167 bound_to 10162
  156.3702  130.7784  151.1963 H   0  0  0  0  0  0  0  0  0  0  0  0  # atno 10718 bound_to 10713
  153.6835  135.6965  153.5111 H   0  0  0  0  0  0  0  0  0  0  0  0  # atno 10763 bound_to 10752
  153.2467  135.4288  155.0754 H   0  0  0  0  0  0  0  0  0  0  0  0  # atno 10764 bound_to 10752
  154.8393  135.3521  154.6377 H   0  0  0  0  0  0  0  0  0  0  0  0  # atno 10765 bound_to 10752
  140.9546  134.1020  157.4029 H   0  0  0  0  0  0  0  0  0  0  0  0  # atno 11005 bound_to 11000
  146.3455  139.9422  142.8739 LP  0  0  0  0  0  0  0  0  0  0  0  0  # atno 17320 bound_to 7965
  145.2133  140.9905  143.4088 LP  0  0  0  0  0  0  0  0  0  0  0  0  # atno 17321 bound_to 7965
  140.1671  143.4226  152.2027 LP  0  0  0  0  0  0  0  0  0  0  0  0  # atno 17342 bound_to 10162
  139.5494  144.7325  151.4482 LP  0  0  0  0  0  0  0  0  0  0  0  0  # atno 17343 bound_to 10162
  157.7483  131.0374  150.4456 LP  0  0  0  0  0  0  0  0  0  0  0  0  # atno 17370 bound_to 10713
  156.4682  130.4047  149.6534 LP  0  0  0  0  0  0  0  0  0  0  0  0  # atno 17371 bound_to 10713
  139.8858  135.0075  156.6458 LP  0  0  0  0  0  0  0  0  0  0  0  0  # atno 17394 bound_to 11000
  140.7555  133.8861  155.8378 LP  0  0  0  0  0  0  0  0  0  0  0  0  # atno 17395 bound_to 11000

$$$$
