#       Name:                AV-unprocessed.smi:862
#       Creating user name   scv26
#       Creation time:       Fri Mar 27 01:46:04 2020


#       File generated by GOLD software.
#

@<TRIPOS>MOLECULE
AV-unprocessed.smi:862
    47    49     1
SMALL
NO_CHARGES


@<TRIPOS>ATOM
      1 ****        -4.5659  -3.4065   0.4620 N.am           1 S1                 0.0000
      2 ****        -4.1344  -2.7145  -0.5968 C.2            1 S1                 0.0000
      3 ****        -4.1911  -3.1884  -1.7299 O.2            1 S1                 0.0000
      4 ****        -3.6931  -1.4602  -0.3269 N.am           1 S1                 0.0000
      5 ****        -3.2954  -0.9493   0.9950 C.3            1 S1                 0.0000
      6 ****        -1.7580  -0.8797   1.0618 C.3            1 S1                 0.0000
      7 ****        -1.1839  -0.0143  -0.0858 C.3            1 S1                 0.0000
      8 ****         0.2956  -0.0695  -0.1389 N.4            1 S1                 1.0000
      9 ****         1.0241   0.6017   0.9654 C.3            1 S1                 0.0000
     10 ****         0.8229   2.1206   1.0156 C.3            1 S1                 0.0000
     11 ****         2.0271   2.6565   1.8021 C.3            1 S1                 0.0000
     12 ****         3.0785   1.5327   1.8229 C.3            1 S1                 0.0000
     13 ****         2.5529   0.4183   0.9025 C.3            1 S1                 0.0000
     14 ****         3.1159   0.5148  -0.4620 N.pl3          1 S1                 0.0000
     15 ****         3.3104   1.6356  -1.2344 C.2            1 S1                 0.0000
     16 ****         3.8430   1.2096  -2.4234 C.2            1 S1                 0.0000
     17 ****         3.9468  -0.1516  -2.3351 N.pl3          1 S1                 1.0000
     18 ****         3.5033  -0.5718  -1.1461 C.2            1 S1                 0.0000
     19 ****        -1.7659  -0.4523  -1.4458 C.3            1 S1                 0.0000
     20 ****        -3.3016  -0.5324  -1.3944 C.3            1 S1                 0.0000
     21 ****        -4.9218  -4.3429   0.3342 H              1 S1                 0.0000
     22 ****        -4.5484  -2.9899   1.3810 H              1 S1                 0.0000
     23 ****        -3.7200   0.0459   1.1358 H              1 S1                 0.0000
     24 ****        -3.6714  -1.5437   1.8275 H              1 S1                 0.0000
     25 ****        -1.4648  -0.4775   2.0313 H              1 S1                 0.0000
     26 ****        -1.3488  -1.8896   1.0066 H              1 S1                 0.0000
     27 ****        -1.4892   1.0201   0.0757 H              1 S1                 0.0000
     28 ****         0.5670  -1.0422  -0.1602 H              1 S1                 0.0000
     29 ****         0.6912   0.1798   1.9140 H              1 S1                 0.0000
     30 ****         0.8245   2.5382   0.0081 H              1 S1                 0.0000
     31 ****        -0.1229   2.3992   1.4817 H              1 S1                 0.0000
     32 ****         2.4192   3.5625   1.3392 H              1 S1                 0.0000
     33 ****         1.7378   2.9157   2.8213 H              1 S1                 0.0000
     34 ****         4.0704   1.8863   1.5382 H              1 S1                 0.0000
     35 ****         3.1644   1.1474   2.8399 H              1 S1                 0.0000
     36 ****         2.8356  -0.5581   1.3004 H              1 S1                 0.0000
     37 ****         3.0714   2.6325  -0.8940 H              1 S1                 0.0000
     38 ****         4.1483   1.7590  -3.3024 H              1 S1                 0.0000
     39 ****         3.4706  -1.5917  -0.8061 H              1 S1                 0.0000
     40 ****        -1.4588   0.2440  -2.2270 H              1 S1                 0.0000
     41 ****        -1.3658  -1.4282  -1.7265 H              1 S1                 0.0000
     42 ****        -3.6954  -0.8264  -2.3686 H              1 S1                 0.0000
     43 ****        -3.7243   0.4526  -1.1917 H              1 S1                 0.0000
     44 ****         0.5878   0.3620  -1.0040 H              1 S1                 0.0000
     45 ****         4.3115  -0.7549  -3.0621 H              1 S1                 0.0000
     46 ****        -4.5645  -4.1054  -1.8703 LP             1 S1                 0.0000
     47 ****        -3.8638  -2.6569  -2.5111 LP             1 S1                 0.0000
@<TRIPOS>BOND
    1    1    2 am    
    2    1   21 1     
    3    1   22 1     
    4    2    3 2     
    5    2    4 am    
    6    4   20 1     
    7    4    5 1     
    8    5    6 1     
    9    5   23 1     
   10    5   24 1     
   11    6    7 1     
   12    6   25 1     
   13    6   26 1     
   14    7    8 1     
   15    7   19 1     
   16    7   27 1     
   17    8    9 1     
   18    8   28 1     
   19    8   44 1     
   20    9   13 1     
   21    9   10 1     
   22    9   29 1     
   23   10   11 1     
   24   10   30 1     
   25   10   31 1     
   26   11   12 1     
   27   11   32 1     
   28   11   33 1     
   29   12   13 1     
   30   12   34 1     
   31   12   35 1     
   32   13   14 1     
   33   13   36 1     
   34   14   18 1     
   35   14   15 1     
   36   15   16 2     
   37   15   37 1     
   38   16   17 1     
   39   16   38 1     
   40   17   18 2     
   41   17   45 1     
   42   18   39 1     
   43   19   20 1     
   44   19   40 1     
   45   19   41 1     
   46   20   42 1     
   47   20   43 1     
   48    3   46 1     
   49    3   47 1     
@<TRIPOS>SUBSTRUCTURE
      1 S1             1
@<TRIPOS>SET
LONE_PAIRS      STATIC     ATOMS    <user>   **** ""
2 46 47
DONOR_HYDROGENS      STATIC     ATOMS    <user>   **** ""
5 21 22 28 44 45
ATOM$BLUE        STATIC     ATOMS    COLORGROUP SYSTEM
2 46 47
ATOM$RED        STATIC     ATOMS    COLORGROUP SYSTEM
5 21 22 28 44 45
