#       Name:                AV-unprocessed.smi:313
#       Creating user name   scv26
#       Creation time:       Thu Mar 26 22:21:13 2020


#       File generated by GOLD software.
#

@<TRIPOS>MOLECULE
AV-unprocessed.smi:313
    58    59     1
SMALL
NO_CHARGES


@<TRIPOS>ATOM
      1 ****        -3.0907   4.1777   1.0485 C.3            1 S1                 0.0000
      2 ****        -3.7198   4.0363   2.4425 C.3            1 S1                 0.0000
      3 ****        -3.6535   2.6051   3.0076 C.3            1 S1                 0.0000
      4 ****        -4.3730   2.4915   4.3599 C.3            1 S1                 0.0000
      5 ****        -2.2612   2.1872   3.1489 N.am           1 S1                 0.0000
      6 ****        -1.7909   0.9488   2.9374 C.2            1 S1                 0.0000
      7 ****        -2.5070  -0.0068   2.6339 O.2            1 S1                 0.0000
      8 ****        -0.2733   0.7674   3.0953 C.3            1 S1                 0.0000
      9 ****        -0.0117  -0.1284   4.3176 C.3            1 S1                 0.0000
     10 ****         0.2736   0.0997   1.9164 N.am           1 S1                 0.0000
     11 ****         0.5575   0.7020   0.7489 C.2            1 S1                 0.0000
     12 ****         0.4378   1.9131   0.5613 O.2            1 S1                 0.0000
     13 ****         1.0968  -0.1941  -0.3271 C.ar           1 S1                 0.0000
     14 ****         0.6835  -1.5384  -0.4494 C.ar           1 S1                 0.0000
     15 ****         1.2053  -2.3235  -1.4951 C.ar           1 S1                 0.0000
     16 ****         2.1227  -1.7441  -2.4034 C.ar           1 S1                 0.0000
     17 ****         2.6593  -2.5128  -3.4592 N.3            1 S1                 0.0000
     18 ****         1.6857  -3.2096  -4.2963 C.3            1 S1                 0.0000
     19 ****         2.3916  -4.2438  -5.1897 C.3            1 S1                 0.0000
     20 ****         3.4146  -3.6073  -5.9478 O.3            1 S1                 0.0000
     21 ****         4.4117  -3.0298  -5.1120 C.3            1 S1                 0.0000
     22 ****         3.7771  -1.9526  -4.2163 C.3            1 S1                 0.0000
     23 ****         2.5136  -0.4512  -2.2866 N.ar           1 S1                 0.0000
     24 ****         2.0087   0.2988  -1.2842 C.ar           1 S1                 0.0000
     25 ****        -3.2069   5.1946   0.6736 H              1 S1                 0.0000
     26 ****        -3.5645   3.5047   0.3336 H              1 S1                 0.0000
     27 ****        -2.0239   3.9527   1.0628 H              1 S1                 0.0000
     28 ****        -3.2317   4.7288   3.1296 H              1 S1                 0.0000
     29 ****        -4.7626   4.3509   2.3862 H              1 S1                 0.0000
     30 ****        -4.1602   1.9474   2.2988 H              1 S1                 0.0000
     31 ****        -5.4190   2.7865   4.2730 H              1 S1                 0.0000
     32 ****        -3.9089   3.1304   5.1120 H              1 S1                 0.0000
     33 ****        -4.3516   1.4671   4.7332 H              1 S1                 0.0000
     34 ****        -1.5965   2.9063   3.3952 H              1 S1                 0.0000
     35 ****         0.2157   1.7330   3.2398 H              1 S1                 0.0000
     36 ****        -0.4120   0.3188   5.2284 H              1 S1                 0.0000
     37 ****         1.0583  -0.2719   4.4705 H              1 S1                 0.0000
     38 ****        -0.4625  -1.1158   4.2052 H              1 S1                 0.0000
     39 ****         0.4206  -0.8967   1.9852 H              1 S1                 0.0000
     40 ****        -0.0237  -1.9724   0.2424 H              1 S1                 0.0000
     41 ****         0.9057  -3.3573  -1.5795 H              1 S1                 0.0000
     42 ****         0.9267  -3.7154  -3.7016 H              1 S1                 0.0000
     43 ****         1.1664  -2.4762  -4.9147 H              1 S1                 0.0000
     44 ****         2.8161  -5.0502  -4.5897 H              1 S1                 0.0000
     45 ****         1.6753  -4.6994  -5.8736 H              1 S1                 0.0000
     46 ****         4.8901  -3.8038  -4.5098 H              1 S1                 0.0000
     47 ****         5.1875  -2.5882  -5.7373 H              1 S1                 0.0000
     48 ****         3.4189  -1.1230  -4.8271 H              1 S1                 0.0000
     49 ****         4.5336  -1.5567  -3.5378 H              1 S1                 0.0000
     50 ****         2.3526   1.3223  -1.2478 H              1 S1                 0.0000
     51 ****        -3.4939   0.1199   2.5335 LP             1 S1                 0.0000
     52 ****        -2.1014  -0.9091   2.4880 LP             1 S1                 0.0000
     53 ****         0.1139   2.5039   1.3002 LP             1 S1                 0.0000
     54 ****         0.6644   2.3058  -0.3300 LP             1 S1                 0.0000
     55 ****         3.1046  -3.2252  -2.9168 LP             1 S1                 0.0000
     56 ****         3.0029  -2.8867  -6.5057 LP             1 S1                 0.0000
     57 ****         3.8449  -4.2853  -6.5438 LP             1 S1                 0.0000
     58 ****         3.1668  -0.0587  -2.9340 LP             1 S1                 0.0000
@<TRIPOS>BOND
    1    1    2 1     
    2    1   25 1     
    3    1   26 1     
    4    1   27 1     
    5    2    3 1     
    6    2   28 1     
    7    2   29 1     
    8    3    4 1     
    9    3    5 1     
   10    3   30 1     
   11    4   31 1     
   12    4   32 1     
   13    4   33 1     
   14    5    6 am    
   15    5   34 1     
   16    6    7 2     
   17    6    8 1     
   18    8    9 1     
   19    8   10 1     
   20    8   35 1     
   21    9   36 1     
   22    9   37 1     
   23    9   38 1     
   24   10   11 am    
   25   10   39 1     
   26   11   12 2     
   27   11   13 1     
   28   13   24 ar    
   29   13   14 ar    
   30   14   15 ar    
   31   14   40 1     
   32   15   16 ar    
   33   15   41 1     
   34   16   17 1     
   35   16   23 ar    
   36   17   22 1     
   37   17   18 1     
   38   18   19 1     
   39   18   42 1     
   40   18   43 1     
   41   19   20 1     
   42   19   44 1     
   43   19   45 1     
   44   20   21 1     
   45   21   22 1     
   46   21   46 1     
   47   21   47 1     
   48   22   48 1     
   49   22   49 1     
   50   23   24 ar    
   51   24   50 1     
   52    7   51 1     
   53    7   52 1     
   54   12   53 1     
   55   12   54 1     
   56   17   55 1     
   57   20   56 1     
   58   20   57 1     
   59   23   58 1     
@<TRIPOS>SUBSTRUCTURE
      1 S1             1
@<TRIPOS>SET
LONE_PAIRS      STATIC     ATOMS    <user>   **** ""
8 51 52 53 54 55 56 57 58
DONOR_HYDROGENS      STATIC     ATOMS    <user>   **** ""
2 34 39
ATOM$BLUE        STATIC     ATOMS    COLORGROUP SYSTEM
8 51 52 53 54 55 56 57 58
ATOM$RED        STATIC     ATOMS    COLORGROUP SYSTEM
2 34 39
