AV-unprocessed.smi:1254|AV-procd|sdf|5277|dock1
  -GOLD-   22720 4393D 1   1.00000     0.00000
 Structure written by MMmdl.
 45 46  0  0  0  0  0  0  0  0  3 V2000
  138.1681  137.1827  154.4612 C   0  0  0  0  0  0  0  0  0  0  0  0
  139.5929  137.0879  154.0350 C   0  0  0  0  0  0  0  0  0  0  0  0
  140.4624  137.9908  153.4920 C   0  0  0  0  0  0  0  0  0  0  0  0
  141.6599  137.2392  153.3429 C   0  0  0  0  0  0  0  0  0  0  0  0
  142.8163  137.6901  152.8326 N   0  5  0  0  0  0  0  0  0  0  0  0
  143.9563  136.9816  152.9999 C   0  0  0  0  0  0  0  0  0  0  0  0
  144.5170  136.7346  154.0700 O   0  0  0  0  0  0  0  0  0  0  0  0
  144.4801  136.5294  151.8540 N   0  0  0  0  0  0  0  0  0  0  0  0
  145.6959  135.7352  151.7441 C   0  0  0  0  0  0  0  0  0  0  0  0
  145.3555  134.2596  151.4974 C   0  0  2  0  0  0  0  0  0  0  0  0
  146.6134  133.3668  151.5299 C   0  0  0  0  0  0  0  0  0  0  0  0
  146.2802  131.9539  151.2241 N   0  3  1  0  0  0  0  0  0  0  0  0
  145.6569  131.2277  152.3639 C   0  0  0  0  0  0  0  0  0  0  0  0
  146.2753  129.8326  152.5982 C   0  0  0  0  0  0  0  0  0  0  0  0
  147.6573  129.9589  153.2566 C   0  0  0  0  0  0  0  0  0  0  0  0
  146.3746  129.0228  151.2944 C   0  0  0  0  0  0  0  0  0  0  0  0
  145.5312  131.8625  149.9447 C   0  0  0  0  0  0  0  0  0  0  0  0
  144.3241  132.8201  149.9264 C   0  0  0  0  0  0  0  0  0  0  0  0
  144.7573  134.1442  150.2096 O   0  0  0  0  0  0  0  0  0  0  0  0
  141.5236  135.9862  153.7435 N   0  0  0  0  0  0  0  0  0  0  0  0
  140.2027  135.8831  154.1961 O   0  0  0  0  0  0  0  0  0  0  0  0
  137.6513  137.9714  153.9143 H   0  0  0  0  0  0  0  0  0  0  0  0
  138.0993  137.4073  155.5258 H   0  0  0  0  0  0  0  0  0  0  0  0
  137.6431  136.2447  154.2778 H   0  0  0  0  0  0  0  0  0  0  0  0
  140.2753  139.0250  153.2450 H   0  0  0  0  0  0  0  0  0  0  0  0
  143.9959  136.7557  150.9975 H   0  0  0  0  0  0  0  0  0  0  0  0
  146.3170  136.1255  150.9363 H   0  0  0  0  0  0  0  0  0  0  0  0
  146.2684  135.8324  152.6681 H   0  0  0  0  0  0  0  0  0  0  0  0
  144.6485  133.9310  152.2616 H   0  0  0  0  0  0  0  0  0  0  0  0
  147.3276  133.7185  150.7839 H   0  0  0  0  0  0  0  0  0  0  0  0
  147.1197  133.4394  152.4932 H   0  0  0  0  0  0  0  0  0  0  0  0
  145.7814  131.8103  153.2780 H   0  0  0  0  0  0  0  0  0  0  0  0
  144.5812  131.1456  152.2082 H   0  0  0  0  0  0  0  0  0  0  0  0
  145.6480  129.2738  153.2919 H   0  0  0  0  0  0  0  0  0  0  0  0
  148.3533  130.5050  152.6188 H   0  0  0  0  0  0  0  0  0  0  0  0
  148.0895  128.9778  153.4561 H   0  0  0  0  0  0  0  0  0  0  0  0
  147.5938  130.4871  154.2085 H   0  0  0  0  0  0  0  0  0  0  0  0
  146.9933  129.5334  150.5557 H   0  0  0  0  0  0  0  0  0  0  0  0
  145.3930  128.8573  150.8500 H   0  0  0  0  0  0  0  0  0  0  0  0
  146.8167  128.0426  151.4750 H   0  0  0  0  0  0  0  0  0  0  0  0
  146.2115  132.1332  149.1361 H   0  0  0  0  0  0  0  0  0  0  0  0
  145.2127  130.8406  149.7427 H   0  0  0  0  0  0  0  0  0  0  0  0
  143.8557  132.8089  148.9421 H   0  0  0  0  0  0  0  0  0  0  0  0
  143.5579  132.5145  150.6398 H   0  0  0  0  0  0  0  0  0  0  0  0
  147.1658  131.4914  151.0747 H   0  0  0  0  0  0  0  0  0  0  0  0
  1  2  1  0  0  0  0
  1 22  1  0  0  0  0
  1 23  1  0  0  0  0
  1 24  1  0  0  0  0
  2 21  1  0  0  0  0
  2  3  2  0  0  0  0
  3  4  1  0  0  0  0
  3 25  1  0  0  0  0
  4  5  1  0  0  0  0
  4 20  2  0  0  0  0
  5  6  1  0  0  0  0
  6  7  2  0  0  0  0
  6  8  1  0  0  0  0
  8  9  1  0  0  0  0
  8 26  1  0  0  0  0
  9 10  1  0  0  0  0
  9 27  1  0  0  0  0
  9 28  1  0  0  0  0
 10 19  1  0  0  0  0
 10 11  1  0  0  0  0
 10 29  1  0  0  0  0
 11 12  1  0  0  0  0
 11 30  1  0  0  0  0
 11 31  1  0  0  0  0
 12 13  1  0  0  0  0
 12 17  1  0  0  0  0
 12 45  1  0  0  0  0
 13 14  1  0  0  0  0
 13 32  1  0  0  0  0
 13 33  1  0  0  0  0
 14 15  1  0  0  0  0
 14 16  1  0  0  0  0
 14 34  1  0  0  0  0
 15 35  1  0  0  0  0
 15 36  1  0  0  0  0
 15 37  1  0  0  0  0
 16 38  1  0  0  0  0
 16 39  1  0  0  0  0
 16 40  1  0  0  0  0
 17 18  1  0  0  0  0
 17 41  1  0  0  0  0
 17 42  1  0  0  0  0
 18 19  1  0  0  0  0
 18 43  1  0  0  0  0
 18 44  1  0  0  0  0
 20 21  1  0  0  0  0
M  CHG  1   5  -1
M  CHG  1  12   1
M  END
> <s_m_source_file>
AV-unprocessed.smi

> <i_m_source_file_index>
1254

> <i_lp_mmshare_version>
43012

> <i_f3d_flags>
0

> <s_epik_input>
W0NIM11jMVtjSF1jKG5vMSlbTkhdQyg9TylbTkhdW0NIMl1bQ0BASF0yW0NIMl1OKFtDSDJdW0NIMl1PMilbQ0gyXVtDSF0oW0NIM10pW0NIM10=

> <s_epik_cmdline>
J2VwaWtfcHl0aG9uJywgJy1waCcsICc3LjAnLCAnLXRuJywgJzgnLCAnLW1hJywgJzIwMCcsICctbWV0YWxfYmluZGluZycsICctaW1hZScsICc8aW5maWxlLm1hZT4nLCAnLW9tYWUnLCAnPG91dGZpbGUubWFlPic=

> <r_epik_Ionization_Penalty>
6.33139

> <r_epik_Ionization_Penalty_Charging>
6.33128

> <r_epik_Ionization_Penalty_Neutral>
0.000104968

> <r_epik_State_Penalty>
6.32522

> <r_epik_Charging_Adjusted_Penalty>
12.6565

> <i_epik_Tot_Q>
0

> <i_epik_Tot_abs_Q>
2

> <r_epik_Metal_State_Penalty>
2.26285

> <b_epik_Metal_Only>
1

> <s_lp_Force_Field>
OPLS_2005

> <r_lp_Energy>
8.92976

> <b_lp_Chiralities_Consistent>
1

> <s_lp_Variant>
AV-unprocessed.smi:1254-9

> <Gold.Version>
5.8.1

> <Gold.Id.Protein>
6NUR|6NUR_protein|mol2

> <Gold.PLP.Fitness>
42.3390

> <Gold.PLP.PLP>
-38.1940

> <Gold.PLP.part.hbond>
-3.1829

> <Gold.PLP.part.metal>
0.0000

> <Gold.PLP.part.buried>
-8.4161

> <Gold.PLP.part.nonpolar>
-28.8601

> <Gold.PLP.part.repulsive>
2.2476

> <Gold.PLP.ligand.clash>
0.0000

> <Gold.PLP.ligand.torsion>
1.4637

> <Gold.PLP.Chemscore.Hbond>
2.2917

> <Gold.PLP.Chemscore.CHOScore>
0.0000

> <Gold.PLP.Chemscore.Metal>
0.0000

> <Gold.Chemscore.Hbonds>
donor molecule, donor type, donor heavy atom, donor atom, acceptor molecule, acceptor atom, score
      L1  H     8    26       P1 10171  0.43
      L1  H    12    45       P1 10747  0.88
      P1  H 11000 11005       L1    21  0.71

> <Gold.PLP.Chemscore.Internal.Correction>
0.1972

> <Gold.Rescore>
     Score         DG    S(hbond)    S(metal)    S(lipo)     H(rot)  DE(clash)    DE(int)     intcor
     16.94     -18.45       1.96        0.00      91.94       1.69       0.15       1.35       ----

> <Gold.Chemscore.Fitness>
16.9411

> <Gold.Chemscore.DG>
-18.4493

> <Gold.Chemscore.ZeroCoef>
-5.4800

> <Gold.Chemscore.Hbond>
1.9596

> <Gold.Chemscore.Metal>
0.0000

> <Gold.Chemscore.Lipo>
91.9436

> <Gold.Chemscore.Internal_Hbond>
0.0000

> <Gold.Chemscore.DEClash>
0.1535

> <Gold.Chemscore.DEInternal>
1.3547

> <Gold.Chemscore.Rot>
1.6926

> <Gold.Chemscore.Internal.Correction>
   9.000000E+99

> <Gold.Chemscore.Hbonds>
donor molecule, donor type, donor heavy atom, donor atom, acceptor molecule, acceptor atom, score
      L1  H     8    26       P1 10171  0.43
      L1  H    12    45       P1 10747  0.85
      P1  H 11000 11005       L1    21  0.59

> <Gold.Chemscore.Hbond.Weighted>
-6.5450

> <Gold.Chemscore.Metal.Weighted>
-0.0000

> <Gold.Chemscore.Lipo.Weighted>
-10.7574

> <Gold.Chemscore.Internal_Hbond.Weighted>
0.0000

> <Gold.Chemscore.DEClash.Weighted>
0.1535

> <Gold.Chemscore.DEInternal.Weighted>
1.3547

> <Gold.Chemscore.Rot.Weighted>
4.3330

> <Gold.Chemscore.Internal.Correction.Weighted>
   9.000000E+99

> <Gold.Protein.RotatedTorsions>
[ 6907 6896 6895 6894 ] final   89.90 input  -60.11 | X-H torsion
[ 7974 7965 7964 7962 ] final  -89.50 input  175.53 | X-H torsion
[ 8008 7997 7996 7995 ] final  140.50 input   59.86 | X-H torsion
[ 10167 10162 10161 10158 ] final  -23.43 input  -65.29 | X-H torsion
[ 10718 10713 10712 10709 ] final -162.50 input   66.30 | X-H torsion
[ 10763 10752 10751 10750 ] final   49.80 input  -60.55 | X-H torsion
[ 11005 11000 10999 10996 ] final   68.45 input  -57.11 | X-H torsion

> <Gold.Protein.ActiveResidues>
 VAL166  LYS551  ARG553  GLY616  TRP617  ASP618  TYR619  PRO620  LYS621  CYS622 
 ASP623  PHE694  ASN695  SER759  ASP760  ASP761  ALA762  ILE779  LEU786  VAL792 
 PHE793  MET794  SER795  GLU796  ALA797  LYS798  CYS799  TRP800  GLU811  SER814 

> <Gold.Protein.RotatedAtoms>
  152.5440  134.1895  159.8668 H   0  0  0  0  0  0  0  0  0  0  0  0  # atno 6907 bound_to 6896
  151.1892  133.4671  159.2602 H   0  0  0  0  0  0  0  0  0  0  0  0  # atno 6908 bound_to 6896
  151.1100  135.0033  159.8545 H   0  0  0  0  0  0  0  0  0  0  0  0  # atno 6909 bound_to 6896
  145.4390  140.9558  143.2085 H   0  0  0  0  0  0  0  0  0  0  0  0  # atno 7974 bound_to 7965
  156.2978  140.2340  156.4411 H   0  0  0  0  0  0  0  0  0  0  0  0  # atno 8008 bound_to 7997
  154.8185  140.0439  157.1414 H   0  0  0  0  0  0  0  0  0  0  0  0  # atno 8009 bound_to 7997
  154.9342  140.3021  155.5156 H   0  0  0  0  0  0  0  0  0  0  0  0  # atno 8010 bound_to 7997
  140.7288  143.4444  151.0609 H   0  0  0  0  0  0  0  0  0  0  0  0  # atno 10167 bound_to 10162
  156.6113  130.8852  151.2937 H   0  0  0  0  0  0  0  0  0  0  0  0  # atno 10718 bound_to 10713
  152.9786  135.5900  154.4148 H   0  0  0  0  0  0  0  0  0  0  0  0  # atno 10763 bound_to 10752
  154.3779  135.2767  155.2230 H   0  0  0  0  0  0  0  0  0  0  0  0  # atno 10764 bound_to 10752
  154.4156  135.6071  153.6033 H   0  0  0  0  0  0  0  0  0  0  0  0  # atno 10765 bound_to 10752
  139.9711  134.6899  156.0446 H   0  0  0  0  0  0  0  0  0  0  0  0  # atno 11005 bound_to 11000
  144.8133  139.5921  143.7019 LP  0  0  0  0  0  0  0  0  0  0  0  0  # atno 17320 bound_to 7965
  146.2566  139.6317  142.9390 LP  0  0  0  0  0  0  0  0  0  0  0  0  # atno 17321 bound_to 7965
  139.8114  143.7945  152.3171 LP  0  0  0  0  0  0  0  0  0  0  0  0  # atno 17342 bound_to 10162
  139.7996  144.7379  150.9843 LP  0  0  0  0  0  0  0  0  0  0  0  0  # atno 17343 bound_to 10162
  157.7253  130.9614  150.1610 LP  0  0  0  0  0  0  0  0  0  0  0  0  # atno 17370 bound_to 10713
  156.2387  130.3689  149.8361 LP  0  0  0  0  0  0  0  0  0  0  0  0  # atno 17371 bound_to 10713
  141.1390  133.6569  156.3676 LP  0  0  0  0  0  0  0  0  0  0  0  0  # atno 17394 bound_to 11000
  140.5292  134.6229  157.5344 LP  0  0  0  0  0  0  0  0  0  0  0  0  # atno 17395 bound_to 11000

$$$$
