AV-unprocessed.smi:35|AV-procd|sdf|268|dock6
  -GOLD-   2262016 33D 1   1.00000     0.00000
 Structure written by MMmdl.
 28 29  0  0  0  0  0  0  0  0  2 V2000
  151.7840  136.9218  159.7622 O   0  0  0  0  0  0  0  0  0  0  0  0
  151.5343  137.5382  158.7279 C   0  0  0  0  0  0  0  0  0  0  0  0
  152.5060  138.0339  157.9079 N   0  5  0  0  0  0  0  0  0  0  0  0
  152.2240  138.7156  156.7585 C   0  0  0  0  0  0  0  0  0  0  0  0
  153.0926  139.1946  156.0295 O   0  0  0  0  0  0  0  0  0  0  0  0
  150.8645  138.9006  156.3867 N   0  0  0  0  0  0  0  0  0  0  0  0
  150.5311  139.6560  155.1183 C   0  0  1  0  0  0  0  0  0  0  0  0
  149.4687  139.0158  154.4834 O   0  0  0  0  0  0  0  0  0  0  0  0
  148.7095  139.9874  153.7811 C   0  0  1  0  0  0  0  0  0  0  0  0
  147.3033  139.4429  153.4858 C   0  0  0  0  0  0  0  0  0  0  0  0
  147.3253  138.6376  152.3262 O   0  0  0  0  0  0  0  0  0  0  0  0
  148.7145  141.1741  154.7503 C   0  0  2  0  0  0  0  0  0  0  0  0
  148.5258  142.3867  154.0486 O   0  0  0  0  0  0  0  0  0  0  0  0
  150.1082  141.1217  155.3685 C   0  0  1  0  0  0  0  0  0  0  0  0
  150.0575  141.4966  156.7337 O   0  0  0  0  0  0  0  0  0  0  0  0
  149.8559  138.4271  157.2083 C   0  0  0  0  0  0  0  0  0  0  0  0
  150.1420  137.7629  158.3462 C   0  0  0  0  0  0  0  0  0  0  0  0
  148.6009  137.1454  159.4281 Br  0  0  0  0  0  0  0  0  0  0  0  0
  151.4014  139.5729  154.4651 H   0  0  0  0  0  0  0  0  0  0  0  0
  149.2344  140.2552  152.8614 H   0  0  0  0  0  0  0  0  0  0  0  0
  146.9092  138.8809  154.3332 H   0  0  0  0  0  0  0  0  0  0  0  0
  146.6153  140.2672  153.2962 H   0  0  0  0  0  0  0  0  0  0  0  0
  148.0268  138.0100  152.4092 H   0  0  0  0  0  0  0  0  0  0  0  0
  147.9433  141.0431  155.5115 H   0  0  0  0  0  0  0  0  0  0  0  0
  148.5672  143.0977  154.6701 H   0  0  0  0  0  0  0  0  0  0  0  0
  150.8130  141.7641  154.8383 H   0  0  0  0  0  0  0  0  0  0  0  0
  150.3380  140.7583  157.2537 H   0  0  0  0  0  0  0  0  0  0  0  0
  148.8224  138.5956  156.9443 H   0  0  0  0  0  0  0  0  0  0  0  0
  1  2  2  0  0  0  0
  2 17  1  0  0  0  0
  2  3  1  0  0  0  0
  3  4  1  0  0  0  0
  4  5  2  0  0  0  0
  4  6  1  0  0  0  0
  6  7  1  0  0  0  0
  6 16  1  0  0  0  0
  7 14  1  0  0  0  0
  7  8  1  0  0  0  0
  7 19  1  0  0  0  0
  8  9  1  0  0  0  0
  9 10  1  0  0  0  0
  9 12  1  0  0  0  0
  9 20  1  0  0  0  0
 10 11  1  0  0  0  0
 10 21  1  0  0  0  0
 10 22  1  0  0  0  0
 11 23  1  0  0  0  0
 12 13  1  0  0  0  0
 12 14  1  0  0  0  0
 12 24  1  0  0  0  0
 13 25  1  0  0  0  0
 14 15  1  0  0  0  0
 14 26  1  0  0  0  0
 15 27  1  0  0  0  0
 16 17  2  0  0  0  0
 16 28  1  0  0  0  0
 17 18  1  0  0  0  0
M  CHG  1   3  -1
M  END
> <s_m_source_file>
AV-unprocessed.smi

> <i_m_source_file_index>
35

> <i_lp_mmshare_version>
43012

> <i_f3d_flags>
0

> <s_epik_input>
Tz1jMVtuSF1jKD1PKW4oW2NIXWMxQnIpW0NAQEhdMk9bQ0BASF0oW0NIMl1bT0hdKVtDQEBIXShbT0hdKVtDQEhdMltPSF0=

> <s_epik_cmdline>
J2VwaWtfcHl0aG9uJywgJy1waCcsICc3LjAnLCAnLXRuJywgJzgnLCAnLW1hJywgJzIwMCcsICctbWV0YWxfYmluZGluZycsICctaW1hZScsICc8aW5maWxlLm1hZT4nLCAnLW9tYWUnLCAnPG91dGZpbGUubWFlPic=

> <r_epik_Ionization_Penalty>
1.06112

> <r_epik_Ionization_Penalty_Charging>
2.1796e-09

> <r_epik_Ionization_Penalty_Neutral>
1.06112

> <r_epik_State_Penalty>
1.11484

> <r_epik_Charging_Adjusted_Penalty>
1.11484

> <i_epik_Tot_Q>
-1

> <i_epik_Tot_abs_Q>
1

> <r_epik_Metal_State_Penalty>
0.0032876

> <b_epik_Metal_Only>
0

> <s_epik_Chemistry_Notes>
This compound contains an acetal/aminal-like group ( X-CH(R)-Y where X, Y are N, S, or O) that may be acid/base labile, releasing an aldehyde.

> <s_lp_Force_Field>
OPLS_2005

> <r_lp_Energy>
42.419

> <b_lp_Chiralities_Consistent>
1

> <s_lp_Variant>
AV-unprocessed.smi:35-22

> <Gold.Version>
5.8.1

> <Gold.Id.Protein>
6NUR|6NUR_protein|mol2

> <Gold.PLP.Fitness>
36.7946

> <Gold.PLP.PLP>
-25.3959

> <Gold.PLP.part.hbond>
-5.8116

> <Gold.PLP.part.metal>
0.0000

> <Gold.PLP.part.buried>
-1.7112

> <Gold.PLP.part.nonpolar>
-18.2287

> <Gold.PLP.part.repulsive>
0.1645

> <Gold.PLP.ligand.clash>
0.0000

> <Gold.PLP.ligand.torsion>
0.7028

> <Gold.PLP.Chemscore.Hbond>
4.1602

> <Gold.PLP.Chemscore.CHOScore>
0.0000

> <Gold.PLP.Chemscore.Metal>
0.0000

> <Gold.Chemscore.Hbonds>
donor molecule, donor type, donor heavy atom, donor atom, acceptor molecule, acceptor atom, score
      L1  H    11    23       P1  7948  0.94
      L1  H    13    25       P1  8028  1.00
      P1  H  6896  6907       L1     1  1.00
      P1  H  7997  8009       L1     5  0.98
      P1  H  8011  8017       L1    13  0.16

> <Gold.PLP.Chemscore.Internal.Correction>
0.3237

> <Gold.Rescore>
     Score         DG    S(hbond)    S(metal)    S(lipo)     H(rot)  DE(clash)    DE(int)     intcor
     12.39     -14.44       4.11        0.00      38.57       3.63       1.38       0.67       ----

> <Gold.Chemscore.Fitness>
12.3883

> <Gold.Chemscore.DG>
-14.4419

> <Gold.Chemscore.ZeroCoef>
-5.4800

> <Gold.Chemscore.Hbond>
4.1113

> <Gold.Chemscore.Metal>
0.0000

> <Gold.Chemscore.Lipo>
38.5733

> <Gold.Chemscore.Internal_Hbond>
0.0000

> <Gold.Chemscore.DEClash>
1.3795

> <Gold.Chemscore.DEInternal>
0.6741

> <Gold.Chemscore.Rot>
3.6261

> <Gold.Chemscore.Internal.Correction>
   9.000000E+99

> <Gold.Chemscore.Hbonds>
donor molecule, donor type, donor heavy atom, donor atom, acceptor molecule, acceptor atom, score
      L1  H    11    23       P1  7948  0.86
      L1  H    13    25       P1  8028  1.00
      P1  H  6896  6907       L1     1  1.00
      P1  H  7997  8009       L1     5  0.93
      P1  H  8011  8017       L1    13  0.11

> <Gold.Chemscore.Hbond.Weighted>
-13.7316

> <Gold.Chemscore.Metal.Weighted>
-0.0000

> <Gold.Chemscore.Lipo.Weighted>
-4.5131

> <Gold.Chemscore.Internal_Hbond.Weighted>
0.0000

> <Gold.Chemscore.DEClash.Weighted>
1.3795

> <Gold.Chemscore.DEInternal.Weighted>
0.6741

> <Gold.Chemscore.Rot.Weighted>
9.2828

> <Gold.Chemscore.Internal.Correction.Weighted>
   9.000000E+99

> <Gold.Protein.RotatedTorsions>
[ 6907 6896 6895 6894 ] final   11.78 input  -60.11 | X-H torsion
[ 7974 7965 7964 7962 ] final  120.87 input  175.53 | X-H torsion
[ 8008 7997 7996 7995 ] final -139.56 input   59.86 | X-H torsion
[ 10167 10162 10161 10158 ] final  -98.34 input  -65.29 | X-H torsion
[ 10718 10713 10712 10709 ] final -111.84 input   66.30 | X-H torsion
[ 10763 10752 10751 10750 ] final  -30.58 input  -60.55 | X-H torsion
[ 11005 11000 10999 10996 ] final  -60.38 input  -57.11 | X-H torsion

> <Gold.Protein.ActiveResidues>
 VAL166  LYS551  ARG553  GLY616  TRP617  ASP618  TYR619  PRO620  LYS621  CYS622 
 ASP623  PHE694  ASN695  SER759  ASP760  ASP761  ALA762  ILE779  LEU786  VAL792 
 PHE793  MET794  SER795  GLU796  ALA797  LYS798  CYS799  TRP800  GLU811  SER814 

> <Gold.Protein.RotatedAtoms>
  151.7598  135.0813  160.0343 H   0  0  0  0  0  0  0  0  0  0  0  0  # atno 6907 bound_to 6896
  152.3361  133.6009  159.5852 H   0  0  0  0  0  0  0  0  0  0  0  0  # atno 6908 bound_to 6896
  150.7451  133.9710  159.3587 H   0  0  0  0  0  0  0  0  0  0  0  0  # atno 6909 bound_to 6896
  145.1260  139.3358  143.4690 H   0  0  0  0  0  0  0  0  0  0  0  0  # atno 7974 bound_to 7965
  155.4468  140.0536  157.3005 H   0  0  0  0  0  0  0  0  0  0  0  0  # atno 8008 bound_to 7997
  154.4794  140.2075  155.9756 H   0  0  0  0  0  0  0  0  0  0  0  0  # atno 8009 bound_to 7997
  156.1182  140.3193  155.8175 H   0  0  0  0  0  0  0  0  0  0  0  0  # atno 8010 bound_to 7997
  140.2740  143.3325  152.0507 H   0  0  0  0  0  0  0  0  0  0  0  0  # atno 10167 bound_to 10162
  156.0670  130.5888  150.8428 H   0  0  0  0  0  0  0  0  0  0  0  0  # atno 10718 bound_to 10713
  153.7833  135.6903  153.4884 H   0  0  0  0  0  0  0  0  0  0  0  0  # atno 10763 bound_to 10752
  153.1797  135.4511  155.0010 H   0  0  0  0  0  0  0  0  0  0  0  0  # atno 10764 bound_to 10752
  154.8073  135.3362  154.7334 H   0  0  0  0  0  0  0  0  0  0  0  0  # atno 10765 bound_to 10752
  141.1285  133.6622  156.5214 H   0  0  0  0  0  0  0  0  0  0  0  0  # atno 11005 bound_to 11000
  146.3517  140.1239  142.8599 LP  0  0  0  0  0  0  0  0  0  0  0  0  # atno 17320 bound_to 7965
  145.0688  140.9140  143.4894 LP  0  0  0  0  0  0  0  0  0  0  0  0  # atno 17321 bound_to 7965
  139.4981  144.6637  151.6405 LP  0  0  0  0  0  0  0  0  0  0  0  0  # atno 17342 bound_to 10162
  140.5867  143.9852  150.6300 LP  0  0  0  0  0  0  0  0  0  0  0  0  # atno 17343 bound_to 10162
  157.5718  131.0946  150.9406 LP  0  0  0  0  0  0  0  0  0  0  0  0  # atno 17370 bound_to 10713
  156.9620  130.5459  149.5286 LP  0  0  0  0  0  0  0  0  0  0  0  0  # atno 17371 bound_to 10713
  140.4289  134.7120  157.4931 LP  0  0  0  0  0  0  0  0  0  0  0  0  # atno 17394 bound_to 11000
  140.0307  134.6410  155.9110 LP  0  0  0  0  0  0  0  0  0  0  0  0  # atno 17395 bound_to 11000

$$$$
