AV-unprocessed.smi:1046|AV-procd|sdf|4559|dock10
  -GOLD-   22720 3 03D 1   1.00000     0.00000
 Structure written by MMmdl.
 54 56  0  0  0  0  0  0  0  0  3 V2000
  152.5853  144.1387  159.7801 C   0  0  0  0  0  0  0  0  0  0  0  0
  152.1339  143.0737  158.7950 C   0  0  0  0  0  0  0  0  0  0  0  0
  151.2693  143.4514  157.7430 C   0  0  0  0  0  0  0  0  0  0  0  0
  150.8767  142.4561  156.8559 C   0  0  0  0  0  0  0  0  0  0  0  0
  150.0484  142.5071  155.7326 N   0  3  0  0  0  0  0  0  0  0  0  0
  149.9608  141.2676  155.1755 C   0  0  0  0  0  0  0  0  0  0  0  0
  150.7194  140.4246  155.9273 N   0  0  0  0  0  0  0  0  0  0  0  0
  150.9652  138.9844  155.7642 C   0  0  0  0  0  0  0  0  0  0  0  0
  150.1560  138.3707  154.6041 C   0  0  1  0  0  0  0  0  0  0  0  0
  150.8049  137.2271  154.0842 O   0  0  0  0  0  0  0  0  0  0  0  0
  148.6846  138.0127  154.9126 C   0  0  0  0  0  0  0  0  0  0  0  0
  147.7059  139.1007  154.7676 N   0  0  0  0  0  0  0  0  0  0  0  0
  147.5135  139.5728  153.3904 C   0  0  0  0  0  0  0  0  0  0  0  0
  146.7543  138.5741  152.4896 C   0  0  0  0  0  0  0  0  0  0  0  0
  145.4454  138.2157  153.0924 N   0  3  0  0  0  0  0  0  0  0  0  0
  144.6545  137.3006  152.2314 C   0  0  0  0  0  0  0  0  0  0  0  0
  143.2528  137.0185  152.7990 C   0  0  0  0  0  0  0  0  0  0  0  0
  142.4765  138.1973  152.7751 O   0  0  0  0  0  0  0  0  0  0  0  0
  145.6315  137.7173  154.4799 C   0  0  0  0  0  0  0  0  0  0  0  0
  146.3933  138.7619  155.3180 C   0  0  0  0  0  0  0  0  0  0  0  0
  151.3109  141.1227  156.9876 C   0  0  0  0  0  0  0  0  0  0  0  0
  152.1628  140.7343  158.0191 C   0  0  0  0  0  0  0  0  0  0  0  0
  152.5766  141.7324  158.9297 C   0  0  0  0  0  0  0  0  0  0  0  0
  153.5120  141.3378  160.0600 C   0  0  0  0  0  0  0  0  0  0  0  0
  152.0945  145.0930  159.5881 H   0  0  0  0  0  0  0  0  0  0  0  0
  153.6616  144.2950  159.7049 H   0  0  0  0  0  0  0  0  0  0  0  0
  152.3478  143.8447  160.8027 H   0  0  0  0  0  0  0  0  0  0  0  0
  150.9306  144.4710  157.6322 H   0  0  0  0  0  0  0  0  0  0  0  0
  149.3915  141.0026  154.2963 H   0  0  0  0  0  0  0  0  0  0  0  0
  152.0357  138.8294  155.6325 H   0  0  0  0  0  0  0  0  0  0  0  0
  150.6894  138.5056  156.7043 H   0  0  0  0  0  0  0  0  0  0  0  0
  150.1383  139.1006  153.7936 H   0  0  0  0  0  0  0  0  0  0  0  0
  150.8434  137.3040  153.1431 H   0  0  0  0  0  0  0  0  0  0  0  0
  148.3898  137.1546  154.3098 H   0  0  0  0  0  0  0  0  0  0  0  0
  148.6647  137.6489  155.9410 H   0  0  0  0  0  0  0  0  0  0  0  0
  146.9548  140.5094  153.4174 H   0  0  0  0  0  0  0  0  0  0  0  0
  148.4642  139.8186  152.9248 H   0  0  0  0  0  0  0  0  0  0  0  0
  146.5894  139.0300  151.5126 H   0  0  0  0  0  0  0  0  0  0  0  0
  147.3419  137.6723  152.3157 H   0  0  0  0  0  0  0  0  0  0  0  0
  144.5413  137.7358  151.2370 H   0  0  0  0  0  0  0  0  0  0  0  0
  145.2027  136.3675  152.0939 H   0  0  0  0  0  0  0  0  0  0  0  0
  142.7520  136.2692  152.1855 H   0  0  0  0  0  0  0  0  0  0  0  0
  143.2891  136.6209  153.8125 H   0  0  0  0  0  0  0  0  0  0  0  0
  143.0144  138.9072  152.4570 H   0  0  0  0  0  0  0  0  0  0  0  0
  144.6652  137.5280  154.9456 H   0  0  0  0  0  0  0  0  0  0  0  0
  146.1676  136.7671  154.4676 H   0  0  0  0  0  0  0  0  0  0  0  0
  146.5017  138.4078  156.3438 H   0  0  0  0  0  0  0  0  0  0  0  0
  145.7904  139.6688  155.3840 H   0  0  0  0  0  0  0  0  0  0  0  0
  152.5058  139.7151  158.1191 H   0  0  0  0  0  0  0  0  0  0  0  0
  153.7959  140.2870  159.9947 H   0  0  0  0  0  0  0  0  0  0  0  0
  153.0313  141.4944  161.0258 H   0  0  0  0  0  0  0  0  0  0  0  0
  154.4261  141.9310  160.0268 H   0  0  0  0  0  0  0  0  0  0  0  0
  144.9188  139.0757  153.1538 H   0  0  0  0  0  0  0  0  0  0  0  0
  149.5771  143.3261  155.3706 H   0  0  0  0  0  0  0  0  0  0  0  0
  1  2  1  0  0  0  0
  1 25  1  0  0  0  0
  1 26  1  0  0  0  0
  1 27  1  0  0  0  0
  2 23  1  0  0  0  0
  2  3  2  0  0  0  0
  3  4  1  0  0  0  0
  3 28  1  0  0  0  0
  4 21  2  0  0  0  0
  4  5  1  0  0  0  0
  5  6  2  0  0  0  0
  5 54  1  0  0  0  0
  6  7  1  0  0  0  0
  6 29  1  0  0  0  0
  7  8  1  0  0  0  0
  7 21  1  0  0  0  0
  8  9  1  0  0  0  0
  8 30  1  0  0  0  0
  8 31  1  0  0  0  0
  9 10  1  0  0  0  0
  9 11  1  0  0  0  0
  9 32  1  0  0  0  0
 10 33  1  0  0  0  0
 11 12  1  0  0  0  0
 11 34  1  0  0  0  0
 11 35  1  0  0  0  0
 12 20  1  0  0  0  0
 12 13  1  0  0  0  0
 13 14  1  0  0  0  0
 13 36  1  0  0  0  0
 13 37  1  0  0  0  0
 14 15  1  0  0  0  0
 14 38  1  0  0  0  0
 14 39  1  0  0  0  0
 15 16  1  0  0  0  0
 15 19  1  0  0  0  0
 15 53  1  0  0  0  0
 16 17  1  0  0  0  0
 16 40  1  0  0  0  0
 16 41  1  0  0  0  0
 17 18  1  0  0  0  0
 17 42  1  0  0  0  0
 17 43  1  0  0  0  0
 18 44  1  0  0  0  0
 19 20  1  0  0  0  0
 19 45  1  0  0  0  0
 19 46  1  0  0  0  0
 20 47  1  0  0  0  0
 20 48  1  0  0  0  0
 21 22  1  0  0  0  0
 22 23  2  0  0  0  0
 22 49  1  0  0  0  0
 23 24  1  0  0  0  0
 24 50  1  0  0  0  0
 24 51  1  0  0  0  0
 24 52  1  0  0  0  0
M  CHG  1   5   1
M  CHG  1  15   1
M  END
> <s_m_source_file>
AV-unprocessed.smi

> <i_m_source_file_index>
1046

> <i_lp_mmshare_version>
43012

> <i_f3d_flags>
0

> <s_epik_input>
W0NIM11jKFtjSF0xKWMoW0NIM10pW2NIXWMoYzEyKW4oW2NIXW4yKVtDSDJdW0NASF0oW09IXSlbQ0gyXU4zW0NIMl1bQ0gyXU4oW0NIMl1bQ0gyXTMpW0NIMl1bQ0gyXVtPSF0=

> <s_epik_cmdline>
J2VwaWtfcHl0aG9uJywgJy1waCcsICc3LjAnLCAnLXRuJywgJzgnLCAnLW1hJywgJzIwMCcsICctbWV0YWxfYmluZGluZycsICctaW1hZScsICc8aW5maWxlLm1hZT4nLCAnLW9tYWUnLCAnPG91dGZpbGUubWFlPic=

> <r_epik_Ionization_Penalty>
1.37806

> <r_epik_Ionization_Penalty_Charging>
1.32954

> <r_epik_Ionization_Penalty_Neutral>
0.0485178

> <r_epik_State_Penalty>
2.26587

> <r_epik_Charging_Adjusted_Penalty>
3.59541

> <i_epik_Tot_Q>
2

> <i_epik_Tot_abs_Q>
2

> <r_epik_Metal_State_Penalty>
6.27317

> <b_epik_Metal_Only>
0

> <s_lp_Force_Field>
OPLS_2005

> <r_lp_Energy>
47.9713

> <b_lp_Chiralities_Consistent>
1

> <s_lp_Variant>
AV-unprocessed.smi:1046-12

> <Gold.Version>
5.8.1

> <Gold.Id.Protein>
6NUR|6NUR_protein|mol2

> <Gold.PLP.Fitness>
58.9002

> <Gold.PLP.PLP>
-43.8717

> <Gold.PLP.part.hbond>
-4.8896

> <Gold.PLP.part.metal>
0.0000

> <Gold.PLP.part.buried>
-2.4907

> <Gold.PLP.part.nonpolar>
-37.8273

> <Gold.PLP.part.repulsive>
0.2448

> <Gold.PLP.ligand.clash>
0.0000

> <Gold.PLP.ligand.torsion>
0.6725

> <Gold.PLP.Chemscore.Hbond>
5.4306

> <Gold.PLP.Chemscore.CHOScore>
0.0000

> <Gold.PLP.Chemscore.Metal>
0.0000

> <Gold.Chemscore.Hbonds>
donor molecule, donor type, donor heavy atom, donor atom, acceptor molecule, acceptor atom, score
      L1  H     5    54       P1  8028  1.98
      L1  H    10    33       P1  7949  0.46
      L1  H    15    53       P1 10175  2.00
      L1  H    18    44       P1 10175  1.00

> <Gold.PLP.Chemscore.Internal.Correction>
0.0819

> <Gold.Rescore>
     Score         DG    S(hbond)    S(metal)    S(lipo)     H(rot)  DE(clash)    DE(int)     intcor
     18.80     -20.15       2.94        0.00     113.50       3.29       0.67       0.68       ----

> <Gold.Chemscore.Fitness>
18.8029

> <Gold.Chemscore.DG>
-20.1510

> <Gold.Chemscore.ZeroCoef>
-5.4800

> <Gold.Chemscore.Hbond>
2.9379

> <Gold.Chemscore.Metal>
0.0000

> <Gold.Chemscore.Lipo>
113.5024

> <Gold.Chemscore.Internal_Hbond>
0.0000

> <Gold.Chemscore.DEClash>
0.6665

> <Gold.Chemscore.DEInternal>
0.6817

> <Gold.Chemscore.Rot>
3.2896

> <Gold.Chemscore.Internal.Correction>
   9.000000E+99

> <Gold.Chemscore.Hbonds>
donor molecule, donor type, donor heavy atom, donor atom, acceptor molecule, acceptor atom, score
      L1  H     5    54       P1  8028  0.91
      L1  H    10    33       P1  7949  0.08
      L1  H    15    53       P1 10175  0.95
      L1  H    18    44       P1 10175  0.98

> <Gold.Chemscore.Hbond.Weighted>
-9.8127

> <Gold.Chemscore.Metal.Weighted>
-0.0000

> <Gold.Chemscore.Lipo.Weighted>
-13.2798

> <Gold.Chemscore.Internal_Hbond.Weighted>
0.0000

> <Gold.Chemscore.DEClash.Weighted>
0.6665

> <Gold.Chemscore.DEInternal.Weighted>
0.6817

> <Gold.Chemscore.Rot.Weighted>
8.4215

> <Gold.Chemscore.Internal.Correction.Weighted>
   9.000000E+99

> <Gold.Protein.RotatedTorsions>
[ 6907 6896 6895 6894 ] final -174.33 input  -60.11 | X-H torsion
[ 7974 7965 7964 7962 ] final -101.50 input  175.53 | X-H torsion
[ 8008 7997 7996 7995 ] final  152.92 input   59.86 | X-H torsion
[ 10167 10162 10161 10158 ] final  -15.62 input  -65.29 | X-H torsion
[ 10718 10713 10712 10709 ] final -157.01 input   66.30 | X-H torsion
[ 10763 10752 10751 10750 ] final  -64.08 input  -60.55 | X-H torsion
[ 11005 11000 10999 10996 ] final   88.27 input  -57.11 | X-H torsion

> <Gold.Protein.ActiveResidues>
 VAL166  LYS551  ARG553  GLY616  TRP617  ASP618  TYR619  PRO620  LYS621  CYS622 
 ASP623  PHE694  ASN695  SER759  ASP760  ASP761  ALA762  ILE779  LEU786  VAL792 
 PHE793  MET794  SER795  GLU796  ALA797  LYS798  CYS799  TRP800  GLU811  SER814 

> <Gold.Protein.RotatedAtoms>
  151.5706  133.3390  159.2988 H   0  0  0  0  0  0  0  0  0  0  0  0  # atno 6907 bound_to 6896
  150.8370  134.7650  159.6912 H   0  0  0  0  0  0  0  0  0  0  0  0  # atno 6908 bound_to 6896
  152.4444  134.5531  159.9924 H   0  0  0  0  0  0  0  0  0  0  0  0  # atno 6909 bound_to 6896
  145.2808  140.9326  143.2933 H   0  0  0  0  0  0  0  0  0  0  0  0  # atno 7974 bound_to 7965
  156.2606  140.2007  156.6409 H   0  0  0  0  0  0  0  0  0  0  0  0  # atno 8008 bound_to 7997
  154.6610  140.0561  157.0087 H   0  0  0  0  0  0  0  0  0  0  0  0  # atno 8009 bound_to 7997
  155.1276  140.3230  155.4484 H   0  0  0  0  0  0  0  0  0  0  0  0  # atno 8010 bound_to 7997
  140.7221  143.5199  150.9646 H   0  0  0  0  0  0  0  0  0  0  0  0  # atno 10167 bound_to 10162
  156.5344  130.8535  151.2727 H   0  0  0  0  0  0  0  0  0  0  0  0  # atno 10718 bound_to 10713
  154.3246  135.6189  153.5523 H   0  0  0  0  0  0  0  0  0  0  0  0  # atno 10763 bound_to 10752
  152.9816  135.5732  154.5030 H   0  0  0  0  0  0  0  0  0  0  0  0  # atno 10764 bound_to 10752
  154.4705  135.2859  155.1623 H   0  0  0  0  0  0  0  0  0  0  0  0  # atno 10765 bound_to 10752
  139.8900  134.8477  156.2976 H   0  0  0  0  0  0  0  0  0  0  0  0  # atno 11005 bound_to 11000
  144.9255  139.4360  143.6520 LP  0  0  0  0  0  0  0  0  0  0  0  0  # atno 17320 bound_to 7965
  146.3217  139.8138  142.8940 LP  0  0  0  0  0  0  0  0  0  0  0  0  # atno 17321 bound_to 7965
  139.8916  143.6946  152.3144 LP  0  0  0  0  0  0  0  0  0  0  0  0  # atno 17342 bound_to 10162
  139.7264  144.7592  151.0873 LP  0  0  0  0  0  0  0  0  0  0  0  0  # atno 17343 bound_to 10162
  157.7416  130.9874  150.2458 LP  0  0  0  0  0  0  0  0  0  0  0  0  # atno 17370 bound_to 10713
  156.3030  130.3761  149.7733 LP  0  0  0  0  0  0  0  0  0  0  0  0  # atno 17371 bound_to 10713
  140.9934  133.7195  156.0849 LP  0  0  0  0  0  0  0  0  0  0  0  0  # atno 17394 bound_to 11000
  140.7594  134.3956  157.5528 LP  0  0  0  0  0  0  0  0  0  0  0  0  # atno 17395 bound_to 11000

$$$$
