AV-unprocessed.smi:1627|AV-procd|sdf|6517|dock6
  -GOLD-   22720 7193D 1   1.00000     0.00000
 Structure written by MMmdl.
 43 44  0  0  0  0  0  0  0  0  1 V2000
  156.7176  135.6310  162.0670 C   0  0  0  0  0  0  0  0  0  0  0  0
  155.2921  135.2064  161.6841 C   0  0  1  0  0  0  0  0  0  0  0  0
  154.6430  134.7649  162.8741 O   0  0  0  0  0  0  0  0  0  0  0  0
  155.3143  133.7363  163.5951 C   0  0  0  0  0  0  0  0  0  0  0  0
  154.4291  133.2722  164.7581 C   0  0  0  0  0  0  0  0  0  0  0  0
  155.1730  132.5984  165.6344 F   0  0  0  0  0  0  0  0  0  0  0  0
  153.8894  134.3231  165.3747 F   0  0  0  0  0  0  0  0  0  0  0  0
  153.4633  132.4704  164.3105 F   0  0  0  0  0  0  0  0  0  0  0  0
  154.5147  136.3710  161.0484 C   0  0  0  0  0  0  0  0  0  0  0  0
  153.6076  136.1332  160.2513 O   0  0  0  0  0  0  0  0  0  0  0  0
  154.9244  137.6051  161.3960 N   0  0  0  0  0  0  0  0  0  0  0  0
  154.4102  138.8629  160.9798 C   0  0  0  0  0  0  0  0  0  0  0  0
  154.9056  140.1131  161.4155 C   0  0  0  0  0  0  0  0  0  0  0  0
  154.3216  141.2924  160.9143 C   0  0  0  0  0  0  0  0  0  0  0  0
  153.2577  141.1997  159.9816 C   0  0  0  0  0  0  0  0  0  0  0  0
  152.6336  142.3441  159.4342 N   0  0  0  0  0  0  0  0  0  0  0  0
  151.4129  142.1077  158.6566 C   0  0  0  0  0  0  0  0  0  0  0  0
  151.0828  143.3069  157.7516 C   0  0  0  0  0  0  0  0  0  0  0  0
  151.0293  144.6111  158.5592 C   0  0  0  0  0  0  0  0  0  0  0  0
  152.3479  144.8067  159.3198 C   0  0  0  0  0  0  0  0  0  0  0  0
  152.6656  143.5890  160.2045 C   0  0  0  0  0  0  0  0  0  0  0  0
  152.7974  139.9974  159.5590 N   0  0  0  0  0  0  0  0  0  0  0  0
  153.3606  138.8704  160.0411 C   0  0  0  0  0  0  0  0  0  0  0  0
  157.2700  135.9942  161.1997 H   0  0  0  0  0  0  0  0  0  0  0  0
  157.2727  134.7892  162.4813 H   0  0  0  0  0  0  0  0  0  0  0  0
  156.7133  136.4221  162.8180 H   0  0  0  0  0  0  0  0  0  0  0  0
  155.3608  134.3753  160.9793 H   0  0  0  0  0  0  0  0  0  0  0  0
  155.5381  132.8872  162.9480 H   0  0  0  0  0  0  0  0  0  0  0  0
  156.2632  134.1113  163.9814 H   0  0  0  0  0  0  0  0  0  0  0  0
  155.7383  137.6474  161.9921 H   0  0  0  0  0  0  0  0  0  0  0  0
  155.7261  140.1949  162.1112 H   0  0  0  0  0  0  0  0  0  0  0  0
  154.6997  142.2418  161.2616 H   0  0  0  0  0  0  0  0  0  0  0  0
  151.4948  141.2173  158.0336 H   0  0  0  0  0  0  0  0  0  0  0  0
  150.5904  141.9285  159.3500 H   0  0  0  0  0  0  0  0  0  0  0  0
  151.8388  143.3916  156.9698 H   0  0  0  0  0  0  0  0  0  0  0  0
  150.1314  143.1406  157.2458 H   0  0  0  0  0  0  0  0  0  0  0  0
  150.8458  145.4580  157.8975 H   0  0  0  0  0  0  0  0  0  0  0  0
  150.1975  144.5762  159.2638 H   0  0  0  0  0  0  0  0  0  0  0  0
  153.1596  144.9604  158.6074 H   0  0  0  0  0  0  0  0  0  0  0  0
  152.2978  145.7078  159.9311 H   0  0  0  0  0  0  0  0  0  0  0  0
  151.9456  143.5217  161.0214 H   0  0  0  0  0  0  0  0  0  0  0  0
  153.6512  143.7332  160.6482 H   0  0  0  0  0  0  0  0  0  0  0  0
  152.9533  137.9427  159.6660 H   0  0  0  0  0  0  0  0  0  0  0  0
  1  2  1  0  0  0  0
  1 24  1  0  0  0  0
  1 25  1  0  0  0  0
  1 26  1  0  0  0  0
  2  3  1  0  0  0  0
  2  9  1  0  0  0  0
  2 27  1  0  0  0  0
  3  4  1  0  0  0  0
  4  5  1  0  0  0  0
  4 28  1  0  0  0  0
  4 29  1  0  0  0  0
  5  6  1  0  0  0  0
  5  7  1  0  0  0  0
  5  8  1  0  0  0  0
  9 10  2  0  0  0  0
  9 11  1  0  0  0  0
 11 12  1  0  0  0  0
 11 30  1  0  0  0  0
 12 23  1  0  0  0  0
 12 13  2  0  0  0  0
 13 14  1  0  0  0  0
 13 31  1  0  0  0  0
 14 15  2  0  0  0  0
 14 32  1  0  0  0  0
 15 16  1  0  0  0  0
 15 22  1  0  0  0  0
 16 21  1  0  0  0  0
 16 17  1  0  0  0  0
 17 18  1  0  0  0  0
 17 33  1  0  0  0  0
 17 34  1  0  0  0  0
 18 19  1  0  0  0  0
 18 35  1  0  0  0  0
 18 36  1  0  0  0  0
 19 20  1  0  0  0  0
 19 37  1  0  0  0  0
 19 38  1  0  0  0  0
 20 21  1  0  0  0  0
 20 39  1  0  0  0  0
 20 40  1  0  0  0  0
 21 41  1  0  0  0  0
 21 42  1  0  0  0  0
 22 23  2  0  0  0  0
 23 43  1  0  0  0  0
M  END
> <s_m_source_file>
AV-unprocessed.smi

> <i_m_source_file_index>
1627

> <i_lp_mmshare_version>
43012

> <i_f3d_flags>
0

> <s_epik_input>
RkMoRikoRilbQ0gyXU9bQ0BASF0oW0NIM10pQyg9TylbTkhdYzFbY0hdW2NIXWMobltjSF0xKU4yW0NIMl1bQ0gyXVtDSDJdW0NIMl1bQ0gyXTI=

> <s_epik_cmdline>
J2VwaWtfcHl0aG9uJywgJy1waCcsICc3LjAnLCAnLXRuJywgJzgnLCAnLW1hJywgJzIwMCcsICctbWV0YWxfYmluZGluZycsICctaW1hZScsICc8aW5maWxlLm1hZT4nLCAnLW9tYWUnLCAnPG91dGZpbGUubWFlPic=

> <r_lp_tautomer_probability>
1

> <r_epik_Ionization_Penalty>
0.0254771

> <r_epik_Ionization_Penalty_Charging>
0

> <r_epik_Ionization_Penalty_Neutral>
0.0254771

> <r_epik_State_Penalty>
0.0187406

> <r_epik_Charging_Adjusted_Penalty>
0.0187406

> <i_epik_Tot_Q>
0

> <i_epik_Tot_abs_Q>
0

> <r_epik_Metal_State_Penalty>
0.017939

> <b_epik_Metal_Only>
0

> <s_lp_Force_Field>
OPLS_2005

> <r_lp_Energy>
25.1621

> <b_lp_Chiralities_Consistent>
1

> <s_lp_Variant>
AV-unprocessed.smi:1627-2

> <Gold.Version>
5.8.1

> <Gold.Id.Protein>
6NUR|6NUR_protein|mol2

> <Gold.PLP.Fitness>
45.6856

> <Gold.PLP.PLP>
-44.5863

> <Gold.PLP.part.hbond>
-1.0000

> <Gold.PLP.part.metal>
0.0000

> <Gold.PLP.part.buried>
-4.2185

> <Gold.PLP.part.nonpolar>
-40.0952

> <Gold.PLP.part.repulsive>
0.0000

> <Gold.PLP.ligand.clash>
0.0000

> <Gold.PLP.ligand.torsion>
1.1098

> <Gold.PLP.Chemscore.Hbond>
1.0000

> <Gold.PLP.Chemscore.CHOScore>
0.0000

> <Gold.PLP.Chemscore.Metal>
0.0000

> <Gold.Chemscore.Hbonds>
donor molecule, donor type, donor heavy atom, donor atom, acceptor molecule, acceptor atom, score
      P1  H  6896  6909       L1    10  1.00

> <Gold.PLP.Chemscore.Internal.Correction>
0.3189

> <Gold.Rescore>
     Score         DG    S(hbond)    S(metal)    S(lipo)     H(rot)  DE(clash)    DE(int)     intcor
     14.40     -16.92       1.00        0.00     104.82       1.63       0.09       2.42       ----

> <Gold.Chemscore.Fitness>
14.4045

> <Gold.Chemscore.DG>
-16.9219

> <Gold.Chemscore.ZeroCoef>
-5.4800

> <Gold.Chemscore.Hbond>
1.0000

> <Gold.Chemscore.Metal>
0.0000

> <Gold.Chemscore.Lipo>
104.8235

> <Gold.Chemscore.Internal_Hbond>
0.0000

> <Gold.Chemscore.DEClash>
0.0935

> <Gold.Chemscore.DEInternal>
2.4240

> <Gold.Chemscore.Rot>
1.6260

> <Gold.Chemscore.Internal.Correction>
   9.000000E+99

> <Gold.Chemscore.Hbonds>
donor molecule, donor type, donor heavy atom, donor atom, acceptor molecule, acceptor atom, score
      P1  H  6896  6909       L1    10  1.00

> <Gold.Chemscore.Hbond.Weighted>
-3.3400

> <Gold.Chemscore.Metal.Weighted>
-0.0000

> <Gold.Chemscore.Lipo.Weighted>
-12.2644

> <Gold.Chemscore.Internal_Hbond.Weighted>
0.0000

> <Gold.Chemscore.DEClash.Weighted>
0.0935

> <Gold.Chemscore.DEInternal.Weighted>
2.4240

> <Gold.Chemscore.Rot.Weighted>
4.1625

> <Gold.Chemscore.Internal.Correction.Weighted>
   9.000000E+99

> <Gold.Protein.RotatedTorsions>
[ 6907 6896 6895 6894 ] final  167.37 input  -60.11 | X-H torsion
[ 7974 7965 7964 7962 ] final  121.83 input  175.53 | X-H torsion
[ 8008 7997 7996 7995 ] final  -76.68 input   59.86 | X-H torsion
[ 10167 10162 10161 10158 ] final -168.14 input  -65.29 | X-H torsion
[ 10718 10713 10712 10709 ] final  119.07 input   66.30 | X-H torsion
[ 10763 10752 10751 10750 ] final -162.60 input  -60.55 | X-H torsion
[ 11005 11000 10999 10996 ] final -109.05 input  -57.11 | X-H torsion

> <Gold.Protein.ActiveResidues>
 VAL166  LYS551  ARG553  GLY616  TRP617  ASP618  TYR619  PRO620  LYS621  CYS622 
 ASP623  PHE694  ASN695  SER759  ASP760  ASP761  ALA762  ILE779  LEU786  VAL792 
 PHE793  MET794  SER795  GLU796  ALA797  LYS798  CYS799  TRP800  GLU811  SER814 

> <Gold.Protein.RotatedAtoms>
  151.8644  133.3463  159.3714 H   0  0  0  0  0  0  0  0  0  0  0  0  # atno 6907 bound_to 6896
  150.7170  134.5174  159.5646 H   0  0  0  0  0  0  0  0  0  0  0  0  # atno 6908 bound_to 6896
  152.2694  134.7949  160.0468 H   0  0  0  0  0  0  0  0  0  0  0  0  # atno 6909 bound_to 6896
  145.1147  139.3429  143.4745 H   0  0  0  0  0  0  0  0  0  0  0  0  # atno 7974 bound_to 7965
  154.5527  140.0723  156.8694 H   0  0  0  0  0  0  0  0  0  0  0  0  # atno 8008 bound_to 7997
  155.2961  140.3381  155.4232 H   0  0  0  0  0  0  0  0  0  0  0  0  # atno 8009 bound_to 7997
  156.1975  140.1709  156.7953 H   0  0  0  0  0  0  0  0  0  0  0  0  # atno 8010 bound_to 7997
  139.6004  144.1023  152.1736 H   0  0  0  0  0  0  0  0  0  0  0  0  # atno 10167 bound_to 10162
  157.5987  131.1054  150.7845 H   0  0  0  0  0  0  0  0  0  0  0  0  # atno 10718 bound_to 10713
  154.7199  135.3023  154.9064 H   0  0  0  0  0  0  0  0  0  0  0  0  # atno 10763 bound_to 10752
  153.9939  135.6715  153.4759 H   0  0  0  0  0  0  0  0  0  0  0  0  # atno 10764 bound_to 10752
  153.0825  135.5001  154.8448 H   0  0  0  0  0  0  0  0  0  0  0  0  # atno 10765 bound_to 10752
  141.0868  133.9124  157.2166 H   0  0  0  0  0  0  0  0  0  0  0  0  # atno 11005 bound_to 11000
  146.3524  140.1081  142.8605 LP  0  0  0  0  0  0  0  0  0  0  0  0  # atno 17320 bound_to 7965
  145.0807  140.9219  143.4827 LP  0  0  0  0  0  0  0  0  0  0  0  0  # atno 17321 bound_to 7965
  140.0618  144.5850  150.7257 LP  0  0  0  0  0  0  0  0  0  0  0  0  # atno 17342 bound_to 10162
  140.7245  143.2622  151.4167 LP  0  0  0  0  0  0  0  0  0  0  0  0  # atno 17343 bound_to 10162
  156.8249  130.4996  149.5338 LP  0  0  0  0  0  0  0  0  0  0  0  0  # atno 17370 bound_to 10713
  156.1055  130.6001  150.9964 LP  0  0  0  0  0  0  0  0  0  0  0  0  # atno 17371 bound_to 10713
  139.9688  135.0134  156.9457 LP  0  0  0  0  0  0  0  0  0  0  0  0  # atno 17394 bound_to 11000
  140.5343  134.0782  155.7324 LP  0  0  0  0  0  0  0  0  0  0  0  0  # atno 17395 bound_to 11000

$$$$
