#       Name:                AV-unprocessed.smi:2171
#       Creating user name   scv26
#       Creation time:       Fri Mar 27 12:02:16 2020


#       File generated by GOLD software.
#

@<TRIPOS>MOLECULE
AV-unprocessed.smi:2171
    42    44     1
SMALL
NO_CHARGES


@<TRIPOS>ATOM
      1 ****         0.6861   2.5687  -0.5421 O.2            1 S1                 0.0000
      2 ****         1.3583   1.6781  -0.0234 C.2            1 S1                 0.0000
      3 ****         2.8735   1.8460   0.1150 C.3            1 S1                 0.0000
      4 ****         3.2935   1.8246   1.5059 N.pl3          1 S1                 0.0000
      5 ****         3.8167   0.7718   2.2278 C.2            1 S1                 0.0000
      6 ****         4.0553   1.2250   3.4935 C.2            1 S1                 0.0000
      7 ****         3.6432   2.5863   3.4487 C.2            1 S1                 0.0000
      8 ****         3.1877   2.9421   2.2583 N.2            1 S1                 0.0000
      9 ****         0.8338   0.5289   0.4315 N.am           1 S1                 0.0000
     10 ****        -0.5842   0.1840   0.4102 C.3            1 S1                 0.0000
     11 ****        -0.9807  -0.7836   1.5393 C.3            1 S1                 0.0000
     12 ****        -2.0202  -1.7356   0.9156 C.3            1 S1                 0.0000
     13 ****        -2.2417  -1.2306  -0.4528 N.4            1 S1                 1.0000
     14 ****        -2.7372  -2.1977  -1.4563 C.3            1 S1                 0.0000
     15 ****        -2.9862  -1.4641  -2.7895 C.3            1 S1                 0.0000
     16 ****        -1.7414  -0.6791  -3.2512 C.3            1 S1                 0.0000
     17 ****        -1.2158   0.2406  -2.1321 C.3            1 S1                 0.0000
     18 ****        -0.9834  -0.5827  -0.8536 C.3            1 S1                 0.0000
     19 ****         3.3807   1.0434  -0.4217 H              1 S1                 0.0000
     20 ****         3.1918   2.7864  -0.3381 H              1 S1                 0.0000
     21 ****         3.9727  -0.2014   1.7861 H              1 S1                 0.0000
     22 ****         4.4636   0.6697   4.3248 H              1 S1                 0.0000
     23 ****         3.6610   3.3211   4.2400 H              1 S1                 0.0000
     24 ****         1.4631  -0.1464   0.8410 H              1 S1                 0.0000
     25 ****        -1.1987   1.0825   0.4995 H              1 S1                 0.0000
     26 ****        -0.1229  -1.3577   1.8933 H              1 S1                 0.0000
     27 ****        -1.3868  -0.2429   2.3950 H              1 S1                 0.0000
     28 ****        -1.6228  -2.7513   0.8815 H              1 S1                 0.0000
     29 ****        -2.9551  -1.7562   1.4761 H              1 S1                 0.0000
     30 ****        -2.0097  -2.9995  -1.5909 H              1 S1                 0.0000
     31 ****        -3.6608  -2.6552  -1.1001 H              1 S1                 0.0000
     32 ****        -3.2852  -2.1768  -3.5586 H              1 S1                 0.0000
     33 ****        -3.8215  -0.7728  -2.6698 H              1 S1                 0.0000
     34 ****        -0.9582  -1.3807  -3.5414 H              1 S1                 0.0000
     35 ****        -1.9755  -0.0928  -4.1402 H              1 S1                 0.0000
     36 ****        -0.2896   0.7189  -2.4511 H              1 S1                 0.0000
     37 ****        -1.9321   1.0406  -1.9399 H              1 S1                 0.0000
     38 ****        -0.2402  -1.3590  -1.0515 H              1 S1                 0.0000
     39 ****        -2.9295  -0.4945  -0.3788 H              1 S1                 0.0000
     40 ****         1.1296   3.4017  -0.8730 LP             1 S1                 0.0000
     41 ****        -0.3038   2.4596  -0.6328 LP             1 S1                 0.0000
     42 ****         2.8423   3.8378   1.9781 LP             1 S1                 0.0000
@<TRIPOS>BOND
    1    1    2 2     
    2    2    3 1     
    3    2    9 am    
    4    3    4 1     
    5    3   19 1     
    6    3   20 1     
    7    4    8 1     
    8    4    5 1     
    9    5    6 2     
   10    5   21 1     
   11    6    7 1     
   12    6   22 1     
   13    7    8 2     
   14    7   23 1     
   15    9   10 1     
   16    9   24 1     
   17   10   18 1     
   18   10   11 1     
   19   10   25 1     
   20   11   12 1     
   21   11   26 1     
   22   11   27 1     
   23   12   13 1     
   24   12   28 1     
   25   12   29 1     
   26   13   18 1     
   27   13   14 1     
   28   13   39 1     
   29   14   15 1     
   30   14   30 1     
   31   14   31 1     
   32   15   16 1     
   33   15   32 1     
   34   15   33 1     
   35   16   17 1     
   36   16   34 1     
   37   16   35 1     
   38   17   18 1     
   39   17   36 1     
   40   17   37 1     
   41   18   38 1     
   42    1   40 1     
   43    1   41 1     
   44    8   42 1     
@<TRIPOS>SUBSTRUCTURE
      1 S1             1
@<TRIPOS>SET
LONE_PAIRS      STATIC     ATOMS    <user>   **** ""
3 40 41 42
DONOR_HYDROGENS      STATIC     ATOMS    <user>   **** ""
2 24 39
ATOM$BLUE        STATIC     ATOMS    COLORGROUP SYSTEM
3 40 41 42
ATOM$RED        STATIC     ATOMS    COLORGROUP SYSTEM
2 24 39
