AV-unprocessed.smi:2307|AV-procd|sdf|9250|dock5
  -GOLD-   2272012473D 1   1.00000     0.00000
 Structure written by MMmdl.
 38 39  0  0  0  0  0  0  0  0  1 V2000
  143.8247  145.2575  154.0733 C   0  0  0  0  0  0  0  0  0  0  0  0
  144.8039  144.1652  154.4655 C   0  0  0  0  0  0  0  0  0  0  0  0
  145.6136  143.6816  153.4341 N   0  0  0  0  0  0  0  0  0  0  0  0
  146.4746  142.7478  153.6743 C   0  0  0  0  0  0  0  0  0  0  0  0
  146.6227  142.1911  154.9571 N   0  0  0  0  0  0  0  0  0  0  0  0
  147.6209  141.1152  155.1056 C   0  0  0  0  0  0  0  0  0  0  0  0
  149.0271  141.5204  154.6028 C   0  0  2  0  0  0  0  0  0  0  0  0
  149.1448  141.1303  153.2503 O   0  0  0  0  0  0  0  0  0  0  0  0
  150.1510  140.9600  155.4644 C   0  0  0  0  0  0  0  0  0  0  0  0
  150.8103  139.7679  155.0994 C   0  0  0  0  0  0  0  0  0  0  0  0
  151.8304  139.2438  155.9155 C   0  0  0  0  0  0  0  0  0  0  0  0
  152.2093  139.8932  157.1080 C   0  0  0  0  0  0  0  0  0  0  0  0
  153.2153  139.3030  157.8461 O   0  0  0  0  0  0  0  0  0  0  0  0
  153.0404  139.0022  159.1617 C   0  0  0  0  0  0  0  0  0  0  0  0
  154.0984  138.2802  159.6032 F   0  0  0  0  0  0  0  0  0  0  0  0
  152.9746  140.1173  159.9317 F   0  0  0  0  0  0  0  0  0  0  0  0
  151.9337  138.2439  159.3650 F   0  0  0  0  0  0  0  0  0  0  0  0
  151.5439  141.0915  157.4704 C   0  0  0  0  0  0  0  0  0  0  0  0
  150.5246  141.6182  156.6540 C   0  0  0  0  0  0  0  0  0  0  0  0
  145.8797  142.6130  156.0205 C   0  0  0  0  0  0  0  0  0  0  0  0
  146.0217  142.1239  157.1427 O   0  0  0  0  0  0  0  0  0  0  0  0
  144.9038  143.6760  155.7314 C   0  0  0  0  0  0  0  0  0  0  0  0
  144.0499  144.1651  156.8944 C   0  0  0  0  0  0  0  0  0  0  0  0
  144.0285  146.1707  154.6329 H   0  0  0  0  0  0  0  0  0  0  0  0
  142.8003  144.9441  154.2763 H   0  0  0  0  0  0  0  0  0  0  0  0
  143.8970  145.4942  153.0110 H   0  0  0  0  0  0  0  0  0  0  0  0
  147.1254  142.3345  152.9021 H   0  0  0  0  0  0  0  0  0  0  0  0
  147.6923  140.7933  156.1467 H   0  0  0  0  0  0  0  0  0  0  0  0
  147.2798  140.2285  154.5679 H   0  0  0  0  0  0  0  0  0  0  0  0
  149.1057  142.6081  154.6108 H   0  0  0  0  0  0  0  0  0  0  0  0
  148.2821  140.9271  152.9221 H   0  0  0  0  0  0  0  0  0  0  0  0
  150.5307  139.2467  154.1954 H   0  0  0  0  0  0  0  0  0  0  0  0
  152.3257  138.3291  155.6240 H   0  0  0  0  0  0  0  0  0  0  0  0
  151.7952  141.6257  158.3735 H   0  0  0  0  0  0  0  0  0  0  0  0
  150.0228  142.5273  156.9515 H   0  0  0  0  0  0  0  0  0  0  0  0
  143.4578  143.3427  157.2968 H   0  0  0  0  0  0  0  0  0  0  0  0
  143.3611  144.9611  156.6169 H   0  0  0  0  0  0  0  0  0  0  0  0
  144.6861  144.5474  157.6933 H   0  0  0  0  0  0  0  0  0  0  0  0
  1  2  1  0  0  0  0
  1 24  1  0  0  0  0
  1 25  1  0  0  0  0
  1 26  1  0  0  0  0
  2 22  2  0  0  0  0
  2  3  1  0  0  0  0
  3  4  2  0  0  0  0
  4  5  1  0  0  0  0
  4 27  1  0  0  0  0
  5  6  1  0  0  0  0
  5 20  1  0  0  0  0
  6  7  1  0  0  0  0
  6 28  1  0  0  0  0
  6 29  1  0  0  0  0
  7  8  1  0  0  0  0
  7  9  1  0  0  0  0
  7 30  1  0  0  0  0
  8 31  1  0  0  0  0
  9 19  1  0  0  0  0
  9 10  2  0  0  0  0
 10 11  1  0  0  0  0
 10 32  1  0  0  0  0
 11 12  2  0  0  0  0
 11 33  1  0  0  0  0
 12 13  1  0  0  0  0
 12 18  1  0  0  0  0
 13 14  1  0  0  0  0
 14 15  1  0  0  0  0
 14 16  1  0  0  0  0
 14 17  1  0  0  0  0
 18 19  2  0  0  0  0
 18 34  1  0  0  0  0
 19 35  1  0  0  0  0
 20 21  2  0  0  0  0
 20 22  1  0  0  0  0
 22 23  1  0  0  0  0
 23 36  1  0  0  0  0
 23 37  1  0  0  0  0
 23 38  1  0  0  0  0
M  END
> <s_m_source_file>
AV-unprocessed.smi

> <i_m_source_file_index>
2307

> <i_lp_mmshare_version>
43012

> <i_f3d_flags>
0

> <s_epik_input>
W0NIM11jMW5bY0hdbihjKD1PKWMxW0NIM10pW0NIMl1bQ0BIXShbT0hdKWMyW2NIXVtjSF1jKE9DKEYpKEYpRilbY0hdW2NIXTI=

> <s_epik_cmdline>
J2VwaWtfcHl0aG9uJywgJy1waCcsICc3LjAnLCAnLXRuJywgJzgnLCAnLW1hJywgJzIwMCcsICctbWV0YWxfYmluZGluZycsICctaW1hZScsICc8aW5maWxlLm1hZT4nLCAnLW9tYWUnLCAnPG91dGZpbGUubWFlPic=

> <r_lp_tautomer_probability>
1

> <r_epik_Ionization_Penalty>
5.07003e-05

> <r_epik_Ionization_Penalty_Charging>
7.56727e-08

> <r_epik_Ionization_Penalty_Neutral>
5.06246e-05

> <r_epik_State_Penalty>
-0

> <r_epik_Charging_Adjusted_Penalty>
7.56727e-08

> <i_epik_Tot_Q>
0

> <i_epik_Tot_abs_Q>
0

> <r_epik_Metal_State_Penalty>
-0

> <b_epik_Metal_Only>
0

> <s_lp_Force_Field>
OPLS_2005

> <r_lp_Energy>
16.6377

> <b_lp_Chiralities_Consistent>
1

> <s_lp_Variant>
AV-unprocessed.smi:2307-1

> <Gold.Version>
5.8.1

> <Gold.Id.Protein>
6NUR|6NUR_protein|mol2

> <Gold.PLP.Fitness>
46.2947

> <Gold.PLP.PLP>
-42.7579

> <Gold.PLP.part.hbond>
-3.4341

> <Gold.PLP.part.metal>
0.0000

> <Gold.PLP.part.buried>
-4.8954

> <Gold.PLP.part.nonpolar>
-34.1339

> <Gold.PLP.part.repulsive>
0.3044

> <Gold.PLP.ligand.clash>
0.0000

> <Gold.PLP.ligand.torsion>
1.2747

> <Gold.PLP.Chemscore.Hbond>
2.0000

> <Gold.PLP.Chemscore.CHOScore>
0.0000

> <Gold.PLP.Chemscore.Metal>
0.0000

> <Gold.Chemscore.Hbonds>
donor molecule, donor type, donor heavy atom, donor atom, acceptor molecule, acceptor atom, score
      P1  H  7997  8009       L1    13  0.75
      P1  H  8011  8017       L1     8  1.00

> <Gold.PLP.Chemscore.Internal.Correction>
0.0862

> <Gold.Rescore>
     Score         DG    S(hbond)    S(metal)    S(lipo)     H(rot)  DE(clash)    DE(int)     intcor
      9.66     -11.90       1.65        0.00      66.50       2.69       0.15       2.10       ----

> <Gold.Chemscore.Fitness>
9.6587

> <Gold.Chemscore.DG>
-11.9008

> <Gold.Chemscore.ZeroCoef>
-5.4800

> <Gold.Chemscore.Hbond>
1.6514

> <Gold.Chemscore.Metal>
0.0000

> <Gold.Chemscore.Lipo>
66.4967

> <Gold.Chemscore.Internal_Hbond>
0.0000

> <Gold.Chemscore.DEClash>
0.1460

> <Gold.Chemscore.DEInternal>
2.0961

> <Gold.Chemscore.Rot>
2.6856

> <Gold.Chemscore.Internal.Correction>
   9.000000E+99

> <Gold.Chemscore.Hbonds>
donor molecule, donor type, donor heavy atom, donor atom, acceptor molecule, acceptor atom, score
      P1  H  7997  8009       L1    13  0.09
      P1  H  8011  8017       L1     8  0.51

> <Gold.Chemscore.Hbond.Weighted>
-5.5158

> <Gold.Chemscore.Metal.Weighted>
-0.0000

> <Gold.Chemscore.Lipo.Weighted>
-7.7801

> <Gold.Chemscore.Internal_Hbond.Weighted>
0.0000

> <Gold.Chemscore.DEClash.Weighted>
0.1460

> <Gold.Chemscore.DEInternal.Weighted>
2.0961

> <Gold.Chemscore.Rot.Weighted>
6.8751

> <Gold.Chemscore.Internal.Correction.Weighted>
   9.000000E+99

> <Gold.Protein.RotatedTorsions>
[ 6907 6896 6895 6894 ] final  163.63 input  -60.11 | X-H torsion
[ 7974 7965 7964 7962 ] final   67.72 input  175.53 | X-H torsion
[ 8008 7997 7996 7995 ] final  160.30 input   59.86 | X-H torsion
[ 10167 10162 10161 10158 ] final  -11.08 input  -65.29 | X-H torsion
[ 10718 10713 10712 10709 ] final  -67.04 input   66.30 | X-H torsion
[ 10763 10752 10751 10750 ] final -121.23 input  -60.55 | X-H torsion
[ 11005 11000 10999 10996 ] final   80.78 input  -57.11 | X-H torsion

> <Gold.Protein.ActiveResidues>
 VAL166  LYS551  ARG553  GLY616  TRP617  ASP618  TYR619  PRO620  LYS621  CYS622 
 ASP623  PHE694  ASN695  SER759  ASP760  ASP761  ALA762  ILE779  LEU786  VAL792 
 PHE793  MET794  SER795  GLU796  ALA797  LYS798  CYS799  TRP800  GLU811  SER814 

> <Gold.Protein.RotatedAtoms>
  151.9222  133.3588  159.3900 H   0  0  0  0  0  0  0  0  0  0  0  0  # atno 6907 bound_to 6896
  150.7034  134.4623  159.5395 H   0  0  0  0  0  0  0  0  0  0  0  0  # atno 6908 bound_to 6896
  152.2248  134.8378  160.0532 H   0  0  0  0  0  0  0  0  0  0  0  0  # atno 6909 bound_to 6896
  145.8112  139.3033  143.1098 H   0  0  0  0  0  0  0  0  0  0  0  0  # atno 7974 bound_to 7965
  156.2181  140.1808  156.7541 H   0  0  0  0  0  0  0  0  0  0  0  0  # atno 8008 bound_to 7997
  154.5823  140.0664  156.9150 H   0  0  0  0  0  0  0  0  0  0  0  0  # atno 8009 bound_to 7997
  155.2481  140.3327  155.4287 H   0  0  0  0  0  0  0  0  0  0  0  0  # atno 8010 bound_to 7997
  140.7130  143.5678  150.9125 H   0  0  0  0  0  0  0  0  0  0  0  0  # atno 10167 bound_to 10162
  156.0579  130.4271  150.1797 H   0  0  0  0  0  0  0  0  0  0  0  0  # atno 10718 bound_to 10713
  154.8663  135.4175  154.2587 H   0  0  0  0  0  0  0  0  0  0  0  0  # atno 10763 bound_to 10752
  153.3519  135.6999  153.6787 H   0  0  0  0  0  0  0  0  0  0  0  0  # atno 10764 bound_to 10752
  153.5724  135.3589  155.2815 H   0  0  0  0  0  0  0  0  0  0  0  0  # atno 10765 bound_to 10752
  139.9122  134.7947  156.1955 H   0  0  0  0  0  0  0  0  0  0  0  0  # atno 11005 bound_to 11000
  145.9775  140.8710  143.0131 LP  0  0  0  0  0  0  0  0  0  0  0  0  # atno 17320 bound_to 7965
  144.6757  140.2033  143.7385 LP  0  0  0  0  0  0  0  0  0  0  0  0  # atno 17321 bound_to 7965
  139.9404  143.6389  152.3055 LP  0  0  0  0  0  0  0  0  0  0  0  0  # atno 17342 bound_to 10162
  139.6871  144.7650  151.1504 LP  0  0  0  0  0  0  0  0  0  0  0  0  # atno 17343 bound_to 10162
  156.9870  130.9882  151.3424 LP  0  0  0  0  0  0  0  0  0  0  0  0  # atno 17370 bound_to 10713
  157.5564  130.8216  149.8210 LP  0  0  0  0  0  0  0  0  0  0  0  0  # atno 17371 bound_to 10713
  141.0557  133.6866  156.1856 LP  0  0  0  0  0  0  0  0  0  0  0  0  # atno 17394 bound_to 11000
  140.6740  134.4837  157.5588 LP  0  0  0  0  0  0  0  0  0  0  0  0  # atno 17395 bound_to 11000

$$$$
