#       Name:                AV-unprocessed.smi:287
#       Creating user name   scv26
#       Creation time:       Thu Mar 26 21:54:25 2020


#       File generated by GOLD software.
#

@<TRIPOS>MOLECULE
AV-unprocessed.smi:287
    70    73     1
SMALL
NO_CHARGES


@<TRIPOS>ATOM
      1 ****        -1.9963   3.1271  -3.9015 C.3            1 S1                 0.0000
      2 ****        -2.4585   3.1402  -2.4848 C.2            1 S1                 0.0000
      3 ****        -3.0759   2.2237  -1.6845 C.2            1 S1                 0.0000
      4 ****        -3.2543   2.8272  -0.4037 C.2            1 S1                 0.0000
      5 ****        -3.9034   2.1776   0.8110 C.3            1 S1                 0.0000
      6 ****        -5.4323   2.1875   0.6498 C.3            1 S1                 0.0000
      7 ****        -3.6464   2.8808   2.0113 O.3            1 S1                 0.0000
      8 ****        -3.4028   0.7343   1.0494 C.3            1 S1                 0.0000
      9 ****        -1.9529   0.6104   0.9357 N.pl3          1 S1                 0.0000
     10 ****        -1.3638  -0.5995   1.0339 C.ar           1 S1                 0.0000
     11 ****        -2.0990  -1.7220   1.2488 N.ar           1 S1                 0.0000
     12 ****        -1.4928  -2.9102   1.3395 C.ar           1 S1                 0.0000
     13 ****        -0.1908  -3.1930   1.2492 N.ar           1 S1                 0.0000
     14 ****         0.5487  -2.0662   1.0366 C.ar           1 S1                 0.0000
     15 ****         0.0423  -0.7432   0.9145 C.ar           1 S1                 0.0000
     16 ****         1.0895   0.1425   0.6952 N.2            1 S1                 0.0000
     17 ****         2.1514  -0.6184   0.6910 C.2            1 S1                 0.0000
     18 ****         1.9141  -1.9617   0.8930 N.pl3          1 S1                 0.0000
     19 ****         2.8849  -3.0958   0.9427 C.3            1 S1                 0.0000
     20 ****         4.1294  -2.5741   1.3086 O.3            1 S1                 0.0000
     21 ****         5.1077  -2.8333   0.3028 C.3            1 S1                 0.0000
     22 ****         6.1103  -1.6710   0.2371 C.3            1 S1                 0.0000
     23 ****         7.0879  -1.8169   1.2444 O.3            1 S1                 0.0000
     24 ****         4.2740  -2.9944  -0.9687 C.3            1 S1                 0.0000
     25 ****         4.9361  -3.7159  -1.9895 O.3            1 S1                 0.0000
     26 ****         3.0285  -3.7037  -0.4577 C.3            1 S1                 0.0000
     27 ****         3.1790  -5.1101  -0.3844 O.3            1 S1                 0.0000
     28 ****        -2.7355   4.0928  -0.5377 C.2            1 S1                 0.0000
     29 ****        -2.6051   5.2626   0.3812 C.3            1 S1                 0.0000
     30 ****        -2.2470   4.2887  -1.7944 O.3            1 S1                 0.0000
     31 ****         2.4861  -3.7741   1.6984 H              1 S1                 0.0000
     32 ****         5.6081  -3.7763   0.5318 H              1 S1                 0.0000
     33 ****         3.9964  -2.0113  -1.3522 H              1 S1                 0.0000
     34 ****         2.1537  -3.4880  -1.0732 H              1 S1                 0.0000
     35 ****        -2.0843   2.1286  -4.3303 H              1 S1                 0.0000
     36 ****        -0.9522   3.4330  -3.9713 H              1 S1                 0.0000
     37 ****        -2.5917   3.8094  -4.5083 H              1 S1                 0.0000
     38 ****        -3.3631   1.2261  -1.9821 H              1 S1                 0.0000
     39 ****        -5.7393   1.6340  -0.2384 H              1 S1                 0.0000
     40 ****        -5.8138   3.2046   0.5499 H              1 S1                 0.0000
     41 ****        -5.9288   1.7309   1.5071 H              1 S1                 0.0000
     42 ****        -4.0690   2.4239   2.7224 H              1 S1                 0.0000
     43 ****        -3.7415   0.3595   2.0166 H              1 S1                 0.0000
     44 ****        -3.8427   0.0840   0.2918 H              1 S1                 0.0000
     45 ****        -1.4450   1.4682   0.7716 H              1 S1                 0.0000
     46 ****        -2.1443  -3.7548   1.5086 H              1 S1                 0.0000
     47 ****         3.1413  -0.2142   0.5391 H              1 S1                 0.0000
     48 ****         6.6278  -1.6756  -0.7227 H              1 S1                 0.0000
     49 ****         5.6104  -0.7067   0.3302 H              1 S1                 0.0000
     50 ****         7.6963  -1.0967   1.1795 H              1 S1                 0.0000
     51 ****         5.0994  -4.5921  -1.6741 H              1 S1                 0.0000
     52 ****         2.3833  -5.4774  -0.0302 H              1 S1                 0.0000
     53 ****        -3.5729   5.5295   0.8061 H              1 S1                 0.0000
     54 ****        -2.2172   6.1360  -0.1435 H              1 S1                 0.0000
     55 ****        -1.9249   5.0350   1.2018 H              1 S1                 0.0000
     56 ****        -4.0109   3.8095   1.9430 LP             1 S1                 0.0000
     57 ****        -2.6606   2.9208   2.1745 LP             1 S1                 0.0000
     58 ****        -3.0929  -1.6594   1.3391 LP             1 S1                 0.0000
     59 ****         0.1932  -4.1131   1.3274 LP             1 S1                 0.0000
     60 ****         1.0417   1.1334   0.5696 LP             1 S1                 0.0000
     61 ****         4.4220  -2.9970   2.1663 LP             1 S1                 0.0000
     62 ****         4.0452  -1.5859   1.4361 LP             1 S1                 0.0000
     63 ****         7.5745  -2.6816   1.1193 LP             1 S1                 0.0000
     64 ****         6.6497  -1.8081   2.1433 LP             1 S1                 0.0000
     65 ****         5.8027  -3.2693  -2.2120 LP             1 S1                 0.0000
     66 ****         4.3604  -3.7521  -2.8063 LP             1 S1                 0.0000
     67 ****         3.9498  -5.3367   0.2111 LP             1 S1                 0.0000
     68 ****         3.3440  -5.4802  -1.2986 LP             1 S1                 0.0000
     69 ****        -2.7265   5.0476  -2.2349 LP             1 S1                 0.0000
     70 ****        -1.2684   4.4906  -1.7550 LP             1 S1                 0.0000
@<TRIPOS>BOND
    1    1    2 1     
    2    1   35 1     
    3    1   36 1     
    4    1   37 1     
    5    2   30 1     
    6    2    3 2     
    7    3    4 1     
    8    3   38 1     
    9    4    5 1     
   10    4   28 2     
   11    5    6 1     
   12    5    7 1     
   13    5    8 1     
   14    6   39 1     
   15    6   40 1     
   16    6   41 1     
   17    7   42 1     
   18    8    9 1     
   19    8   43 1     
   20    8   44 1     
   21    9   10 1     
   22    9   45 1     
   23   10   15 ar    
   24   10   11 ar    
   25   11   12 ar    
   26   12   13 ar    
   27   12   46 1     
   28   13   14 ar    
   29   14   18 1     
   30   14   15 ar    
   31   15   16 1     
   32   16   17 2     
   33   17   18 1     
   34   17   47 1     
   35   18   19 1     
   36   19   31 1     
   37   19   26 1     
   38   19   20 1     
   39   20   21 1     
   40   21   32 1     
   41   21   22 1     
   42   21   24 1     
   43   22   23 1     
   44   22   48 1     
   45   22   49 1     
   46   23   50 1     
   47   24   33 1     
   48   24   25 1     
   49   24   26 1     
   50   25   51 1     
   51   26   34 1     
   52   26   27 1     
   53   27   52 1     
   54   28   29 1     
   55   28   30 1     
   56   29   53 1     
   57   29   54 1     
   58   29   55 1     
   59    7   56 1     
   60    7   57 1     
   61   11   58 1     
   62   13   59 1     
   63   16   60 1     
   64   20   61 1     
   65   20   62 1     
   66   23   63 1     
   67   23   64 1     
   68   25   65 1     
   69   25   66 1     
   70   27   67 1     
   71   27   68 1     
   72   30   69 1     
   73   30   70 1     
@<TRIPOS>SUBSTRUCTURE
      1 S1             1
@<TRIPOS>SET
LONE_PAIRS      STATIC     ATOMS    <user>   **** ""
15 56 57 58 59 60 61 62 63 64 65 66 67 68 69 70
DONOR_HYDROGENS      STATIC     ATOMS    <user>   **** ""
5 42 45 50 51 52
ATOM$BLUE        STATIC     ATOMS    COLORGROUP SYSTEM
15 56 57 58 59 60 61 62 63 64 65 66 67 68 69 70
ATOM$RED        STATIC     ATOMS    COLORGROUP SYSTEM
5 42 45 50 51 52
