AV-unprocessed.smi:1927|AV-procd|sdf|7797|dock9
  -GOLD-   22720 9543D 1   1.00000     0.00000
 Structure written by MMmdl.
 34 35  0  0  0  0  0  0  0  0  1 V2000
  147.7666  133.1933  152.4231 C   0  0  0  0  0  0  0  0  0  0  0  0
  146.4771  133.2203  151.6182 C   0  0  0  0  0  0  0  0  0  0  0  0
  145.8896  132.0027  151.2136 C   0  0  0  0  0  0  0  0  0  0  0  0
  144.6981  132.0301  150.4691 C   0  0  0  0  0  0  0  0  0  0  0  0
  144.1409  133.2823  150.1585 C   0  0  0  0  0  0  0  0  0  0  0  0
  144.6953  134.4508  150.5413 N   0  0  0  0  0  0  0  0  0  0  0  0
  145.8453  134.4420  151.2611 C   0  0  0  0  0  0  0  0  0  0  0  0
  146.4842  135.6346  151.7041 N   0  0  0  0  0  0  0  0  0  0  0  0
  145.9233  136.7573  152.1870 C   0  0  0  0  0  0  0  0  0  0  0  0
  144.7141  136.9581  152.3043 O   0  0  0  0  0  0  0  0  0  0  0  0
  146.8599  137.6545  152.5280 N   0  0  0  0  0  0  0  0  0  0  0  0
  146.6045  138.9795  153.0843 C   0  0  0  0  0  0  0  0  0  0  0  0
  147.9024  139.7924  153.2435 C   0  0  1  0  0  0  0  0  0  0  0  0
  147.7585  141.0958  154.0057 C   0  0  0  0  0  0  0  0  0  0  0  0
  149.1994  141.3875  154.4162 C   0  0  0  0  0  0  0  0  0  0  0  0
  149.8403  140.1200  154.5354 O   0  0  0  0  0  0  0  0  0  0  0  0
  148.9704  139.0890  154.0796 C   0  0  0  0  0  0  0  0  0  0  0  0
  148.1032  132.1714  152.6008 H   0  0  0  0  0  0  0  0  0  0  0  0
  147.6223  133.6723  153.3921 H   0  0  0  0  0  0  0  0  0  0  0  0
  148.5596  133.7190  151.8905 H   0  0  0  0  0  0  0  0  0  0  0  0
  146.3443  131.0569  151.4691 H   0  0  0  0  0  0  0  0  0  0  0  0
  144.2236  131.1157  150.1449 H   0  0  0  0  0  0  0  0  0  0  0  0
  143.2258  133.3488  149.5890 H   0  0  0  0  0  0  0  0  0  0  0  0
  147.4919  135.6260  151.6559 H   0  0  0  0  0  0  0  0  0  0  0  0
  147.8280  137.4011  152.3945 H   0  0  0  0  0  0  0  0  0  0  0  0
  145.8784  139.5259  152.4797 H   0  0  0  0  0  0  0  0  0  0  0  0
  146.1416  138.8418  154.0617 H   0  0  0  0  0  0  0  0  0  0  0  0
  148.3212  140.0069  152.2585 H   0  0  0  0  0  0  0  0  0  0  0  0
  147.3181  141.8972  153.4115 H   0  0  0  0  0  0  0  0  0  0  0  0
  147.1399  140.9508  154.8927 H   0  0  0  0  0  0  0  0  0  0  0  0
  149.7084  141.9596  153.6397 H   0  0  0  0  0  0  0  0  0  0  0  0
  149.2588  141.9524  155.3469 H   0  0  0  0  0  0  0  0  0  0  0  0
  148.5240  138.6049  154.9495 H   0  0  0  0  0  0  0  0  0  0  0  0
  149.5134  138.3318  153.5135 H   0  0  0  0  0  0  0  0  0  0  0  0
  1  2  1  0  0  0  0
  1 18  1  0  0  0  0
  1 19  1  0  0  0  0
  1 20  1  0  0  0  0
  2  7  1  0  0  0  0
  2  3  2  0  0  0  0
  3  4  1  0  0  0  0
  3 21  1  0  0  0  0
  4  5  2  0  0  0  0
  4 22  1  0  0  0  0
  5  6  1  0  0  0  0
  5 23  1  0  0  0  0
  6  7  2  0  0  0  0
  7  8  1  0  0  0  0
  8  9  1  0  0  0  0
  8 24  1  0  0  0  0
  9 10  2  0  0  0  0
  9 11  1  0  0  0  0
 11 12  1  0  0  0  0
 11 25  1  0  0  0  0
 12 13  1  0  0  0  0
 12 26  1  0  0  0  0
 12 27  1  0  0  0  0
 13 17  1  0  0  0  0
 13 14  1  0  0  0  0
 13 28  1  0  0  0  0
 14 15  1  0  0  0  0
 14 29  1  0  0  0  0
 14 30  1  0  0  0  0
 15 16  1  0  0  0  0
 15 31  1  0  0  0  0
 15 32  1  0  0  0  0
 16 17  1  0  0  0  0
 17 33  1  0  0  0  0
 17 34  1  0  0  0  0
M  END
> <s_m_source_file>
AV-unprocessed.smi

> <i_m_source_file_index>
1927

> <i_lp_mmshare_version>
43012

> <i_f3d_flags>
0

> <s_epik_input>
W0NIM11jMVtjSF1bY0hdW2NIXW5jMVtOSF1DKD1PKVtOSF1bQ0gyXVtDQEBIXTJbQ0gyXVtDSDJdT1tDSDJdMg==

> <s_epik_cmdline>
J2VwaWtfcHl0aG9uJywgJy1waCcsICc3LjAnLCAnLXRuJywgJzgnLCAnLW1hJywgJzIwMCcsICctbWV0YWxfYmluZGluZycsICctaW1hZScsICc8aW5maWxlLm1hZT4nLCAnLW9tYWUnLCAnPG91dGZpbGUubWFlPic=

> <r_lp_tautomer_probability>
1

> <r_epik_Ionization_Penalty>
5.84082e-05

> <r_epik_Ionization_Penalty_Charging>
0

> <r_epik_Ionization_Penalty_Neutral>
5.84082e-05

> <r_epik_State_Penalty>
-0

> <r_epik_Charging_Adjusted_Penalty>
0

> <i_epik_Tot_Q>
0

> <i_epik_Tot_abs_Q>
0

> <r_epik_Metal_State_Penalty>
-0

> <b_epik_Metal_Only>
0

> <s_lp_Force_Field>
OPLS_2005

> <r_lp_Energy>
21.9437

> <b_lp_Chiralities_Consistent>
1

> <s_lp_Variant>
AV-unprocessed.smi:1927-2

> <Gold.Version>
5.8.1

> <Gold.Id.Protein>
6NUR|6NUR_protein|mol2

> <Gold.PLP.Fitness>
39.7514

> <Gold.PLP.PLP>
-30.5732

> <Gold.PLP.part.hbond>
-2.7135

> <Gold.PLP.part.metal>
0.0000

> <Gold.PLP.part.buried>
0.3377

> <Gold.PLP.part.nonpolar>
-27.9487

> <Gold.PLP.part.repulsive>
0.9180

> <Gold.PLP.ligand.clash>
0.0000

> <Gold.PLP.ligand.torsion>
0.3455

> <Gold.PLP.Chemscore.Hbond>
2.2880

> <Gold.PLP.Chemscore.CHOScore>
1.0000

> <Gold.PLP.Chemscore.Metal>
0.0000

> <Gold.Chemscore.Hbonds>
donor molecule, donor type, donor heavy atom, donor atom, acceptor molecule, acceptor atom, score
      L1  H     8    24       P1  7948  1.00
      L1  H    11    25       P1  7948  0.96
      P1  H  7989  7998       L1    16  0.32
      L1  C     5    23       P1 10186  1.00

> <Gold.PLP.Chemscore.Internal.Correction>
0.0051

> <Gold.Rescore>
     Score         DG    S(hbond)    S(metal)    S(lipo)     H(rot)  DE(clash)    DE(int)     intcor
     15.99     -17.19       1.95        0.00      71.35       1.23       0.05       1.16       ----

> <Gold.Chemscore.Fitness>
15.9854

> <Gold.Chemscore.DG>
-17.1927

> <Gold.Chemscore.ZeroCoef>
-5.4800

> <Gold.Chemscore.Hbond>
1.9529

> <Gold.Chemscore.Metal>
0.0000

> <Gold.Chemscore.Lipo>
71.3518

> <Gold.Chemscore.Internal_Hbond>
0.0000

> <Gold.Chemscore.DEClash>
0.0454

> <Gold.Chemscore.DEInternal>
1.1619

> <Gold.Chemscore.Rot>
1.2337

> <Gold.Chemscore.Internal.Correction>
   9.000000E+99

> <Gold.Chemscore.Hbonds>
donor molecule, donor type, donor heavy atom, donor atom, acceptor molecule, acceptor atom, score
      L1  H     8    24       P1  7948  0.93
      L1  H    11    25       P1  7948  0.92
      P1  H  7989  7998       L1    16  0.02

> <Gold.Chemscore.Hbond.Weighted>
-6.5227

> <Gold.Chemscore.Metal.Weighted>
-0.0000

> <Gold.Chemscore.Lipo.Weighted>
-8.3482

> <Gold.Chemscore.Internal_Hbond.Weighted>
0.0000

> <Gold.Chemscore.DEClash.Weighted>
0.0454

> <Gold.Chemscore.DEInternal.Weighted>
1.1619

> <Gold.Chemscore.Rot.Weighted>
3.1582

> <Gold.Chemscore.Internal.Correction.Weighted>
   9.000000E+99

> <Gold.Protein.RotatedTorsions>
[ 6907 6896 6895 6894 ] final -162.14 input  -60.11 | X-H torsion
[ 7974 7965 7964 7962 ] final  -75.19 input  175.53 | X-H torsion
[ 8008 7997 7996 7995 ] final  -39.03 input   59.86 | X-H torsion
[ 10167 10162 10161 10158 ] final  154.63 input  -65.29 | X-H torsion
[ 10718 10713 10712 10709 ] final  -49.89 input   66.30 | X-H torsion
[ 10763 10752 10751 10750 ] final  116.55 input  -60.55 | X-H torsion
[ 11005 11000 10999 10996 ] final    6.02 input  -57.11 | X-H torsion

> <Gold.Protein.ActiveResidues>
 VAL166  LYS551  ARG553  GLY616  TRP617  ASP618  TYR619  PRO620  LYS621  CYS622 
 ASP623  PHE694  ASN695  SER759  ASP760  ASP761  ALA762  ILE779  LEU786  VAL792 
 PHE793  MET794  SER795  GLU796  ALA797  LYS798  CYS799  TRP800  GLU811  SER814 

> <Gold.Protein.RotatedAtoms>
  151.3757  133.3839  159.2704 H   0  0  0  0  0  0  0  0  0  0  0  0  # atno 6907 bound_to 6896
  150.9616  134.9004  159.7745 H   0  0  0  0  0  0  0  0  0  0  0  0  # atno 6908 bound_to 6896
  152.5152  134.3716  159.9372 H   0  0  0  0  0  0  0  0  0  0  0  0  # atno 6909 bound_to 6896
  145.6292  140.9342  143.1096 H   0  0  0  0  0  0  0  0  0  0  0  0  # atno 7974 bound_to 7965
  154.4028  140.1562  156.2797 H   0  0  0  0  0  0  0  0  0  0  0  0  # atno 8008 bound_to 7997
  155.8881  140.3440  155.5914 H   0  0  0  0  0  0  0  0  0  0  0  0  # atno 8009 bound_to 7997
  155.7590  140.0815  157.2155 H   0  0  0  0  0  0  0  0  0  0  0  0  # atno 8010 bound_to 7997
  139.4823  144.5169  151.7937 H   0  0  0  0  0  0  0  0  0  0  0  0  # atno 10167 bound_to 10162
  156.1851  130.4151  149.9451 H   0  0  0  0  0  0  0  0  0  0  0  0  # atno 10718 bound_to 10713
  153.5390  135.3562  155.2710 H   0  0  0  0  0  0  0  0  0  0  0  0  # atno 10763 bound_to 10752
  154.8719  135.4086  154.3066 H   0  0  0  0  0  0  0  0  0  0  0  0  # atno 10764 bound_to 10752
  153.3769  135.7066  153.6663 H   0  0  0  0  0  0  0  0  0  0  0  0  # atno 10765 bound_to 10752
  140.5642  134.0164  155.7983 H   0  0  0  0  0  0  0  0  0  0  0  0  # atno 11005 bound_to 11000
  144.7200  139.8062  143.7385 LP  0  0  0  0  0  0  0  0  0  0  0  0  # atno 17320 bound_to 7965
  146.1370  139.4418  143.0133 LP  0  0  0  0  0  0  0  0  0  0  0  0  # atno 17321 bound_to 7965
  140.4679  144.1629  150.5914 LP  0  0  0  0  0  0  0  0  0  0  0  0  # atno 17342 bound_to 10162
  140.4414  143.2525  151.9468 LP  0  0  0  0  0  0  0  0  0  0  0  0  # atno 17343 bound_to 10162
  156.7209  130.9006  151.3618 LP  0  0  0  0  0  0  0  0  0  0  0  0  # atno 17370 bound_to 10713
  157.6893  130.9218  150.0472 LP  0  0  0  0  0  0  0  0  0  0  0  0  # atno 17371 bound_to 10713
  141.1096  133.9638  157.2934 LP  0  0  0  0  0  0  0  0  0  0  0  0  # atno 17394 bound_to 11000
  139.9393  135.0193  156.8657 LP  0  0  0  0  0  0  0  0  0  0  0  0  # atno 17395 bound_to 11000

$$$$
