AV-unprocessed.smi:229|AV-procd|sdf|1762|dock6
  -GOLD-   2262020293D 1   1.00000     0.00000
 Structure written by MMmdl.
 58 62  0  0  0  0  0  0  0  0  1 V2000
  152.3555  130.9525  156.7769 C   0  0  0  0  0  0  0  0  0  0  0  0
  151.1276  131.4307  157.5617 C   0  0  0  0  0  0  0  0  0  0  0  0
  150.4211  132.6208  156.8959 C   0  0  1  0  0  0  0  0  0  0  0  0
  151.2933  133.8867  156.9080 C   0  0  0  0  0  0  0  0  0  0  0  0
  150.6079  134.9545  156.1951 N   0  0  0  0  0  0  0  0  0  0  0  0
  151.1618  136.1797  156.3078 C   0  0  0  0  0  0  0  0  0  0  0  0
  151.7127  136.7081  155.1876 N   0  0  0  0  0  0  0  0  0  0  0  0
  152.2837  137.9161  155.2292 C   0  0  0  0  0  0  0  0  0  0  0  0
  152.4137  138.7432  156.2690 N   0  0  0  0  0  0  0  0  0  0  0  0
  151.8690  138.2075  157.3989 C   0  0  0  0  0  0  0  0  0  0  0  0
  151.2296  136.9408  157.5093 C   0  0  0  0  0  0  0  0  0  0  0  0
  150.8126  136.7349  158.8193 N   0  0  0  0  0  0  0  0  0  0  0  0
  151.1773  137.8208  159.4454 C   0  0  0  0  0  0  0  0  0  0  0  0
  151.8143  138.7594  158.6657 N   0  0  0  0  0  0  0  0  0  0  0  0
  152.3255  140.0500  159.0938 C   0  0  0  0  0  0  0  0  0  0  0  0
  151.6980  141.2244  158.3119 C   0  0  1  0  0  0  0  0  0  0  0  0
  150.3258  141.2930  158.6499 O   0  0  0  0  0  0  0  0  0  0  0  0
  152.3363  142.5867  158.6500 C   0  0  1  0  0  0  0  0  0  0  0  0
  151.9987  143.7142  157.6726 C   0  0  0  0  0  0  0  0  0  0  0  0
  152.2000  144.9729  158.4991 C   0  0  0  0  0  0  0  0  0  0  0  0
  152.1179  144.4772  159.9446 C   0  0  0  0  0  0  0  0  0  0  0  0
  151.7772  143.1005  159.8502 O   0  0  0  0  0  0  0  0  0  0  0  0
  150.2820  134.5931  154.8237 C   0  0  0  0  0  0  0  0  0  0  0  0
  149.4562  133.2852  154.7856 C   0  0  2  0  0  0  0  0  0  0  0  0
  149.3034  132.7746  153.3558 C   0  0  0  0  0  0  0  0  0  0  0  0
  147.9407  133.3043  152.9362 C   0  0  0  0  0  0  0  0  0  0  0  0
  147.1743  133.1255  154.1122 O   0  0  0  0  0  0  0  0  0  0  0  0
  147.9859  133.4813  155.2253 C   0  0  0  0  0  0  0  0  0  0  0  0
  150.1292  132.2716  155.5402 O   0  0  0  0  0  0  0  0  0  0  0  0
  152.8255  130.1024  157.2719 H   0  0  0  0  0  0  0  0  0  0  0  0
  153.1034  131.7412  156.6914 H   0  0  0  0  0  0  0  0  0  0  0  0
  152.0816  130.6402  155.7688 H   0  0  0  0  0  0  0  0  0  0  0  0
  150.4270  130.6002  157.6546 H   0  0  0  0  0  0  0  0  0  0  0  0
  151.4231  131.6977  158.5771 H   0  0  0  0  0  0  0  0  0  0  0  0
  149.4980  132.8231  157.4398 H   0  0  0  0  0  0  0  0  0  0  0  0
  151.4964  134.1971  157.9340 H   0  0  0  0  0  0  0  0  0  0  0  0
  152.2525  133.6744  156.4352 H   0  0  0  0  0  0  0  0  0  0  0  0
  152.6959  138.2701  154.2959 H   0  0  0  0  0  0  0  0  0  0  0  0
  150.9879  137.9688  160.4988 H   0  0  0  0  0  0  0  0  0  0  0  0
  152.1408  140.1626  160.1631 H   0  0  0  0  0  0  0  0  0  0  0  0
  153.4078  140.0351  158.9642 H   0  0  0  0  0  0  0  0  0  0  0  0
  151.7870  141.0352  157.2412 H   0  0  0  0  0  0  0  0  0  0  0  0
  150.0997  140.5169  159.1394 H   0  0  0  0  0  0  0  0  0  0  0  0
  153.4201  142.4999  158.7522 H   0  0  0  0  0  0  0  0  0  0  0  0
  152.6162  143.6973  156.7740 H   0  0  0  0  0  0  0  0  0  0  0  0
  150.9541  143.6438  157.3659 H   0  0  0  0  0  0  0  0  0  0  0  0
  153.1766  145.4180  158.3057 H   0  0  0  0  0  0  0  0  0  0  0  0
  151.4385  145.7210  158.2762 H   0  0  0  0  0  0  0  0  0  0  0  0
  153.0839  144.5783  160.4414 H   0  0  0  0  0  0  0  0  0  0  0  0
  151.3750  145.0194  160.5304 H   0  0  0  0  0  0  0  0  0  0  0  0
  149.7362  135.4037  154.3383 H   0  0  0  0  0  0  0  0  0  0  0  0
  151.2126  134.4616  154.2697 H   0  0  0  0  0  0  0  0  0  0  0  0
  150.1059  133.0886  152.6876 H   0  0  0  0  0  0  0  0  0  0  0  0
  149.2762  131.6838  153.3471 H   0  0  0  0  0  0  0  0  0  0  0  0
  147.9893  134.3641  152.6817 H   0  0  0  0  0  0  0  0  0  0  0  0
  147.5167  132.7616  152.0910 H   0  0  0  0  0  0  0  0  0  0  0  0
  147.7070  132.8597  156.0756 H   0  0  0  0  0  0  0  0  0  0  0  0
  147.7863  134.5191  155.4950 H   0  0  0  0  0  0  0  0  0  0  0  0
  1  2  1  0  0  0  0
  1 30  1  0  0  0  0
  1 31  1  0  0  0  0
  1 32  1  0  0  0  0
  2  3  1  0  0  0  0
  2 33  1  0  0  0  0
  2 34  1  0  0  0  0
  3 29  1  0  0  0  0
  3  4  1  0  0  0  0
  3 35  1  0  0  0  0
  4  5  1  0  0  0  0
  4 36  1  0  0  0  0
  4 37  1  0  0  0  0
  5  6  1  0  0  0  0
  5 23  1  0  0  0  0
  6 11  1  0  0  0  0
  6  7  2  0  0  0  0
  7  8  1  0  0  0  0
  8  9  2  0  0  0  0
  8 38  1  0  0  0  0
  9 10  1  0  0  0  0
 10 14  1  0  0  0  0
 10 11  2  0  0  0  0
 11 12  1  0  0  0  0
 12 13  2  0  0  0  0
 13 14  1  0  0  0  0
 13 39  1  0  0  0  0
 14 15  1  0  0  0  0
 15 16  1  0  0  0  0
 15 40  1  0  0  0  0
 15 41  1  0  0  0  0
 16 17  1  0  0  0  0
 16 18  1  0  0  0  0
 16 42  1  0  0  0  0
 17 43  1  0  0  0  0
 18 22  1  0  0  0  0
 18 19  1  0  0  0  0
 18 44  1  0  0  0  0
 19 20  1  0  0  0  0
 19 45  1  0  0  0  0
 19 46  1  0  0  0  0
 20 21  1  0  0  0  0
 20 47  1  0  0  0  0
 20 48  1  0  0  0  0
 21 22  1  0  0  0  0
 21 49  1  0  0  0  0
 21 50  1  0  0  0  0
 23 24  1  0  0  0  0
 23 51  1  0  0  0  0
 23 52  1  0  0  0  0
 24 28  1  0  0  0  0
 24 25  1  0  0  0  0
 24 29  1  0  0  0  0
 25 26  1  0  0  0  0
 25 53  1  0  0  0  0
 25 54  1  0  0  0  0
 26 27  1  0  0  0  0
 26 55  1  0  0  0  0
 26 56  1  0  0  0  0
 27 28  1  0  0  0  0
 28 57  1  0  0  0  0
 28 58  1  0  0  0  0
M  END
> <s_m_source_file>
AV-unprocessed.smi

> <i_m_source_file_index>
229

> <i_lp_mmshare_version>
43012

> <i_f3d_flags>
0

> <s_epik_input>
W0NIMl0xT1tDSDJdW0NIMl1bQ0BdMTJbQ0gyXU4oW0NIMl1bQ0BIXShPMilbQ0gyXVtDSDNdKWMobltjSF1uMyljKGMzNCluW2NIXW40W0NIMl1bQ0BIXShbT0hdKVtDQEBIXTVbQ0gyXVtDSDJdW0NIMl1PNQ==

> <s_epik_cmdline>
J2VwaWtfcHl0aG9uJywgJy1waCcsICc3LjAnLCAnLXRuJywgJzgnLCAnLW1hJywgJzIwMCcsICctbWV0YWxfYmluZGluZycsICctaW1hZScsICc8aW5maWxlLm1hZT4nLCAnLW9tYWUnLCAnPG91dGZpbGUubWFlPic=

> <r_lp_tautomer_probability>
1

> <r_epik_Ionization_Penalty>
0.00318402

> <r_epik_Ionization_Penalty_Charging>
0

> <r_epik_Ionization_Penalty_Neutral>
0.00318402

> <r_epik_State_Penalty>
0.00215642

> <r_epik_Charging_Adjusted_Penalty>
0.00215642

> <i_epik_Tot_Q>
0

> <i_epik_Tot_abs_Q>
0

> <r_epik_Metal_State_Penalty>
-0

> <b_epik_Metal_Only>
0

> <s_lp_Force_Field>
OPLS_2005

> <r_lp_Energy>
58.1289

> <b_lp_Chiralities_Consistent>
1

> <s_lp_Variant>
AV-unprocessed.smi:229-16

> <Gold.Version>
5.8.1

> <Gold.Id.Protein>
6NUR|6NUR_protein|mol2

> <Gold.PLP.Fitness>
50.8559

> <Gold.PLP.PLP>
-46.7634

> <Gold.PLP.part.hbond>
-2.5257

> <Gold.PLP.part.metal>
0.0000

> <Gold.PLP.part.buried>
-7.7204

> <Gold.PLP.part.nonpolar>
-38.2918

> <Gold.PLP.part.repulsive>
0.2378

> <Gold.PLP.ligand.clash>
0.0000

> <Gold.PLP.ligand.torsion>
0.6907

> <Gold.PLP.Chemscore.Hbond>
1.7517

> <Gold.PLP.Chemscore.CHOScore>
0.0000

> <Gold.PLP.Chemscore.Metal>
0.0000

> <Gold.Chemscore.Hbonds>
donor molecule, donor type, donor heavy atom, donor atom, acceptor molecule, acceptor atom, score
      P1  H  6896  6909       L1    12  0.91
      P1  H 10752 10765       L1     7  1.00

> <Gold.PLP.Chemscore.Internal.Correction>
0.2188

> <Gold.Rescore>
     Score         DG    S(hbond)    S(metal)    S(lipo)     H(rot)  DE(clash)    DE(int)     intcor
     15.71     -16.28       1.24        0.00     110.70       2.46       0.10       0.47       ----

> <Gold.Chemscore.Fitness>
15.7086

> <Gold.Chemscore.DG>
-16.2752

> <Gold.Chemscore.ZeroCoef>
-5.4800

> <Gold.Chemscore.Hbond>
1.2390

> <Gold.Chemscore.Metal>
0.0000

> <Gold.Chemscore.Lipo>
110.7020

> <Gold.Chemscore.Internal_Hbond>
0.0000

> <Gold.Chemscore.DEClash>
0.1012

> <Gold.Chemscore.DEInternal>
0.4653

> <Gold.Chemscore.Rot>
2.4591

> <Gold.Chemscore.Internal.Correction>
   9.000000E+99

> <Gold.Chemscore.Hbonds>
donor molecule, donor type, donor heavy atom, donor atom, acceptor molecule, acceptor atom, score
      P1  H  6896  6909       L1    12  0.83
      P1  H 10752 10765       L1     7  0.43

> <Gold.Chemscore.Hbond.Weighted>
-4.1384

> <Gold.Chemscore.Metal.Weighted>
-0.0000

> <Gold.Chemscore.Lipo.Weighted>
-12.9521

> <Gold.Chemscore.Internal_Hbond.Weighted>
0.0000

> <Gold.Chemscore.DEClash.Weighted>
0.1012

> <Gold.Chemscore.DEInternal.Weighted>
0.4653

> <Gold.Chemscore.Rot.Weighted>
6.2953

> <Gold.Chemscore.Internal.Correction.Weighted>
   9.000000E+99

> <Gold.Protein.RotatedTorsions>
[ 6907 6896 6895 6894 ] final   77.40 input  -60.11 | X-H torsion
[ 7974 7965 7964 7962 ] final -138.37 input  175.53 | X-H torsion
[ 8008 7997 7996 7995 ] final   39.00 input   59.86 | X-H torsion
[ 10167 10162 10161 10158 ] final  -83.50 input  -65.29 | X-H torsion
[ 10718 10713 10712 10709 ] final  -61.88 input   66.30 | X-H torsion
[ 10763 10752 10751 10750 ] final  165.77 input  -60.55 | X-H torsion
[ 11005 11000 10999 10996 ] final    6.04 input  -57.11 | X-H torsion

> <Gold.Protein.ActiveResidues>
 VAL166  LYS551  ARG553  GLY616  TRP617  ASP618  TYR619  PRO620  LYS621  CYS622 
 ASP623  PHE694  ASN695  SER759  ASP760  ASP761  ALA762  ILE779  LEU786  VAL792 
 PHE793  MET794  SER795  GLU796  ALA797  LYS798  CYS799  TRP800  GLU811  SER814 

> <Gold.Protein.RotatedAtoms>
  152.5116  134.3823  159.9355 H   0  0  0  0  0  0  0  0  0  0  0  0  # atno 6907 bound_to 6896
  151.3780  133.3825  159.2714 H   0  0  0  0  0  0  0  0  0  0  0  0  # atno 6908 bound_to 6896
  150.9526  134.8944  159.7740 H   0  0  0  0  0  0  0  0  0  0  0  0  # atno 6909 bound_to 6896
  144.8764  140.6443  143.5234 H   0  0  0  0  0  0  0  0  0  0  0  0  # atno 7974 bound_to 7965
  155.2294  140.3337  155.4305 H   0  0  0  0  0  0  0  0  0  0  0  0  # atno 8008 bound_to 7997
  156.2301  140.1847  156.7310 H   0  0  0  0  0  0  0  0  0  0  0  0  # atno 8009 bound_to 7997
  154.5963  140.0630  156.9294 H   0  0  0  0  0  0  0  0  0  0  0  0  # atno 8010 bound_to 7997
  140.4220  143.2581  151.8877 H   0  0  0  0  0  0  0  0  0  0  0  0  # atno 10167 bound_to 10162
  156.0892  130.4203  150.1056 H   0  0  0  0  0  0  0  0  0  0  0  0  # atno 10718 bound_to 10713
  154.3290  135.2755  155.2481 H   0  0  0  0  0  0  0  0  0  0  0  0  # atno 10763 bound_to 10752
  154.4801  135.5860  153.6387 H   0  0  0  0  0  0  0  0  0  0  0  0  # atno 10764 bound_to 10752
  152.9868  135.6109  154.3481 H   0  0  0  0  0  0  0  0  0  0  0  0  # atno 10765 bound_to 10752
  140.5640  134.0166  155.7982 H   0  0  0  0  0  0  0  0  0  0  0  0  # atno 11005 bound_to 11000
  145.4035  139.1593  143.4164 LP  0  0  0  0  0  0  0  0  0  0  0  0  # atno 17320 bound_to 7965
  146.2965  140.4134  142.8720 LP  0  0  0  0  0  0  0  0  0  0  0  0  # atno 17321 bound_to 7965
  139.4783  144.5427  151.8504 LP  0  0  0  0  0  0  0  0  0  0  0  0  # atno 17342 bound_to 10162
  140.4523  144.1838  150.5898 LP  0  0  0  0  0  0  0  0  0  0  0  0  # atno 17343 bound_to 10162
  156.9070  130.9639  151.3568 LP  0  0  0  0  0  0  0  0  0  0  0  0  # atno 17370 bound_to 10713
  157.6036  130.8531  149.8840 LP  0  0  0  0  0  0  0  0  0  0  0  0  # atno 17371 bound_to 10713
  141.1097  133.9636  157.2932 LP  0  0  0  0  0  0  0  0  0  0  0  0  # atno 17394 bound_to 11000
  139.9394  135.0193  156.8660 LP  0  0  0  0  0  0  0  0  0  0  0  0  # atno 17395 bound_to 11000

$$$$
