AV-unprocessed.smi:2991|AV-procd|sdf|11399|dock6
  -GOLD-   2272016323D 1   1.00000     0.00000
 Structure written by MMmdl.
 38 39  0  0  0  0  0  0  0  0  2 V2000
  146.4717  130.4438  152.4731 C   0  0  0  0  0  0  0  0  0  0  0  0
  147.5890  131.1319  153.2336 C   0  0  0  0  0  0  0  0  0  0  0  0
  148.4418  130.3550  153.9372 N   0  3  0  0  0  0  0  0  0  0  0  0
  149.4682  130.8543  154.6567 C   0  0  0  0  0  0  0  0  0  0  0  0
  149.6911  132.2444  154.6912 C   0  0  0  0  0  0  0  0  0  0  0  0
  148.8370  133.1059  153.9569 C   0  0  0  0  0  0  0  0  0  0  0  0
  148.9822  134.5214  153.9533 N   0  0  0  0  0  0  0  0  0  0  0  0
  149.3897  135.3218  154.9526 C   0  0  0  0  0  0  0  0  0  0  0  0
  149.7140  134.9430  156.0781 O   0  0  0  0  0  0  0  0  0  0  0  0
  149.4184  136.6047  154.5646 N   0  0  0  0  0  0  0  0  0  0  0  0
  149.8529  137.7361  155.3838 C   0  0  2  0  0  0  0  0  0  0  0  0
  149.6423  139.0732  154.6273 C   0  0  0  0  0  0  0  0  0  0  0  0
  150.5441  140.2476  155.0617 C   0  0  0  0  0  0  0  0  0  0  0  0
  150.5320  140.5724  156.5693 C   0  0  0  0  0  0  0  0  0  0  0  0
  150.8761  139.4121  157.5339 C   0  0  0  0  0  0  0  0  0  0  0  0
  151.6778  138.3454  156.9354 N   0  0  0  0  0  0  0  0  0  0  0  0
  151.2658  137.5184  155.9592 C   0  0  0  0  0  0  0  0  0  0  0  0
  151.9942  136.6291  155.5203 O   0  0  0  0  0  0  0  0  0  0  0  0
  147.7620  132.5364  153.2300 C   0  0  0  0  0  0  0  0  0  0  0  0
  146.6720  133.5432  152.3367 Cl  0  0  0  0  0  0  0  0  0  0  0  0
  145.5007  130.7951  152.8240 H   0  0  0  0  0  0  0  0  0  0  0  0
  146.5078  129.3615  152.6036 H   0  0  0  0  0  0  0  0  0  0  0  0
  146.5509  130.6587  151.4072 H   0  0  0  0  0  0  0  0  0  0  0  0
  150.0731  130.1316  155.1849 H   0  0  0  0  0  0  0  0  0  0  0  0
  150.5049  132.6244  155.2898 H   0  0  0  0  0  0  0  0  0  0  0  0
  148.8381  134.9683  153.0593 H   0  0  0  0  0  0  0  0  0  0  0  0
  149.1429  136.8227  153.6178 H   0  0  0  0  0  0  0  0  0  0  0  0
  149.1935  137.7469  156.2527 H   0  0  0  0  0  0  0  0  0  0  0  0
  149.8060  138.9142  153.5605 H   0  0  0  0  0  0  0  0  0  0  0  0
  148.5971  139.3704  154.7218 H   0  0  0  0  0  0  0  0  0  0  0  0
  151.5695  140.0536  154.7439 H   0  0  0  0  0  0  0  0  0  0  0  0
  150.2435  141.1391  154.5106 H   0  0  0  0  0  0  0  0  0  0  0  0
  151.2465  141.3792  156.7358 H   0  0  0  0  0  0  0  0  0  0  0  0
  149.5606  140.9839  156.8456 H   0  0  0  0  0  0  0  0  0  0  0  0
  151.4162  139.8045  158.3959 H   0  0  0  0  0  0  0  0  0  0  0  0
  149.9608  138.9823  157.9424 H   0  0  0  0  0  0  0  0  0  0  0  0
  152.6092  138.2133  157.3029 H   0  0  0  0  0  0  0  0  0  0  0  0
  148.3004  129.3446  153.9279 H   0  0  0  0  0  0  0  0  0  0  0  0
  1  2  1  0  0  0  0
  1 21  1  0  0  0  0
  1 22  1  0  0  0  0
  1 23  1  0  0  0  0
  2 19  1  0  0  0  0
  2  3  2  0  0  0  0
  3  4  1  0  0  0  0
  3 38  1  0  0  0  0
  4  5  2  0  0  0  0
  4 24  1  0  0  0  0
  5  6  1  0  0  0  0
  5 25  1  0  0  0  0
  6  7  1  0  0  0  0
  6 19  2  0  0  0  0
  7  8  1  0  0  0  0
  7 26  1  0  0  0  0
  8  9  2  0  0  0  0
  8 10  1  0  0  0  0
 10 11  1  0  0  0  0
 10 27  1  0  0  0  0
 11 17  1  0  0  0  0
 11 12  1  0  0  0  0
 11 28  1  0  0  0  0
 12 13  1  0  0  0  0
 12 29  1  0  0  0  0
 12 30  1  0  0  0  0
 13 14  1  0  0  0  0
 13 31  1  0  0  0  0
 13 32  1  0  0  0  0
 14 15  1  0  0  0  0
 14 33  1  0  0  0  0
 14 34  1  0  0  0  0
 15 16  1  0  0  0  0
 15 35  1  0  0  0  0
 15 36  1  0  0  0  0
 16 17  1  0  0  0  0
 16 37  1  0  0  0  0
 17 18  2  0  0  0  0
 19 20  1  0  0  0  0
M  CHG  1   3   1
M  END
> <s_m_source_file>
AV-unprocessed.smi

> <i_m_source_file_index>
2991

> <i_lp_mmshare_version>
43012

> <i_f3d_flags>
0

> <s_epik_input>
W0NIM11jMW5bY0hdW2NIXWMoYzFDbClbTkhdQyg9TylbTkhdW0NAQEhdMltDSDJdW0NIMl1bQ0gyXVtDSDJdW05IXUMyPU8=

> <s_epik_cmdline>
J2VwaWtfcHl0aG9uJywgJy1waCcsICc3LjAnLCAnLXRuJywgJzgnLCAnLW1hJywgJzIwMCcsICctbWV0YWxfYmluZGluZycsICctaW1hZScsICc8aW5maWxlLm1hZT4nLCAnLW9tYWUnLCAnPG91dGZpbGUubWFlPic=

> <r_epik_Ionization_Penalty>
2.55031

> <r_epik_Ionization_Penalty_Charging>
2.55029

> <r_epik_Ionization_Penalty_Neutral>
1.86001e-05

> <r_epik_State_Penalty>
2.71882

> <r_epik_Charging_Adjusted_Penalty>
5.26911

> <i_epik_Tot_Q>
1

> <i_epik_Tot_abs_Q>
1

> <r_epik_Metal_State_Penalty>
2.7268

> <b_epik_Metal_Only>
0

> <s_lp_Force_Field>
OPLS_2005

> <r_lp_Energy>
25.1386

> <b_lp_Chiralities_Consistent>
1

> <s_lp_Variant>
AV-unprocessed.smi:2991-3

> <Gold.Version>
5.8.1

> <Gold.Id.Protein>
6NUR|6NUR_protein|mol2

> <Gold.PLP.Fitness>
37.2563

> <Gold.PLP.PLP>
-28.8746

> <Gold.PLP.part.hbond>
-3.0000

> <Gold.PLP.part.metal>
0.0000

> <Gold.PLP.part.buried>
-1.8971

> <Gold.PLP.part.nonpolar>
-23.9475

> <Gold.PLP.part.repulsive>
0.1433

> <Gold.PLP.ligand.clash>
0.0000

> <Gold.PLP.ligand.torsion>
0.2754

> <Gold.PLP.Chemscore.Hbond>
2.9600

> <Gold.PLP.Chemscore.CHOScore>
0.0000

> <Gold.PLP.Chemscore.Metal>
0.0000

> <Gold.Chemscore.Hbonds>
donor molecule, donor type, donor heavy atom, donor atom, acceptor molecule, acceptor atom, score
      L1  H     7    26       P1  7948  1.00
      L1  H    10    27       P1  7948  0.94
      P1  H 10752 10765       L1    18  1.00

> <Gold.PLP.Chemscore.Internal.Correction>
0.0525

> <Gold.Rescore>
     Score         DG    S(hbond)    S(metal)    S(lipo)     H(rot)  DE(clash)    DE(int)     intcor
     17.18     -18.44       2.52        0.00      60.69       1.00       0.00       1.26       ----

> <Gold.Chemscore.Fitness>
17.1791

> <Gold.Chemscore.DG>
-18.4428

> <Gold.Chemscore.ZeroCoef>
-5.4800

> <Gold.Chemscore.Hbond>
2.5217

> <Gold.Chemscore.Metal>
0.0000

> <Gold.Chemscore.Lipo>
60.6869

> <Gold.Chemscore.Internal_Hbond>
0.0000

> <Gold.Chemscore.DEClash>
0.0009

> <Gold.Chemscore.DEInternal>
1.2628

> <Gold.Chemscore.Rot>
1.0000

> <Gold.Chemscore.Internal.Correction>
   9.000000E+99

> <Gold.Chemscore.Hbonds>
donor molecule, donor type, donor heavy atom, donor atom, acceptor molecule, acceptor atom, score
      L1  H     7    26       P1  7948  0.25
      L1  H    10    27       P1  7948  0.90
      P1  H 10752 10765       L1    18  0.98

> <Gold.Chemscore.Hbond.Weighted>
-8.4224

> <Gold.Chemscore.Metal.Weighted>
-0.0000

> <Gold.Chemscore.Lipo.Weighted>
-7.1004

> <Gold.Chemscore.Internal_Hbond.Weighted>
0.0000

> <Gold.Chemscore.DEClash.Weighted>
0.0009

> <Gold.Chemscore.DEInternal.Weighted>
1.2628

> <Gold.Chemscore.Rot.Weighted>
2.5600

> <Gold.Chemscore.Internal.Correction.Weighted>
   9.000000E+99

> <Gold.Protein.RotatedTorsions>
[ 6907 6896 6895 6894 ] final -167.44 input  -60.11 | X-H torsion
[ 7974 7965 7964 7962 ] final  -34.20 input  175.53 | X-H torsion
[ 8008 7997 7996 7995 ] final  139.32 input   59.86 | X-H torsion
[ 10167 10162 10161 10158 ] final  179.39 input  -65.29 | X-H torsion
[ 10718 10713 10712 10709 ] final  130.48 input   66.30 | X-H torsion
[ 10763 10752 10751 10750 ] final -175.37 input  -60.55 | X-H torsion
[ 11005 11000 10999 10996 ] final -145.41 input  -57.11 | X-H torsion

> <Gold.Protein.ActiveResidues>
 VAL166  LYS551  ARG553  GLY616  TRP617  ASP618  TYR619  PRO620  LYS621  CYS622 
 ASP623  PHE694  ASN695  SER759  ASP760  ASP761  ALA762  ILE779  LEU786  VAL792 
 PHE793  MET794  SER795  GLU796  ALA797  LYS798  CYS799  TRP800  GLU811  SER814 

> <Gold.Protein.RotatedAtoms>
  151.4596  133.3596  159.2806 H   0  0  0  0  0  0  0  0  0  0  0  0  # atno 6907 bound_to 6896
  150.9034  134.8450  159.7387 H   0  0  0  0  0  0  0  0  0  0  0  0  # atno 6908 bound_to 6896
  152.4892  134.4519  159.9629 H   0  0  0  0  0  0  0  0  0  0  0  0  # atno 6909 bound_to 6896
  146.0849  140.6009  142.8891 H   0  0  0  0  0  0  0  0  0  0  0  0  # atno 7974 bound_to 7965
  156.2990  140.2371  156.4217 H   0  0  0  0  0  0  0  0  0  0  0  0  # atno 8008 bound_to 7997
  154.8349  140.0431  157.1522 H   0  0  0  0  0  0  0  0  0  0  0  0  # atno 8009 bound_to 7997
  154.9167  140.2998  155.5241 H   0  0  0  0  0  0  0  0  0  0  0  0  # atno 8010 bound_to 7997
  139.5334  144.2566  152.0741 H   0  0  0  0  0  0  0  0  0  0  0  0  # atno 10167 bound_to 10162
  157.5058  131.1095  150.9363 H   0  0  0  0  0  0  0  0  0  0  0  0  # atno 10718 bound_to 10713
  154.5852  135.2840  155.0692 H   0  0  0  0  0  0  0  0  0  0  0  0  # atno 10763 bound_to 10752
  154.2013  135.6424  153.5092 H   0  0  0  0  0  0  0  0  0  0  0  0  # atno 10764 bound_to 10752
  153.0102  135.5469  154.6519 H   0  0  0  0  0  0  0  0  0  0  0  0  # atno 10765 bound_to 10752
  140.7926  134.2951  157.5008 H   0  0  0  0  0  0  0  0  0  0  0  0  # atno 11005 bound_to 11000
  144.7318  140.4695  143.6932 LP  0  0  0  0  0  0  0  0  0  0  0  0  # atno 17320 bound_to 7965
  145.6149  139.1517  143.3055 LP  0  0  0  0  0  0  0  0  0  0  0  0  # atno 17321 bound_to 7965
  140.2033  144.4636  150.6421 LP  0  0  0  0  0  0  0  0  0  0  0  0  # atno 17342 bound_to 10162
  140.6527  143.2229  151.6040 LP  0  0  0  0  0  0  0  0  0  0  0  0  # atno 17343 bound_to 10162
  157.0019  130.5603  149.5312 LP  0  0  0  0  0  0  0  0  0  0  0  0  # atno 17370 bound_to 10713
  156.0257  130.5351  150.8401 LP  0  0  0  0  0  0  0  0  0  0  0  0  # atno 17371 bound_to 10713
  139.8729  134.9383  156.3711 LP  0  0  0  0  0  0  0  0  0  0  0  0  # atno 17394 bound_to 11000
  140.9375  133.7537  156.0103 LP  0  0  0  0  0  0  0  0  0  0  0  0  # atno 17395 bound_to 11000

$$$$
