AV-unprocessed.smi:2890|AV-procd|sdf|11116|dock10
  -GOLD-   2272015583D 1   1.00000     0.00000
 Structure written by MMmdl.
 38 39  0  0  0  0  0  0  0  0  1 V2000
  148.3302  141.5270  154.2068 C   0  0  0  0  0  0  0  0  0  0  0  0
  149.4185  141.6046  155.2830 C   0  0  0  0  0  0  0  0  0  0  0  0
  150.2943  140.3816  155.2874 C   0  0  0  0  0  0  0  0  0  0  0  0
  150.7249  139.8870  154.1388 N   0  0  0  0  0  0  0  0  0  0  0  0
  151.4997  138.7711  154.4678 O   0  0  0  0  0  0  0  0  0  0  0  0
  151.5031  138.6331  155.8181 C   0  0  0  0  0  0  0  0  0  0  0  0
  152.2837  137.4863  156.3702 C   0  0  0  0  0  0  0  0  0  0  0  0
  151.4302  136.5232  157.2011 C   0  0  0  0  0  0  0  0  0  0  0  0
  150.7521  139.6178  156.4002 C   0  0  0  0  0  0  0  0  0  0  0  0
  150.4726  139.8449  157.8644 C   0  0  0  0  0  0  0  0  0  0  0  0
  151.5146  140.7979  158.4495 C   0  0  0  0  0  0  0  0  0  0  0  0
  152.7117  140.5257  158.3686 O   0  0  0  0  0  0  0  0  0  0  0  0
  151.0462  141.9124  159.0328 N   0  0  0  0  0  0  0  0  0  0  0  0
  151.8671  142.9693  159.6149 C   0  0  0  0  0  0  0  0  0  0  0  0
  152.8781  142.4741  160.5697 C   0  0  0  0  0  0  0  0  0  0  0  0
  153.6709  142.0859  161.3175 N   0  0  0  0  0  0  0  0  0  0  0  0
  152.4421  143.9155  158.5486 C   0  0  0  0  0  0  0  0  0  0  0  0
  152.1345  145.0749  159.5056 C   0  0  0  0  0  0  0  0  0  0  0  0
  151.0558  144.1754  160.1227 C   0  0  0  0  0  0  0  0  0  0  0  0
  147.7055  142.4202  154.2212 H   0  0  0  0  0  0  0  0  0  0  0  0
  147.6823  140.6643  154.3655 H   0  0  0  0  0  0  0  0  0  0  0  0
  148.7655  141.4415  153.2108 H   0  0  0  0  0  0  0  0  0  0  0  0
  150.0241  142.4968  155.1199 H   0  0  0  0  0  0  0  0  0  0  0  0
  148.9523  141.7363  156.2595 H   0  0  0  0  0  0  0  0  0  0  0  0
  152.7489  136.9409  155.5489 H   0  0  0  0  0  0  0  0  0  0  0  0
  153.1029  137.8624  156.9835 H   0  0  0  0  0  0  0  0  0  0  0  0
  152.0349  135.7026  157.5878 H   0  0  0  0  0  0  0  0  0  0  0  0
  150.6267  136.0918  156.6032 H   0  0  0  0  0  0  0  0  0  0  0  0
  150.9784  137.0341  158.0519 H   0  0  0  0  0  0  0  0  0  0  0  0
  149.4785  140.2630  158.0251 H   0  0  0  0  0  0  0  0  0  0  0  0
  150.4959  138.9061  158.4193 H   0  0  0  0  0  0  0  0  0  0  0  0
  150.0464  142.0516  159.0506 H   0  0  0  0  0  0  0  0  0  0  0  0
  153.5013  143.7742  158.3306 H   0  0  0  0  0  0  0  0  0  0  0  0
  151.8464  143.9589  157.6345 H   0  0  0  0  0  0  0  0  0  0  0  0
  152.9544  145.2932  160.1923 H   0  0  0  0  0  0  0  0  0  0  0  0
  151.7561  145.9779  159.0253 H   0  0  0  0  0  0  0  0  0  0  0  0
  150.0861  144.2882  159.6342 H   0  0  0  0  0  0  0  0  0  0  0  0
  150.9694  144.2460  161.2075 H   0  0  0  0  0  0  0  0  0  0  0  0
  1  2  1  0  0  0  0
  1 20  1  0  0  0  0
  1 21  1  0  0  0  0
  1 22  1  0  0  0  0
  2  3  1  0  0  0  0
  2 23  1  0  0  0  0
  2 24  1  0  0  0  0
  3  9  1  0  0  0  0
  3  4  2  0  0  0  0
  4  5  1  0  0  0  0
  5  6  1  0  0  0  0
  6  7  1  0  0  0  0
  6  9  2  0  0  0  0
  7  8  1  0  0  0  0
  7 25  1  0  0  0  0
  7 26  1  0  0  0  0
  8 27  1  0  0  0  0
  8 28  1  0  0  0  0
  8 29  1  0  0  0  0
  9 10  1  0  0  0  0
 10 11  1  0  0  0  0
 10 30  1  0  0  0  0
 10 31  1  0  0  0  0
 11 12  2  0  0  0  0
 11 13  1  0  0  0  0
 13 14  1  0  0  0  0
 13 32  1  0  0  0  0
 14 19  1  0  0  0  0
 14 15  1  0  0  0  0
 14 17  1  0  0  0  0
 15 16  3  0  0  0  0
 17 18  1  0  0  0  0
 17 33  1  0  0  0  0
 17 34  1  0  0  0  0
 18 19  1  0  0  0  0
 18 35  1  0  0  0  0
 18 36  1  0  0  0  0
 19 37  1  0  0  0  0
 19 38  1  0  0  0  0
M  END
> <s_m_source_file>
AV-unprocessed.smi

> <i_m_source_file_index>
2890

> <i_lp_mmshare_version>
43012

> <i_f3d_flags>
0

> <s_epik_input>
W0NIM11bQ0gyXWMxbm9jKFtDSDJdW0NIM10pYzFbQ0gyXUMoPU8pW05IXUMyKEMjTilbQ0gyXVtDSDJdW0NIMl0y

> <s_epik_cmdline>
J2VwaWtfcHl0aG9uJywgJy1waCcsICc3LjAnLCAnLXRuJywgJzgnLCAnLW1hJywgJzIwMCcsICctbWV0YWxfYmluZGluZycsICctaW1hZScsICc8aW5maWxlLm1hZT4nLCAnLW9tYWUnLCAnPG91dGZpbGUubWFlPic=

> <r_lp_tautomer_probability>
1

> <r_epik_Ionization_Penalty>
5.40968e-07

> <r_epik_Ionization_Penalty_Charging>
0

> <r_epik_Ionization_Penalty_Neutral>
5.40968e-07

> <r_epik_State_Penalty>
-0

> <r_epik_Charging_Adjusted_Penalty>
0

> <i_epik_Tot_Q>
0

> <i_epik_Tot_abs_Q>
0

> <r_epik_Metal_State_Penalty>
-0

> <b_epik_Metal_Only>
0

> <s_lp_Force_Field>
OPLS_2005

> <r_lp_Energy>
4.95517

> <b_lp_Chiralities_Consistent>
1

> <s_lp_Variant>
AV-unprocessed.smi:2890-1

> <Gold.Version>
5.8.1

> <Gold.Id.Protein>
6NUR|6NUR_protein|mol2

> <Gold.PLP.Fitness>
39.5586

> <Gold.PLP.PLP>
-37.0134

> <Gold.PLP.part.hbond>
-1.7570

> <Gold.PLP.part.metal>
0.0000

> <Gold.PLP.part.buried>
-1.8021

> <Gold.PLP.part.nonpolar>
-32.3236

> <Gold.PLP.part.repulsive>
0.4298

> <Gold.PLP.ligand.clash>
0.0000

> <Gold.PLP.ligand.torsion>
0.7626

> <Gold.PLP.Chemscore.Hbond>
1.2730

> <Gold.PLP.Chemscore.CHOScore>
0.0000

> <Gold.PLP.Chemscore.Metal>
0.0000

> <Gold.Chemscore.Hbonds>
donor molecule, donor type, donor heavy atom, donor atom, acceptor molecule, acceptor atom, score
      P1  H  7989  7998       L1     4  0.86
      P1  H  7997  8008       L1    12  0.18

> <Gold.PLP.Chemscore.Internal.Correction>
0.2515

> <Gold.Rescore>
     Score         DG    S(hbond)    S(metal)    S(lipo)     H(rot)  DE(clash)    DE(int)     intcor
     13.92     -14.82       0.83        0.00      93.63       1.72       0.08       0.81       ----

> <Gold.Chemscore.Fitness>
13.9242

> <Gold.Chemscore.DG>
-14.8167

> <Gold.Chemscore.ZeroCoef>
-5.4800

> <Gold.Chemscore.Hbond>
0.8339

> <Gold.Chemscore.Metal>
0.0000

> <Gold.Chemscore.Lipo>
93.6337

> <Gold.Chemscore.Internal_Hbond>
0.0000

> <Gold.Chemscore.DEClash>
0.0813

> <Gold.Chemscore.DEInternal>
0.8111

> <Gold.Chemscore.Rot>
1.7202

> <Gold.Chemscore.Internal.Correction>
   9.000000E+99

> <Gold.Chemscore.Hbonds>
donor molecule, donor type, donor heavy atom, donor atom, acceptor molecule, acceptor atom, score
      P1  H  7989  7998       L1     4  0.38
      P1  H  7997  8008       L1    12  0.18

> <Gold.Chemscore.Hbond.Weighted>
-2.7853

> <Gold.Chemscore.Metal.Weighted>
-0.0000

> <Gold.Chemscore.Lipo.Weighted>
-10.9551

> <Gold.Chemscore.Internal_Hbond.Weighted>
0.0000

> <Gold.Chemscore.DEClash.Weighted>
0.0813

> <Gold.Chemscore.DEInternal.Weighted>
0.8111

> <Gold.Chemscore.Rot.Weighted>
4.4037

> <Gold.Chemscore.Internal.Correction.Weighted>
   9.000000E+99

> <Gold.Protein.RotatedTorsions>
[ 6907 6896 6895 6894 ] final   75.79 input  -60.11 | X-H torsion
[ 7974 7965 7964 7962 ] final  106.82 input  175.53 | X-H torsion
[ 8008 7997 7996 7995 ] final  -78.16 input   59.86 | X-H torsion
[ 10167 10162 10161 10158 ] final  176.19 input  -65.29 | X-H torsion
[ 10718 10713 10712 10709 ] final   -8.70 input   66.30 | X-H torsion
[ 10763 10752 10751 10750 ] final -167.42 input  -60.55 | X-H torsion
[ 11005 11000 10999 10996 ] final  -89.66 input  -57.11 | X-H torsion

> <Gold.Protein.ActiveResidues>
 VAL166  LYS551  ARG553  GLY616  TRP617  ASP618  TYR619  PRO620  LYS621  CYS622 
 ASP623  PHE694  ASN695  SER759  ASP760  ASP761  ALA762  ILE779  LEU786  VAL792 
 PHE793  MET794  SER795  GLU796  ALA797  LYS798  CYS799  TRP800  GLU811  SER814 

> <Gold.Protein.RotatedAtoms>
  152.5043  134.4066  159.9434 H   0  0  0  0  0  0  0  0  0  0  0  0  # atno 6907 bound_to 6896
  151.4033  133.3744  159.2742 H   0  0  0  0  0  0  0  0  0  0  0  0  # atno 6908 bound_to 6896
  150.9346  134.8780  159.7632 H   0  0  0  0  0  0  0  0  0  0  0  0  # atno 6909 bound_to 6896
  145.3016  139.2568  143.3811 H   0  0  0  0  0  0  0  0  0  0  0  0  # atno 7974 bound_to 7965
  154.5663  140.0699  156.8896 H   0  0  0  0  0  0  0  0  0  0  0  0  # atno 8008 bound_to 7997
  155.2717  140.3365  155.4246 H   0  0  0  0  0  0  0  0  0  0  0  0  # atno 8009 bound_to 7997
  156.2083  140.1749  156.7737 H   0  0  0  0  0  0  0  0  0  0  0  0  # atno 8010 bound_to 7997
  139.5205  144.2944  152.0435 H   0  0  0  0  0  0  0  0  0  0  0  0  # atno 10167 bound_to 10162
  156.6988  130.5087  149.5923 H   0  0  0  0  0  0  0  0  0  0  0  0  # atno 10718 bound_to 10713
  154.6734  135.2943  154.9711 H   0  0  0  0  0  0  0  0  0  0  0  0  # atno 10763 bound_to 10752
  154.0731  135.6615  153.4831 H   0  0  0  0  0  0  0  0  0  0  0  0  # atno 10764 bound_to 10752
  153.0501  135.5179  154.7741 H   0  0  0  0  0  0  0  0  0  0  0  0  # atno 10765 bound_to 10752
  141.1580  133.7643  156.9626 H   0  0  0  0  0  0  0  0  0  0  0  0  # atno 11005 bound_to 11000
  146.3150  140.3531  142.8658 LP  0  0  0  0  0  0  0  0  0  0  0  0  # atno 17320 bound_to 7965
  144.9089  140.7733  143.5820 LP  0  0  0  0  0  0  0  0  0  0  0  0  # atno 17321 bound_to 7965
  140.2394  144.4285  150.6266 LP  0  0  0  0  0  0  0  0  0  0  0  0  # atno 17342 bound_to 10162
  140.6301  143.2186  151.6513 LP  0  0  0  0  0  0  0  0  0  0  0  0  # atno 17343 bound_to 10162
  156.1744  130.6458  151.0876 LP  0  0  0  0  0  0  0  0  0  0  0  0  # atno 17370 bound_to 10713
  157.6981  131.0786  150.6906 LP  0  0  0  0  0  0  0  0  0  0  0  0  # atno 17371 bound_to 10713
  140.1183  134.9433  157.2166 LP  0  0  0  0  0  0  0  0  0  0  0  0  # atno 17394 bound_to 11000
  140.3105  134.3029  155.7268 LP  0  0  0  0  0  0  0  0  0  0  0  0  # atno 17395 bound_to 11000

$$$$
