AV-unprocessed.smi:1717|AV-procd|sdf|6920|dock2
  -GOLD-   22720 8123D 1   1.00000     0.00000
 Structure written by MMmdl.
 40 41  0  0  0  0  0  0  0  0  3 V2000
  151.8878  140.8143  158.1499 C   0  0  0  0  0  0  0  0  0  0  0  0
  152.3986  140.1805  156.9402 N   0  5  0  0  0  0  0  0  0  0  0  0
  151.7314  140.1793  155.7552 C   0  0  0  0  0  0  0  0  0  0  0  0
  151.8675  139.4681  154.7539 O   0  0  0  0  0  0  0  0  0  0  0  0
  150.6294  141.2447  155.7398 C   0  0  0  0  0  0  0  0  0  0  0  0
  149.3531  140.6499  155.2712 N   0  3  2  0  0  0  0  0  0  0  0  0
  148.3986  141.6762  154.7809 C   0  0  0  0  0  0  0  0  0  0  0  0
  147.1501  141.0239  154.1635 C   0  0  0  0  0  0  0  0  0  0  0  0
  146.4612  140.0817  155.1638 C   0  0  1  0  0  0  0  0  0  0  0  0
  145.3377  139.4081  154.5191 N   0  0  0  0  0  0  0  0  0  0  0  0
  144.7491  138.2893  154.9663 C   0  0  0  0  0  0  0  0  0  0  0  0
  145.0937  137.7028  155.9921 O   0  0  0  0  0  0  0  0  0  0  0  0
  143.7532  137.9026  154.1526 N   0  0  0  0  0  0  0  0  0  0  0  0
  142.9038  136.7790  154.3109 C   0  0  0  0  0  0  0  0  0  0  0  0
  141.4869  136.7326  154.4643 C   0  0  0  0  0  0  0  0  0  0  0  0
  141.0581  135.4837  154.5823 N   0  0  0  0  0  0  0  0  0  0  0  0
  142.1817  134.7358  154.5055 N   0  0  0  0  0  0  0  0  0  0  0  0
  143.3266  135.4836  154.3402 C   0  0  0  0  0  0  0  0  0  0  0  0
  147.4802  139.0555  155.6913 C   0  0  0  0  0  0  0  0  0  0  0  0
  148.7210  139.7507  156.2739 C   0  0  0  0  0  0  0  0  0  0  0  0
  142.1504  133.7280  154.5664 H   0  0  0  0  0  0  0  0  0  0  0  0
  152.5408  140.6406  159.0051 H   0  0  0  0  0  0  0  0  0  0  0  0
  150.9032  140.4416  158.4330 H   0  0  0  0  0  0  0  0  0  0  0  0
  151.7981  141.8958  158.0442 H   0  0  0  0  0  0  0  0  0  0  0  0
  150.4940  141.7322  156.7079 H   0  0  0  0  0  0  0  0  0  0  0  0
  150.9546  142.0233  155.0483 H   0  0  0  0  0  0  0  0  0  0  0  0
  148.1144  142.3332  155.6043 H   0  0  0  0  0  0  0  0  0  0  0  0
  148.8829  142.3004  154.0288 H   0  0  0  0  0  0  0  0  0  0  0  0
  146.4540  141.7981  153.8379 H   0  0  0  0  0  0  0  0  0  0  0  0
  147.4381  140.4706  153.2682 H   0  0  0  0  0  0  0  0  0  0  0  0
  146.0920  140.6802  155.9992 H   0  0  0  0  0  0  0  0  0  0  0  0
  144.9868  139.8208  153.6673 H   0  0  0  0  0  0  0  0  0  0  0  0
  143.5818  138.4716  153.3365 H   0  0  0  0  0  0  0  0  0  0  0  0
  140.7654  137.5356  154.4933 H   0  0  0  0  0  0  0  0  0  0  0  0
  144.3088  135.0411  154.2606 H   0  0  0  0  0  0  0  0  0  0  0  0
  147.0217  138.4268  156.4557 H   0  0  0  0  0  0  0  0  0  0  0  0
  147.7869  138.3875  154.8850 H   0  0  0  0  0  0  0  0  0  0  0  0
  149.4299  138.9900  156.6013 H   0  0  0  0  0  0  0  0  0  0  0  0
  148.4468  140.3267  157.1593 H   0  0  0  0  0  0  0  0  0  0  0  0
  149.5945  140.0784  154.4738 H   0  0  0  0  0  0  0  0  0  0  0  0
  1  2  1  0  0  0  0
  1 22  1  0  0  0  0
  1 23  1  0  0  0  0
  1 24  1  0  0  0  0
  2  3  1  0  0  0  0
  3  4  2  0  0  0  0
  3  5  1  0  0  0  0
  5  6  1  0  0  0  0
  5 25  1  0  0  0  0
  5 26  1  0  0  0  0
  6 20  1  0  0  0  0
  6  7  1  0  0  0  0
  6 40  1  0  0  0  0
  7  8  1  0  0  0  0
  7 27  1  0  0  0  0
  7 28  1  0  0  0  0
  8  9  1  0  0  0  0
  8 29  1  0  0  0  0
  8 30  1  0  0  0  0
  9 10  1  0  0  0  0
  9 19  1  0  0  0  0
  9 31  1  0  0  0  0
 10 11  1  0  0  0  0
 10 32  1  0  0  0  0
 11 12  2  0  0  0  0
 11 13  1  0  0  0  0
 13 14  1  0  0  0  0
 13 33  1  0  0  0  0
 14 18  2  0  0  0  0
 14 15  1  0  0  0  0
 15 16  2  0  0  0  0
 15 34  1  0  0  0  0
 16 17  1  0  0  0  0
 17 21  1  0  0  0  0
 17 18  1  0  0  0  0
 18 35  1  0  0  0  0
 19 20  1  0  0  0  0
 19 36  1  0  0  0  0
 19 37  1  0  0  0  0
 20 38  1  0  0  0  0
 20 39  1  0  0  0  0
M  CHG  1   2  -1
M  CHG  1   6   1
M  END
> <s_m_source_file>
AV-unprocessed.smi

> <i_m_source_file_index>
1717

> <i_lp_mmshare_version>
43012

> <i_f3d_flags>
0

> <s_epik_input>
W0NIM11bTkhdQyg9TylbQ0gyXU4xW0NIMl1bQ0gyXVtDSF0oW0NIMl1bQ0gyXTEpW05IXUMoPU8pW05IXWMyW2NIXW5bbkhdW2NIXTI=

> <s_epik_cmdline>
J2VwaWtfcHl0aG9uJywgJy1waCcsICc3LjAnLCAnLXRuJywgJzgnLCAnLW1hJywgJzIwMCcsICctbWV0YWxfYmluZGluZycsICctaW1hZScsICc8aW5maWxlLm1hZT4nLCAnLW9tYWUnLCAnPG91dGZpbGUubWFlPic=

> <r_lp_tautomer_probability>
0.5

> <r_epik_Ionization_Penalty>
6.1395

> <r_epik_Ionization_Penalty_Charging>
6.13946

> <r_epik_Ionization_Penalty_Neutral>
4.21226e-05

> <r_epik_State_Penalty>
6.9595

> <r_epik_Charging_Adjusted_Penalty>
13.099

> <i_epik_Tot_Q>
0

> <i_epik_Tot_abs_Q>
2

> <r_epik_Metal_State_Penalty>
2.89141

> <b_epik_Metal_Only>
1

> <s_lp_Force_Field>
OPLS_2005

> <r_lp_Energy>
12.4493

> <b_lp_Chiralities_Consistent>
1

> <s_lp_Variant>
AV-unprocessed.smi:1717-4

> <Gold.Version>
5.8.1

> <Gold.Id.Protein>
6NUR|6NUR_protein|mol2

> <Gold.PLP.Fitness>
43.2439

> <Gold.PLP.PLP>
-25.3186

> <Gold.PLP.part.hbond>
-6.3047

> <Gold.PLP.part.metal>
0.0000

> <Gold.PLP.part.buried>
-3.5543

> <Gold.PLP.part.nonpolar>
-14.7686

> <Gold.PLP.part.repulsive>
0.3505

> <Gold.PLP.ligand.clash>
0.0000

> <Gold.PLP.ligand.torsion>
1.1631

> <Gold.PLP.Chemscore.Hbond>
6.7237

> <Gold.PLP.Chemscore.CHOScore>
0.0000

> <Gold.PLP.Chemscore.Metal>
0.0000

> <Gold.Chemscore.Hbonds>
donor molecule, donor type, donor heavy atom, donor atom, acceptor molecule, acceptor atom, score
      L1  H    10    32       P1 10175  1.00
      L1  H    13    33       P1 10175  0.66
      L1  H    17    21       P1 10957  1.00
      P1  H  7989  7998       L1     4  0.79
      P1  H  7997  8008       L1     2  2.00
      P1  H 11000 11005       L1    16  0.58

> <Gold.PLP.Chemscore.Internal.Correction>
0.0802

> <Gold.Rescore>
     Score         DG    S(hbond)    S(metal)    S(lipo)     H(rot)  DE(clash)    DE(int)     intcor
     17.80     -20.58       4.50        0.00      39.06       1.75       0.07       2.72       ----

> <Gold.Chemscore.Fitness>
17.7962

> <Gold.Chemscore.DG>
-20.5835

> <Gold.Chemscore.ZeroCoef>
-5.4800

> <Gold.Chemscore.Hbond>
4.4987

> <Gold.Chemscore.Metal>
0.0000

> <Gold.Chemscore.Lipo>
39.0571

> <Gold.Chemscore.Internal_Hbond>
0.0000

> <Gold.Chemscore.DEClash>
0.0652

> <Gold.Chemscore.DEInternal>
2.7221

> <Gold.Chemscore.Rot>
1.7546

> <Gold.Chemscore.Internal.Correction>
   9.000000E+99

> <Gold.Chemscore.Hbonds>
donor molecule, donor type, donor heavy atom, donor atom, acceptor molecule, acceptor atom, score
      L1  H    10    32       P1 10175  0.98
      L1  H    13    33       P1 10175  0.64
      L1  H    17    21       P1 10957  0.93
      P1  H  7989  7998       L1     4  0.11
      P1  H  7997  8008       L1     2  0.65
      P1  H 11000 11005       L1    16  0.07

> <Gold.Chemscore.Hbond.Weighted>
-15.0256

> <Gold.Chemscore.Metal.Weighted>
-0.0000

> <Gold.Chemscore.Lipo.Weighted>
-4.5697

> <Gold.Chemscore.Internal_Hbond.Weighted>
0.0000

> <Gold.Chemscore.DEClash.Weighted>
0.0652

> <Gold.Chemscore.DEInternal.Weighted>
2.7221

> <Gold.Chemscore.Rot.Weighted>
4.4917

> <Gold.Chemscore.Internal.Correction.Weighted>
   9.000000E+99

> <Gold.Protein.RotatedTorsions>
[ 6907 6896 6895 6894 ] final   -3.35 input  -60.11 | X-H torsion
[ 7974 7965 7964 7962 ] final  131.60 input  175.53 | X-H torsion
[ 8008 7997 7996 7995 ] final  -56.52 input   59.86 | X-H torsion
[ 10167 10162 10161 10158 ] final  -42.58 input  -65.29 | X-H torsion
[ 10718 10713 10712 10709 ] final   -7.67 input   66.30 | X-H torsion
[ 10763 10752 10751 10750 ] final  -90.10 input  -60.55 | X-H torsion
[ 11005 11000 10999 10996 ] final   37.59 input  -57.11 | X-H torsion

> <Gold.Protein.ActiveResidues>
 VAL166  LYS551  ARG553  GLY616  TRP617  ASP618  TYR619  PRO620  LYS621  CYS622 
 ASP623  PHE694  ASN695  SER759  ASP760  ASP761  ALA762  ILE779  LEU786  VAL792 
 PHE793  MET794  SER795  GLU796  ALA797  LYS798  CYS799  TRP800  GLU811  SER814 

> <Gold.Protein.RotatedAtoms>
  151.5152  135.1066  159.9863 H   0  0  0  0  0  0  0  0  0  0  0  0  # atno 6907 bound_to 6896
  152.4644  133.7888  159.6901 H   0  0  0  0  0  0  0  0  0  0  0  0  # atno 6908 bound_to 6896
  150.8621  133.7564  159.3014 H   0  0  0  0  0  0  0  0  0  0  0  0  # atno 6909 bound_to 6896
  145.0056  139.4270  143.5270 H   0  0  0  0  0  0  0  0  0  0  0  0  # atno 7974 bound_to 7965
  154.4233  140.1128  156.5651 H   0  0  0  0  0  0  0  0  0  0  0  0  # atno 8008 bound_to 7997
  155.6271  140.3495  155.4652 H   0  0  0  0  0  0  0  0  0  0  0  0  # atno 8009 bound_to 7997
  155.9978  140.1192  157.0567 H   0  0  0  0  0  0  0  0  0  0  0  0  # atno 8010 bound_to 7997
  140.6964  143.3030  151.3230 H   0  0  0  0  0  0  0  0  0  0  0  0  # atno 10167 bound_to 10162
  156.7139  130.5130  149.5885 H   0  0  0  0  0  0  0  0  0  0  0  0  # atno 10718 bound_to 10713
  154.6623  135.5316  153.8033 H   0  0  0  0  0  0  0  0  0  0  0  0  # atno 10763 bound_to 10752
  153.0449  135.6508  154.0853 H   0  0  0  0  0  0  0  0  0  0  0  0  # atno 10764 bound_to 10752
  154.0761  135.2950  155.3279 H   0  0  0  0  0  0  0  0  0  0  0  0  # atno 10765 bound_to 10752
  140.2210  134.3641  155.8005 H   0  0  0  0  0  0  0  0  0  0  0  0  # atno 11005 bound_to 11000
  146.3460  139.9469  142.8734 LP  0  0  0  0  0  0  0  0  0  0  0  0  # atno 17320 bound_to 7965
  145.2094  140.9889  143.4109 LP  0  0  0  0  0  0  0  0  0  0  0  0  # atno 17321 bound_to 7965
  139.6425  144.0513  152.2565 LP  0  0  0  0  0  0  0  0  0  0  0  0  # atno 17342 bound_to 10162
  140.0023  144.6284  150.7719 LP  0  0  0  0  0  0  0  0  0  0  0  0  # atno 17343 bound_to 10162
  156.1642  130.6394  151.0757 LP  0  0  0  0  0  0  0  0  0  0  0  0  # atno 17370 bound_to 10713
  157.6925  131.0805  150.7066 LP  0  0  0  0  0  0  0  0  0  0  0  0  # atno 17371 bound_to 10713
  141.2223  133.7193  156.8575 LP  0  0  0  0  0  0  0  0  0  0  0  0  # atno 17394 bound_to 11000
  140.1850  134.9006  157.2993 LP  0  0  0  0  0  0  0  0  0  0  0  0  # atno 17395 bound_to 11000

$$$$
