AV-unprocessed.smi:573|AV-procd|sdf|2968|dock7
  -GOLD-   2262023473D 1   1.00000     0.00000
 Structure written by MMmdl.
 45 47  0  0  0  0  0  0  0  0  2 V2000
  147.0912  139.0476  154.8711 C   0  0  0  0  0  0  0  0  0  0  0  0
  147.7396  139.4314  153.5348 C   0  0  1  0  0  0  0  0  0  0  0  0
  148.9028  138.6418  153.3930 O   0  0  0  0  0  0  0  0  0  0  0  0
  146.7910  139.1722  152.3489 C   0  0  0  0  0  0  0  0  0  0  0  0
  146.5320  137.7541  152.1413 N   0  0  0  0  0  0  0  0  0  0  0  0
  145.2687  137.2378  152.4537 C   0  0  0  0  0  0  0  0  0  0  0  0
  144.1216  137.9543  152.5944 N   0  3  0  0  0  0  0  0  0  0  0  0
  143.0899  137.0726  152.9270 C   0  0  0  0  0  0  0  0  0  0  0  0
  141.7426  137.3090  153.1814 C   0  0  0  0  0  0  0  0  0  0  0  0
  140.9522  136.1865  153.5037 C   0  0  0  0  0  0  0  0  0  0  0  0
  141.5056  134.8913  153.5663 C   0  0  0  0  0  0  0  0  0  0  0  0
  142.8726  134.6605  153.3068 C   0  0  0  0  0  0  0  0  0  0  0  0
  143.6493  135.7729  152.9829 C   0  0  0  0  0  0  0  0  0  0  0  0
  145.0075  135.9237  152.6708 N   0  0  0  0  0  0  0  0  0  0  0  0
  145.8969  134.7537  152.6463 C   0  0  0  0  0  0  0  0  0  0  0  0
  145.3396  133.6249  151.7639 C   0  0  2  0  0  0  0  0  0  0  0  0
  146.3800  132.5157  151.5196 C   0  0  0  0  0  0  0  0  0  0  0  0
  145.8074  131.4375  150.5927 C   0  0  0  0  0  0  0  0  0  0  0  0
  145.2671  132.0880  149.3145 C   0  0  0  0  0  0  0  0  0  0  0  0
  144.2901  133.2226  149.6627 C   0  0  0  0  0  0  0  0  0  0  0  0
  144.9294  134.1711  150.5113 O   0  0  0  0  0  0  0  0  0  0  0  0
  146.1962  139.6420  155.0561 H   0  0  0  0  0  0  0  0  0  0  0  0
  147.7749  139.2167  155.7039 H   0  0  0  0  0  0  0  0  0  0  0  0
  146.8006  137.9964  154.8856 H   0  0  0  0  0  0  0  0  0  0  0  0
  148.0251  140.4837  153.5713 H   0  0  0  0  0  0  0  0  0  0  0  0
  148.7052  137.9181  152.8184 H   0  0  0  0  0  0  0  0  0  0  0  0
  145.8644  139.7390  152.4495 H   0  0  0  0  0  0  0  0  0  0  0  0
  147.2627  139.5309  151.4338 H   0  0  0  0  0  0  0  0  0  0  0  0
  147.3213  137.1243  152.1161 H   0  0  0  0  0  0  0  0  0  0  0  0
  141.3163  138.3008  153.1382 H   0  0  0  0  0  0  0  0  0  0  0  0
  139.9004  136.3224  153.7101 H   0  0  0  0  0  0  0  0  0  0  0  0
  140.8686  134.0563  153.8201 H   0  0  0  0  0  0  0  0  0  0  0  0
  143.2849  133.6641  153.3654 H   0  0  0  0  0  0  0  0  0  0  0  0
  146.8886  135.0618  152.3151 H   0  0  0  0  0  0  0  0  0  0  0  0
  146.0115  134.4065  153.6736 H   0  0  0  0  0  0  0  0  0  0  0  0
  144.4671  133.1979  152.2621 H   0  0  0  0  0  0  0  0  0  0  0  0
  147.2762  132.9448  151.0692 H   0  0  0  0  0  0  0  0  0  0  0  0
  146.6879  132.0687  152.4653 H   0  0  0  0  0  0  0  0  0  0  0  0
  146.5715  130.6984  150.3504 H   0  0  0  0  0  0  0  0  0  0  0  0
  145.0037  130.9040  151.1019 H   0  0  0  0  0  0  0  0  0  0  0  0
  146.0955  132.4881  148.7285 H   0  0  0  0  0  0  0  0  0  0  0  0
  144.7738  131.3418  148.6911 H   0  0  0  0  0  0  0  0  0  0  0  0
  143.9637  133.7281  148.7537 H   0  0  0  0  0  0  0  0  0  0  0  0
  143.3941  132.8313  150.1473 H   0  0  0  0  0  0  0  0  0  0  0  0
  144.0533  138.9573  152.4802 H   0  0  0  0  0  0  0  0  0  0  0  0
  1  2  1  0  0  0  0
  1 22  1  0  0  0  0
  1 23  1  0  0  0  0
  1 24  1  0  0  0  0
  2  3  1  0  0  0  0
  2  4  1  0  0  0  0
  2 25  1  0  0  0  0
  3 26  1  0  0  0  0
  4  5  1  0  0  0  0
  4 27  1  0  0  0  0
  4 28  1  0  0  0  0
  5  6  1  0  0  0  0
  5 29  1  0  0  0  0
  6 14  1  0  0  0  0
  6  7  2  0  0  0  0
  7  8  1  0  0  0  0
  7 45  1  0  0  0  0
  8 13  2  0  0  0  0
  8  9  1  0  0  0  0
  9 10  2  0  0  0  0
  9 30  1  0  0  0  0
 10 11  1  0  0  0  0
 10 31  1  0  0  0  0
 11 12  2  0  0  0  0
 11 32  1  0  0  0  0
 12 13  1  0  0  0  0
 12 33  1  0  0  0  0
 13 14  1  0  0  0  0
 14 15  1  0  0  0  0
 15 16  1  0  0  0  0
 15 34  1  0  0  0  0
 15 35  1  0  0  0  0
 16 21  1  0  0  0  0
 16 17  1  0  0  0  0
 16 36  1  0  0  0  0
 17 18  1  0  0  0  0
 17 37  1  0  0  0  0
 17 38  1  0  0  0  0
 18 19  1  0  0  0  0
 18 39  1  0  0  0  0
 18 40  1  0  0  0  0
 19 20  1  0  0  0  0
 19 41  1  0  0  0  0
 19 42  1  0  0  0  0
 20 21  1  0  0  0  0
 20 43  1  0  0  0  0
 20 44  1  0  0  0  0
M  CHG  1   7   1
M  END
> <s_m_source_file>
AV-unprocessed.smi

> <i_m_source_file_index>
573

> <i_lp_mmshare_version>
43012

> <i_f3d_flags>
0

> <s_epik_input>
W0NIM11bQ0BIXShbT0hdKVtDSDJdW05IXWMobjEpbihjKGMxMilbY0hdW2NIXVtjSF1bY0hdMilbQ0gyXVtDQEBIXTNbQ0gyXVtDSDJdW0NIMl1bQ0gyXU8z

> <s_epik_cmdline>
J2VwaWtfcHl0aG9uJywgJy1waCcsICc3LjAnLCAnLXRuJywgJzgnLCAnLW1hJywgJzIwMCcsICctbWV0YWxfYmluZGluZycsICctaW1hZScsICc8aW5maWxlLm1hZT4nLCAnLW9tYWUnLCAnPG91dGZpbGUubWFlPic=

> <r_epik_Ionization_Penalty>
0.0692245

> <r_epik_Ionization_Penalty_Charging>
0.0692223

> <r_epik_Ionization_Penalty_Neutral>
2.1869e-06

> <r_epik_State_Penalty>
0.0606215

> <r_epik_Charging_Adjusted_Penalty>
0.129844

> <i_epik_Tot_Q>
1

> <i_epik_Tot_abs_Q>
1

> <r_epik_Metal_State_Penalty>
2.77811

> <b_epik_Metal_Only>
0

> <s_lp_Force_Field>
OPLS_2005

> <r_lp_Energy>
22.2685

> <b_lp_Chiralities_Consistent>
1

> <s_lp_Variant>
AV-unprocessed.smi:573-2

> <Gold.Version>
5.8.1

> <Gold.Id.Protein>
6NUR|6NUR_protein|mol2

> <Gold.PLP.Fitness>
55.1067

> <Gold.PLP.PLP>
-40.5409

> <Gold.PLP.part.hbond>
-4.9884

> <Gold.PLP.part.metal>
0.0000

> <Gold.PLP.part.buried>
-3.8818

> <Gold.PLP.part.nonpolar>
-32.3054

> <Gold.PLP.part.repulsive>
0.2719

> <Gold.PLP.ligand.clash>
0.0000

> <Gold.PLP.ligand.torsion>
0.2247

> <Gold.PLP.Chemscore.Hbond>
5.0000

> <Gold.PLP.Chemscore.CHOScore>
0.0000

> <Gold.PLP.Chemscore.Metal>
0.0000

> <Gold.Chemscore.Hbonds>
donor molecule, donor type, donor heavy atom, donor atom, acceptor molecule, acceptor atom, score
      L1  H     3    26       P1  7948  1.00
      L1  H     5    29       P1  7948  2.00
      L1  H     7    45       P1 10175  2.00

> <Gold.PLP.Chemscore.Internal.Correction>
0.0152

> <Gold.Rescore>
     Score         DG    S(hbond)    S(metal)    S(lipo)     H(rot)  DE(clash)    DE(int)     intcor
     20.52     -20.90       2.94        0.00      93.23       2.07       0.20       0.18       ----

> <Gold.Chemscore.Fitness>
20.5217

> <Gold.Chemscore.DG>
-20.8968

> <Gold.Chemscore.ZeroCoef>
-5.4800

> <Gold.Chemscore.Hbond>
2.9366

> <Gold.Chemscore.Metal>
0.0000

> <Gold.Chemscore.Lipo>
93.2268

> <Gold.Chemscore.Internal_Hbond>
0.0000

> <Gold.Chemscore.DEClash>
0.1998

> <Gold.Chemscore.DEInternal>
0.1754

> <Gold.Chemscore.Rot>
2.0699

> <Gold.Chemscore.Internal.Correction>
   9.000000E+99

> <Gold.Chemscore.Hbonds>
donor molecule, donor type, donor heavy atom, donor atom, acceptor molecule, acceptor atom, score
      L1  H     3    26       P1  7948  0.99
      L1  H     5    29       P1  7948  1.00
      L1  H     7    45       P1 10175  0.93

> <Gold.Chemscore.Hbond.Weighted>
-9.8084

> <Gold.Chemscore.Metal.Weighted>
-0.0000

> <Gold.Chemscore.Lipo.Weighted>
-10.9075

> <Gold.Chemscore.Internal_Hbond.Weighted>
0.0000

> <Gold.Chemscore.DEClash.Weighted>
0.1998

> <Gold.Chemscore.DEInternal.Weighted>
0.1754

> <Gold.Chemscore.Rot.Weighted>
5.2991

> <Gold.Chemscore.Internal.Correction.Weighted>
   9.000000E+99

> <Gold.Protein.RotatedTorsions>
[ 6907 6896 6895 6894 ] final -121.98 input  -60.11 | X-H torsion
[ 7974 7965 7964 7962 ] final   58.51 input  175.53 | X-H torsion
[ 8008 7997 7996 7995 ] final  -91.22 input   59.86 | X-H torsion
[ 10167 10162 10161 10158 ] final  114.33 input  -65.29 | X-H torsion
[ 10718 10713 10712 10709 ] final  151.77 input   66.30 | X-H torsion
[ 10763 10752 10751 10750 ] final  -15.52 input  -60.55 | X-H torsion
[ 11005 11000 10999 10996 ] final  174.99 input  -57.11 | X-H torsion

> <Gold.Protein.ActiveResidues>
 VAL166  LYS551  ARG553  GLY616  TRP617  ASP618  TYR619  PRO620  LYS621  CYS622 
 ASP623  PHE694  ASN695  SER759  ASP760  ASP761  ALA762  ILE779  LEU786  VAL792 
 PHE793  MET794  SER795  GLU796  ALA797  LYS798  CYS799  TRP800  GLU811  SER814 

> <Gold.Protein.RotatedAtoms>
  150.8533  133.7753  159.3017 H   0  0  0  0  0  0  0  0  0  0  0  0  # atno 6907 bound_to 6896
  151.5418  135.1067  159.9938 H   0  0  0  0  0  0  0  0  0  0  0  0  # atno 6908 bound_to 6896
  152.4570  133.7700  159.6849 H   0  0  0  0  0  0  0  0  0  0  0  0  # atno 6909 bound_to 6896
  145.9173  139.3701  143.0499 H   0  0  0  0  0  0  0  0  0  0  0  0  # atno 7974 bound_to 7965
  154.7081  140.0522  157.0523 H   0  0  0  0  0  0  0  0  0  0  0  0  # atno 8008 bound_to 7997
  155.0593  140.3187  155.4647 H   0  0  0  0  0  0  0  0  0  0  0  0  # atno 8009 bound_to 7997
  156.2781  140.2102  156.5719 H   0  0  0  0  0  0  0  0  0  0  0  0  # atno 8010 bound_to 7997
  139.6396  144.7123  151.2264 H   0  0  0  0  0  0  0  0  0  0  0  0  # atno 10167 bound_to 10162
  157.2664  131.0808  151.1630 H   0  0  0  0  0  0  0  0  0  0  0  0  # atno 10718 bound_to 10713
  153.5446  135.7012  153.5620 H   0  0  0  0  0  0  0  0  0  0  0  0  # atno 10763 bound_to 10752
  153.3571  135.3980  155.1690 H   0  0  0  0  0  0  0  0  0  0  0  0  # atno 10764 bound_to 10752
  154.8669  135.3779  154.4953 H   0  0  0  0  0  0  0  0  0  0  0  0  # atno 10765 bound_to 10752
  140.3573  134.7143  157.4308 H   0  0  0  0  0  0  0  0  0  0  0  0  # atno 11005 bound_to 11000
  145.8595  140.9483  143.0707 LP  0  0  0  0  0  0  0  0  0  0  0  0  # atno 17320 bound_to 7965
  144.6749  140.0511  143.7478 LP  0  0  0  0  0  0  0  0  0  0  0  0  # atno 17321 bound_to 7965
  140.7484  143.6335  150.8401 LP  0  0  0  0  0  0  0  0  0  0  0  0  # atno 17342 bound_to 10162
  139.9971  143.5784  152.2889 LP  0  0  0  0  0  0  0  0  0  0  0  0  # atno 17343 bound_to 10162
  157.3119  130.6894  149.6220 LP  0  0  0  0  0  0  0  0  0  0  0  0  # atno 17370 bound_to 10713
  155.9663  130.4361  150.5119 LP  0  0  0  0  0  0  0  0  0  0  0  0  # atno 17371 bound_to 10713
  140.0654  134.5936  155.8701 LP  0  0  0  0  0  0  0  0  0  0  0  0  # atno 17394 bound_to 11000
  141.1994  133.6607  156.5844 LP  0  0  0  0  0  0  0  0  0  0  0  0  # atno 17395 bound_to 11000

$$$$
