AV-unprocessed.smi:3034|AV-procd|sdf|11579|dock5
  -GOLD-   2272016543D 1   1.00000     0.00000
 Structure written by MMmdl.
 31 31  0  0  0  0  0  0  0  0  2 V2000
  150.1393  135.3514  154.8890 C   0  0  0  0  0  0  0  0  0  0  0  0
  150.9177  136.4656  155.5967 C   0  0  0  0  0  0  0  0  0  0  0  0
  151.5858  137.4257  154.6052 C   0  0  0  0  0  0  0  0  0  0  0  0
  151.6896  139.1404  155.2913 S   0  0  0  0  0  0  0  0  0  0  0  0
  153.1243  139.4546  155.3995 O   0  0  0  0  0  0  0  0  0  0  0  0
  150.9075  139.9713  154.3633 O   0  0  0  0  0  0  0  0  0  0  0  0
  150.9362  138.9985  156.7265 N   0  5  0  0  0  0  0  0  0  0  0  0
  150.7423  140.1492  157.6025 C   0  0  0  0  0  0  0  0  0  0  0  0
  152.1069  140.7616  158.0154 C   0  0  2  0  0  0  0  0  0  0  0  0
  152.6970  139.9114  158.9807 O   0  0  0  0  0  0  0  0  0  0  0  0
  152.0380  142.2144  158.4991 C   0  0  0  0  0  0  0  0  0  0  0  0
  152.4675  142.5506  159.8039 C   0  0  0  0  0  0  0  0  0  0  0  0
  152.4030  143.8958  160.2140 C   0  0  0  0  0  0  0  0  0  0  0  0
  151.9040  144.8563  159.3143 C   0  0  0  0  0  0  0  0  0  0  0  0
  151.4854  144.4258  158.0404 C   0  0  0  0  0  0  0  0  0  0  0  0
  151.5420  143.1388  157.6374 N   0  0  0  0  0  0  0  0  0  0  0  0
  149.6745  134.6814  155.6124 H   0  0  0  0  0  0  0  0  0  0  0  0
  150.7964  134.7546  154.2555 H   0  0  0  0  0  0  0  0  0  0  0  0
  149.3498  135.7626  154.2597 H   0  0  0  0  0  0  0  0  0  0  0  0
  150.2421  137.0234  156.2461 H   0  0  0  0  0  0  0  0  0  0  0  0
  151.6738  136.0218  156.2450 H   0  0  0  0  0  0  0  0  0  0  0  0
  152.5972  137.0926  154.3749 H   0  0  0  0  0  0  0  0  0  0  0  0
  151.0207  137.4577  153.6743 H   0  0  0  0  0  0  0  0  0  0  0  0
  150.1321  140.9257  157.1394 H   0  0  0  0  0  0  0  0  0  0  0  0
  150.1997  139.8518  158.5008 H   0  0  0  0  0  0  0  0  0  0  0  0
  152.7719  140.7309  157.1510 H   0  0  0  0  0  0  0  0  0  0  0  0
  153.4498  139.4973  158.5885 H   0  0  0  0  0  0  0  0  0  0  0  0
  152.8556  141.7946  160.4705 H   0  0  0  0  0  0  0  0  0  0  0  0
  152.7337  144.1857  161.2001 H   0  0  0  0  0  0  0  0  0  0  0  0
  151.8431  145.8976  159.5937 H   0  0  0  0  0  0  0  0  0  0  0  0
  151.0944  145.1344  157.3254 H   0  0  0  0  0  0  0  0  0  0  0  0
  1  2  1  0  0  0  0
  1 17  1  0  0  0  0
  1 18  1  0  0  0  0
  1 19  1  0  0  0  0
  2  3  1  0  0  0  0
  2 20  1  0  0  0  0
  2 21  1  0  0  0  0
  3  4  1  0  0  0  0
  3 22  1  0  0  0  0
  3 23  1  0  0  0  0
  4  5  2  0  0  0  0
  4  6  2  0  0  0  0
  4  7  1  0  0  0  0
  7  8  1  0  0  0  0
  8  9  1  0  0  0  0
  8 24  1  0  0  0  0
  8 25  1  0  0  0  0
  9 10  1  0  0  0  0
  9 11  1  0  0  0  0
  9 26  1  0  0  0  0
 10 27  1  0  0  0  0
 11 16  1  0  0  0  0
 11 12  2  0  0  0  0
 12 13  1  0  0  0  0
 12 28  1  0  0  0  0
 13 14  2  0  0  0  0
 13 29  1  0  0  0  0
 14 15  1  0  0  0  0
 14 30  1  0  0  0  0
 15 16  2  0  0  0  0
 15 31  1  0  0  0  0
M  CHG  1   7  -1
M  END
> <s_m_source_file>
AV-unprocessed.smi

> <i_m_source_file_index>
3034

> <i_lp_mmshare_version>
43012

> <i_f3d_flags>
0

> <s_epik_input>
W0NIM11bQ0gyXVtDSDJdUyg9TykoPU8pW05IXVtDSDJdW0NASF0oW09IXSljMVtjSF1bY0hdW2NIXVtjSF1uMQ==

> <s_epik_cmdline>
J2VwaWtfcHl0aG9uJywgJy1waCcsICc3LjAnLCAnLXRuJywgJzgnLCAnLW1hJywgJzIwMCcsICctbWV0YWxfYmluZGluZycsICctaW1hZScsICc8aW5maWxlLm1hZT4nLCAnLW9tYWUnLCAnPG91dGZpbGUubWFlPic=

> <r_epik_Ionization_Penalty>
6.18156

> <r_epik_Ionization_Penalty_Charging>
6.17474

> <r_epik_Ionization_Penalty_Neutral>
0.0068235

> <r_epik_State_Penalty>
6.17598

> <r_epik_Charging_Adjusted_Penalty>
12.3507

> <i_epik_Tot_Q>
-1

> <i_epik_Tot_abs_Q>
1

> <r_epik_Metal_State_Penalty>
2.11803

> <b_epik_Metal_Only>
1

> <s_lp_Force_Field>
OPLS_2005

> <r_lp_Energy>
-0.388479

> <b_lp_Chiralities_Consistent>
1

> <s_lp_Variant>
AV-unprocessed.smi:3034-3

> <Gold.Version>
5.8.1

> <Gold.Id.Protein>
6NUR|6NUR_protein|mol2

> <Gold.PLP.Fitness>
43.0302

> <Gold.PLP.PLP>
-35.0103

> <Gold.PLP.part.hbond>
-2.7924

> <Gold.PLP.part.metal>
0.0000

> <Gold.PLP.part.buried>
-6.3048

> <Gold.PLP.part.nonpolar>
-27.7215

> <Gold.PLP.part.repulsive>
0.2259

> <Gold.PLP.ligand.clash>
0.0000

> <Gold.PLP.ligand.torsion>
1.0096

> <Gold.PLP.Chemscore.Hbond>
2.0000

> <Gold.PLP.Chemscore.CHOScore>
0.9949

> <Gold.PLP.Chemscore.Metal>
0.0000

> <Gold.Chemscore.Hbonds>
donor molecule, donor type, donor heavy atom, donor atom, acceptor molecule, acceptor atom, score
      P1  H  7989  7998       L1     6  0.78
      P1  H  7997  8008       L1     5  1.00
      L1  C    15    31       P1  8028  0.43

> <Gold.PLP.Chemscore.Internal.Correction>
1.0543

> <Gold.Rescore>
     Score         DG    S(hbond)    S(metal)    S(lipo)     H(rot)  DE(clash)    DE(int)     intcor
     15.38     -16.46       1.99        0.00      87.09       2.29       0.01       1.07       ----

> <Gold.Chemscore.Fitness>
15.3838

> <Gold.Chemscore.DG>
-16.4605

> <Gold.Chemscore.ZeroCoef>
-5.4800

> <Gold.Chemscore.Hbond>
1.9918

> <Gold.Chemscore.Metal>
0.0000

> <Gold.Chemscore.Lipo>
87.0871

> <Gold.Chemscore.Internal_Hbond>
0.0000

> <Gold.Chemscore.DEClash>
0.0110

> <Gold.Chemscore.DEInternal>
1.0657

> <Gold.Chemscore.Rot>
2.2895

> <Gold.Chemscore.Internal.Correction>
   9.000000E+99

> <Gold.Chemscore.Hbonds>
donor molecule, donor type, donor heavy atom, donor atom, acceptor molecule, acceptor atom, score
      P1  H  7989  7998       L1     6  0.73
      P1  H  7997  8008       L1     5  0.98

> <Gold.Chemscore.Hbond.Weighted>
-6.6526

> <Gold.Chemscore.Metal.Weighted>
-0.0000

> <Gold.Chemscore.Lipo.Weighted>
-10.1892

> <Gold.Chemscore.Internal_Hbond.Weighted>
0.0000

> <Gold.Chemscore.DEClash.Weighted>
0.0110

> <Gold.Chemscore.DEInternal.Weighted>
1.0657

> <Gold.Chemscore.Rot.Weighted>
5.8612

> <Gold.Chemscore.Internal.Correction.Weighted>
   9.000000E+99

> <Gold.Protein.RotatedTorsions>
[ 6907 6896 6895 6894 ] final    6.85 input  -60.11 | X-H torsion
[ 7974 7965 7964 7962 ] final  125.71 input  175.53 | X-H torsion
[ 8008 7997 7996 7995 ] final  -30.29 input   59.86 | X-H torsion
[ 10167 10162 10161 10158 ] final  -27.65 input  -65.29 | X-H torsion
[ 10718 10713 10712 10709 ] final  -96.32 input   66.30 | X-H torsion
[ 10763 10752 10751 10750 ] final    2.44 input  -60.55 | X-H torsion
[ 11005 11000 10999 10996 ] final   66.81 input  -57.11 | X-H torsion

> <Gold.Protein.ActiveResidues>
 VAL166  LYS551  ARG553  GLY616  TRP617  ASP618  TYR619  PRO620  LYS621  CYS622 
 ASP623  PHE694  ASN695  SER759  ASP760  ASP761  ALA762  ILE779  LEU786  VAL792 
 PHE793  MET794  SER795  GLU796  ALA797  LYS798  CYS799  TRP800  GLU811  SER814 

> <Gold.Protein.RotatedAtoms>
  151.6804  135.0962  160.0214 H   0  0  0  0  0  0  0  0  0  0  0  0  # atno 6907 bound_to 6896
  152.3839  133.6579  159.6191 H   0  0  0  0  0  0  0  0  0  0  0  0  # atno 6908 bound_to 6896
  150.7769  133.8985  159.3375 H   0  0  0  0  0  0  0  0  0  0  0  0  # atno 6909 bound_to 6896
  145.0699  139.3738  143.4963 H   0  0  0  0  0  0  0  0  0  0  0  0  # atno 7974 bound_to 7965
  154.4256  140.1795  156.1384 H   0  0  0  0  0  0  0  0  0  0  0  0  # atno 8008 bound_to 7997
  156.0011  140.3360  155.6822 H   0  0  0  0  0  0  0  0  0  0  0  0  # atno 8009 bound_to 7997
  155.6241  140.0663  157.2660 H   0  0  0  0  0  0  0  0  0  0  0  0  # atno 8010 bound_to 7997
  140.7276  143.4075  151.1160 H   0  0  0  0  0  0  0  0  0  0  0  0  # atno 10167 bound_to 10162
  156.0060  130.5146  150.6208 H   0  0  0  0  0  0  0  0  0  0  0  0  # atno 10718 bound_to 10713
  153.2956  135.6952  153.7252 H   0  0  0  0  0  0  0  0  0  0  0  0  # atno 10763 bound_to 10752
  153.6186  135.3431  155.3004 H   0  0  0  0  0  0  0  0  0  0  0  0  # atno 10764 bound_to 10752
  154.8536  135.4380  154.2052 H   0  0  0  0  0  0  0  0  0  0  0  0  # atno 10765 bound_to 10752
  139.9809  134.6746  156.0265 H   0  0  0  0  0  0  0  0  0  0  0  0  # atno 11005 bound_to 11000
  146.3528  140.0439  142.8641 LP  0  0  0  0  0  0  0  0  0  0  0  0  # atno 17320 bound_to 7965
  145.1305  140.9515  143.4547 LP  0  0  0  0  0  0  0  0  0  0  0  0  # atno 17321 bound_to 7965
  139.7704  143.8502  152.3119 LP  0  0  0  0  0  0  0  0  0  0  0  0  # atno 17342 bound_to 10162
  139.8419  144.7206  150.9321 LP  0  0  0  0  0  0  0  0  0  0  0  0  # atno 17343 bound_to 10162
  157.4024  131.0812  151.1296 LP  0  0  0  0  0  0  0  0  0  0  0  0  # atno 17370 bound_to 10713
  157.1954  130.6370  149.5719 LP  0  0  0  0  0  0  0  0  0  0  0  0  # atno 17371 bound_to 10713
  141.1481  133.6552  156.3928 LP  0  0  0  0  0  0  0  0  0  0  0  0  # atno 17394 bound_to 11000
  140.5099  134.6405  157.5280 LP  0  0  0  0  0  0  0  0  0  0  0  0  # atno 17395 bound_to 11000

$$$$
