AV-unprocessed.smi:2536|AV-procd|sdf|9979|dock10
  -GOLD-   2272014 23D 1   1.00000     0.00000
 Structure written by MMmdl.
 32 33  0  0  0  0  0  0  0  0  1 V2000
  151.0697  137.5798  154.1657 C   0  0  0  0  0  0  0  0  0  0  0  0
  151.0079  138.9288  154.8564 C   0  0  0  0  0  0  0  0  0  0  0  0
  150.0777  139.9087  154.4483 C   0  0  0  0  0  0  0  0  0  0  0  0
  150.0052  141.1185  155.0440 N   0  0  0  0  0  0  0  0  0  0  0  0
  150.8569  141.3544  156.0439 C   0  0  0  0  0  0  0  0  0  0  0  0
  150.7561  142.6056  156.6257 N   0  0  0  0  0  0  0  0  0  0  0  0
  151.5888  143.0919  157.7188 C   0  0  1  0  0  0  0  0  0  0  0  0
  151.3868  144.5979  157.9610 C   0  0  0  0  0  0  0  0  0  0  0  0
  152.2071  145.0426  159.1763 C   0  0  0  0  0  0  0  0  0  0  0  0
  151.8834  144.1603  160.3921 C   0  0  0  0  0  0  0  0  0  0  0  0
  152.1159  142.7921  160.0737 O   0  0  0  0  0  0  0  0  0  0  0  0
  151.2904  142.3160  159.0154 C   0  0  0  0  0  0  0  0  0  0  0  0
  151.7750  140.5037  156.5163 N   0  0  0  0  0  0  0  0  0  0  0  0
  151.8589  139.2890  155.9300 C   0  0  0  0  0  0  0  0  0  0  0  0
  152.9197  138.3641  156.4991 C   0  0  0  0  0  0  0  0  0  0  0  0
  150.3415  137.5187  153.3564 H   0  0  0  0  0  0  0  0  0  0  0  0
  150.8544  136.7786  154.8731 H   0  0  0  0  0  0  0  0  0  0  0  0
  152.0601  137.4144  153.7409 H   0  0  0  0  0  0  0  0  0  0  0  0
  149.3875  139.7253  153.6381 H   0  0  0  0  0  0  0  0  0  0  0  0
  150.1078  143.2540  156.2033 H   0  0  0  0  0  0  0  0  0  0  0  0
  152.6331  142.9141  157.4586 H   0  0  0  0  0  0  0  0  0  0  0  0
  151.6790  145.1767  157.0845 H   0  0  0  0  0  0  0  0  0  0  0  0
  150.3311  144.8084  158.1378 H   0  0  0  0  0  0  0  0  0  0  0  0
  153.2708  144.9709  158.9465 H   0  0  0  0  0  0  0  0  0  0  0  0
  152.0054  146.0894  159.4048 H   0  0  0  0  0  0  0  0  0  0  0  0
  152.5156  144.4379  161.2357 H   0  0  0  0  0  0  0  0  0  0  0  0
  150.8489  144.3001  160.7096 H   0  0  0  0  0  0  0  0  0  0  0  0
  150.2392  142.4055  159.2955 H   0  0  0  0  0  0  0  0  0  0  0  0
  151.4916  141.2539  158.8725 H   0  0  0  0  0  0  0  0  0  0  0  0
  152.8996  137.3716  156.0519 H   0  0  0  0  0  0  0  0  0  0  0  0
  152.7768  138.2468  157.5737 H   0  0  0  0  0  0  0  0  0  0  0  0
  153.9105  138.7876  156.3332 H   0  0  0  0  0  0  0  0  0  0  0  0
  1  2  1  0  0  0  0
  1 16  1  0  0  0  0
  1 17  1  0  0  0  0
  1 18  1  0  0  0  0
  2 14  1  0  0  0  0
  2  3  2  0  0  0  0
  3  4  1  0  0  0  0
  3 19  1  0  0  0  0
  4  5  2  0  0  0  0
  5  6  1  0  0  0  0
  5 13  1  0  0  0  0
  6  7  1  0  0  0  0
  6 20  1  0  0  0  0
  7 12  1  0  0  0  0
  7  8  1  0  0  0  0
  7 21  1  0  0  0  0
  8  9  1  0  0  0  0
  8 22  1  0  0  0  0
  8 23  1  0  0  0  0
  9 10  1  0  0  0  0
  9 24  1  0  0  0  0
  9 25  1  0  0  0  0
 10 11  1  0  0  0  0
 10 26  1  0  0  0  0
 10 27  1  0  0  0  0
 11 12  1  0  0  0  0
 12 28  1  0  0  0  0
 12 29  1  0  0  0  0
 13 14  2  0  0  0  0
 14 15  1  0  0  0  0
 15 30  1  0  0  0  0
 15 31  1  0  0  0  0
 15 32  1  0  0  0  0
M  END
> <s_m_source_file>
AV-unprocessed.smi

> <i_m_source_file_index>
2536

> <i_lp_mmshare_version>
43012

> <i_f3d_flags>
0

> <s_epik_input>
W0NIM11jMVtjSF1uYyhuYzFbQ0gzXSlbTkhdW0NAQEhdMltDSDJdW0NIMl1bQ0gyXU9bQ0gyXTI=

> <s_epik_cmdline>
J2VwaWtfcHl0aG9uJywgJy1waCcsICc3LjAnLCAnLXRuJywgJzgnLCAnLW1hJywgJzIwMCcsICctbWV0YWxfYmluZGluZycsICctaW1hZScsICc8aW5maWxlLm1hZT4nLCAnLW9tYWUnLCAnPG91dGZpbGUubWFlPic=

> <r_lp_tautomer_probability>
1

> <r_epik_Ionization_Penalty>
0.00982357

> <r_epik_Ionization_Penalty_Charging>
0

> <r_epik_Ionization_Penalty_Neutral>
0.00982357

> <r_epik_State_Penalty>
0.0064698

> <r_epik_Charging_Adjusted_Penalty>
0.0064698

> <i_epik_Tot_Q>
0

> <i_epik_Tot_abs_Q>
0

> <r_epik_Metal_State_Penalty>
-0

> <b_epik_Metal_Only>
0

> <s_lp_Force_Field>
OPLS_2005

> <r_lp_Energy>
1.83983

> <b_lp_Chiralities_Consistent>
1

> <s_lp_Variant>
AV-unprocessed.smi:2536-2

> <Gold.Version>
5.8.1

> <Gold.Id.Protein>
6NUR|6NUR_protein|mol2

> <Gold.PLP.Fitness>
39.2607

> <Gold.PLP.PLP>
-33.4127

> <Gold.PLP.part.hbond>
-2.0000

> <Gold.PLP.part.metal>
0.0000

> <Gold.PLP.part.buried>
-0.4839

> <Gold.PLP.part.nonpolar>
-30.2686

> <Gold.PLP.part.repulsive>
0.1833

> <Gold.PLP.ligand.clash>
0.0000

> <Gold.PLP.ligand.torsion>
0.0775

> <Gold.PLP.Chemscore.Hbond>
1.0000

> <Gold.PLP.Chemscore.CHOScore>
1.0000

> <Gold.PLP.Chemscore.Metal>
0.0000

> <Gold.Chemscore.Hbonds>
donor molecule, donor type, donor heavy atom, donor atom, acceptor molecule, acceptor atom, score
      L1  H     6    20       P1  8028  1.00
      L1  C     3    19       P1  7957  1.00

> <Gold.PLP.Chemscore.Internal.Correction>
0.0029

> <Gold.Rescore>
     Score         DG    S(hbond)    S(metal)    S(lipo)     H(rot)  DE(clash)    DE(int)     intcor
     17.22     -17.36       1.00        0.00      94.92       1.00       0.05       0.10       ----

> <Gold.Chemscore.Fitness>
17.2185

> <Gold.Chemscore.DG>
-17.3648

> <Gold.Chemscore.ZeroCoef>
-5.4800

> <Gold.Chemscore.Hbond>
0.9997

> <Gold.Chemscore.Metal>
0.0000

> <Gold.Chemscore.Lipo>
94.9224

> <Gold.Chemscore.Internal_Hbond>
0.0000

> <Gold.Chemscore.DEClash>
0.0497

> <Gold.Chemscore.DEInternal>
0.0965

> <Gold.Chemscore.Rot>
1.0000

> <Gold.Chemscore.Internal.Correction>
   9.000000E+99

> <Gold.Chemscore.Hbonds>
donor molecule, donor type, donor heavy atom, donor atom, acceptor molecule, acceptor atom, score
      L1  H     6    20       P1  8028  0.97

> <Gold.Chemscore.Hbond.Weighted>
-3.3389

> <Gold.Chemscore.Metal.Weighted>
-0.0000

> <Gold.Chemscore.Lipo.Weighted>
-11.1059

> <Gold.Chemscore.Internal_Hbond.Weighted>
0.0000

> <Gold.Chemscore.DEClash.Weighted>
0.0497

> <Gold.Chemscore.DEInternal.Weighted>
0.0965

> <Gold.Chemscore.Rot.Weighted>
2.5600

> <Gold.Chemscore.Internal.Correction.Weighted>
   9.000000E+99

> <Gold.Protein.RotatedTorsions>
[ 6907 6896 6895 6894 ] final   39.35 input  -60.11 | X-H torsion
[ 7974 7965 7964 7962 ] final   57.68 input  175.53 | X-H torsion
[ 8008 7997 7996 7995 ] final -174.21 input   59.86 | X-H torsion
[ 10167 10162 10161 10158 ] final -120.64 input  -65.29 | X-H torsion
[ 10718 10713 10712 10709 ] final   84.31 input   66.30 | X-H torsion
[ 10763 10752 10751 10750 ] final  -48.85 input  -60.55 | X-H torsion
[ 11005 11000 10999 10996 ] final   33.66 input  -57.11 | X-H torsion

> <Gold.Protein.ActiveResidues>
 VAL166  LYS551  ARG553  GLY616  TRP617  ASP618  TYR619  PRO620  LYS621  CYS622 
 ASP623  PHE694  ASN695  SER759  ASP760  ASP761  ALA762  ILE779  LEU786  VAL792 
 PHE793  MET794  SER795  GLU796  ALA797  LYS798  CYS799  TRP800  GLU811  SER814 

> <Gold.Protein.RotatedAtoms>
  152.1684  134.8854  160.0536 H   0  0  0  0  0  0  0  0  0  0  0  0  # atno 6907 bound_to 6896
  151.9823  133.3757  159.4120 H   0  0  0  0  0  0  0  0  0  0  0  0  # atno 6908 bound_to 6896
  150.6898  134.3948  159.5136 H   0  0  0  0  0  0  0  0  0  0  0  0  # atno 6909 bound_to 6896
  145.9264  139.3771  143.0447 H   0  0  0  0  0  0  0  0  0  0  0  0  # atno 7974 bound_to 7965
  155.9672  140.1156  157.0844 H   0  0  0  0  0  0  0  0  0  0  0  0  # atno 8008 bound_to 7997
  154.4147  140.1170  156.5325 H   0  0  0  0  0  0  0  0  0  0  0  0  # atno 8009 bound_to 7997
  155.6644  140.3473  155.4797 H   0  0  0  0  0  0  0  0  0  0  0  0  # atno 8010 bound_to 7997
  140.0337  143.5223  152.2164 H   0  0  0  0  0  0  0  0  0  0  0  0  # atno 10167 bound_to 10162
  157.6896  131.0128  150.2654 H   0  0  0  0  0  0  0  0  0  0  0  0  # atno 10718 bound_to 10713
  154.0845  135.6586  153.4843 H   0  0  0  0  0  0  0  0  0  0  0  0  # atno 10763 bound_to 10752
  153.0344  135.5187  154.7442 H   0  0  0  0  0  0  0  0  0  0  0  0  # atno 10764 bound_to 10752
  154.6546  135.3006  154.9911 H   0  0  0  0  0  0  0  0  0  0  0  0  # atno 10765 bound_to 10752
  140.2608  134.3194  155.7858 H   0  0  0  0  0  0  0  0  0  0  0  0  # atno 11005 bound_to 11000
  145.8483  140.9543  143.0763 LP  0  0  0  0  0  0  0  0  0  0  0  0  # atno 17320 bound_to 7965
  144.6759  140.0374  143.7481 LP  0  0  0  0  0  0  0  0  0  0  0  0  # atno 17321 bound_to 7965
  139.6059  144.7596  151.3062 LP  0  0  0  0  0  0  0  0  0  0  0  0  # atno 17342 bound_to 10162
  140.7291  143.6917  150.7916 LP  0  0  0  0  0  0  0  0  0  0  0  0  # atno 17343 bound_to 10162
  156.3226  130.3788  149.7561 LP  0  0  0  0  0  0  0  0  0  0  0  0  # atno 17370 bound_to 10713
  156.5127  130.8179  151.3174 LP  0  0  0  0  0  0  0  0  0  0  0  0  # atno 17371 bound_to 10713
  141.2190  133.7408  156.9184 LP  0  0  0  0  0  0  0  0  0  0  0  0  # atno 17394 bound_to 11000
  140.1466  134.9258  157.2538 LP  0  0  0  0  0  0  0  0  0  0  0  0  # atno 17395 bound_to 11000

$$$$
