AV-unprocessed.smi:1406|AV-procd|sdf|5724|dock1
  -GOLD-   22720 5353D 1   1.00000     0.00000
 Structure written by MMmdl.
 41 43  0  0  0  0  0  0  0  0  2 V2000
  154.1037  137.5453  161.1215 C   0  0  0  0  0  0  0  0  0  0  0  0
  153.5325  137.6254  159.6913 C   0  0  1  0  0  0  0  0  0  0  0  0
  153.6363  139.0376  159.0954 C   0  0  0  0  0  0  0  0  0  0  0  0
  154.7342  139.5706  158.9310 O   0  0  0  0  0  0  0  0  0  0  0  0
  152.4770  139.6350  158.7772 N   0  0  0  0  0  0  0  0  0  0  0  0
  152.3460  140.9712  158.2046 C   0  0  1  0  0  0  0  0  0  0  0  0
  151.3035  141.0458  157.0956 C   0  0  0  0  0  0  0  0  0  0  0  0
  151.0090  142.5452  157.0308 C   0  0  0  0  0  0  0  0  0  0  0  0
  151.1349  143.0445  158.4192 N   0  3  2  0  0  0  0  0  0  0  0  0
  151.6752  144.4212  158.5338 C   0  0  0  0  0  0  0  0  0  0  0  0
  151.7523  144.8534  160.0096 C   0  0  0  0  0  0  0  0  0  0  0  0
  152.4637  143.8183  160.9062 C   0  0  0  0  0  0  0  0  0  0  0  0
  152.9598  142.5979  160.1149 C   0  0  0  0  0  0  0  0  0  0  0  0
  151.8426  142.0080  159.2240 C   0  0  2  0  0  0  0  0  0  0  0  0
  154.1454  136.6541  158.7936 N   0  0  0  0  0  0  0  0  0  0  0  0
  154.7660  136.8386  157.6263 C   0  0  0  0  0  0  0  0  0  0  0  0
  155.2542  135.7275  157.0934 N   0  0  0  0  0  0  0  0  0  0  0  0
  154.8823  134.8313  158.0549 C   0  0  0  0  0  0  0  0  0  0  0  0
  154.2265  135.3351  159.1002 N   0  0  0  0  0  0  0  0  0  0  0  0
  153.6001  138.2494  161.7847 H   0  0  0  0  0  0  0  0  0  0  0  0
  155.1707  137.7697  161.1522 H   0  0  0  0  0  0  0  0  0  0  0  0
  153.9644  136.5479  161.5392 H   0  0  0  0  0  0  0  0  0  0  0  0
  152.4725  137.3736  159.7566 H   0  0  0  0  0  0  0  0  0  0  0  0
  151.6221  139.1234  158.9427 H   0  0  0  0  0  0  0  0  0  0  0  0
  153.2999  141.2982  157.7847 H   0  0  0  0  0  0  0  0  0  0  0  0
  151.6607  140.6435  156.1471 H   0  0  0  0  0  0  0  0  0  0  0  0
  150.4019  140.5000  157.3792 H   0  0  0  0  0  0  0  0  0  0  0  0
  151.7503  143.0294  156.3927 H   0  0  0  0  0  0  0  0  0  0  0  0
  150.0234  142.7606  156.6175 H   0  0  0  0  0  0  0  0  0  0  0  0
  152.6649  144.4682  158.0763 H   0  0  0  0  0  0  0  0  0  0  0  0
  151.0393  145.1094  157.9759 H   0  0  0  0  0  0  0  0  0  0  0  0
  152.2590  145.8165  160.0801 H   0  0  0  0  0  0  0  0  0  0  0  0
  150.7430  145.0184  160.3889 H   0  0  0  0  0  0  0  0  0  0  0  0
  153.3005  144.2847  161.4272 H   0  0  0  0  0  0  0  0  0  0  0  0
  151.7741  143.4841  161.6825 H   0  0  0  0  0  0  0  0  0  0  0  0
  153.8126  142.8909  159.5007 H   0  0  0  0  0  0  0  0  0  0  0  0
  153.3330  141.8397  160.8035 H   0  0  0  0  0  0  0  0  0  0  0  0
  151.0830  141.5518  159.8611 H   0  0  0  0  0  0  0  0  0  0  0  0
  154.8668  137.8067  157.1582 H   0  0  0  0  0  0  0  0  0  0  0  0
  155.1085  133.7775  157.9867 H   0  0  0  0  0  0  0  0  0  0  0  0
  150.1981  143.0793  158.7953 H   0  0  0  0  0  0  0  0  0  0  0  0
  1  2  1  0  0  0  0
  1 20  1  0  0  0  0
  1 21  1  0  0  0  0
  1 22  1  0  0  0  0
  2  3  1  0  0  0  0
  2 15  1  0  0  0  0
  2 23  1  0  0  0  0
  3  4  2  0  0  0  0
  3  5  1  0  0  0  0
  5  6  1  0  0  0  0
  5 24  1  0  0  0  0
  6 14  1  0  0  0  0
  6  7  1  0  0  0  0
  6 25  1  0  0  0  0
  7  8  1  0  0  0  0
  7 26  1  0  0  0  0
  7 27  1  0  0  0  0
  8  9  1  0  0  0  0
  8 28  1  0  0  0  0
  8 29  1  0  0  0  0
  9 14  1  0  0  0  0
  9 10  1  0  0  0  0
  9 41  1  0  0  0  0
 10 11  1  0  0  0  0
 10 30  1  0  0  0  0
 10 31  1  0  0  0  0
 11 12  1  0  0  0  0
 11 32  1  0  0  0  0
 11 33  1  0  0  0  0
 12 13  1  0  0  0  0
 12 34  1  0  0  0  0
 12 35  1  0  0  0  0
 13 14  1  0  0  0  0
 13 36  1  0  0  0  0
 13 37  1  0  0  0  0
 14 38  1  0  0  0  0
 15 19  1  0  0  0  0
 15 16  1  0  0  0  0
 16 17  2  0  0  0  0
 16 39  1  0  0  0  0
 17 18  1  0  0  0  0
 18 19  2  0  0  0  0
 18 40  1  0  0  0  0
M  CHG  1   9   1
M  END
> <s_m_source_file>
AV-unprocessed.smi

> <i_m_source_file_index>
1406

> <i_lp_mmshare_version>
43012

> <i_f3d_flags>
0

> <s_epik_input>
bjFbY0hdbltjSF1uMVtDQEhdKFtDSDNdKUMoPU8pW05IXVtDQEhdKFtDSDJdW0NIMl0yKVtDQEBIXShOMjMpW0NIMl1bQ0gyXVtDSDJdW0NIMl0z

> <s_epik_cmdline>
J2VwaWtfcHl0aG9uJywgJy1waCcsICc3LjAnLCAnLXRuJywgJzgnLCAnLW1hJywgJzIwMCcsICctbWV0YWxfYmluZGluZycsICctaW1hZScsICc8aW5maWxlLm1hZT4nLCAnLW9tYWUnLCAnPG91dGZpbGUubWFlPic=

> <r_lp_tautomer_probability>
1

> <r_epik_Ionization_Penalty>
0.00197066

> <r_epik_Ionization_Penalty_Charging>
0.00196223

> <r_epik_Ionization_Penalty_Neutral>
8.43107e-06

> <r_epik_State_Penalty>
0.00133866

> <r_epik_Charging_Adjusted_Penalty>
0.00330089

> <i_epik_Tot_Q>
1

> <i_epik_Tot_abs_Q>
1

> <r_epik_Metal_State_Penalty>
-0

> <b_epik_Metal_Only>
0

> <s_lp_Force_Field>
OPLS_2005

> <r_lp_Energy>
45.3415

> <b_lp_Chiralities_Consistent>
1

> <s_lp_Variant>
AV-unprocessed.smi:1406-16

> <Gold.Version>
5.8.1

> <Gold.Id.Protein>
6NUR|6NUR_protein|mol2

> <Gold.PLP.Fitness>
44.5770

> <Gold.PLP.PLP>
-36.0462

> <Gold.PLP.part.hbond>
-3.0000

> <Gold.PLP.part.metal>
0.0000

> <Gold.PLP.part.buried>
-5.3348

> <Gold.PLP.part.nonpolar>
-27.2854

> <Gold.PLP.part.repulsive>
0.1485

> <Gold.PLP.ligand.clash>
0.0000

> <Gold.PLP.ligand.torsion>
0.2859

> <Gold.PLP.Chemscore.Hbond>
3.0000

> <Gold.PLP.Chemscore.CHOScore>
0.0000

> <Gold.PLP.Chemscore.Metal>
0.0000

> <Gold.Chemscore.Hbonds>
donor molecule, donor type, donor heavy atom, donor atom, acceptor molecule, acceptor atom, score
      P1  H  6896  6907       L1    19  0.93
      P1  H  7997  8009       L1     4  1.00
      P1  H 10752 10763       L1    17  0.96

> <Gold.PLP.Chemscore.Internal.Correction>
0.1026

> <Gold.Rescore>
     Score         DG    S(hbond)    S(metal)    S(lipo)     H(rot)  DE(clash)    DE(int)     intcor
     20.12     -20.53       2.79        0.00      90.39       1.89       0.00       0.41       ----

> <Gold.Chemscore.Fitness>
20.1165

> <Gold.Chemscore.DG>
-20.5311

> <Gold.Chemscore.ZeroCoef>
-5.4800

> <Gold.Chemscore.Hbond>
2.7861

> <Gold.Chemscore.Metal>
0.0000

> <Gold.Chemscore.Lipo>
90.3867

> <Gold.Chemscore.Internal_Hbond>
0.0000

> <Gold.Chemscore.DEClash>
0.0000

> <Gold.Chemscore.DEInternal>
0.4146

> <Gold.Chemscore.Rot>
1.8865

> <Gold.Chemscore.Internal.Correction>
   9.000000E+99

> <Gold.Chemscore.Hbonds>
donor molecule, donor type, donor heavy atom, donor atom, acceptor molecule, acceptor atom, score
      P1  H  6896  6907       L1    19  0.82
      P1  H  7997  8009       L1     4  0.74
      P1  H 10752 10763       L1    17  0.64

> <Gold.Chemscore.Hbond.Weighted>
-9.3054

> <Gold.Chemscore.Metal.Weighted>
-0.0000

> <Gold.Chemscore.Lipo.Weighted>
-10.5752

> <Gold.Chemscore.Internal_Hbond.Weighted>
0.0000

> <Gold.Chemscore.DEClash.Weighted>
0.0000

> <Gold.Chemscore.DEInternal.Weighted>
0.4146

> <Gold.Chemscore.Rot.Weighted>
4.8295

> <Gold.Chemscore.Internal.Correction.Weighted>
   9.000000E+99

> <Gold.Protein.RotatedTorsions>
[ 6907 6896 6895 6894 ] final   75.04 input  -60.11 | X-H torsion
[ 7974 7965 7964 7962 ] final -142.51 input  175.53 | X-H torsion
[ 8008 7997 7996 7995 ] final  132.25 input   59.86 | X-H torsion
[ 10167 10162 10161 10158 ] final   56.34 input  -65.29 | X-H torsion
[ 10718 10713 10712 10709 ] final -115.39 input   66.30 | X-H torsion
[ 10763 10752 10751 10750 ] final  169.91 input  -60.55 | X-H torsion
[ 11005 11000 10999 10996 ] final -129.32 input  -57.11 | X-H torsion

> <Gold.Protein.ActiveResidues>
 VAL166  LYS551  ARG553  GLY616  TRP617  ASP618  TYR619  PRO620  LYS621  CYS622 
 ASP623  PHE694  ASN695  SER759  ASP760  ASP761  ALA762  ILE779  LEU786  VAL792 
 PHE793  MET794  SER795  GLU796  ALA797  LYS798  CYS799  TRP800  GLU811  SER814 

> <Gold.Protein.RotatedAtoms>
  152.5006  134.4181  159.9470 H   0  0  0  0  0  0  0  0  0  0  0  0  # atno 6907 bound_to 6896
  151.4152  133.3709  159.2757 H   0  0  0  0  0  0  0  0  0  0  0  0  # atno 6908 bound_to 6896
  150.9262  134.8701  159.7581 H   0  0  0  0  0  0  0  0  0  0  0  0  # atno 6909 bound_to 6896
  144.8438  140.5949  143.5435 H   0  0  0  0  0  0  0  0  0  0  0  0  # atno 7974 bound_to 7965
  156.2980  140.2551  156.3059 H   0  0  0  0  0  0  0  0  0  0  0  0  # atno 8008 bound_to 7997
  154.9372  140.0397  157.2097 H   0  0  0  0  0  0  0  0  0  0  0  0  # atno 8009 bound_to 7997
  154.8161  140.2852  155.5824 H   0  0  0  0  0  0  0  0  0  0  0  0  # atno 8010 bound_to 7997
  140.2098  144.3901  150.6494 H   0  0  0  0  0  0  0  0  0  0  0  0  # atno 10167 bound_to 10162
  156.0892  130.6078  150.8899 H   0  0  0  0  0  0  0  0  0  0  0  0  # atno 10718 bound_to 10713
  154.3900  135.2754  155.2161 H   0  0  0  0  0  0  0  0  0  0  0  0  # atno 10763 bound_to 10752
  154.4231  135.5995  153.6025 H   0  0  0  0  0  0  0  0  0  0  0  0  # atno 10764 bound_to 10752
  152.9832  135.5977  154.4153 H   0  0  0  0  0  0  0  0  0  0  0  0  # atno 10765 bound_to 10752
  140.9441  134.1154  157.4123 H   0  0  0  0  0  0  0  0  0  0  0  0  # atno 11005 bound_to 11000
  145.4639  139.1510  143.3851 LP  0  0  0  0  0  0  0  0  0  0  0  0  # atno 17320 bound_to 7965
  146.2726  140.4769  142.8808 LP  0  0  0  0  0  0  0  0  0  0  0  0  # atno 17321 bound_to 7965
  140.6332  143.2190  151.6451 LP  0  0  0  0  0  0  0  0  0  0  0  0  # atno 17342 bound_to 10162
  139.5184  144.3284  152.0848 LP  0  0  0  0  0  0  0  0  0  0  0  0  # atno 17343 bound_to 10162
  157.6036  131.0940  150.8917 LP  0  0  0  0  0  0  0  0  0  0  0  0  # atno 17370 bound_to 10713
  156.9070  130.5267  149.5281 LP  0  0  0  0  0  0  0  0  0  0  0  0  # atno 17371 bound_to 10713
  139.8828  135.0046  156.6258 LP  0  0  0  0  0  0  0  0  0  0  0  0  # atno 17394 bound_to 11000
  140.7693  133.8751  155.8479 LP  0  0  0  0  0  0  0  0  0  0  0  0  # atno 17395 bound_to 11000

$$$$
