AV-unprocessed.smi:772|AV-procd|sdf|3688|dock10
  -GOLD-   22720 1103D 1   1.00000     0.00000
 Structure written by MMmdl.
 47 48  0  0  0  0  0  0  0  0  2 V2000
  144.8187  132.1037  149.9325 C   0  0  0  0  0  0  0  0  0  0  0  0
  144.4566  133.3803  150.6613 C   0  0  0  0  0  0  0  0  0  0  0  0
  143.4836  133.4161  151.6828 C   0  0  0  0  0  0  0  0  0  0  0  0
  143.1940  134.6431  152.3146 C   0  0  0  0  0  0  0  0  0  0  0  0
  143.8813  135.8094  151.9118 C   0  0  0  0  0  0  0  0  0  0  0  0
  143.5715  137.1532  152.5483 C   0  0  0  0  0  0  0  0  0  0  0  0
  144.4261  137.4572  153.7938 C   0  0  0  0  0  0  0  0  0  0  0  0
  145.4466  138.4702  153.5342 N   0  0  0  0  0  0  0  0  0  0  0  0
  146.7582  138.3576  153.8103 C   0  0  0  0  0  0  0  0  0  0  0  0
  147.2347  137.3440  154.3242 O   0  0  0  0  0  0  0  0  0  0  0  0
  147.5077  139.4330  153.4578 N   0  0  0  0  0  0  0  0  0  0  0  0
  146.9932  140.7414  153.0229 C   0  0  0  0  0  0  0  0  0  0  0  0
  146.9846  141.6983  154.2245 C   0  0  0  0  0  0  0  0  0  0  0  0
  148.6717  141.9734  154.8471 S   0  0  0  0  0  0  0  0  0  0  0  0
  149.2475  140.2443  154.9961 C   0  0  2  0  0  0  0  0  0  0  0  0
  150.7302  140.1528  155.4371 C   0  0  0  0  0  0  0  0  0  0  0  0
  151.2521  138.7062  155.4021 C   0  0  0  0  0  0  0  0  0  0  0  0
  151.0190  140.8071  156.8012 C   0  0  0  0  0  0  0  0  0  0  0  0
  148.9566  139.4705  153.6904 C   0  0  0  0  0  0  0  0  0  0  0  0
  144.8481  135.7112  150.8885 C   0  0  0  0  0  0  0  0  0  0  0  0
  145.0964  134.5174  150.3078 N   0  3  0  0  0  0  0  0  0  0  0  0
  144.2012  131.2704  150.2692 H   0  0  0  0  0  0  0  0  0  0  0  0
  145.8633  131.8477  150.1110 H   0  0  0  0  0  0  0  0  0  0  0  0
  144.6716  132.2237  148.8587 H   0  0  0  0  0  0  0  0  0  0  0  0
  142.9609  132.5179  151.9779 H   0  0  0  0  0  0  0  0  0  0  0  0
  142.4446  134.6873  153.0916 H   0  0  0  0  0  0  0  0  0  0  0  0
  143.7095  137.9425  151.8080 H   0  0  0  0  0  0  0  0  0  0  0  0
  142.5151  137.1739  152.8177 H   0  0  0  0  0  0  0  0  0  0  0  0
  143.7833  137.8263  154.5932 H   0  0  0  0  0  0  0  0  0  0  0  0
  144.8811  136.5406  154.1729 H   0  0  0  0  0  0  0  0  0  0  0  0
  145.1311  139.3318  153.1122 H   0  0  0  0  0  0  0  0  0  0  0  0
  147.6257  141.1460  152.2315 H   0  0  0  0  0  0  0  0  0  0  0  0
  145.9978  140.6861  152.5820 H   0  0  0  0  0  0  0  0  0  0  0  0
  146.5558  142.6598  153.9421 H   0  0  0  0  0  0  0  0  0  0  0  0
  146.3682  141.2964  155.0292 H   0  0  0  0  0  0  0  0  0  0  0  0
  148.6476  139.7879  155.7851 H   0  0  0  0  0  0  0  0  0  0  0  0
  151.3129  140.7020  154.6963 H   0  0  0  0  0  0  0  0  0  0  0  0
  150.7569  138.0800  156.1444 H   0  0  0  0  0  0  0  0  0  0  0  0
  152.3225  138.6724  155.6065 H   0  0  0  0  0  0  0  0  0  0  0  0
  151.0926  138.2526  154.4236 H   0  0  0  0  0  0  0  0  0  0  0  0
  150.4891  140.3060  157.6113 H   0  0  0  0  0  0  0  0  0  0  0  0
  150.7337  141.8585  156.8138 H   0  0  0  0  0  0  0  0  0  0  0  0
  152.0834  140.7630  157.0336 H   0  0  0  0  0  0  0  0  0  0  0  0
  149.3806  138.4666  153.7444 H   0  0  0  0  0  0  0  0  0  0  0  0
  149.4507  139.9447  152.8420 H   0  0  0  0  0  0  0  0  0  0  0  0
  145.4172  136.5482  150.5106 H   0  0  0  0  0  0  0  0  0  0  0  0
  145.7956  134.4729  149.5661 H   0  0  0  0  0  0  0  0  0  0  0  0
  1  2  1  0  0  0  0
  1 22  1  0  0  0  0
  1 23  1  0  0  0  0
  1 24  1  0  0  0  0
  2 21  1  0  0  0  0
  2  3  2  0  0  0  0
  3  4  1  0  0  0  0
  3 25  1  0  0  0  0
  4  5  2  0  0  0  0
  4 26  1  0  0  0  0
  5  6  1  0  0  0  0
  5 20  1  0  0  0  0
  6  7  1  0  0  0  0
  6 27  1  0  0  0  0
  6 28  1  0  0  0  0
  7  8  1  0  0  0  0
  7 29  1  0  0  0  0
  7 30  1  0  0  0  0
  8  9  1  0  0  0  0
  8 31  1  0  0  0  0
  9 10  2  0  0  0  0
  9 11  1  0  0  0  0
 11 19  1  0  0  0  0
 11 12  1  0  0  0  0
 12 13  1  0  0  0  0
 12 32  1  0  0  0  0
 12 33  1  0  0  0  0
 13 14  1  0  0  0  0
 13 34  1  0  0  0  0
 13 35  1  0  0  0  0
 14 15  1  0  0  0  0
 15 16  1  0  0  0  0
 15 19  1  0  0  0  0
 15 36  1  0  0  0  0
 16 17  1  0  0  0  0
 16 18  1  0  0  0  0
 16 37  1  0  0  0  0
 17 38  1  0  0  0  0
 17 39  1  0  0  0  0
 17 40  1  0  0  0  0
 18 41  1  0  0  0  0
 18 42  1  0  0  0  0
 18 43  1  0  0  0  0
 19 44  1  0  0  0  0
 19 45  1  0  0  0  0
 20 21  2  0  0  0  0
 20 46  1  0  0  0  0
 21 47  1  0  0  0  0
M  CHG  1  21   1
M  END
> <s_m_source_file>
AV-unprocessed.smi

> <i_m_source_file_index>
772

> <i_lp_mmshare_version>
43012

> <i_f3d_flags>
0

> <s_epik_input>
W0NIM11jMVtjSF1bY0hdYyhbY0hdbjEpW0NIMl1bQ0gyXVtOSF1DKD1PKU4yW0NIMl1bQ0gyXVNbQ0BIXShbQ0gyXTIpW0NIXShbQ0gzXSlbQ0gzXQ==

> <s_epik_cmdline>
J2VwaWtfcHl0aG9uJywgJy1waCcsICc3LjAnLCAnLXRuJywgJzgnLCAnLW1hJywgJzIwMCcsICctbWV0YWxfYmluZGluZycsICctaW1hZScsICc8aW5maWxlLm1hZT4nLCAnLW9tYWUnLCAnPG91dGZpbGUubWFlPic=

> <r_epik_Ionization_Penalty>
1.41908

> <r_epik_Ionization_Penalty_Charging>
1.41903

> <r_epik_Ionization_Penalty_Neutral>
4.72921e-05

> <r_epik_State_Penalty>
1.50265

> <r_epik_Charging_Adjusted_Penalty>
2.92168

> <i_epik_Tot_Q>
1

> <i_epik_Tot_abs_Q>
1

> <r_epik_Metal_State_Penalty>
1.55496

> <b_epik_Metal_Only>
0

> <s_lp_Force_Field>
OPLS_2005

> <r_lp_Energy>
32.4452

> <b_lp_Chiralities_Consistent>
1

> <s_lp_Variant>
AV-unprocessed.smi:772-4

> <Gold.Version>
5.8.1

> <Gold.Id.Protein>
6NUR|6NUR_protein|mol2

> <Gold.PLP.Fitness>
43.4355

> <Gold.PLP.PLP>
-39.0401

> <Gold.PLP.part.hbond>
-2.0000

> <Gold.PLP.part.metal>
0.0000

> <Gold.PLP.part.buried>
4.7258

> <Gold.PLP.part.nonpolar>
-40.3291

> <Gold.PLP.part.repulsive>
0.5966

> <Gold.PLP.ligand.clash>
0.0000

> <Gold.PLP.ligand.torsion>
0.8180

> <Gold.PLP.Chemscore.Hbond>
1.9833

> <Gold.PLP.Chemscore.CHOScore>
0.0000

> <Gold.PLP.Chemscore.Metal>
0.0000

> <Gold.Chemscore.Hbonds>
donor molecule, donor type, donor heavy atom, donor atom, acceptor molecule, acceptor atom, score
      L1  H     8    31       P1 10175  0.99
      L1  H    21    47       P1  7921  0.90

> <Gold.PLP.Chemscore.Internal.Correction>
0.0814

> <Gold.Rescore>
     Score         DG    S(hbond)    S(metal)    S(lipo)     H(rot)  DE(clash)    DE(int)     intcor
     16.71     -20.17       1.96        0.00     100.07       1.39       2.71       0.75       ----

> <Gold.Chemscore.Fitness>
16.7074

> <Gold.Chemscore.DG>
-20.1665

> <Gold.Chemscore.ZeroCoef>
-5.4800

> <Gold.Chemscore.Hbond>
1.9610

> <Gold.Chemscore.Metal>
0.0000

> <Gold.Chemscore.Lipo>
100.0664

> <Gold.Chemscore.Internal_Hbond>
0.0000

> <Gold.Chemscore.DEClash>
2.7120

> <Gold.Chemscore.DEInternal>
0.7471

> <Gold.Chemscore.Rot>
1.3949

> <Gold.Chemscore.Internal.Correction>
   9.000000E+99

> <Gold.Chemscore.Hbonds>
donor molecule, donor type, donor heavy atom, donor atom, acceptor molecule, acceptor atom, score
      L1  H     8    31       P1 10175  0.93
      L1  H    21    47       P1  7921  0.64

> <Gold.Chemscore.Hbond.Weighted>
-6.5496

> <Gold.Chemscore.Metal.Weighted>
-0.0000

> <Gold.Chemscore.Lipo.Weighted>
-11.7078

> <Gold.Chemscore.Internal_Hbond.Weighted>
0.0000

> <Gold.Chemscore.DEClash.Weighted>
2.7120

> <Gold.Chemscore.DEInternal.Weighted>
0.7471

> <Gold.Chemscore.Rot.Weighted>
3.5709

> <Gold.Chemscore.Internal.Correction.Weighted>
   9.000000E+99

> <Gold.Protein.RotatedTorsions>
[ 6907 6896 6895 6894 ] final -169.29 input  -60.11 | X-H torsion
[ 7974 7965 7964 7962 ] final  144.56 input  175.53 | X-H torsion
[ 8008 7997 7996 7995 ] final  -56.92 input   59.86 | X-H torsion
[ 10167 10162 10161 10158 ] final -151.33 input  -65.29 | X-H torsion
[ 10718 10713 10712 10709 ] final -124.39 input   66.30 | X-H torsion
[ 10763 10752 10751 10750 ] final -125.87 input  -60.55 | X-H torsion
[ 11005 11000 10999 10996 ] final -175.45 input  -57.11 | X-H torsion

> <Gold.Protein.ActiveResidues>
 VAL166  LYS551  ARG553  GLY616  TRP617  ASP618  TYR619  PRO620  LYS621  CYS622 
 ASP623  PHE694  ASN695  SER759  ASP760  ASP761  ALA762  ILE779  LEU786  VAL792 
 PHE793  MET794  SER795  GLU796  ALA797  LYS798  CYS799  TRP800  GLU811  SER814 

> <Gold.Protein.RotatedAtoms>
  151.4893  133.3528  159.2850 H   0  0  0  0  0  0  0  0  0  0  0  0  # atno 6907 bound_to 6896
  150.8845  134.8243  159.7260 H   0  0  0  0  0  0  0  0  0  0  0  0  # atno 6908 bound_to 6896
  152.4784  134.4795  159.9713 H   0  0  0  0  0  0  0  0  0  0  0  0  # atno 6909 bound_to 6896
  144.8826  139.5677  143.5836 H   0  0  0  0  0  0  0  0  0  0  0  0  # atno 7974 bound_to 7965
  154.4248  140.1118  156.5715 H   0  0  0  0  0  0  0  0  0  0  0  0  # atno 8008 bound_to 7997
  155.6207  140.3495  155.4632 H   0  0  0  0  0  0  0  0  0  0  0  0  # atno 8009 bound_to 7997
  156.0026  140.1202  157.0522 H   0  0  0  0  0  0  0  0  0  0  0  0  # atno 8010 bound_to 7997
  139.7276  143.8858  152.2524 H   0  0  0  0  0  0  0  0  0  0  0  0  # atno 10167 bound_to 10162
  156.1584  130.6584  151.0014 H   0  0  0  0  0  0  0  0  0  0  0  0  # atno 10718 bound_to 10713
  154.8740  135.4015  154.3339 H   0  0  0  0  0  0  0  0  0  0  0  0  # atno 10763 bound_to 10752
  153.4148  135.7021  153.6340 H   0  0  0  0  0  0  0  0  0  0  0  0  # atno 10764 bound_to 10752
  153.5027  135.3724  155.2518 H   0  0  0  0  0  0  0  0  0  0  0  0  # atno 10765 bound_to 10752
  140.4631  134.6236  157.4851 H   0  0  0  0  0  0  0  0  0  0  0  0  # atno 11005 bound_to 11000
  146.3004  139.7408  142.9095 LP  0  0  0  0  0  0  0  0  0  0  0  0  # atno 17320 bound_to 7965
  145.3927  141.0374  143.3115 LP  0  0  0  0  0  0  0  0  0  0  0  0  # atno 17321 bound_to 7965
  139.8772  144.7037  150.8919 LP  0  0  0  0  0  0  0  0  0  0  0  0  # atno 17342 bound_to 10162
  140.7765  143.3690  151.1684 LP  0  0  0  0  0  0  0  0  0  0  0  0  # atno 17343 bound_to 10162
  157.6713  131.0861  150.7606 LP  0  0  0  0  0  0  0  0  0  0  0  0  # atno 17370 bound_to 10713
  156.7670  130.4816  149.5426 LP  0  0  0  0  0  0  0  0  0  0  0  0  # atno 17371 bound_to 10713
  139.9932  134.6952  155.9653 LP  0  0  0  0  0  0  0  0  0  0  0  0  # atno 17394 bound_to 11000
  141.1612  133.6539  156.4325 LP  0  0  0  0  0  0  0  0  0  0  0  0  # atno 17395 bound_to 11000

$$$$
