AV-unprocessed.smi:1835|AV-procd|sdf|7476|dock6
  -GOLD-   22720 9173D 1   1.00000     0.00000
 Structure written by MMmdl.
 42 43  0  0  0  0  0  0  0  0  2 V2000
  149.9760  137.2522  155.1189 C   0  0  0  0  0  0  0  0  0  0  0  0
  150.2367  135.7285  155.1651 C   0  0  1  0  0  0  0  0  0  0  0  0
  150.2965  135.2226  156.6342 C   0  0  0  0  0  0  0  0  0  0  0  0
  149.0717  135.5019  157.3796 N   0  0  0  0  0  0  0  0  0  0  0  0
  148.4432  134.6428  158.1970 C   0  0  0  0  0  0  0  0  0  0  0  0
  148.8592  133.5086  158.4350 O   0  0  0  0  0  0  0  0  0  0  0  0
  147.1475  135.1509  158.8436 C   0  0  0  0  0  0  0  0  0  0  0  0
  147.2812  135.3752  160.2927 N   0  0  0  0  0  0  0  0  0  0  0  0
  147.1855  134.2464  161.1311 C   0  0  0  0  0  0  0  0  0  0  0  0
  147.2944  134.3422  162.4656 C   0  0  0  0  0  0  0  0  0  0  0  0
  147.5155  135.6477  163.0409 C   0  0  0  0  0  0  0  0  0  0  0  0
  147.6060  136.7345  162.2487 C   0  0  0  0  0  0  0  0  0  0  0  0
  147.4863  136.6348  160.7894 C   0  0  0  0  0  0  0  0  0  0  0  0
  147.5651  137.6225  160.0577 O   0  0  0  0  0  0  0  0  0  0  0  0
  149.2232  135.0106  154.3230 N   0  3  0  0  0  0  0  0  0  0  0  0
  149.4690  133.5435  154.2575 C   0  0  0  0  0  0  0  0  0  0  0  0
  148.4757  132.8579  153.3061 C   0  0  0  0  0  0  0  0  0  0  0  0
  147.1498  133.1137  153.7442 O   0  0  0  0  0  0  0  0  0  0  0  0
  146.8531  134.5018  153.7213 C   0  0  0  0  0  0  0  0  0  0  0  0
  147.7968  135.2568  154.6738 C   0  0  0  0  0  0  0  0  0  0  0  0
  150.7491  137.8111  155.6450 H   0  0  0  0  0  0  0  0  0  0  0  0
  149.0195  137.5002  155.5800 H   0  0  0  0  0  0  0  0  0  0  0  0
  149.9657  137.6506  154.1064 H   0  0  0  0  0  0  0  0  0  0  0  0
  151.2185  135.5387  154.7279 H   0  0  0  0  0  0  0  0  0  0  0  0
  150.5351  134.1577  156.6610 H   0  0  0  0  0  0  0  0  0  0  0  0
  151.0881  135.7323  157.1833 H   0  0  0  0  0  0  0  0  0  0  0  0
  148.6591  136.4146  157.2503 H   0  0  0  0  0  0  0  0  0  0  0  0
  146.8526  136.0688  158.3336 H   0  0  0  0  0  0  0  0  0  0  0  0
  146.3368  134.4445  158.6545 H   0  0  0  0  0  0  0  0  0  0  0  0
  147.0142  133.3077  160.6246 H   0  0  0  0  0  0  0  0  0  0  0  0
  147.2161  133.4660  163.0925 H   0  0  0  0  0  0  0  0  0  0  0  0
  147.6075  135.7536  164.1120 H   0  0  0  0  0  0  0  0  0  0  0  0
  147.7707  137.7031  162.6972 H   0  0  0  0  0  0  0  0  0  0  0  0
  150.4782  133.3255  153.9136 H   0  0  0  0  0  0  0  0  0  0  0  0
  149.3774  133.1134  155.2561 H   0  0  0  0  0  0  0  0  0  0  0  0
  148.6117  133.2052  152.2805 H   0  0  0  0  0  0  0  0  0  0  0  0
  148.6431  131.7808  153.3020 H   0  0  0  0  0  0  0  0  0  0  0  0
  146.9367  134.8873  152.7038 H   0  0  0  0  0  0  0  0  0  0  0  0
  145.8173  134.6447  154.0299 H   0  0  0  0  0  0  0  0  0  0  0  0
  147.6138  134.9490  155.7046 H   0  0  0  0  0  0  0  0  0  0  0  0
  147.5528  136.3159  154.5980 H   0  0  0  0  0  0  0  0  0  0  0  0
  149.3374  135.3686  153.3854 H   0  0  0  0  0  0  0  0  0  0  0  0
  1  2  1  0  0  0  0
  1 21  1  0  0  0  0
  1 22  1  0  0  0  0
  1 23  1  0  0  0  0
  2  3  1  0  0  0  0
  2 15  1  0  0  0  0
  2 24  1  0  0  0  0
  3  4  1  0  0  0  0
  3 25  1  0  0  0  0
  3 26  1  0  0  0  0
  4  5  1  0  0  0  0
  4 27  1  0  0  0  0
  5  6  2  0  0  0  0
  5  7  1  0  0  0  0
  7  8  1  0  0  0  0
  7 28  1  0  0  0  0
  7 29  1  0  0  0  0
  8 13  1  0  0  0  0
  8  9  1  0  0  0  0
  9 10  2  0  0  0  0
  9 30  1  0  0  0  0
 10 11  1  0  0  0  0
 10 31  1  0  0  0  0
 11 12  2  0  0  0  0
 11 32  1  0  0  0  0
 12 13  1  0  0  0  0
 12 33  1  0  0  0  0
 13 14  2  0  0  0  0
 15 20  1  0  0  0  0
 15 16  1  0  0  0  0
 15 42  1  0  0  0  0
 16 17  1  0  0  0  0
 16 34  1  0  0  0  0
 16 35  1  0  0  0  0
 17 18  1  0  0  0  0
 17 36  1  0  0  0  0
 17 37  1  0  0  0  0
 18 19  1  0  0  0  0
 19 20  1  0  0  0  0
 19 38  1  0  0  0  0
 19 39  1  0  0  0  0
 20 40  1  0  0  0  0
 20 41  1  0  0  0  0
M  CHG  1  15   1
M  END
> <s_m_source_file>
AV-unprocessed.smi

> <i_m_source_file_index>
1835

> <i_lp_mmshare_version>
43012

> <i_f3d_flags>
0

> <s_epik_input>
W0NIMl0xW0NIMl1PW0NIMl1bQ0gyXU4xW0NASF0oW0NIM10pW0NIMl1bTkhdQyg9TylbQ0gyXW4yW2NIXVtjSF1bY0hdW2NIXWMyPU8=

> <s_epik_cmdline>
J2VwaWtfcHl0aG9uJywgJy1waCcsICc3LjAnLCAnLXRuJywgJzgnLCAnLW1hJywgJzIwMCcsICctbWV0YWxfYmluZGluZycsICctaW1hZScsICc8aW5maWxlLm1hZT4nLCAnLW9tYWUnLCAnPG91dGZpbGUubWFlPic=

> <r_lp_tautomer_probability>
1

> <r_epik_Ionization_Penalty>
0.656654

> <r_epik_Ionization_Penalty_Charging>
0.656654

> <r_epik_Ionization_Penalty_Neutral>
9.12373e-08

> <r_epik_State_Penalty>
0.675641

> <r_epik_Charging_Adjusted_Penalty>
1.33229

> <i_epik_Tot_Q>
1

> <i_epik_Tot_abs_Q>
1

> <r_epik_Metal_State_Penalty>
0.675692

> <b_epik_Metal_Only>
0

> <s_lp_Force_Field>
OPLS_2005

> <r_lp_Energy>
28.3698

> <b_lp_Chiralities_Consistent>
1

> <s_lp_Variant>
AV-unprocessed.smi:1835-4

> <Gold.Version>
5.8.1

> <Gold.Id.Protein>
6NUR|6NUR_protein|mol2

> <Gold.PLP.Fitness>
44.8276

> <Gold.PLP.PLP>
-33.7848

> <Gold.PLP.part.hbond>
-3.1203

> <Gold.PLP.part.metal>
0.0000

> <Gold.PLP.part.buried>
-4.4696

> <Gold.PLP.part.nonpolar>
-27.0003

> <Gold.PLP.part.repulsive>
0.1629

> <Gold.PLP.ligand.clash>
0.0000

> <Gold.PLP.ligand.torsion>
0.5120

> <Gold.PLP.Chemscore.Hbond>
4.0000

> <Gold.PLP.Chemscore.CHOScore>
0.0000

> <Gold.PLP.Chemscore.Metal>
0.0000

> <Gold.Chemscore.Hbonds>
donor molecule, donor type, donor heavy atom, donor atom, acceptor molecule, acceptor atom, score
      L1  H    15    42       P1  7948  1.80
      P1  H  6896  6908       L1     6  0.80
      P1  H  6934  6947       L1    14  0.83

> <Gold.PLP.Chemscore.Internal.Correction>
0.0667

> <Gold.Rescore>
     Score         DG    S(hbond)    S(metal)    S(lipo)     H(rot)  DE(clash)    DE(int)     intcor
     17.33     -17.91       2.95        0.00      65.03       1.96       0.03       0.56       ----

> <Gold.Chemscore.Fitness>
17.3260

> <Gold.Chemscore.DG>
-17.9085

> <Gold.Chemscore.ZeroCoef>
-5.4800

> <Gold.Chemscore.Hbond>
2.9491

> <Gold.Chemscore.Metal>
0.0000

> <Gold.Chemscore.Lipo>
65.0295

> <Gold.Chemscore.Internal_Hbond>
0.0000

> <Gold.Chemscore.DEClash>
0.0270

> <Gold.Chemscore.DEInternal>
0.5556

> <Gold.Chemscore.Rot>
1.9649

> <Gold.Chemscore.Internal.Correction>
   9.000000E+99

> <Gold.Chemscore.Hbonds>
donor molecule, donor type, donor heavy atom, donor atom, acceptor molecule, acceptor atom, score
      L1  H    15    42       P1  7948  0.18
      P1  H  6896  6908       L1     6  0.39
      P1  H  6934  6947       L1    14  0.64

> <Gold.Chemscore.Hbond.Weighted>
-9.8501

> <Gold.Chemscore.Metal.Weighted>
-0.0000

> <Gold.Chemscore.Lipo.Weighted>
-7.6084

> <Gold.Chemscore.Internal_Hbond.Weighted>
0.0000

> <Gold.Chemscore.DEClash.Weighted>
0.0270

> <Gold.Chemscore.DEInternal.Weighted>
0.5556

> <Gold.Chemscore.Rot.Weighted>
5.0300

> <Gold.Chemscore.Internal.Correction.Weighted>
   9.000000E+99

> <Gold.Protein.RotatedTorsions>
[ 6907 6896 6895 6894 ] final  119.39 input  -60.11 | X-H torsion
[ 7974 7965 7964 7962 ] final   42.28 input  175.53 | X-H torsion
[ 8008 7997 7996 7995 ] final -145.66 input   59.86 | X-H torsion
[ 10167 10162 10161 10158 ] final  101.43 input  -65.29 | X-H torsion
[ 10718 10713 10712 10709 ] final  -24.86 input   66.30 | X-H torsion
[ 10763 10752 10751 10750 ] final -125.86 input  -60.55 | X-H torsion
[ 11005 11000 10999 10996 ] final -117.69 input  -57.11 | X-H torsion

> <Gold.Protein.ActiveResidues>
 VAL166  LYS551  ARG553  GLY616  TRP617  ASP618  TYR619  PRO620  LYS621  CYS622 
 ASP623  PHE694  ASN695  SER759  ASP760  ASP761  ALA762  ILE779  LEU786  VAL792 
 PHE793  MET794  SER795  GLU796  ALA797  LYS798  CYS799  TRP800  GLU811  SER814 

> <Gold.Protein.RotatedAtoms>
  152.4475  133.7565  159.6722 H   0  0  0  0  0  0  0  0  0  0  0  0  # atno 6907 bound_to 6896
  150.8378  133.7974  159.3078 H   0  0  0  0  0  0  0  0  0  0  0  0  # atno 6908 bound_to 6896
  151.5608  135.1068  160.0024 H   0  0  0  0  0  0  0  0  0  0  0  0  # atno 6909 bound_to 6896
  146.0753  139.5318  142.9571 H   0  0  0  0  0  0  0  0  0  0  0  0  # atno 7974 bound_to 7965
  155.5468  140.0613  157.2858 H   0  0  0  0  0  0  0  0  0  0  0  0  # atno 8008 bound_to 7997
  154.4434  140.1909  156.0690 H   0  0  0  0  0  0  0  0  0  0  0  0  # atno 8009 bound_to 7997
  156.0545  140.3280  155.7393 H   0  0  0  0  0  0  0  0  0  0  0  0  # atno 8010 bound_to 7997
  139.7438  144.7004  151.0535 H   0  0  0  0  0  0  0  0  0  0  0  0  # atno 10167 bound_to 10162
  156.4721  130.4526  149.6863 H   0  0  0  0  0  0  0  0  0  0  0  0  # atno 10718 bound_to 10713
  154.8740  135.4015  154.3337 H   0  0  0  0  0  0  0  0  0  0  0  0  # atno 10763 bound_to 10752
  153.4147  135.7021  153.6341 H   0  0  0  0  0  0  0  0  0  0  0  0  # atno 10764 bound_to 10752
  153.5028  135.3724  155.2519 H   0  0  0  0  0  0  0  0  0  0  0  0  # atno 10765 bound_to 10752
  141.0337  133.9942  157.3103 H   0  0  0  0  0  0  0  0  0  0  0  0  # atno 11005 bound_to 11000
  145.6317  141.0303  143.1860 LP  0  0  0  0  0  0  0  0  0  0  0  0  # atno 17320 bound_to 7965
  144.7258  139.7882  143.7365 LP  0  0  0  0  0  0  0  0  0  0  0  0  # atno 17321 bound_to 7965
  140.7789  143.4891  150.9916 LP  0  0  0  0  0  0  0  0  0  0  0  0  # atno 17342 bound_to 10162
  139.8580  143.7352  152.3175 LP  0  0  0  0  0  0  0  0  0  0  0  0  # atno 17343 bound_to 10162
  156.3608  130.7480  151.2452 LP  0  0  0  0  0  0  0  0  0  0  0  0  # atno 17370 bound_to 10713
  157.7490  131.0351  150.4346 LP  0  0  0  0  0  0  0  0  0  0  0  0  # atno 17371 bound_to 10713
  139.9226  135.0201  156.8118 LP  0  0  0  0  0  0  0  0  0  0  0  0  # atno 17394 bound_to 11000
  140.6360  133.9862  155.7684 LP  0  0  0  0  0  0  0  0  0  0  0  0  # atno 17395 bound_to 11000

$$$$
