AV-unprocessed.smi:2542|AV-procd|sdf|9992|dock2
  -GOLD-   2272014 43D 1   1.00000     0.00000
 Structure written by MMmdl.
 42 43  0  0  0  0  0  0  0  0  2 V2000
  153.2376  142.0339  161.5434 C   0  0  0  0  0  0  0  0  0  0  0  0
  153.2561  141.9031  160.0058 C   0  0  0  0  0  0  0  0  0  0  0  0
  154.6668  142.3339  159.5350 C   0  0  0  0  0  0  0  0  0  0  0  0
  153.0379  140.4124  159.6284 C   0  0  0  0  0  0  0  0  0  0  0  0
  153.7850  139.5015  160.4935 N   0  0  0  0  0  0  0  0  0  0  0  0
  153.7474  138.1595  160.4522 C   0  0  0  0  0  0  0  0  0  0  0  0
  153.1054  137.5415  159.6022 O   0  0  0  0  0  0  0  0  0  0  0  0
  154.5378  137.3986  161.5391 C   0  0  0  0  0  0  0  0  0  0  0  0
  155.5902  136.5345  160.9639 C   0  0  0  0  0  0  0  0  0  0  0  0
  156.4124  135.8555  160.5126 N   0  0  0  0  0  0  0  0  0  0  0  0
  155.1711  138.3575  162.5645 C   0  0  0  0  0  0  0  0  0  0  0  0
  155.3724  137.5243  163.8351 C   0  0  0  0  0  0  0  0  0  0  0  0
  154.3461  136.3859  163.7617 C   0  0  0  0  0  0  0  0  0  0  0  0
  153.6019  136.5668  162.4328 C   0  0  0  0  0  0  0  0  0  0  0  0
  152.1373  142.7756  159.4003 C   0  0  0  0  0  0  0  0  0  0  0  0
  151.0937  142.2383  158.6025 C   0  0  0  0  0  0  0  0  0  0  0  0
  150.0859  143.0871  158.1015 C   0  0  0  0  0  0  0  0  0  0  0  0
  150.1152  144.4067  158.3801 N   0  3  0  0  0  0  0  0  0  0  0  0
  151.0844  144.9699  159.1306 C   0  0  0  0  0  0  0  0  0  0  0  0
  152.1173  144.1694  159.6579 C   0  0  0  0  0  0  0  0  0  0  0  0
  154.0331  141.4440  162.0006 H   0  0  0  0  0  0  0  0  0  0  0  0
  152.2979  141.6888  161.9748 H   0  0  0  0  0  0  0  0  0  0  0  0
  153.3795  143.0698  161.8540 H   0  0  0  0  0  0  0  0  0  0  0  0
  155.4384  141.6979  159.9705 H   0  0  0  0  0  0  0  0  0  0  0  0
  154.8945  143.3584  159.8317 H   0  0  0  0  0  0  0  0  0  0  0  0
  154.7793  142.2683  158.4527 H   0  0  0  0  0  0  0  0  0  0  0  0
  151.9741  140.1686  159.6189 H   0  0  0  0  0  0  0  0  0  0  0  0
  153.3841  140.2292  158.6109 H   0  0  0  0  0  0  0  0  0  0  0  0
  154.3479  139.9293  161.2148 H   0  0  0  0  0  0  0  0  0  0  0  0
  156.1102  138.7839  162.2092 H   0  0  0  0  0  0  0  0  0  0  0  0
  154.5072  139.1922  162.7949 H   0  0  0  0  0  0  0  0  0  0  0  0
  156.3810  137.1098  163.8562 H   0  0  0  0  0  0  0  0  0  0  0  0
  155.2491  138.1297  164.7337 H   0  0  0  0  0  0  0  0  0  0  0  0
  154.8600  135.4240  163.7799 H   0  0  0  0  0  0  0  0  0  0  0  0
  153.6571  136.4033  164.6067 H   0  0  0  0  0  0  0  0  0  0  0  0
  152.6656  137.0963  162.6182 H   0  0  0  0  0  0  0  0  0  0  0  0
  153.3445  135.6071  161.9825 H   0  0  0  0  0  0  0  0  0  0  0  0
  151.0378  141.1872  158.3650 H   0  0  0  0  0  0  0  0  0  0  0  0
  149.2604  142.7502  157.4914 H   0  0  0  0  0  0  0  0  0  0  0  0
  151.0034  146.0355  159.2883 H   0  0  0  0  0  0  0  0  0  0  0  0
  152.8837  144.6304  160.2631 H   0  0  0  0  0  0  0  0  0  0  0  0
  149.3742  145.0022  158.0093 H   0  0  0  0  0  0  0  0  0  0  0  0
  1  2  1  0  0  0  0
  1 21  1  0  0  0  0
  1 22  1  0  0  0  0
  1 23  1  0  0  0  0
  2  3  1  0  0  0  0
  2  4  1  0  0  0  0
  2 15  1  0  0  0  0
  3 24  1  0  0  0  0
  3 25  1  0  0  0  0
  3 26  1  0  0  0  0
  4  5  1  0  0  0  0
  4 27  1  0  0  0  0
  4 28  1  0  0  0  0
  5  6  1  0  0  0  0
  5 29  1  0  0  0  0
  6  7  2  0  0  0  0
  6  8  1  0  0  0  0
  8 14  1  0  0  0  0
  8  9  1  0  0  0  0
  8 11  1  0  0  0  0
  9 10  3  0  0  0  0
 11 12  1  0  0  0  0
 11 30  1  0  0  0  0
 11 31  1  0  0  0  0
 12 13  1  0  0  0  0
 12 32  1  0  0  0  0
 12 33  1  0  0  0  0
 13 14  1  0  0  0  0
 13 34  1  0  0  0  0
 13 35  1  0  0  0  0
 14 36  1  0  0  0  0
 14 37  1  0  0  0  0
 15 20  1  0  0  0  0
 15 16  2  0  0  0  0
 16 17  1  0  0  0  0
 16 38  1  0  0  0  0
 17 18  2  0  0  0  0
 17 39  1  0  0  0  0
 18 19  1  0  0  0  0
 18 42  1  0  0  0  0
 19 20  2  0  0  0  0
 19 40  1  0  0  0  0
 20 41  1  0  0  0  0
M  CHG  1  18   1
M  END
> <s_m_source_file>
AV-unprocessed.smi

> <i_m_source_file_index>
2542

> <i_lp_mmshare_version>
43012

> <i_f3d_flags>
0

> <s_epik_input>
W2NIXTFbY0hdbltjSF1bY0hdYzFDKFtDSDNdKShbQ0gzXSlbQ0gyXVtOSF1DKD1PKUMyKEMjTilbQ0gyXVtDSDJdW0NIMl1bQ0gyXTI=

> <s_epik_cmdline>
J2VwaWtfcHl0aG9uJywgJy1waCcsICc3LjAnLCAnLXRuJywgJzgnLCAnLW1hJywgJzIwMCcsICctbWV0YWxfYmluZGluZycsICctaW1hZScsICc8aW5maWxlLm1hZT4nLCAnLW9tYWUnLCAnPG91dGZpbGUubWFlPic=

> <r_epik_Ionization_Penalty>
1.51272

> <r_epik_Ionization_Penalty_Charging>
1.51272

> <r_epik_Ionization_Penalty_Neutral>
6.26824e-07

> <r_epik_State_Penalty>
1.60388

> <r_epik_Charging_Adjusted_Penalty>
3.1166

> <i_epik_Tot_Q>
1

> <i_epik_Tot_abs_Q>
1

> <r_epik_Metal_State_Penalty>
1.64935

> <b_epik_Metal_Only>
0

> <s_lp_Force_Field>
OPLS_2005

> <r_lp_Energy>
37.2322

> <b_lp_Chiralities_Consistent>
1

> <s_lp_Variant>
AV-unprocessed.smi:2542-2

> <Gold.Version>
5.8.1

> <Gold.Id.Protein>
6NUR|6NUR_protein|mol2

> <Gold.PLP.Fitness>
42.5804

> <Gold.PLP.PLP>
-37.2961

> <Gold.PLP.part.hbond>
-2.0000

> <Gold.PLP.part.metal>
0.0000

> <Gold.PLP.part.buried>
-5.2732

> <Gold.PLP.part.nonpolar>
-30.5979

> <Gold.PLP.part.repulsive>
0.1691

> <Gold.PLP.ligand.clash>
0.2878

> <Gold.PLP.ligand.torsion>
0.2512

> <Gold.PLP.Chemscore.Hbond>
2.0000

> <Gold.PLP.Chemscore.CHOScore>
0.0000

> <Gold.PLP.Chemscore.Metal>
0.0000

> <Gold.Chemscore.Hbonds>
donor molecule, donor type, donor heavy atom, donor atom, acceptor molecule, acceptor atom, score
      L1  H    18    42       P1  8029  1.80

> <Gold.PLP.Chemscore.Internal.Correction>
0.0745

> <Gold.Rescore>
     Score         DG    S(hbond)    S(metal)    S(lipo)     H(rot)  DE(clash)    DE(int)     intcor
     16.84     -18.78       0.88        0.00     122.65       1.56       1.64       0.30       ----

> <Gold.Chemscore.Fitness>
16.8388

> <Gold.Chemscore.DG>
-18.7790

> <Gold.Chemscore.ZeroCoef>
-5.4800

> <Gold.Chemscore.Hbond>
0.8846

> <Gold.Chemscore.Metal>
0.0000

> <Gold.Chemscore.Lipo>
122.6536

> <Gold.Chemscore.Internal_Hbond>
0.0000

> <Gold.Chemscore.DEClash>
1.6416

> <Gold.Chemscore.DEInternal>
0.2986

> <Gold.Chemscore.Rot>
1.5649

> <Gold.Chemscore.Internal.Correction>
   9.000000E+99

> <Gold.Chemscore.Hbonds>
donor molecule, donor type, donor heavy atom, donor atom, acceptor molecule, acceptor atom, score
      L1  H    18    42       P1  8029  0.18

> <Gold.Chemscore.Hbond.Weighted>
-2.9547

> <Gold.Chemscore.Metal.Weighted>
-0.0000

> <Gold.Chemscore.Lipo.Weighted>
-14.3505

> <Gold.Chemscore.Internal_Hbond.Weighted>
0.0000

> <Gold.Chemscore.DEClash.Weighted>
1.6416

> <Gold.Chemscore.DEInternal.Weighted>
0.2986

> <Gold.Chemscore.Rot.Weighted>
4.0061

> <Gold.Chemscore.Internal.Correction.Weighted>
   9.000000E+99

> <Gold.Protein.RotatedTorsions>
[ 6907 6896 6895 6894 ] final   59.21 input  -60.11 | X-H torsion
[ 7974 7965 7964 7962 ] final  -69.19 input  175.53 | X-H torsion
[ 8008 7997 7996 7995 ] final  160.15 input   59.86 | X-H torsion
[ 10167 10162 10161 10158 ] final  176.70 input  -65.29 | X-H torsion
[ 10718 10713 10712 10709 ] final   53.89 input   66.30 | X-H torsion
[ 10763 10752 10751 10750 ] final   92.61 input  -60.55 | X-H torsion
[ 11005 11000 10999 10996 ] final  -47.98 input  -57.11 | X-H torsion

> <Gold.Protein.ActiveResidues>
 VAL166  LYS551  ARG553  GLY616  TRP617  ASP618  TYR619  PRO620  LYS621  CYS622 
 ASP623  PHE694  ASN695  SER759  ASP760  ASP761  ALA762  ILE779  LEU786  VAL792 
 PHE793  MET794  SER795  GLU796  ALA797  LYS798  CYS799  TRP800  GLU811  SER814 

> <Gold.Protein.RotatedAtoms>
  152.3894  134.6465  160.0112 H   0  0  0  0  0  0  0  0  0  0  0  0  # atno 6907 bound_to 6896
  151.6704  133.3308  159.3203 H   0  0  0  0  0  0  0  0  0  0  0  0  # atno 6908 bound_to 6896
  150.7813  134.6804  159.6485 H   0  0  0  0  0  0  0  0  0  0  0  0  # atno 6909 bound_to 6896
  145.7070  140.9094  143.0701 H   0  0  0  0  0  0  0  0  0  0  0  0  # atno 7974 bound_to 7965
  156.2191  140.1812  156.7519 H   0  0  0  0  0  0  0  0  0  0  0  0  # atno 8008 bound_to 7997
  154.5837  140.0662  156.9170 H   0  0  0  0  0  0  0  0  0  0  0  0  # atno 8009 bound_to 7997
  155.2456  140.3325  155.4290 H   0  0  0  0  0  0  0  0  0  0  0  0  # atno 8010 bound_to 7997
  139.5224  144.2884  152.0485 H   0  0  0  0  0  0  0  0  0  0  0  0  # atno 10167 bound_to 10162
  157.5207  130.8563  149.8555 H   0  0  0  0  0  0  0  0  0  0  0  0  # atno 10718 bound_to 10713
  153.2211  135.4355  155.0490 H   0  0  0  0  0  0  0  0  0  0  0  0  # atno 10763 bound_to 10752
  154.8250  135.3356  154.6926 H   0  0  0  0  0  0  0  0  0  0  0  0  # atno 10764 bound_to 10752
  153.7358  135.7008  153.5034 H   0  0  0  0  0  0  0  0  0  0  0  0  # atno 10765 bound_to 10752
  141.0673  133.6690  156.3375 H   0  0  0  0  0  0  0  0  0  0  0  0  # atno 11005 bound_to 11000
  144.6952  139.9023  143.7459 LP  0  0  0  0  0  0  0  0  0  0  0  0  # atno 17320 bound_to 7965
  146.0747  139.3735  143.0501 LP  0  0  0  0  0  0  0  0  0  0  0  0  # atno 17321 bound_to 7965
  140.2336  144.4342  150.6289 LP  0  0  0  0  0  0  0  0  0  0  0  0  # atno 17342 bound_to 10162
  140.6338  143.2191  151.6438 LP  0  0  0  0  0  0  0  0  0  0  0  0  # atno 17343 bound_to 10162
  156.0352  130.3753  150.1581 LP  0  0  0  0  0  0  0  0  0  0  0  0  # atno 17370 bound_to 10713
  156.9769  130.9852  151.3446 LP  0  0  0  0  0  0  0  0  0  0  0  0  # atno 17371 bound_to 10713
  140.5746  134.5806  157.5465 LP  0  0  0  0  0  0  0  0  0  0  0  0  # atno 17394 bound_to 11000
  139.9489  134.7652  156.0496 LP  0  0  0  0  0  0  0  0  0  0  0  0  # atno 17395 bound_to 11000

$$$$
