AV-unprocessed.smi:2108|AV-procd|sdf|8604|dock2
  -GOLD-   2272011343D 1   1.00000     0.00000
 Structure written by MMmdl.
 35 36  0  0  0  0  0  0  0  0  1 V2000
  148.9342  141.3868  153.7034 O   0  0  0  0  0  0  0  0  0  0  0  0
  148.4194  141.2725  155.0763 S   0  0  0  0  0  0  0  0  0  0  0  0
  148.2368  139.9613  155.7177 O   0  0  0  0  0  0  0  0  0  0  0  0
  149.3948  142.2481  156.1133 N   0  0  0  0  0  0  0  0  0  0  0  0
  149.9566  141.6703  157.3346 C   0  0  0  0  0  0  0  0  0  0  0  0
  151.4270  142.0774  157.4936 C   0  0  0  0  0  0  0  0  0  0  0  0
  151.5969  143.2223  158.4746 C   0  0  0  0  0  0  0  0  0  0  0  0
  151.9580  144.5097  158.0232 C   0  0  0  0  0  0  0  0  0  0  0  0
  152.1191  145.5342  158.9760 C   0  0  0  0  0  0  0  0  0  0  0  0
  151.9149  145.2330  160.3365 C   0  0  0  0  0  0  0  0  0  0  0  0
  151.5579  143.9152  160.6851 C   0  0  0  0  0  0  0  0  0  0  0  0
  151.4015  142.9253  159.7795 N   0  0  0  0  0  0  0  0  0  0  0  0
  146.9285  142.1491  155.1734 N   0  0  0  0  0  0  0  0  0  0  0  0
  145.9532  141.7126  156.1849 C   0  0  0  0  0  0  0  0  0  0  0  0
  144.8311  142.7506  156.3490 C   0  0  0  0  0  0  0  0  0  0  0  0
  144.2342  143.0293  155.0915 O   0  0  0  0  0  0  0  0  0  0  0  0
  145.1708  143.5910  154.1843 C   0  0  0  0  0  0  0  0  0  0  0  0
  146.3068  142.5919  153.9130 C   0  0  0  0  0  0  0  0  0  0  0  0
  149.0413  143.1984  156.2215 H   0  0  0  0  0  0  0  0  0  0  0  0
  149.3739  142.0092  158.1919 H   0  0  0  0  0  0  0  0  0  0  0  0
  149.8699  140.5841  157.2919 H   0  0  0  0  0  0  0  0  0  0  0  0
  152.0163  141.2240  157.8324 H   0  0  0  0  0  0  0  0  0  0  0  0
  151.8410  142.3732  156.5283 H   0  0  0  0  0  0  0  0  0  0  0  0
  152.1128  144.7081  156.9726 H   0  0  0  0  0  0  0  0  0  0  0  0
  152.3960  146.5319  158.6688 H   0  0  0  0  0  0  0  0  0  0  0  0
  152.0300  145.9932  161.0951 H   0  0  0  0  0  0  0  0  0  0  0  0
  151.3956  143.6486  161.7190 H   0  0  0  0  0  0  0  0  0  0  0  0
  145.5370  140.7511  155.8821 H   0  0  0  0  0  0  0  0  0  0  0  0
  146.4544  141.5597  157.1407 H   0  0  0  0  0  0  0  0  0  0  0  0
  144.0668  142.3698  157.0265 H   0  0  0  0  0  0  0  0  0  0  0  0
  145.2170  143.6698  156.7928 H   0  0  0  0  0  0  0  0  0  0  0  0
  144.6580  143.8352  153.2539 H   0  0  0  0  0  0  0  0  0  0  0  0
  145.5661  144.5268  154.5831 H   0  0  0  0  0  0  0  0  0  0  0  0
  147.0535  143.0507  153.2656 H   0  0  0  0  0  0  0  0  0  0  0  0
  145.9200  141.7191  153.3856 H   0  0  0  0  0  0  0  0  0  0  0  0
  1  2  2  0  0  0  0
  2  3  2  0  0  0  0
  2  4  1  0  0  0  0
  2 13  1  0  0  0  0
  4  5  1  0  0  0  0
  4 19  1  0  0  0  0
  5  6  1  0  0  0  0
  5 20  1  0  0  0  0
  5 21  1  0  0  0  0
  6  7  1  0  0  0  0
  6 22  1  0  0  0  0
  6 23  1  0  0  0  0
  7 12  1  0  0  0  0
  7  8  2  0  0  0  0
  8  9  1  0  0  0  0
  8 24  1  0  0  0  0
  9 10  2  0  0  0  0
  9 25  1  0  0  0  0
 10 11  1  0  0  0  0
 10 26  1  0  0  0  0
 11 12  2  0  0  0  0
 11 27  1  0  0  0  0
 13 18  1  0  0  0  0
 13 14  1  0  0  0  0
 14 15  1  0  0  0  0
 14 28  1  0  0  0  0
 14 29  1  0  0  0  0
 15 16  1  0  0  0  0
 15 30  1  0  0  0  0
 15 31  1  0  0  0  0
 16 17  1  0  0  0  0
 17 18  1  0  0  0  0
 17 32  1  0  0  0  0
 17 33  1  0  0  0  0
 18 34  1  0  0  0  0
 18 35  1  0  0  0  0
M  END
> <s_m_source_file>
AV-unprocessed.smi

> <i_m_source_file_index>
2108

> <i_lp_mmshare_version>
43012

> <i_f3d_flags>
0

> <s_epik_input>
W0NIMl0xW0NIMl1PW0NIMl1bQ0gyXU4xUyg9TykoPU8pW05IXVtDSDJdW0NIMl1jMltjSF1bY0hdW2NIXVtjSF1uMg==

> <s_epik_cmdline>
J2VwaWtfcHl0aG9uJywgJy1waCcsICc3LjAnLCAnLXRuJywgJzgnLCAnLW1hJywgJzIwMCcsICctbWV0YWxfYmluZGluZycsICctaW1hZScsICc8aW5maWxlLm1hZT4nLCAnLW9tYWUnLCAnPG91dGZpbGUubWFlPic=

> <r_epik_Ionization_Penalty>
0.085378

> <r_epik_Ionization_Penalty_Charging>
0

> <r_epik_Ionization_Penalty_Neutral>
0.085378

> <r_epik_State_Penalty>
0.0441186

> <r_epik_Charging_Adjusted_Penalty>
0.0441186

> <i_epik_Tot_Q>
0

> <i_epik_Tot_abs_Q>
0

> <r_epik_Metal_State_Penalty>
0.24397

> <b_epik_Metal_Only>
0

> <s_lp_Force_Field>
OPLS_2005

> <r_lp_Energy>
7.91242

> <b_lp_Chiralities_Consistent>
1

> <s_lp_Variant>
AV-unprocessed.smi:2108-1

> <Gold.Version>
5.8.1

> <Gold.Id.Protein>
6NUR|6NUR_protein|mol2

> <Gold.PLP.Fitness>
41.7075

> <Gold.PLP.PLP>
-38.0360

> <Gold.PLP.part.hbond>
-2.9099

> <Gold.PLP.part.metal>
0.0000

> <Gold.PLP.part.buried>
-7.8427

> <Gold.PLP.part.nonpolar>
-28.3562

> <Gold.PLP.part.repulsive>
1.7164

> <Gold.PLP.ligand.clash>
0.0000

> <Gold.PLP.ligand.torsion>
1.3432

> <Gold.PLP.Chemscore.Hbond>
1.8320

> <Gold.PLP.Chemscore.CHOScore>
0.0000

> <Gold.PLP.Chemscore.Metal>
0.0000

> <Gold.Chemscore.Hbonds>
donor molecule, donor type, donor heavy atom, donor atom, acceptor molecule, acceptor atom, score
      L1  H     4    19       P1  8028  1.00
      P1  H  8011  8017       L1     1  0.82

> <Gold.PLP.Chemscore.Internal.Correction>
0.8618

> <Gold.Rescore>
     Score         DG    S(hbond)    S(metal)    S(lipo)     H(rot)  DE(clash)    DE(int)     intcor
     15.85     -17.40       1.76        0.00      91.76       1.84       0.35       1.20       ----

> <Gold.Chemscore.Fitness>
15.8495

> <Gold.Chemscore.DG>
-17.4014

> <Gold.Chemscore.ZeroCoef>
-5.4800

> <Gold.Chemscore.Hbond>
1.7639

> <Gold.Chemscore.Metal>
0.0000

> <Gold.Chemscore.Lipo>
91.7580

> <Gold.Chemscore.Internal_Hbond>
0.0000

> <Gold.Chemscore.DEClash>
0.3470

> <Gold.Chemscore.DEInternal>
1.2048

> <Gold.Chemscore.Rot>
1.8382

> <Gold.Chemscore.Internal.Correction>
   9.000000E+99

> <Gold.Chemscore.Hbonds>
donor molecule, donor type, donor heavy atom, donor atom, acceptor molecule, acceptor atom, score
      L1  H     4    19       P1  8028  0.95
      P1  H  8011  8017       L1     1  0.81

> <Gold.Chemscore.Hbond.Weighted>
-5.8914

> <Gold.Chemscore.Metal.Weighted>
-0.0000

> <Gold.Chemscore.Lipo.Weighted>
-10.7357

> <Gold.Chemscore.Internal_Hbond.Weighted>
0.0000

> <Gold.Chemscore.DEClash.Weighted>
0.3470

> <Gold.Chemscore.DEInternal.Weighted>
1.2048

> <Gold.Chemscore.Rot.Weighted>
4.7057

> <Gold.Chemscore.Internal.Correction.Weighted>
   9.000000E+99

> <Gold.Protein.RotatedTorsions>
[ 6907 6896 6895 6894 ] final  102.47 input  -60.11 | X-H torsion
[ 7974 7965 7964 7962 ] final  153.48 input  175.53 | X-H torsion
[ 8008 7997 7996 7995 ] final -127.18 input   59.86 | X-H torsion
[ 10167 10162 10161 10158 ] final -151.53 input  -65.29 | X-H torsion
[ 10718 10713 10712 10709 ] final -161.43 input   66.30 | X-H torsion
[ 10763 10752 10751 10750 ] final  -43.08 input  -60.55 | X-H torsion
[ 11005 11000 10999 10996 ] final  176.00 input  -57.11 | X-H torsion

> <Gold.Protein.ActiveResidues>
 VAL166  LYS551  ARG553  GLY616  TRP617  ASP618  TYR619  PRO620  LYS621  CYS622 
 ASP623  PHE694  ASN695  SER759  ASP760  ASP761  ALA762  ILE779  LEU786  VAL792 
 PHE793  MET794  SER795  GLU796  ALA797  LYS798  CYS799  TRP800  GLU811  SER814 

> <Gold.Protein.RotatedAtoms>
  152.5323  133.9970  159.7877 H   0  0  0  0  0  0  0  0  0  0  0  0  # atno 6907 bound_to 6896
  151.0196  133.5881  159.2680 H   0  0  0  0  0  0  0  0  0  0  0  0  # atno 6908 bound_to 6896
  151.2926  135.0753  159.9263 H   0  0  0  0  0  0  0  0  0  0  0  0  # atno 6909 bound_to 6896
  144.8152  139.6806  143.6124 H   0  0  0  0  0  0  0  0  0  0  0  0  # atno 7974 bound_to 7965
  155.2420  140.0429  157.2976 H   0  0  0  0  0  0  0  0  0  0  0  0  # atno 8008 bound_to 7997
  154.5822  140.2404  155.8007 H   0  0  0  0  0  0  0  0  0  0  0  0  # atno 8009 bound_to 7997
  156.2201  140.2972  155.9941 H   0  0  0  0  0  0  0  0  0  0  0  0  # atno 8010 bound_to 7997
  139.7259  143.8884  152.2519 H   0  0  0  0  0  0  0  0  0  0  0  0  # atno 10167 bound_to 10162
  156.5962  130.8791  151.2902 H   0  0  0  0  0  0  0  0  0  0  0  0  # atno 10718 bound_to 10713
  153.9897  135.6707  153.4753 H   0  0  0  0  0  0  0  0  0  0  0  0  # atno 10763 bound_to 10752
  153.0710  135.4974  154.8301 H   0  0  0  0  0  0  0  0  0  0  0  0  # atno 10764 bound_to 10752
  154.7116  135.3098  154.9150 H   0  0  0  0  0  0  0  0  0  0  0  0  # atno 10765 bound_to 10752
  140.3683  134.7052  157.4376 H   0  0  0  0  0  0  0  0  0  0  0  0  # atno 11005 bound_to 11000
  146.2454  139.6087  142.9463 LP  0  0  0  0  0  0  0  0  0  0  0  0  # atno 17320 bound_to 7965
  145.5231  141.0431  143.2424 LP  0  0  0  0  0  0  0  0  0  0  0  0  # atno 17321 bound_to 7965
  139.8793  144.7026  150.8896 LP  0  0  0  0  0  0  0  0  0  0  0  0  # atno 17342 bound_to 10162
  140.7762  143.3674  151.1713 LP  0  0  0  0  0  0  0  0  0  0  0  0  # atno 17343 bound_to 10162
  157.7291  130.9666  150.1773 LP  0  0  0  0  0  0  0  0  0  0  0  0  # atno 17370 bound_to 10713
  156.2508  130.3700  149.8235 LP  0  0  0  0  0  0  0  0  0  0  0  0  # atno 17371 bound_to 10713
  140.0572  134.6047  155.8791 LP  0  0  0  0  0  0  0  0  0  0  0  0  # atno 17394 bound_to 11000
  141.1962  133.6591  156.5683 LP  0  0  0  0  0  0  0  0  0  0  0  0  # atno 17395 bound_to 11000

$$$$
