AV-unprocessed.smi:3218|AV-procd|sdf|12293|dock6
  -GOLD-   2272018133D 1   1.00000     0.00000
 Structure written by MMmdl.
 38 39  0  0  0  0  0  0  0  0  2 V2000
  144.7874  133.5939  150.2260 C   0  0  0  0  0  0  0  0  0  0  0  0
  145.2192  134.5856  151.2680 C   0  0  0  0  0  0  0  0  0  0  0  0
  145.9989  134.3434  152.4344 C   0  0  0  0  0  0  0  0  0  0  0  0
  146.2075  135.4370  153.1498 N   0  0  0  0  0  0  0  0  0  0  0  0
  145.5686  136.4121  152.4691 N   0  0  0  0  0  0  0  0  0  0  0  0
  145.5883  137.7749  152.9686 C   0  0  0  0  0  0  0  0  0  0  0  0
  146.5143  138.6846  152.1455 C   0  0  0  0  0  0  0  0  0  0  0  0
  147.9361  138.4628  152.4788 N   0  3  0  0  0  0  0  0  0  0  0  0
  148.2775  138.7516  153.8844 C   0  0  0  0  0  0  0  0  0  0  0  0
  149.7996  138.7329  154.0953 C   0  0  0  0  0  0  0  0  0  0  0  0
  150.2305  139.7908  155.0053 N   0  0  0  0  0  0  0  0  0  0  0  0
  151.1406  139.5052  156.1018 C   0  0  0  0  0  0  0  0  0  0  0  0
  151.1963  140.8023  156.9217 C   0  0  0  0  0  0  0  0  0  0  0  0
  150.5694  141.8841  156.0353 C   0  0  0  0  0  0  0  0  0  0  0  0
  149.9089  141.0874  154.9232 C   0  0  0  0  0  0  0  0  0  0  0  0
  149.1796  141.5996  154.0755 O   0  0  0  0  0  0  0  0  0  0  0  0
  144.9643  135.9264  151.3289 C   0  0  0  0  0  0  0  0  0  0  0  0
  144.7299  132.5826  150.6293 H   0  0  0  0  0  0  0  0  0  0  0  0
  145.4821  133.5660  149.3864 H   0  0  0  0  0  0  0  0  0  0  0  0
  143.8035  133.8338  149.8224 H   0  0  0  0  0  0  0  0  0  0  0  0
  146.4182  133.4098  152.7797 H   0  0  0  0  0  0  0  0  0  0  0  0
  144.5689  138.1612  152.9351 H   0  0  0  0  0  0  0  0  0  0  0  0
  145.8836  137.7677  154.0191 H   0  0  0  0  0  0  0  0  0  0  0  0
  146.3553  138.5142  151.0797 H   0  0  0  0  0  0  0  0  0  0  0  0
  146.2671  139.7284  152.3420 H   0  0  0  0  0  0  0  0  0  0  0  0
  148.1674  137.5000  152.2801 H   0  0  0  0  0  0  0  0  0  0  0  0
  147.8678  139.7257  154.1545 H   0  0  0  0  0  0  0  0  0  0  0  0
  147.8024  138.0110  154.5289 H   0  0  0  0  0  0  0  0  0  0  0  0
  150.1087  137.7659  154.4948 H   0  0  0  0  0  0  0  0  0  0  0  0
  150.3148  138.8499  153.1404 H   0  0  0  0  0  0  0  0  0  0  0  0
  150.7918  138.6632  156.7009 H   0  0  0  0  0  0  0  0  0  0  0  0
  152.1232  139.2552  155.6995 H   0  0  0  0  0  0  0  0  0  0  0  0
  150.6141  140.6922  157.8375 H   0  0  0  0  0  0  0  0  0  0  0  0
  152.2174  141.0526  157.2110 H   0  0  0  0  0  0  0  0  0  0  0  0
  149.8432  142.4913  156.5767 H   0  0  0  0  0  0  0  0  0  0  0  0
  151.3292  142.5407  155.6100 H   0  0  0  0  0  0  0  0  0  0  0  0
  144.4086  136.5685  150.6612 H   0  0  0  0  0  0  0  0  0  0  0  0
  148.4964  139.0567  151.8832 H   0  0  0  0  0  0  0  0  0  0  0  0
  1  2  1  0  0  0  0
  1 18  1  0  0  0  0
  1 19  1  0  0  0  0
  1 20  1  0  0  0  0
  2 17  2  0  0  0  0
  2  3  1  0  0  0  0
  3  4  2  0  0  0  0
  3 21  1  0  0  0  0
  4  5  1  0  0  0  0
  5  6  1  0  0  0  0
  5 17  1  0  0  0  0
  6  7  1  0  0  0  0
  6 22  1  0  0  0  0
  6 23  1  0  0  0  0
  7  8  1  0  0  0  0
  7 24  1  0  0  0  0
  7 25  1  0  0  0  0
  8  9  1  0  0  0  0
  8 26  1  0  0  0  0
  8 38  1  0  0  0  0
  9 10  1  0  0  0  0
  9 27  1  0  0  0  0
  9 28  1  0  0  0  0
 10 11  1  0  0  0  0
 10 29  1  0  0  0  0
 10 30  1  0  0  0  0
 11 15  1  0  0  0  0
 11 12  1  0  0  0  0
 12 13  1  0  0  0  0
 12 31  1  0  0  0  0
 12 32  1  0  0  0  0
 13 14  1  0  0  0  0
 13 33  1  0  0  0  0
 13 34  1  0  0  0  0
 14 15  1  0  0  0  0
 14 35  1  0  0  0  0
 14 36  1  0  0  0  0
 15 16  2  0  0  0  0
 17 37  1  0  0  0  0
M  CHG  1   8   1
M  END
> <s_m_source_file>
AV-unprocessed.smi

> <i_m_source_file_index>
3218

> <i_lp_mmshare_version>
43012

> <i_f3d_flags>
0

> <s_epik_input>
W0NIM11jMVtjSF1ubihbY0hdMSlbQ0gyXVtDSDJdW05IXVtDSDJdW0NIMl1OMltDSDJdW0NIMl1bQ0gyXUMyPU8=

> <s_epik_cmdline>
J2VwaWtfcHl0aG9uJywgJy1waCcsICc3LjAnLCAnLXRuJywgJzgnLCAnLW1hJywgJzIwMCcsICctbWV0YWxfYmluZGluZycsICctaW1hZScsICc8aW5maWxlLm1hZT4nLCAnLW9tYWUnLCAnPG91dGZpbGUubWFlPic=

> <r_lp_tautomer_probability>
1

> <r_epik_Ionization_Penalty>
0.00826456

> <r_epik_Ionization_Penalty_Charging>
0.00825899

> <r_epik_Ionization_Penalty_Neutral>
5.57245e-06

> <r_epik_State_Penalty>
0.00621436

> <r_epik_Charging_Adjusted_Penalty>
0.0144734

> <i_epik_Tot_Q>
1

> <i_epik_Tot_abs_Q>
1

> <r_epik_Metal_State_Penalty>
0.00623755

> <b_epik_Metal_Only>
0

> <s_lp_Force_Field>
OPLS_2005

> <r_lp_Energy>
17.5309

> <b_lp_Chiralities_Consistent>
1

> <s_lp_Variant>
AV-unprocessed.smi:3218-1

> <Gold.Version>
5.8.1

> <Gold.Id.Protein>
6NUR|6NUR_protein|mol2

> <Gold.PLP.Fitness>
46.3477

> <Gold.PLP.PLP>
-33.7044

> <Gold.PLP.part.hbond>
-3.7450

> <Gold.PLP.part.metal>
0.0000

> <Gold.PLP.part.buried>
-1.4905

> <Gold.PLP.part.nonpolar>
-28.9341

> <Gold.PLP.part.repulsive>
0.4343

> <Gold.PLP.ligand.clash>
0.0000

> <Gold.PLP.ligand.torsion>
0.6398

> <Gold.PLP.Chemscore.Hbond>
3.6240

> <Gold.PLP.Chemscore.CHOScore>
1.0000

> <Gold.PLP.Chemscore.Metal>
0.0000

> <Gold.Chemscore.Hbonds>
donor molecule, donor type, donor heavy atom, donor atom, acceptor molecule, acceptor atom, score
      L1  H     8    26       P1  7948  1.98
      L1  H     8    38       P1  7957  1.00
      P1  H  8011  8017       L1    16  0.62
      L1  C    17    37       P1 10171  1.00

> <Gold.PLP.Chemscore.Internal.Correction>
0.0509

> <Gold.Rescore>
     Score         DG    S(hbond)    S(metal)    S(lipo)     H(rot)  DE(clash)    DE(int)     intcor
     15.78     -16.61       2.56        0.00      66.53       2.03       0.27       0.55       ----

> <Gold.Chemscore.Fitness>
15.7835

> <Gold.Chemscore.DG>
-16.6093

> <Gold.Chemscore.ZeroCoef>
-5.4800

> <Gold.Chemscore.Hbond>
2.5591

> <Gold.Chemscore.Metal>
0.0000

> <Gold.Chemscore.Lipo>
66.5270

> <Gold.Chemscore.Internal_Hbond>
0.0000

> <Gold.Chemscore.DEClash>
0.2723

> <Gold.Chemscore.DEInternal>
0.5535

> <Gold.Chemscore.Rot>
2.0319

> <Gold.Chemscore.Internal.Correction>
   9.000000E+99

> <Gold.Chemscore.Hbonds>
donor molecule, donor type, donor heavy atom, donor atom, acceptor molecule, acceptor atom, score
      L1  H     8    26       P1  7948  0.92
      L1  H     8    38       P1  7957  0.95
      P1  H  8011  8017       L1    16  0.58

> <Gold.Chemscore.Hbond.Weighted>
-8.5474

> <Gold.Chemscore.Metal.Weighted>
-0.0000

> <Gold.Chemscore.Lipo.Weighted>
-7.7837

> <Gold.Chemscore.Internal_Hbond.Weighted>
0.0000

> <Gold.Chemscore.DEClash.Weighted>
0.2723

> <Gold.Chemscore.DEInternal.Weighted>
0.5535

> <Gold.Chemscore.Rot.Weighted>
5.2017

> <Gold.Chemscore.Internal.Correction.Weighted>
   9.000000E+99

> <Gold.Protein.RotatedTorsions>
[ 6907 6896 6895 6894 ] final  -88.54 input  -60.11 | X-H torsion
[ 7974 7965 7964 7962 ] final  131.40 input  175.53 | X-H torsion
[ 8008 7997 7996 7995 ] final -178.34 input   59.86 | X-H torsion
[ 10167 10162 10161 10158 ] final -102.66 input  -65.29 | X-H torsion
[ 10718 10713 10712 10709 ] final -166.99 input   66.30 | X-H torsion
[ 10763 10752 10751 10750 ] final -126.46 input  -60.55 | X-H torsion
[ 11005 11000 10999 10996 ] final -154.48 input  -57.11 | X-H torsion

> <Gold.Protein.ActiveResidues>
 VAL166  LYS551  ARG553  GLY616  TRP617  ASP618  TYR619  PRO620  LYS621  CYS622 
 ASP623  PHE694  ASN695  SER759  ASP760  ASP761  ALA762  ILE779  LEU786  VAL792 
 PHE793  MET794  SER795  GLU796  ALA797  LYS798  CYS799  TRP800  GLU811  SER814 

> <Gold.Protein.RotatedAtoms>
  150.6869  134.2726  159.4593 H   0  0  0  0  0  0  0  0  0  0  0  0  # atno 6907 bound_to 6896
  152.0647  134.9570  160.0584 H   0  0  0  0  0  0  0  0  0  0  0  0  # atno 6908 bound_to 6896
  152.0983  133.4201  159.4612 H   0  0  0  0  0  0  0  0  0  0  0  0  # atno 6909 bound_to 6896
  145.0078  139.4250  143.5260 H   0  0  0  0  0  0  0  0  0  0  0  0  # atno 7974 bound_to 7965
  156.0176  140.1254  157.0390 H   0  0  0  0  0  0  0  0  0  0  0  0  # atno 8008 bound_to 7997
  154.4299  140.1075  156.5988 H   0  0  0  0  0  0  0  0  0  0  0  0  # atno 8009 bound_to 7997
  155.5990  140.3470  155.4590 H   0  0  0  0  0  0  0  0  0  0  0  0  # atno 8010 bound_to 7997
  140.2283  143.3625  152.0909 H   0  0  0  0  0  0  0  0  0  0  0  0  # atno 10167 bound_to 10162
  156.6759  130.9102  151.3050 H   0  0  0  0  0  0  0  0  0  0  0  0  # atno 10718 bound_to 10713
  154.8745  135.3995  154.3434 H   0  0  0  0  0  0  0  0  0  0  0  0  # atno 10763 bound_to 10752
  153.4230  135.7023  153.6286 H   0  0  0  0  0  0  0  0  0  0  0  0  # atno 10764 bound_to 10752
  153.4940  135.3742  155.2476 H   0  0  0  0  0  0  0  0  0  0  0  0  # atno 10765 bound_to 10752
  140.6969  134.3980  157.5214 H   0  0  0  0  0  0  0  0  0  0  0  0  # atno 11005 bound_to 11000
  146.3464  139.9504  142.8729 LP  0  0  0  0  0  0  0  0  0  0  0  0  # atno 17320 bound_to 7965
  145.2065  140.9877  143.4125 LP  0  0  0  0  0  0  0  0  0  0  0  0  # atno 17321 bound_to 7965
  139.5119  144.6908  151.5764 LP  0  0  0  0  0  0  0  0  0  0  0  0  # atno 17342 bound_to 10162
  140.6204  143.9269  150.6522 LP  0  0  0  0  0  0  0  0  0  0  0  0  # atno 17343 bound_to 10162
  157.7061  130.9386  150.0935 LP  0  0  0  0  0  0  0  0  0  0  0  0  # atno 17370 bound_to 10713
  156.1904  130.3654  149.8918 LP  0  0  0  0  0  0  0  0  0  0  0  0  # atno 17371 bound_to 10713
  139.8907  134.8797  156.2354 LP  0  0  0  0  0  0  0  0  0  0  0  0  # atno 17394 bound_to 11000
  141.0196  133.7049  156.1245 LP  0  0  0  0  0  0  0  0  0  0  0  0  # atno 17395 bound_to 11000

$$$$
