AV-unprocessed.smi:258|AV-procd|sdf|1966|dock4
  -GOLD-   2262021123D 1   1.00000     0.00000
 Structure written by MMmdl.
 57 60  0  0  0  0  0  0  0  0  1 V2000
  142.7568  133.9203  155.3222 O   0  0  0  0  0  0  0  0  0  0  0  0
  142.6578  134.6930  154.1448 C   0  0  0  0  0  0  0  0  0  0  0  0
  142.9430  136.1681  154.4521 C   0  0  0  0  0  0  0  0  0  0  0  0
  144.3479  136.3780  154.4549 O   0  0  0  0  0  0  0  0  0  0  0  0
  144.8161  137.2086  155.5091 C   0  0  1  0  0  0  0  0  0  0  0  0
  144.7682  136.4668  156.8601 C   0  0  0  0  0  0  0  0  0  0  0  0
  145.4152  137.3231  157.9590 C   0  0  0  0  0  0  0  0  0  0  0  0
  146.8442  137.7337  157.5694 C   0  0  0  0  0  0  0  0  0  0  0  0
  146.8589  138.3883  156.2600 N   0  0  0  0  0  0  0  0  0  0  0  0
  147.9690  139.0899  155.9155 C   0  0  0  0  0  0  0  0  0  0  0  0
  148.5256  138.9205  154.6856 N   0  0  0  0  0  0  0  0  0  0  0  0
  149.6109  139.6156  154.3327 C   0  0  0  0  0  0  0  0  0  0  0  0
  150.2925  140.5168  155.0424 N   0  0  0  0  0  0  0  0  0  0  0  0
  149.7459  140.6845  156.2800 C   0  0  0  0  0  0  0  0  0  0  0  0
  148.5980  140.0174  156.7942 C   0  0  0  0  0  0  0  0  0  0  0  0
  148.3534  140.4365  158.0974 N   0  0  0  0  0  0  0  0  0  0  0  0
  149.2931  141.3107  158.3340 C   0  0  0  0  0  0  0  0  0  0  0  0
  150.1735  141.5191  157.2966 N   0  0  0  0  0  0  0  0  0  0  0  0
  151.3048  142.4297  157.2841 C   0  0  0  0  0  0  0  0  0  0  0  0
  151.6361  143.0215  158.6771 C   0  0  2  0  0  0  0  0  0  0  0  0
  151.5243  144.5650  158.7157 C   0  0  0  0  0  0  0  0  0  0  0  0
  150.2101  144.9952  158.4250 O   0  0  0  0  0  0  0  0  0  0  0  0
  153.0078  142.5198  159.1947 C   0  0  2  0  0  0  0  0  0  0  0  0
  153.1937  141.0132  159.1507 C   0  0  0  0  0  0  0  0  0  0  0  0
  154.3647  140.8051  160.1052 C   0  0  0  0  0  0  0  0  0  0  0  0
  154.2498  141.8306  161.0858 O   0  0  0  0  0  0  0  0  0  0  0  0
  153.2729  142.7843  160.6804 C   0  0  0  0  0  0  0  0  0  0  0  0
  146.2634  137.6096  155.1739 C   0  0  0  0  0  0  0  0  0  0  0  0
  142.6768  133.0078  155.0901 H   0  0  0  0  0  0  0  0  0  0  0  0
  143.3308  134.3091  153.3776 H   0  0  0  0  0  0  0  0  0  0  0  0
  141.6413  134.5853  153.7658 H   0  0  0  0  0  0  0  0  0  0  0  0
  142.5039  136.7839  153.6659 H   0  0  0  0  0  0  0  0  0  0  0  0
  142.4780  136.4657  155.3924 H   0  0  0  0  0  0  0  0  0  0  0  0
  144.2153  138.1185  155.5638 H   0  0  0  0  0  0  0  0  0  0  0  0
  143.7422  136.2305  157.1403 H   0  0  0  0  0  0  0  0  0  0  0  0
  145.2969  135.5163  156.7777 H   0  0  0  0  0  0  0  0  0  0  0  0
  144.8126  138.2170  158.1246 H   0  0  0  0  0  0  0  0  0  0  0  0
  145.4272  136.7776  158.9027 H   0  0  0  0  0  0  0  0  0  0  0  0
  147.2470  138.4044  158.3299 H   0  0  0  0  0  0  0  0  0  0  0  0
  147.4889  136.8542  157.5390 H   0  0  0  0  0  0  0  0  0  0  0  0
  149.9856  139.4223  153.3384 H   0  0  0  0  0  0  0  0  0  0  0  0
  149.3754  141.8254  159.2804 H   0  0  0  0  0  0  0  0  0  0  0  0
  152.1611  141.8859  156.8848 H   0  0  0  0  0  0  0  0  0  0  0  0
  151.0923  143.2311  156.5755 H   0  0  0  0  0  0  0  0  0  0  0  0
  150.8775  142.6460  159.3655 H   0  0  0  0  0  0  0  0  0  0  0  0
  151.8109  144.9539  159.6929 H   0  0  0  0  0  0  0  0  0  0  0  0
  152.2086  145.0232  158.0022 H   0  0  0  0  0  0  0  0  0  0  0  0
  149.9606  144.6496  157.5816 H   0  0  0  0  0  0  0  0  0  0  0  0
  153.8086  142.9789  158.6126 H   0  0  0  0  0  0  0  0  0  0  0  0
  152.3055  140.5077  159.5329 H   0  0  0  0  0  0  0  0  0  0  0  0
  153.3999  140.6321  158.1503 H   0  0  0  0  0  0  0  0  0  0  0  0
  154.3616  139.8144  160.5601 H   0  0  0  0  0  0  0  0  0  0  0  0
  155.3110  140.9336  159.5785 H   0  0  0  0  0  0  0  0  0  0  0  0
  153.6187  143.8008  160.8691 H   0  0  0  0  0  0  0  0  0  0  0  0
  152.3701  142.6198  161.2703 H   0  0  0  0  0  0  0  0  0  0  0  0
  146.8694  136.7162  155.0159 H   0  0  0  0  0  0  0  0  0  0  0  0
  146.2737  138.1602  154.2341 H   0  0  0  0  0  0  0  0  0  0  0  0
  1  2  1  0  0  0  0
  1 29  1  0  0  0  0
  2  3  1  0  0  0  0
  2 30  1  0  0  0  0
  2 31  1  0  0  0  0
  3  4  1  0  0  0  0
  3 32  1  0  0  0  0
  3 33  1  0  0  0  0
  4  5  1  0  0  0  0
  5 28  1  0  0  0  0
  5  6  1  0  0  0  0
  5 34  1  0  0  0  0
  6  7  1  0  0  0  0
  6 35  1  0  0  0  0
  6 36  1  0  0  0  0
  7  8  1  0  0  0  0
  7 37  1  0  0  0  0
  7 38  1  0  0  0  0
  8  9  1  0  0  0  0
  8 39  1  0  0  0  0
  8 40  1  0  0  0  0
  9 10  1  0  0  0  0
  9 28  1  0  0  0  0
 10 15  1  0  0  0  0
 10 11  2  0  0  0  0
 11 12  1  0  0  0  0
 12 13  2  0  0  0  0
 12 41  1  0  0  0  0
 13 14  1  0  0  0  0
 14 18  1  0  0  0  0
 14 15  2  0  0  0  0
 15 16  1  0  0  0  0
 16 17  2  0  0  0  0
 17 18  1  0  0  0  0
 17 42  1  0  0  0  0
 18 19  1  0  0  0  0
 19 20  1  0  0  0  0
 19 43  1  0  0  0  0
 19 44  1  0  0  0  0
 20 21  1  0  0  0  0
 20 23  1  0  0  0  0
 20 45  1  0  0  0  0
 21 22  1  0  0  0  0
 21 46  1  0  0  0  0
 21 47  1  0  0  0  0
 22 48  1  0  0  0  0
 23 27  1  0  0  0  0
 23 24  1  0  0  0  0
 23 49  1  0  0  0  0
 24 25  1  0  0  0  0
 24 50  1  0  0  0  0
 24 51  1  0  0  0  0
 25 26  1  0  0  0  0
 25 52  1  0  0  0  0
 25 53  1  0  0  0  0
 26 27  1  0  0  0  0
 27 54  1  0  0  0  0
 27 55  1  0  0  0  0
 28 56  1  0  0  0  0
 28 57  1  0  0  0  0
M  END
> <s_m_source_file>
AV-unprocessed.smi

> <i_m_source_file_index>
258

> <i_lp_mmshare_version>
43012

> <i_f3d_flags>
0

> <s_epik_input>
W09IXVtDSDJdW0NIMl1PW0NAQEhdMVtDSDJdW0NIMl1bQ0gyXU4oW0NIMl0xKWMobltjSF1uMiljKGMyMyluW2NIXW4zW0NIMl1bQ0BIXShbQ0gyXVtPSF0pW0NAQEhdNFtDSDJdW0NIMl1PW0NIMl00

> <s_epik_cmdline>
J2VwaWtfcHl0aG9uJywgJy1waCcsICc3LjAnLCAnLXRuJywgJzgnLCAnLW1hJywgJzIwMCcsICctbWV0YWxfYmluZGluZycsICctaW1hZScsICc8aW5maWxlLm1hZT4nLCAnLW9tYWUnLCAnPG91dGZpbGUubWFlPic=

> <r_lp_tautomer_probability>
1

> <r_epik_Ionization_Penalty>
0.00349036

> <r_epik_Ionization_Penalty_Charging>
0

> <r_epik_Ionization_Penalty_Neutral>
0.00349036

> <r_epik_State_Penalty>
0.00229798

> <r_epik_Charging_Adjusted_Penalty>
0.00229798

> <i_epik_Tot_Q>
0

> <i_epik_Tot_abs_Q>
0

> <r_epik_Metal_State_Penalty>
-0

> <b_epik_Metal_Only>
0

> <s_lp_Force_Field>
OPLS_2005

> <r_lp_Energy>
45.891

> <b_lp_Chiralities_Consistent>
1

> <s_lp_Variant>
AV-unprocessed.smi:258-2

> <Gold.Version>
5.8.1

> <Gold.Id.Protein>
6NUR|6NUR_protein|mol2

> <Gold.PLP.Fitness>
46.7858

> <Gold.PLP.PLP>
-39.1409

> <Gold.PLP.part.hbond>
-5.1872

> <Gold.PLP.part.metal>
0.0000

> <Gold.PLP.part.buried>
-5.1850

> <Gold.PLP.part.nonpolar>
-28.6389

> <Gold.PLP.part.repulsive>
0.3057

> <Gold.PLP.ligand.clash>
0.0000

> <Gold.PLP.ligand.torsion>
1.6431

> <Gold.PLP.Chemscore.Hbond>
2.4595

> <Gold.PLP.Chemscore.CHOScore>
1.0000

> <Gold.PLP.Chemscore.Metal>
0.0000

> <Gold.Chemscore.Hbonds>
donor molecule, donor type, donor heavy atom, donor atom, acceptor molecule, acceptor atom, score
      L1  H     1    29       P1 10957  0.34
      L1  H    22    48       P1  8028  0.50
      P1  H  7989  7998       L1    13  0.58
      P1  H 11000 11005       L1     1  0.24
      L1  C    12    41       P1  7957  1.00

> <Gold.PLP.Chemscore.Internal.Correction>
0.5527

> <Gold.Rescore>
     Score         DG    S(hbond)    S(metal)    S(lipo)     H(rot)  DE(clash)    DE(int)     intcor
      6.08      -7.78       1.00        0.00      83.61       4.22       0.00       1.70       ----

> <Gold.Chemscore.Fitness>
6.0817

> <Gold.Chemscore.DG>
-7.7823

> <Gold.Chemscore.ZeroCoef>
-5.4800

> <Gold.Chemscore.Hbond>
0.9983

> <Gold.Chemscore.Metal>
0.0000

> <Gold.Chemscore.Lipo>
83.6146

> <Gold.Chemscore.Internal_Hbond>
0.0000

> <Gold.Chemscore.DEClash>
0.0015

> <Gold.Chemscore.DEInternal>
1.6991

> <Gold.Chemscore.Rot>
4.2246

> <Gold.Chemscore.Internal.Correction>
   9.000000E+99

> <Gold.Chemscore.Hbonds>
donor molecule, donor type, donor heavy atom, donor atom, acceptor molecule, acceptor atom, score
      L1  H     1    29       P1 10957  0.35
      L1  H    22    48       P1  8028  0.06
      P1  H  7989  7998       L1    13  0.05

> <Gold.Chemscore.Hbond.Weighted>
-3.3342

> <Gold.Chemscore.Metal.Weighted>
-0.0000

> <Gold.Chemscore.Lipo.Weighted>
-9.7829

> <Gold.Chemscore.Internal_Hbond.Weighted>
0.0000

> <Gold.Chemscore.DEClash.Weighted>
0.0015

> <Gold.Chemscore.DEInternal.Weighted>
1.6991

> <Gold.Chemscore.Rot.Weighted>
10.8149

> <Gold.Chemscore.Internal.Correction.Weighted>
   9.000000E+99

> <Gold.Protein.RotatedTorsions>
[ 6907 6896 6895 6894 ] final   54.18 input  -60.11 | X-H torsion
[ 7974 7965 7964 7962 ] final   70.96 input  175.53 | X-H torsion
[ 8008 7997 7996 7995 ] final -136.32 input   59.86 | X-H torsion
[ 10167 10162 10161 10158 ] final   73.53 input  -65.29 | X-H torsion
[ 10718 10713 10712 10709 ] final   69.39 input   66.30 | X-H torsion
[ 10763 10752 10751 10750 ] final -173.92 input  -60.55 | X-H torsion
[ 11005 11000 10999 10996 ] final  -12.32 input  -57.11 | X-H torsion

> <Gold.Protein.ActiveResidues>
 VAL166  LYS551  ARG553  GLY616  TRP617  ASP618  TYR619  PRO620  LYS621  CYS622 
 ASP623  PHE694  ASN695  SER759  ASP760  ASP761  ALA762  ILE779  LEU786  VAL792 
 PHE793  MET794  SER795  GLU796  ALA797  LYS798  CYS799  TRP800  GLU811  SER814 

> <Gold.Protein.RotatedAtoms>
  152.3413  134.7131  160.0262 H   0  0  0  0  0  0  0  0  0  0  0  0  # atno 6907 bound_to 6896
  151.7515  133.3322  159.3401 H   0  0  0  0  0  0  0  0  0  0  0  0  # atno 6908 bound_to 6896
  150.7481  134.6120  159.6136 H   0  0  0  0  0  0  0  0  0  0  0  0  # atno 6909 bound_to 6896
  145.7717  139.2846  143.1317 H   0  0  0  0  0  0  0  0  0  0  0  0  # atno 7974 bound_to 7965
  155.3932  140.0501  157.3040 H   0  0  0  0  0  0  0  0  0  0  0  0  # atno 8008 bound_to 7997
  154.5026  140.2162  155.9277 H   0  0  0  0  0  0  0  0  0  0  0  0  # atno 8009 bound_to 7997
  156.1486  140.3140  155.8616 H   0  0  0  0  0  0  0  0  0  0  0  0  # atno 8010 bound_to 7997
  140.0235  144.5522  150.7563 H   0  0  0  0  0  0  0  0  0  0  0  0  # atno 10167 bound_to 10162
  157.6343  130.9423  150.0507 H   0  0  0  0  0  0  0  0  0  0  0  0  # atno 10718 bound_to 10713
  154.6023  135.2856  155.0522 H   0  0  0  0  0  0  0  0  0  0  0  0  # atno 10763 bound_to 10752
  154.1782  135.6461  153.5031 H   0  0  0  0  0  0  0  0  0  0  0  0  # atno 10764 bound_to 10752
  153.0162  135.5417  154.6746 H   0  0  0  0  0  0  0  0  0  0  0  0  # atno 10765 bound_to 10752
  140.7645  133.8488  155.9153 H   0  0  0  0  0  0  0  0  0  0  0  0  # atno 11005 bound_to 11000
  146.0163  140.8389  142.9946 LP  0  0  0  0  0  0  0  0  0  0  0  0  # atno 17320 bound_to 7965
  144.6811  140.2563  143.7325 LP  0  0  0  0  0  0  0  0  0  0  0  0  # atno 17321 bound_to 7965
  140.7332  143.2715  151.3875 LP  0  0  0  0  0  0  0  0  0  0  0  0  # atno 17342 bound_to 10162
  139.6124  144.1072  152.2311 LP  0  0  0  0  0  0  0  0  0  0  0  0  # atno 17343 bound_to 10162
  156.1570  130.3643  149.9354 LP  0  0  0  0  0  0  0  0  0  0  0  0  # atno 17370 bound_to 10713
  156.7361  130.9062  151.3629 LP  0  0  0  0  0  0  0  0  0  0  0  0  # atno 17371 bound_to 10713
  140.9632  134.1628  157.4637 LP  0  0  0  0  0  0  0  0  0  0  0  0  # atno 17394 bound_to 11000
  139.8765  134.9952  156.5732 LP  0  0  0  0  0  0  0  0  0  0  0  0  # atno 17395 bound_to 11000

$$$$
