AV-unprocessed.smi:6|AV-procd|sdf|42|dock1
  -GOLD-   2262015153D 1   1.00000     0.00000
 Structure written by MMmdl.
 37 38  0  0  0  0  0  0  0  0  3 V2000
  144.4585  136.5246  151.9489 C   0  0  0  0  0  0  0  0  0  0  0  0
  143.5408  135.3043  151.7796 C   0  0  0  0  0  0  0  0  0  0  0  0
  142.7990  134.9272  153.0711 C   0  0  0  0  0  0  0  0  0  0  0  0
  144.2774  134.1156  151.1785 C   0  0  0  0  0  0  0  0  0  0  0  0
  143.7148  133.4522  150.1551 N   0  3  0  0  0  0  0  0  0  0  0  0
  144.3557  132.3894  149.6101 C   0  0  0  0  0  0  0  0  0  0  0  0
  145.6047  131.9779  150.1105 C   0  0  0  0  0  0  0  0  0  0  0  0
  146.1386  132.7180  151.1794 C   0  0  0  0  0  0  0  0  0  0  0  0
  147.3772  132.3522  151.7210 N   0  0  0  0  0  0  0  0  0  0  0  0
  148.0430  133.2643  152.6433 C   0  0  0  0  0  0  0  0  0  0  0  0
  149.0015  132.5577  153.5902 C   0  0  0  0  0  0  0  0  0  0  0  0
  149.2152  131.2263  153.5371 C   0  0  0  0  0  0  0  0  0  0  0  0
  150.0827  130.5679  154.4239 N   0  0  0  0  0  0  0  0  0  0  0  0
  150.2544  129.1201  154.2811 C   0  0  0  0  0  0  0  0  0  0  0  0
  150.7442  131.2714  155.3861 C   0  0  0  0  0  0  0  0  0  0  0  0
  151.5040  130.6689  156.1454 O   0  0  0  0  0  0  0  0  0  0  0  0
  150.5372  132.6210  155.4707 N   0  5  0  0  0  0  0  0  0  0  0  0
  149.7017  133.3090  154.6389 C   0  0  0  0  0  0  0  0  0  0  0  0
  149.5243  134.5226  154.7423 O   0  0  0  0  0  0  0  0  0  0  0  0
  145.4652  133.7700  151.6961 N   0  0  0  0  0  0  0  0  0  0  0  0
  144.9167  136.8058  151.0003 H   0  0  0  0  0  0  0  0  0  0  0  0
  145.2605  136.3247  152.6603 H   0  0  0  0  0  0  0  0  0  0  0  0
  143.9004  137.3871  152.3142 H   0  0  0  0  0  0  0  0  0  0  0  0
  142.7736  135.5971  151.0608 H   0  0  0  0  0  0  0  0  0  0  0  0
  142.1025  134.1064  152.8983 H   0  0  0  0  0  0  0  0  0  0  0  0
  142.2253  135.7712  153.4546 H   0  0  0  0  0  0  0  0  0  0  0  0
  143.4928  134.6167  153.8534 H   0  0  0  0  0  0  0  0  0  0  0  0
  143.8475  131.9023  148.7909 H   0  0  0  0  0  0  0  0  0  0  0  0
  146.1290  131.1330  149.6877 H   0  0  0  0  0  0  0  0  0  0  0  0
  147.9795  131.7827  151.1431 H   0  0  0  0  0  0  0  0  0  0  0  0
  148.5941  134.0172  152.0780 H   0  0  0  0  0  0  0  0  0  0  0  0
  147.2917  133.7926  153.2319 H   0  0  0  0  0  0  0  0  0  0  0  0
  148.7348  130.5867  152.8112 H   0  0  0  0  0  0  0  0  0  0  0  0
  150.0162  128.6102  155.2158 H   0  0  0  0  0  0  0  0  0  0  0  0
  151.2867  128.8848  154.0186 H   0  0  0  0  0  0  0  0  0  0  0  0
  149.6136  128.6961  153.5074 H   0  0  0  0  0  0  0  0  0  0  0  0
  142.8091  133.7395  149.7833 H   0  0  0  0  0  0  0  0  0  0  0  0
  1  2  1  0  0  0  0
  1 21  1  0  0  0  0
  1 22  1  0  0  0  0
  1 23  1  0  0  0  0
  2  3  1  0  0  0  0
  2  4  1  0  0  0  0
  2 24  1  0  0  0  0
  3 25  1  0  0  0  0
  3 26  1  0  0  0  0
  3 27  1  0  0  0  0
  4 20  1  0  0  0  0
  4  5  2  0  0  0  0
  5  6  1  0  0  0  0
  5 37  1  0  0  0  0
  6  7  2  0  0  0  0
  6 28  1  0  0  0  0
  7  8  1  0  0  0  0
  7 29  1  0  0  0  0
  8  9  1  0  0  0  0
  8 20  2  0  0  0  0
  9 10  1  0  0  0  0
  9 30  1  0  0  0  0
 10 11  1  0  0  0  0
 10 31  1  0  0  0  0
 10 32  1  0  0  0  0
 11 18  1  0  0  0  0
 11 12  2  0  0  0  0
 12 13  1  0  0  0  0
 12 33  1  0  0  0  0
 13 14  1  0  0  0  0
 13 15  1  0  0  0  0
 14 34  1  0  0  0  0
 14 35  1  0  0  0  0
 14 36  1  0  0  0  0
 15 16  2  0  0  0  0
 15 17  1  0  0  0  0
 17 18  1  0  0  0  0
 18 19  2  0  0  0  0
M  CHG  1   5   1
M  CHG  1  17  -1
M  END
> <s_m_source_file>
AV-unprocessed.smi

> <i_m_source_file_index>
6

> <i_lp_mmshare_version>
43012

> <i_f3d_flags>
0

> <s_epik_input>
W0NIM11bQ0hdKFtDSDNdKWMxbltjSF1bY0hdYyhuMSlbTkhdW0NIMl1jMltjSF1uKFtDSDNdKWMoPU8pW25IXWMyPU8=

> <s_epik_cmdline>
J2VwaWtfcHl0aG9uJywgJy1waCcsICc3LjAnLCAnLXRuJywgJzgnLCAnLW1hJywgJzIwMCcsICctbWV0YWxfYmluZGluZycsICctaW1hZScsICc8aW5maWxlLm1hZT4nLCAnLW9tYWUnLCAnPG91dGZpbGUubWFlPic=

> <r_lp_tautomer_probability>
0.998874

> <r_epik_Ionization_Penalty>
4.8157

> <r_epik_Ionization_Penalty_Charging>
0.866709

> <r_epik_Ionization_Penalty_Neutral>
3.94899

> <r_epik_State_Penalty>
4.49389

> <r_epik_Charging_Adjusted_Penalty>
5.3606

> <i_epik_Tot_Q>
0

> <i_epik_Tot_abs_Q>
2

> <r_epik_Metal_State_Penalty>
1.28929

> <b_epik_Metal_Only>
1

> <s_lp_Force_Field>
OPLS_2005

> <r_lp_Energy>
16.1184

> <b_lp_Chiralities_Consistent>
1

> <s_lp_Variant>
AV-unprocessed.smi:6-4

> <Gold.Version>
5.8.1

> <Gold.Id.Protein>
6NUR|6NUR_protein|mol2

> <Gold.PLP.Fitness>
49.4258

> <Gold.PLP.PLP>
-38.9368

> <Gold.PLP.part.hbond>
-2.0000

> <Gold.PLP.part.metal>
0.0000

> <Gold.PLP.part.buried>
-5.7647

> <Gold.PLP.part.nonpolar>
-29.9342

> <Gold.PLP.part.repulsive>
0.2874

> <Gold.PLP.ligand.clash>
0.0000

> <Gold.PLP.ligand.torsion>
0.6310

> <Gold.PLP.Chemscore.Hbond>
3.0000

> <Gold.PLP.Chemscore.CHOScore>
0.8865

> <Gold.PLP.Chemscore.Metal>
0.0000

> <Gold.Chemscore.Hbonds>
donor molecule, donor type, donor heavy atom, donor atom, acceptor molecule, acceptor atom, score
      L1  H     5    37       P1 10186  2.00
      L1  H     9    30       P1 10747  1.00
      L1  C    12    33       P1 10747  0.88

> <Gold.PLP.Chemscore.Internal.Correction>
0.0916

> <Gold.Rescore>
     Score         DG    S(hbond)    S(metal)    S(lipo)     H(rot)  DE(clash)    DE(int)     intcor
     14.46     -14.94       1.99        0.00      60.17       1.65       0.07       0.41       ----

> <Gold.Chemscore.Fitness>
14.4630

> <Gold.Chemscore.DG>
-14.9399

> <Gold.Chemscore.ZeroCoef>
-5.4800

> <Gold.Chemscore.Hbond>
1.9875

> <Gold.Chemscore.Metal>
0.0000

> <Gold.Chemscore.Lipo>
60.1669

> <Gold.Chemscore.Internal_Hbond>
0.0000

> <Gold.Chemscore.DEClash>
0.0650

> <Gold.Chemscore.DEInternal>
0.4118

> <Gold.Chemscore.Rot>
1.6477

> <Gold.Chemscore.Internal.Correction>
   9.000000E+99

> <Gold.Chemscore.Hbonds>
donor molecule, donor type, donor heavy atom, donor atom, acceptor molecule, acceptor atom, score
      L1  H     5    37       P1 10186  0.99
      L1  H     9    30       P1 10747  0.99

> <Gold.Chemscore.Hbond.Weighted>
-6.6384

> <Gold.Chemscore.Metal.Weighted>
-0.0000

> <Gold.Chemscore.Lipo.Weighted>
-7.0395

> <Gold.Chemscore.Internal_Hbond.Weighted>
0.0000

> <Gold.Chemscore.DEClash.Weighted>
0.0650

> <Gold.Chemscore.DEInternal.Weighted>
0.4118

> <Gold.Chemscore.Rot.Weighted>
4.2180

> <Gold.Chemscore.Internal.Correction.Weighted>
   9.000000E+99

> <Gold.Protein.RotatedTorsions>
[ 6907 6896 6895 6894 ] final -175.56 input  -60.11 | X-H torsion
[ 7974 7965 7964 7962 ] final   42.80 input  175.53 | X-H torsion
[ 8008 7997 7996 7995 ] final -144.17 input   59.86 | X-H torsion
[ 10167 10162 10161 10158 ] final  165.18 input  -65.29 | X-H torsion
[ 10718 10713 10712 10709 ] final  -90.56 input   66.30 | X-H torsion
[ 10763 10752 10751 10750 ] final -131.31 input  -60.55 | X-H torsion
[ 11005 11000 10999 10996 ] final   41.79 input  -57.11 | X-H torsion

> <Gold.Protein.ActiveResidues>
 VAL166  LYS551  ARG553  GLY616  TRP617  ASP618  TYR619  PRO620  LYS621  CYS622 
 ASP623  PHE694  ASN695  SER759  ASP760  ASP761  ALA762  ILE779  LEU786  VAL792 
 PHE793  MET794  SER795  GLU796  ALA797  LYS798  CYS799  TRP800  GLU811  SER814 

> <Gold.Protein.RotatedAtoms>
  151.5906  133.3367  159.3026 H   0  0  0  0  0  0  0  0  0  0  0  0  # atno 6907 bound_to 6896
  150.8262  134.7497  159.6826 H   0  0  0  0  0  0  0  0  0  0  0  0  # atno 6908 bound_to 6896
  152.4351  134.5708  159.9972 H   0  0  0  0  0  0  0  0  0  0  0  0  # atno 6909 bound_to 6896
  146.0710  139.5259  142.9598 H   0  0  0  0  0  0  0  0  0  0  0  0  # atno 7974 bound_to 7965
  155.5225  140.0592  157.2904 H   0  0  0  0  0  0  0  0  0  0  0  0  # atno 8008 bound_to 7997
  154.4512  140.1950  156.0458 H   0  0  0  0  0  0  0  0  0  0  0  0  # atno 8009 bound_to 7997
  156.0708  140.3260  155.7578 H   0  0  0  0  0  0  0  0  0  0  0  0  # atno 8010 bound_to 7997
  139.4901  144.4158  151.9245 H   0  0  0  0  0  0  0  0  0  0  0  0  # atno 10167 bound_to 10162
  155.9988  130.4914  150.5342 H   0  0  0  0  0  0  0  0  0  0  0  0  # atno 10718 bound_to 10713
  154.8751  135.3834  154.4226 H   0  0  0  0  0  0  0  0  0  0  0  0  # atno 10763 bound_to 10752
  153.4928  135.7030  153.5880 H   0  0  0  0  0  0  0  0  0  0  0  0  # atno 10764 bound_to 10752
  153.4246  135.3893  155.2099 H   0  0  0  0  0  0  0  0  0  0  0  0  # atno 10765 bound_to 10752
  140.1801  134.4115  155.8205 H   0  0  0  0  0  0  0  0  0  0  0  0  # atno 11005 bound_to 11000
  145.6392  141.0288  143.1821 LP  0  0  0  0  0  0  0  0  0  0  0  0  # atno 17320 bound_to 7965
  144.7231  139.7963  143.7374 LP  0  0  0  0  0  0  0  0  0  0  0  0  # atno 17321 bound_to 7965
  140.3601  144.2984  150.5935 LP  0  0  0  0  0  0  0  0  0  0  0  0  # atno 17342 bound_to 10162
  140.5410  143.2223  151.8084 LP  0  0  0  0  0  0  0  0  0  0  0  0  # atno 17343 bound_to 10162
  157.3287  131.0695  151.1877 LP  0  0  0  0  0  0  0  0  0  0  0  0  # atno 17370 bound_to 10713
  157.2765  130.6729  149.6045 LP  0  0  0  0  0  0  0  0  0  0  0  0  # atno 17371 bound_to 10713
  141.2222  133.6996  156.7915 LP  0  0  0  0  0  0  0  0  0  0  0  0  # atno 17394 bound_to 11000
  140.2277  134.8709  157.3444 LP  0  0  0  0  0  0  0  0  0  0  0  0  # atno 17395 bound_to 11000

$$$$
