AV-unprocessed.smi:2090|AV-procd|sdf|8533|dock1
  -GOLD-   2272011253D 1   1.00000     0.00000
 Structure written by MMmdl.
 42 43  0  0  0  0  0  0  0  0  2 V2000
  150.7910  142.3337  157.3016 C   0  0  0  0  0  0  0  0  0  0  0  0
  150.5815  141.2735  156.2754 C   0  0  0  0  0  0  0  0  0  0  0  0
  149.4697  140.6142  155.8317 C   0  0  0  0  0  0  0  0  0  0  0  0
  149.9912  139.7384  154.8427 C   0  0  0  0  0  0  0  0  0  0  0  0
  149.1392  138.8632  154.1218 N   0  0  0  0  0  0  0  0  0  0  0  0
  147.8103  138.7186  154.2610 C   0  0  0  0  0  0  0  0  0  0  0  0
  147.1048  139.3523  155.0468 O   0  0  0  0  0  0  0  0  0  0  0  0
  147.3288  137.7808  153.4321 N   0  0  0  0  0  0  0  0  0  0  0  0
  145.9265  137.3885  153.3474 C   0  0  0  0  0  0  0  0  0  0  0  0
  145.6095  136.7098  152.0004 C   0  0  0  0  0  0  0  0  0  0  0  0
  146.2451  135.3741  151.8731 N   0  3  2  0  0  0  0  0  0  0  0  0
  145.7237  134.6168  150.7059 C   0  0  0  0  0  0  0  0  0  0  0  0
  146.4914  133.2979  150.5067 C   0  0  0  0  0  0  0  0  0  0  0  0
  146.4732  132.4177  151.7692 C   0  0  2  0  0  0  0  0  0  0  0  0
  145.1084  131.7485  152.0092 C   0  0  0  0  0  0  0  0  0  0  0  0
  146.9517  133.2459  152.9756 C   0  0  0  0  0  0  0  0  0  0  0  0
  146.1774  134.5687  153.1214 C   0  0  0  0  0  0  0  0  0  0  0  0
  151.3025  139.8519  154.6966 N   0  0  0  0  0  0  0  0  0  0  0  0
  151.6876  140.8356  155.6149 O   0  0  0  0  0  0  0  0  0  0  0  0
  149.8382  142.7024  157.6817 H   0  0  0  0  0  0  0  0  0  0  0  0
  151.3356  143.1785  156.8794 H   0  0  0  0  0  0  0  0  0  0  0  0
  151.3647  141.9473  158.1441 H   0  0  0  0  0  0  0  0  0  0  0  0
  148.4497  140.7423  156.1624 H   0  0  0  0  0  0  0  0  0  0  0  0
  149.5924  138.2801  153.4339 H   0  0  0  0  0  0  0  0  0  0  0  0
  147.9754  137.3094  152.8159 H   0  0  0  0  0  0  0  0  0  0  0  0
  145.6756  136.7267  154.1784 H   0  0  0  0  0  0  0  0  0  0  0  0
  145.3314  138.2914  153.4785 H   0  0  0  0  0  0  0  0  0  0  0  0
  144.5320  136.6234  151.8526 H   0  0  0  0  0  0  0  0  0  0  0  0
  145.9775  137.3511  151.1985 H   0  0  0  0  0  0  0  0  0  0  0  0
  144.6583  134.4251  150.8392 H   0  0  0  0  0  0  0  0  0  0  0  0
  145.8219  135.2204  149.8027 H   0  0  0  0  0  0  0  0  0  0  0  0
  146.0812  132.7503  149.6572 H   0  0  0  0  0  0  0  0  0  0  0  0
  147.5254  133.5275  150.2462 H   0  0  0  0  0  0  0  0  0  0  0  0
  147.1902  131.6095  151.6181 H   0  0  0  0  0  0  0  0  0  0  0  0
  144.3157  132.4770  152.1774 H   0  0  0  0  0  0  0  0  0  0  0  0
  145.1428  131.0933  152.8802 H   0  0  0  0  0  0  0  0  0  0  0  0
  144.8183  131.1378  151.1537 H   0  0  0  0  0  0  0  0  0  0  0  0
  146.8689  132.6605  153.8919 H   0  0  0  0  0  0  0  0  0  0  0  0
  148.0127  133.4699  152.8559 H   0  0  0  0  0  0  0  0  0  0  0  0
  146.6010  135.1281  153.9543 H   0  0  0  0  0  0  0  0  0  0  0  0
  145.1348  134.3746  153.3765 H   0  0  0  0  0  0  0  0  0  0  0  0
  147.2227  135.5420  151.6823 H   0  0  0  0  0  0  0  0  0  0  0  0
  1  2  1  0  0  0  0
  1 20  1  0  0  0  0
  1 21  1  0  0  0  0
  1 22  1  0  0  0  0
  2 19  1  0  0  0  0
  2  3  2  0  0  0  0
  3  4  1  0  0  0  0
  3 23  1  0  0  0  0
  4  5  1  0  0  0  0
  4 18  2  0  0  0  0
  5  6  1  0  0  0  0
  5 24  1  0  0  0  0
  6  7  2  0  0  0  0
  6  8  1  0  0  0  0
  8  9  1  0  0  0  0
  8 25  1  0  0  0  0
  9 10  1  0  0  0  0
  9 26  1  0  0  0  0
  9 27  1  0  0  0  0
 10 11  1  0  0  0  0
 10 28  1  0  0  0  0
 10 29  1  0  0  0  0
 11 17  1  0  0  0  0
 11 12  1  0  0  0  0
 11 42  1  0  0  0  0
 12 13  1  0  0  0  0
 12 30  1  0  0  0  0
 12 31  1  0  0  0  0
 13 14  1  0  0  0  0
 13 32  1  0  0  0  0
 13 33  1  0  0  0  0
 14 15  1  0  0  0  0
 14 16  1  0  0  0  0
 14 34  1  0  0  0  0
 15 35  1  0  0  0  0
 15 36  1  0  0  0  0
 15 37  1  0  0  0  0
 16 17  1  0  0  0  0
 16 38  1  0  0  0  0
 16 39  1  0  0  0  0
 17 40  1  0  0  0  0
 17 41  1  0  0  0  0
 18 19  1  0  0  0  0
M  CHG  1  11   1
M  END
> <s_m_source_file>
AV-unprocessed.smi

> <i_m_source_file_index>
2090

> <i_lp_mmshare_version>
43012

> <i_f3d_flags>
0

> <s_epik_input>
W0NIM11jMVtjSF1jKG5vMSlbTkhdQyg9TylbTkhdW0NIMl1bQ0gyXU4yW0NIMl1bQ0gyXVtDSF0oW0NIM10pW0NIMl1bQ0gyXTI=

> <s_epik_cmdline>
J2VwaWtfcHl0aG9uJywgJy1waCcsICc3LjAnLCAnLXRuJywgJzgnLCAnLW1hJywgJzIwMCcsICctbWV0YWxfYmluZGluZycsICctaW1hZScsICc8aW5maWxlLm1hZT4nLCAnLW9tYWUnLCAnPG91dGZpbGUubWFlPic=

> <r_epik_Ionization_Penalty>
0.00176265

> <r_epik_Ionization_Penalty_Charging>
0.00172695

> <r_epik_Ionization_Penalty_Neutral>
3.56992e-05

> <r_epik_State_Penalty>
0.00116803

> <r_epik_Charging_Adjusted_Penalty>
0.00289498

> <i_epik_Tot_Q>
1

> <i_epik_Tot_abs_Q>
1

> <r_epik_Metal_State_Penalty>
0.0215312

> <b_epik_Metal_Only>
0

> <s_lp_Force_Field>
OPLS_2005

> <r_lp_Energy>
14.8541

> <b_lp_Chiralities_Consistent>
1

> <s_lp_Variant>
AV-unprocessed.smi:2090-2

> <Gold.Version>
5.8.1

> <Gold.Id.Protein>
6NUR|6NUR_protein|mol2

> <Gold.PLP.Fitness>
38.3863

> <Gold.PLP.PLP>
-28.4449

> <Gold.PLP.part.hbond>
-4.3255

> <Gold.PLP.part.metal>
0.0000

> <Gold.PLP.part.buried>
-2.2087

> <Gold.PLP.part.nonpolar>
-21.0506

> <Gold.PLP.part.repulsive>
0.2288

> <Gold.PLP.ligand.clash>
0.0000

> <Gold.PLP.ligand.torsion>
0.2870

> <Gold.PLP.Chemscore.Hbond>
3.5000

> <Gold.PLP.Chemscore.CHOScore>
0.0000

> <Gold.PLP.Chemscore.Metal>
0.0000

> <Gold.Chemscore.Hbonds>
donor molecule, donor type, donor heavy atom, donor atom, acceptor molecule, acceptor atom, score
      L1  H     8    25       P1  7948  1.00
      L1  H    11    42       P1  7948  2.00
      P1  H  7989  7998       L1    18  0.45

> <Gold.PLP.Chemscore.Internal.Correction>
0.0153

> <Gold.Rescore>
     Score         DG    S(hbond)    S(metal)    S(lipo)     H(rot)  DE(clash)    DE(int)     intcor
     16.67     -18.46       2.97        0.00      60.50       1.57       0.14       1.65       ----

> <Gold.Chemscore.Fitness>
16.6734

> <Gold.Chemscore.DG>
-18.4585

> <Gold.Chemscore.ZeroCoef>
-5.4800

> <Gold.Chemscore.Hbond>
2.9697

> <Gold.Chemscore.Metal>
0.0000

> <Gold.Chemscore.Lipo>
60.4979

> <Gold.Chemscore.Internal_Hbond>
0.0000

> <Gold.Chemscore.DEClash>
0.1374

> <Gold.Chemscore.DEInternal>
1.6477

> <Gold.Chemscore.Rot>
1.5697

> <Gold.Chemscore.Internal.Correction>
   9.000000E+99

> <Gold.Chemscore.Hbonds>
donor molecule, donor type, donor heavy atom, donor atom, acceptor molecule, acceptor atom, score
      L1  H     8    25       P1  7948  1.00
      L1  H    11    42       P1  7948  0.99
      P1  H  7989  7998       L1    18  0.01

> <Gold.Chemscore.Hbond.Weighted>
-9.9187

> <Gold.Chemscore.Metal.Weighted>
-0.0000

> <Gold.Chemscore.Lipo.Weighted>
-7.0782

> <Gold.Chemscore.Internal_Hbond.Weighted>
0.0000

> <Gold.Chemscore.DEClash.Weighted>
0.1374

> <Gold.Chemscore.DEInternal.Weighted>
1.6477

> <Gold.Chemscore.Rot.Weighted>
4.0185

> <Gold.Chemscore.Internal.Correction.Weighted>
   9.000000E+99

> <Gold.Protein.RotatedTorsions>
[ 6907 6896 6895 6894 ] final   78.72 input  -60.11 | X-H torsion
[ 7974 7965 7964 7962 ] final   -4.07 input  175.53 | X-H torsion
[ 8008 7997 7996 7995 ] final -177.50 input   59.86 | X-H torsion
[ 10167 10162 10161 10158 ] final  -89.83 input  -65.29 | X-H torsion
[ 10718 10713 10712 10709 ] final -124.13 input   66.30 | X-H torsion
[ 10763 10752 10751 10750 ] final  115.81 input  -60.55 | X-H torsion
[ 11005 11000 10999 10996 ] final -130.47 input  -57.11 | X-H torsion

> <Gold.Protein.ActiveResidues>
 VAL166  LYS551  ARG553  GLY616  TRP617  ASP618  TYR619  PRO620  LYS621  CYS622 
 ASP623  PHE694  ASN695  SER759  ASP760  ASP761  ALA762  ILE779  LEU786  VAL792 
 PHE793  MET794  SER795  GLU796  ALA797  LYS798  CYS799  TRP800  GLU811  SER814 

> <Gold.Protein.RotatedAtoms>
  152.5171  134.3621  159.9288 H   0  0  0  0  0  0  0  0  0  0  0  0  # atno 6907 bound_to 6896
  151.3573  133.3896  159.2694 H   0  0  0  0  0  0  0  0  0  0  0  0  # atno 6908 bound_to 6896
  150.9679  134.9076  159.7828 H   0  0  0  0  0  0  0  0  0  0  0  0  # atno 6909 bound_to 6896
  146.2379  140.1816  142.8332 H   0  0  0  0  0  0  0  0  0  0  0  0  # atno 7974 bound_to 7965
  156.0077  140.1234  157.0485 H   0  0  0  0  0  0  0  0  0  0  0  0  # atno 8008 bound_to 7997
  154.4264  140.1094  156.5854 H   0  0  0  0  0  0  0  0  0  0  0  0  # atno 8009 bound_to 7997
  155.6124  140.3471  155.4628 H   0  0  0  0  0  0  0  0  0  0  0  0  # atno 8010 bound_to 7997
  140.3609  143.2842  151.9615 H   0  0  0  0  0  0  0  0  0  0  0  0  # atno 10167 bound_to 10162
  156.1561  130.6569  150.9984 H   0  0  0  0  0  0  0  0  0  0  0  0  # atno 10718 bound_to 10713
  153.5278  135.3584  155.2662 H   0  0  0  0  0  0  0  0  0  0  0  0  # atno 10763 bound_to 10752
  154.8729  135.4061  154.3186 H   0  0  0  0  0  0  0  0  0  0  0  0  # atno 10764 bound_to 10752
  153.3869  135.7070  153.6591 H   0  0  0  0  0  0  0  0  0  0  0  0  # atno 10765 bound_to 10752
  140.9342  134.1279  157.4208 H   0  0  0  0  0  0  0  0  0  0  0  0  # atno 11005 bound_to 11000
  144.9930  140.8564  143.5328 LP  0  0  0  0  0  0  0  0  0  0  0  0  # atno 17320 bound_to 7965
  145.1824  139.2344  143.5285 LP  0  0  0  0  0  0  0  0  0  0  0  0  # atno 17321 bound_to 7965
  139.4814  144.5993  151.7634 LP  0  0  0  0  0  0  0  0  0  0  0  0  # atno 17342 bound_to 10162
  140.5128  144.0999  150.6000 LP  0  0  0  0  0  0  0  0  0  0  0  0  # atno 17343 bound_to 10162
  157.6696  131.0864  150.7644 LP  0  0  0  0  0  0  0  0  0  0  0  0  # atno 17370 bound_to 10713
  156.7709  130.4828  149.5418 LP  0  0  0  0  0  0  0  0  0  0  0  0  # atno 17371 bound_to 10713
  139.8804  135.0015  156.6073 LP  0  0  0  0  0  0  0  0  0  0  0  0  # atno 17394 bound_to 11000
  140.7821  133.8651  155.8576 LP  0  0  0  0  0  0  0  0  0  0  0  0  # atno 17395 bound_to 11000

$$$$
