AV-unprocessed.smi:2854|AV-procd|sdf|10976|dock3
  -GOLD-   2272015433D 1   1.00000     0.00000
 Structure written by MMmdl.
 26 27  0  0  0  0  0  0  0  0  1 V2000
  149.9474  142.0974  155.5907 N   0  0  0  0  0  0  0  0  0  0  0  0
  150.7816  141.9132  156.6957 C   0  0  0  0  0  0  0  0  0  0  0  0
  150.9863  142.9722  157.6052 C   0  0  0  0  0  0  0  0  0  0  0  0
  151.7759  142.8762  158.6955 N   0  0  0  0  0  0  0  0  0  0  0  0
  152.3988  141.7005  158.9199 C   0  0  0  0  0  0  0  0  0  0  0  0
  152.2646  140.5797  158.0774 C   0  0  0  0  0  0  0  0  0  0  0  0
  151.4374  140.6815  156.9359 C   0  0  0  0  0  0  0  0  0  0  0  0
  151.2675  139.5970  156.0596 N   0  0  0  0  0  0  0  0  0  0  0  0
  152.4774  139.2466  155.3270 C   0  0  0  0  0  0  0  0  0  0  0  0
  152.1680  138.1437  154.3001 C   0  0  0  0  0  0  0  0  0  0  0  0
  151.5882  137.0230  154.9626 O   0  0  0  0  0  0  0  0  0  0  0  0
  150.3654  137.3598  155.6128 C   0  0  0  0  0  0  0  0  0  0  0  0
  150.6276  138.4415  156.6750 C   0  0  0  0  0  0  0  0  0  0  0  0
  149.7812  141.3591  154.9223 H   0  0  0  0  0  0  0  0  0  0  0  0
  149.4798  142.9782  155.4297 H   0  0  0  0  0  0  0  0  0  0  0  0
  150.5028  143.9268  157.4550 H   0  0  0  0  0  0  0  0  0  0  0  0
  153.0249  141.6504  159.7985 H   0  0  0  0  0  0  0  0  0  0  0  0
  152.7893  139.6641  158.3075 H   0  0  0  0  0  0  0  0  0  0  0  0
  152.8722  140.1290  154.8219 H   0  0  0  0  0  0  0  0  0  0  0  0
  153.2443  138.9001  156.0210 H   0  0  0  0  0  0  0  0  0  0  0  0
  151.4924  138.5112  153.5259 H   0  0  0  0  0  0  0  0  0  0  0  0
  153.0835  137.8275  153.8000 H   0  0  0  0  0  0  0  0  0  0  0  0
  149.6342  137.7035  154.8794 H   0  0  0  0  0  0  0  0  0  0  0  0
  149.9523  136.4658  156.0798 H   0  0  0  0  0  0  0  0  0  0  0  0
  151.2658  138.0380  157.4621 H   0  0  0  0  0  0  0  0  0  0  0  0
  149.6892  138.7438  157.1417 H   0  0  0  0  0  0  0  0  0  0  0  0
  1  2  1  0  0  0  0
  1 14  1  0  0  0  0
  1 15  1  0  0  0  0
  2  7  1  0  0  0  0
  2  3  2  0  0  0  0
  3  4  1  0  0  0  0
  3 16  1  0  0  0  0
  4  5  2  0  0  0  0
  5  6  1  0  0  0  0
  5 17  1  0  0  0  0
  6  7  2  0  0  0  0
  6 18  1  0  0  0  0
  7  8  1  0  0  0  0
  8 13  1  0  0  0  0
  8  9  1  0  0  0  0
  9 10  1  0  0  0  0
  9 19  1  0  0  0  0
  9 20  1  0  0  0  0
 10 11  1  0  0  0  0
 10 21  1  0  0  0  0
 10 22  1  0  0  0  0
 11 12  1  0  0  0  0
 12 13  1  0  0  0  0
 12 23  1  0  0  0  0
 12 24  1  0  0  0  0
 13 25  1  0  0  0  0
 13 26  1  0  0  0  0
M  END
> <s_m_source_file>
AV-unprocessed.smi

> <i_m_source_file_index>
2854

> <i_lp_mmshare_version>
43012

> <i_f3d_flags>
0

> <s_epik_input>
W05IMl1jMVtjSF1uW2NIXVtjSF1jMU4yW0NIMl1bQ0gyXU9bQ0gyXVtDSDJdMg==

> <s_epik_cmdline>
J2VwaWtfcHl0aG9uJywgJy1waCcsICc3LjAnLCAnLXRuJywgJzgnLCAnLW1hJywgJzIwMCcsICctbWV0YWxfYmluZGluZycsICctaW1hZScsICc8aW5maWxlLm1hZT4nLCAnLW9tYWUnLCAnPG91dGZpbGUubWFlPic=

> <r_lp_tautomer_probability>
1

> <r_epik_Ionization_Penalty>
1.93711

> <r_epik_Ionization_Penalty_Charging>
0

> <r_epik_Ionization_Penalty_Neutral>
1.93711

> <r_epik_State_Penalty>
2.06104

> <r_epik_Charging_Adjusted_Penalty>
2.06104

> <i_epik_Tot_Q>
0

> <i_epik_Tot_abs_Q>
0

> <r_epik_Metal_State_Penalty>
0.0183267

> <b_epik_Metal_Only>
0

> <s_lp_Force_Field>
OPLS_2005

> <r_lp_Energy>
22.5874

> <b_lp_Chiralities_Consistent>
1

> <s_lp_Variant>
AV-unprocessed.smi:2854-2

> <Gold.Version>
5.8.1

> <Gold.Id.Protein>
6NUR|6NUR_protein|mol2

> <Gold.PLP.Fitness>
30.7049

> <Gold.PLP.PLP>
-21.7161

> <Gold.PLP.part.hbond>
-2.0000

> <Gold.PLP.part.metal>
0.0000

> <Gold.PLP.part.buried>
-3.5129

> <Gold.PLP.part.nonpolar>
-16.8781

> <Gold.PLP.part.repulsive>
0.2949

> <Gold.PLP.ligand.clash>
0.0000

> <Gold.PLP.ligand.torsion>
0.0621

> <Gold.PLP.Chemscore.Hbond>
2.0000

> <Gold.PLP.Chemscore.CHOScore>
1.0000

> <Gold.PLP.Chemscore.Metal>
0.0000

> <Gold.Chemscore.Hbonds>
donor molecule, donor type, donor heavy atom, donor atom, acceptor molecule, acceptor atom, score
      L1  H     1    15       P1  8028  1.00
      P1  H 10752 10763       L1    11  1.00
      L1  C     3    16       P1  8028  1.00

> <Gold.PLP.Chemscore.Internal.Correction>
0.1129

> <Gold.Rescore>
     Score         DG    S(hbond)    S(metal)    S(lipo)     H(rot)  DE(clash)    DE(int)     intcor
     15.99     -16.58       1.79        0.00      65.49       1.00       0.53       0.06       ----

> <Gold.Chemscore.Fitness>
15.9890

> <Gold.Chemscore.DG>
-16.5766

> <Gold.Chemscore.ZeroCoef>
-5.4800

> <Gold.Chemscore.Hbond>
1.7948

> <Gold.Chemscore.Metal>
0.0000

> <Gold.Chemscore.Lipo>
65.4869

> <Gold.Chemscore.Internal_Hbond>
0.0000

> <Gold.Chemscore.DEClash>
0.5294

> <Gold.Chemscore.DEInternal>
0.0582

> <Gold.Chemscore.Rot>
1.0000

> <Gold.Chemscore.Internal.Correction>
   9.000000E+99

> <Gold.Chemscore.Hbonds>
donor molecule, donor type, donor heavy atom, donor atom, acceptor molecule, acceptor atom, score
      L1  H     1    15       P1  8028  1.00
      P1  H 10752 10763       L1    11  0.33

> <Gold.Chemscore.Hbond.Weighted>
-5.9946

> <Gold.Chemscore.Metal.Weighted>
-0.0000

> <Gold.Chemscore.Lipo.Weighted>
-7.6620

> <Gold.Chemscore.Internal_Hbond.Weighted>
0.0000

> <Gold.Chemscore.DEClash.Weighted>
0.5294

> <Gold.Chemscore.DEInternal.Weighted>
0.0582

> <Gold.Chemscore.Rot.Weighted>
2.5600

> <Gold.Chemscore.Internal.Correction.Weighted>
   9.000000E+99

> <Gold.Protein.RotatedTorsions>
[ 6907 6896 6895 6894 ] final -149.40 input  -60.11 | X-H torsion
[ 7974 7965 7964 7962 ] final   22.89 input  175.53 | X-H torsion
[ 8008 7997 7996 7995 ] final  138.88 input   59.86 | X-H torsion
[ 10167 10162 10161 10158 ] final   46.98 input  -65.29 | X-H torsion
[ 10718 10713 10712 10709 ] final -134.51 input   66.30 | X-H torsion
[ 10763 10752 10751 10750 ] final   63.60 input  -60.55 | X-H torsion
[ 11005 11000 10999 10996 ] final -137.82 input  -57.11 | X-H torsion

> <Gold.Protein.ActiveResidues>
 VAL166  LYS551  ARG553  GLY616  TRP617  ASP618  TYR619  PRO620  LYS621  CYS622 
 ASP623  PHE694  ASN695  SER759  ASP760  ASP761  ALA762  ILE779  LEU786  VAL792 
 PHE793  MET794  SER795  GLU796  ALA797  LYS798  CYS799  TRP800  GLU811  SER814 

> <Gold.Protein.RotatedAtoms>
  151.1836  133.4710  159.2594 H   0  0  0  0  0  0  0  0  0  0  0  0  # atno 6907 bound_to 6896
  151.1234  135.0091  159.8559 H   0  0  0  0  0  0  0  0  0  0  0  0  # atno 6908 bound_to 6896
  152.5457  134.1745  159.8663 H   0  0  0  0  0  0  0  0  0  0  0  0  # atno 6909 bound_to 6896
  146.2009  139.7822  142.8762 H   0  0  0  0  0  0  0  0  0  0  0  0  # atno 7974 bound_to 7965
  156.2994  140.2382  156.4146 H   0  0  0  0  0  0  0  0  0  0  0  0  # atno 8008 bound_to 7997
  154.8410  140.0428  157.1561 H   0  0  0  0  0  0  0  0  0  0  0  0  # atno 8009 bound_to 7997
  154.9103  140.2989  155.5273 H   0  0  0  0  0  0  0  0  0  0  0  0  # atno 8010 bound_to 7997
  140.3083  144.2851  150.6205 H   0  0  0  0  0  0  0  0  0  0  0  0  # atno 10167 bound_to 10162
  156.2563  130.7183  151.1100 H   0  0  0  0  0  0  0  0  0  0  0  0  # atno 10718 bound_to 10713
  153.0024  135.5423  154.6378 H   0  0  0  0  0  0  0  0  0  0  0  0  # atno 10763 bound_to 10752
  154.5640  135.2836  155.0894 H   0  0  0  0  0  0  0  0  0  0  0  0  # atno 10764 bound_to 10752
  154.2085  135.6471  153.5160 H   0  0  0  0  0  0  0  0  0  0  0  0  # atno 10765 bound_to 10752
  140.8674  134.2093  157.4671 H   0  0  0  0  0  0  0  0  0  0  0  0  # atno 11005 bound_to 11000
  145.3487  141.0303  143.3351 LP  0  0  0  0  0  0  0  0  0  0  0  0  # atno 17320 bound_to 7965
  144.8681  139.5078  143.6780 LP  0  0  0  0  0  0  0  0  0  0  0  0  # atno 17321 bound_to 7965
  140.5590  143.2195  151.7797 LP  0  0  0  0  0  0  0  0  0  0  0  0  # atno 17342 bound_to 10162
  139.4899  144.4374  151.9803 LP  0  0  0  0  0  0  0  0  0  0  0  0  # atno 17343 bound_to 10162
  157.7234  131.0667  150.6040 LP  0  0  0  0  0  0  0  0  0  0  0  0  # atno 17370 bound_to 10713
  156.6124  130.4383  149.5854 LP  0  0  0  0  0  0  0  0  0  0  0  0  # atno 17371 bound_to 10713
  139.8710  134.9758  156.4898 LP  0  0  0  0  0  0  0  0  0  0  0  0  # atno 17394 bound_to 11000
  140.8612  133.8058  155.9267 LP  0  0  0  0  0  0  0  0  0  0  0  0  # atno 17395 bound_to 11000

$$$$
