AV-unprocessed.smi:598|AV-procd|sdf|3021|dock1
  -GOLD-   2262023533D 1   1.00000     0.00000
 Structure written by MMmdl.
 43 44  0  0  0  0  0  0  0  0  3 V2000
  151.2872  145.5989  160.1006 C   0  0  0  0  0  0  0  0  0  0  0  0
  151.6402  144.1033  160.1904 C   0  0  2  0  0  0  0  0  0  0  0  0
  152.2051  143.7838  161.5901 C   0  0  0  0  0  0  0  0  0  0  0  0
  152.5597  142.2992  161.7482 C   0  0  0  0  0  0  0  0  0  0  0  0
  153.5387  141.8453  160.6550 C   0  0  0  0  0  0  0  0  0  0  0  0
  153.0004  142.1418  159.2429 C   0  0  1  0  0  0  0  0  0  0  0  0
  151.8606  141.2681  158.9561 N   0  0  0  0  0  0  0  0  0  0  0  0
  151.8315  140.2685  158.0612 C   0  0  0  0  0  0  0  0  0  0  0  0
  152.8073  139.9275  157.3920 O   0  0  0  0  0  0  0  0  0  0  0  0
  150.4868  139.5487  157.9013 C   0  0  0  0  0  0  0  0  0  0  0  0
  150.5314  138.5251  156.8448 N   0  0  0  0  0  0  0  0  0  0  0  0
  150.2545  137.2024  157.2433 C   0  0  0  0  0  0  0  0  0  0  0  0
  150.2404  136.1779  156.3689 C   0  0  0  0  0  0  0  0  0  0  0  0
  149.9428  134.8287  156.7970 N   0  3  0  0  0  0  0  0  0  0  0  0
  149.9600  133.9298  155.9626 O   0  0  0  0  0  0  0  0  0  0  0  0
  149.6814  134.6227  157.9787 O   0  5  0  0  0  0  0  0  0  0  0  0
  150.5259  136.4754  154.9788 C   0  0  0  0  0  0  0  0  0  0  0  0
  150.7882  137.7391  154.5903 C   0  0  0  0  0  0  0  0  0  0  0  0
  150.7963  138.8539  155.5436 C   0  0  0  0  0  0  0  0  0  0  0  0
  151.0248  140.0111  155.1914 O   0  0  0  0  0  0  0  0  0  0  0  0
  152.6319  143.6434  159.0852 C   0  0  1  0  0  0  0  0  0  0  0  0
  152.1409  143.9678  157.6594 C   0  0  0  0  0  0  0  0  0  0  0  0
  152.1816  146.2213  160.1399 H   0  0  0  0  0  0  0  0  0  0  0  0
  150.6394  145.8972  160.9254 H   0  0  0  0  0  0  0  0  0  0  0  0
  150.7533  145.8341  159.1801 H   0  0  0  0  0  0  0  0  0  0  0  0
  150.7101  143.5458  160.0707 H   0  0  0  0  0  0  0  0  0  0  0  0
  153.0950  144.3881  161.7728 H   0  0  0  0  0  0  0  0  0  0  0  0
  151.4826  144.0648  162.3573 H   0  0  0  0  0  0  0  0  0  0  0  0
  152.9980  142.1263  162.7316 H   0  0  0  0  0  0  0  0  0  0  0  0
  151.6507  141.6979  161.7081 H   0  0  0  0  0  0  0  0  0  0  0  0
  154.4902  142.3606  160.7920 H   0  0  0  0  0  0  0  0  0  0  0  0
  153.7530  140.7812  160.7628 H   0  0  0  0  0  0  0  0  0  0  0  0
  153.8062  141.9141  158.5430 H   0  0  0  0  0  0  0  0  0  0  0  0
  151.0103  141.4649  159.4634 H   0  0  0  0  0  0  0  0  0  0  0  0
  150.2034  139.1250  158.8658 H   0  0  0  0  0  0  0  0  0  0  0  0
  149.7049  140.2742  157.6692 H   0  0  0  0  0  0  0  0  0  0  0  0
  150.0475  137.0890  158.2979 H   0  0  0  0  0  0  0  0  0  0  0  0
  150.5293  135.6883  154.2392 H   0  0  0  0  0  0  0  0  0  0  0  0
  150.9965  137.9386  153.5492 H   0  0  0  0  0  0  0  0  0  0  0  0
  153.5557  144.2071  159.2261 H   0  0  0  0  0  0  0  0  0  0  0  0
  151.1466  143.5611  157.4720 H   0  0  0  0  0  0  0  0  0  0  0  0
  152.8167  143.5542  156.9104 H   0  0  0  0  0  0  0  0  0  0  0  0
  152.0976  145.0424  157.4843 H   0  0  0  0  0  0  0  0  0  0  0  0
  1  2  1  0  0  0  0
  1 23  1  0  0  0  0
  1 24  1  0  0  0  0
  1 25  1  0  0  0  0
  2 21  1  0  0  0  0
  2  3  1  0  0  0  0
  2 26  1  0  0  0  0
  3  4  1  0  0  0  0
  3 27  1  0  0  0  0
  3 28  1  0  0  0  0
  4  5  1  0  0  0  0
  4 29  1  0  0  0  0
  4 30  1  0  0  0  0
  5  6  1  0  0  0  0
  5 31  1  0  0  0  0
  5 32  1  0  0  0  0
  6  7  1  0  0  0  0
  6 21  1  0  0  0  0
  6 33  1  0  0  0  0
  7  8  1  0  0  0  0
  7 34  1  0  0  0  0
  8  9  2  0  0  0  0
  8 10  1  0  0  0  0
 10 11  1  0  0  0  0
 10 35  1  0  0  0  0
 10 36  1  0  0  0  0
 11 19  1  0  0  0  0
 11 12  1  0  0  0  0
 12 13  2  0  0  0  0
 12 37  1  0  0  0  0
 13 14  1  0  0  0  0
 13 17  1  0  0  0  0
 14 15  2  0  0  0  0
 14 16  1  0  0  0  0
 17 18  2  0  0  0  0
 17 38  1  0  0  0  0
 18 19  1  0  0  0  0
 18 39  1  0  0  0  0
 19 20  2  0  0  0  0
 21 22  1  0  0  0  0
 21 40  1  0  0  0  0
 22 41  1  0  0  0  0
 22 42  1  0  0  0  0
 22 43  1  0  0  0  0
M  CHG  1  14   1
M  CHG  1  16  -1
M  END
> <s_m_source_file>
AV-unprocessed.smi

> <i_m_source_file_index>
598

> <i_lp_mmshare_version>
43012

> <i_f3d_flags>
0

> <s_epik_input>
W0NIM11bQ0BASF0xW0NIMl1bQ0gyXVtDSDJdW0NASF0oW0NASF0xW0NIM10pW05IXUMoPU8pW0NIMl1uMltjSF1jKFtOK10oPU8pW08tXSlbY0hdW2NIXWMyPU8=

> <s_epik_cmdline>
J2VwaWtfcHl0aG9uJywgJy1waCcsICc3LjAnLCAnLXRuJywgJzgnLCAnLW1hJywgJzIwMCcsICctbWV0YWxfYmluZGluZycsICctaW1hZScsICc8aW5maWxlLm1hZT4nLCAnLW9tYWUnLCAnPG91dGZpbGUubWFlPic=

> <r_lp_tautomer_probability>
1

> <r_epik_Ionization_Penalty>
1.91291e-08

> <r_epik_Ionization_Penalty_Charging>
8.21931e-11

> <r_epik_Ionization_Penalty_Neutral>
1.90469e-08

> <r_epik_State_Penalty>
-0

> <r_epik_Charging_Adjusted_Penalty>
8.21931e-11

> <i_epik_Tot_Q>
0

> <i_epik_Tot_abs_Q>
2

> <r_epik_Metal_State_Penalty>
-0

> <b_epik_Metal_Only>
0

> <s_lp_Force_Field>
OPLS_2005

> <r_lp_Energy>
23.6598

> <b_lp_Chiralities_Consistent>
1

> <s_lp_Variant>
AV-unprocessed.smi:598-1

> <Gold.Version>
5.8.1

> <Gold.Id.Protein>
6NUR|6NUR_protein|mol2

> <Gold.PLP.Fitness>
53.9935

> <Gold.PLP.PLP>
-45.0796

> <Gold.PLP.part.hbond>
-3.0000

> <Gold.PLP.part.metal>
0.0000

> <Gold.PLP.part.buried>
-6.5980

> <Gold.PLP.part.nonpolar>
-37.1502

> <Gold.PLP.part.repulsive>
0.1755

> <Gold.PLP.ligand.clash>
0.0000

> <Gold.PLP.ligand.torsion>
0.0617

> <Gold.PLP.Chemscore.Hbond>
3.0000

> <Gold.PLP.Chemscore.CHOScore>
0.0000

> <Gold.PLP.Chemscore.Metal>
0.0000

> <Gold.Chemscore.Hbonds>
donor molecule, donor type, donor heavy atom, donor atom, acceptor molecule, acceptor atom, score
      P1  H  6896  6909       L1    16  1.00
      P1  H  7989  7998       L1    20  1.00
      P1  H  7997  8010       L1     9  1.00

> <Gold.PLP.Chemscore.Internal.Correction>
0.0373

> <Gold.Rescore>
     Score         DG    S(hbond)    S(metal)    S(lipo)     H(rot)  DE(clash)    DE(int)     intcor
     24.47     -24.94       2.91        0.00     116.90       1.54       0.17       0.29       ----

> <Gold.Chemscore.Fitness>
24.4700

> <Gold.Chemscore.DG>
-24.9385

> <Gold.Chemscore.ZeroCoef>
-5.4800

> <Gold.Chemscore.Hbond>
2.9107

> <Gold.Chemscore.Metal>
0.0000

> <Gold.Chemscore.Lipo>
116.9024

> <Gold.Chemscore.Internal_Hbond>
0.0000

> <Gold.Chemscore.DEClash>
0.1739

> <Gold.Chemscore.DEInternal>
0.2946

> <Gold.Chemscore.Rot>
1.5393

> <Gold.Chemscore.Internal.Correction>
   9.000000E+99

> <Gold.Chemscore.Hbonds>
donor molecule, donor type, donor heavy atom, donor atom, acceptor molecule, acceptor atom, score
      P1  H  6896  6909       L1    16  0.96
      P1  H  7989  7998       L1    20  0.96
      P1  H  7997  8010       L1     9  0.99

> <Gold.Chemscore.Hbond.Weighted>
-9.7216

> <Gold.Chemscore.Metal.Weighted>
-0.0000

> <Gold.Chemscore.Lipo.Weighted>
-13.6776

> <Gold.Chemscore.Internal_Hbond.Weighted>
0.0000

> <Gold.Chemscore.DEClash.Weighted>
0.1739

> <Gold.Chemscore.DEInternal.Weighted>
0.2946

> <Gold.Chemscore.Rot.Weighted>
3.9407

> <Gold.Chemscore.Internal.Correction.Weighted>
   9.000000E+99

> <Gold.Protein.RotatedTorsions>
[ 6907 6896 6895 6894 ] final   15.63 input  -60.11 | X-H torsion
[ 7974 7965 7964 7962 ] final -179.56 input  175.53 | X-H torsion
[ 8008 7997 7996 7995 ] final   54.73 input   59.86 | X-H torsion
[ 10167 10162 10161 10158 ] final -144.19 input  -65.29 | X-H torsion
[ 10718 10713 10712 10709 ] final  153.49 input   66.30 | X-H torsion
[ 10763 10752 10751 10750 ] final   36.17 input  -60.55 | X-H torsion
[ 11005 11000 10999 10996 ] final  -46.03 input  -57.11 | X-H torsion

> <Gold.Protein.ActiveResidues>
 VAL166  LYS551  ARG553  GLY616  TRP617  ASP618  TYR619  PRO620  LYS621  CYS622 
 ASP623  PHE694  ASN695  SER759  ASP760  ASP761  ALA762  ILE779  LEU786  VAL792 
 PHE793  MET794  SER795  GLU796  ALA797  LYS798  CYS799  TRP800  GLU811  SER814 

> <Gold.Protein.RotatedAtoms>
  151.8211  135.0651  160.0424 H   0  0  0  0  0  0  0  0  0  0  0  0  # atno 6907 bound_to 6896
  152.2950  133.5594  159.5590 H   0  0  0  0  0  0  0  0  0  0  0  0  # atno 6908 bound_to 6896
  150.7247  134.0289  159.3769 H   0  0  0  0  0  0  0  0  0  0  0  0  # atno 6909 bound_to 6896
  144.7137  140.0700  143.6429 H   0  0  0  0  0  0  0  0  0  0  0  0  # atno 7974 bound_to 7965
  155.4895  140.3471  155.4352 H   0  0  0  0  0  0  0  0  0  0  0  0  # atno 8008 bound_to 7997
  156.0986  140.1429  156.9526 H   0  0  0  0  0  0  0  0  0  0  0  0  # atno 8009 bound_to 7997
  154.4679  140.0911  156.7046 H   0  0  0  0  0  0  0  0  0  0  0  0  # atno 8010 bound_to 7997
  139.7922  143.7950  152.2651 H   0  0  0  0  0  0  0  0  0  0  0  0  # atno 10167 bound_to 10162
  157.2440  131.0765  151.1774 H   0  0  0  0  0  0  0  0  0  0  0  0  # atno 10718 bound_to 10713
  153.0088  135.6313  154.1944 H   0  0  0  0  0  0  0  0  0  0  0  0  # atno 10763 bound_to 10752
  154.1686  135.2819  155.3089 H   0  0  0  0  0  0  0  0  0  0  0  0  # atno 10764 bound_to 10752
  154.5926  135.5613  153.7353 H   0  0  0  0  0  0  0  0  0  0  0  0  # atno 10765 bound_to 10752
  141.0553  133.6728  156.3097 H   0  0  0  0  0  0  0  0  0  0  0  0  # atno 11005 bound_to 11000
  145.9791  139.2928  143.1052 LP  0  0  0  0  0  0  0  0  0  0  0  0  # atno 17320 bound_to 7965
  145.9030  140.9230  143.0493 LP  0  0  0  0  0  0  0  0  0  0  0  0  # atno 17321 bound_to 7965
  139.8045  144.7361  150.9780 LP  0  0  0  0  0  0  0  0  0  0  0  0  # atno 17342 bound_to 10162
  140.7820  143.4312  151.0692 LP  0  0  0  0  0  0  0  0  0  0  0  0  # atno 17343 bound_to 10162
  157.3348  130.7003  149.6346 LP  0  0  0  0  0  0  0  0  0  0  0  0  # atno 17370 bound_to 10713
  155.9669  130.4297  150.4843 LP  0  0  0  0  0  0  0  0  0  0  0  0  # atno 17371 bound_to 10713
  140.5976  134.5587  157.5511 LP  0  0  0  0  0  0  0  0  0  0  0  0  # atno 17394 bound_to 11000
  139.9385  134.7831  156.0740 LP  0  0  0  0  0  0  0  0  0  0  0  0  # atno 17395 bound_to 11000

$$$$
