#       Name:                AV-unprocessed.smi:114
#       Creating user name   scv26
#       Creation time:       Thu Mar 26 18:22:29 2020


#       File generated by GOLD software.
#

@<TRIPOS>MOLECULE
AV-unprocessed.smi:114
    43    45     1
SMALL
NO_CHARGES


@<TRIPOS>ATOM
      1 ****        -5.1392   0.6047   0.1903 N.pl3          1 S1                 0.0000
      2 ****        -3.9091   1.1081   0.0169 C.ar           1 S1                 0.0000
      3 ****        -3.7851   2.3158  -0.5819 N.ar           1 S1                 0.0000
      4 ****        -2.5745   2.8556  -0.7719 C.ar           1 S1                 0.0000
      5 ****        -2.5444   4.0664  -1.3763 F              1 S1                 0.0000
      6 ****        -1.3905   2.3335  -0.4326 N.ar           1 S1                 0.0000
      7 ****        -1.5135   1.1144   0.1677 C.ar           1 S1                 0.0000
      8 ****        -2.7327   0.4370   0.4316 C.ar           1 S1                 0.0000
      9 ****        -2.4738  -0.7712   1.0639 N.2            1 S1                 0.0000
     10 ****        -1.1714  -0.7988   1.1688 C.2            1 S1                 0.0000
     11 ****        -0.5124   0.2910   0.6357 N.pl3          1 S1                 0.0000
     12 ****         0.9551   0.5972   0.5961 C.3            1 S1                 0.0000
     13 ****         1.6466  -0.4412   1.2170 O.3            1 S1                 0.0000
     14 ****         1.9989  -1.4155   0.2439 C.3            1 S1                 0.0000
     15 ****         3.1378  -2.2973   0.7764 C.3            1 S1                 0.0000
     16 ****         2.6136  -3.3130   1.6047 O.3            1 S1                 0.0000
     17 ****         2.4020  -0.5443  -0.9493 C.3            1 S1                 0.0000
     18 ****         2.2051  -1.2485  -2.1591 O.3            1 S1                 0.0000
     19 ****         1.4539   0.6510  -0.8609 C.3            1 S1                 0.0000
     20 ****         2.1468   1.8530  -1.1275 O.3            1 S1                 0.0000
     21 ****         1.0501   1.5320   1.1503 H              1 S1                 0.0000
     22 ****         1.1247  -2.0168  -0.0143 H              1 S1                 0.0000
     23 ****         3.4429  -0.2295  -0.8539 H              1 S1                 0.0000
     24 ****         0.6137   0.5535  -1.5509 H              1 S1                 0.0000
     25 ****        -5.2554  -0.2944   0.6357 H              1 S1                 0.0000
     26 ****        -5.9462   1.1230  -0.1253 H              1 S1                 0.0000
     27 ****        -0.6595  -1.6240   1.6423 H              1 S1                 0.0000
     28 ****         3.6535  -2.7843  -0.0518 H              1 S1                 0.0000
     29 ****         3.8779  -1.7079   1.3184 H              1 S1                 0.0000
     30 ****         3.3280  -3.8521   1.9082 H              1 S1                 0.0000
     31 ****         2.4160  -0.6717  -2.8776 H              1 S1                 0.0000
     32 ****         1.5410   2.5729  -1.0356 H              1 S1                 0.0000
     33 ****        -4.6019   2.8075  -0.8839 LP             1 S1                 0.0000
     34 ****        -0.5144   2.7856  -0.6000 LP             1 S1                 0.0000
     35 ****        -3.1312  -1.4604   1.3685 LP             1 S1                 0.0000
     36 ****         1.0653  -0.8601   1.9146 LP             1 S1                 0.0000
     37 ****         2.4754  -0.0817   1.6458 LP             1 S1                 0.0000
     38 ****         1.9670  -3.8714   1.0852 LP             1 S1                 0.0000
     39 ****         2.1455  -2.9019   2.3870 LP             1 S1                 0.0000
     40 ****         1.2511  -1.5400  -2.2288 LP             1 S1                 0.0000
     41 ****         2.8015  -2.0508  -2.1838 LP             1 S1                 0.0000
     42 ****         2.5101   1.8341  -2.0589 LP             1 S1                 0.0000
     43 ****         2.8997   1.9601  -0.4781 LP             1 S1                 0.0000
@<TRIPOS>BOND
    1    1    2 1     
    2    1   25 1     
    3    1   26 1     
    4    2    8 ar    
    5    2    3 ar    
    6    3    4 ar    
    7    4    5 1     
    8    4    6 ar    
    9    6    7 ar    
   10    7   11 1     
   11    7    8 ar    
   12    8    9 1     
   13    9   10 2     
   14   10   11 1     
   15   10   27 1     
   16   11   12 1     
   17   12   21 1     
   18   12   19 1     
   19   12   13 1     
   20   13   14 1     
   21   14   22 1     
   22   14   15 1     
   23   14   17 1     
   24   15   16 1     
   25   15   28 1     
   26   15   29 1     
   27   16   30 1     
   28   17   23 1     
   29   17   18 1     
   30   17   19 1     
   31   18   31 1     
   32   19   24 1     
   33   19   20 1     
   34   20   32 1     
   35    3   33 1     
   36    6   34 1     
   37    9   35 1     
   38   13   36 1     
   39   13   37 1     
   40   16   38 1     
   41   16   39 1     
   42   18   40 1     
   43   18   41 1     
   44   20   42 1     
   45   20   43 1     
@<TRIPOS>SUBSTRUCTURE
      1 S1             1
@<TRIPOS>SET
LONE_PAIRS      STATIC     ATOMS    <user>   **** ""
11 33 34 35 36 37 38 39 40 41 42 43
DONOR_HYDROGENS      STATIC     ATOMS    <user>   **** ""
5 25 26 30 31 32
ATOM$BLUE        STATIC     ATOMS    COLORGROUP SYSTEM
11 33 34 35 36 37 38 39 40 41 42 43
ATOM$RED        STATIC     ATOMS    COLORGROUP SYSTEM
5 25 26 30 31 32
