AV-unprocessed.smi:315|AV-procd|sdf|2318|dock2
  -GOLD-   2262022223D 1   1.00000     0.00000
 Structure written by MMmdl.
 47 49  0  0  0  0  0  0  0  0  2 V2000
  152.4626  138.8769  155.8671 C   0  0  0  0  0  0  0  0  0  0  0  0
  152.2614  138.5047  154.3961 C   0  0  0  0  0  0  0  0  0  0  0  0
  150.8772  138.2521  154.1808 O   0  0  0  0  0  0  0  0  0  0  0  0
  149.9689  139.2656  154.4213 C   0  0  0  0  0  0  0  0  0  0  0  0
  150.4344  140.4660  154.8476 N   0  0  0  0  0  0  0  0  0  0  0  0
  149.5441  141.4520  155.0827 C   0  0  0  0  0  0  0  0  0  0  0  0
  148.1559  141.2932  154.9144 C   0  0  0  0  0  0  0  0  0  0  0  0
  147.6709  140.0482  154.4727 C   0  0  0  0  0  0  0  0  0  0  0  0
  148.5952  139.0093  154.2079 C   0  0  0  0  0  0  0  0  0  0  0  0
  148.2255  137.7080  153.7746 N   0  0  0  0  0  0  0  0  0  0  0  0
  147.1874  136.9440  154.1643 C   0  0  0  0  0  0  0  0  0  0  0  0
  146.3917  137.2370  155.0533 O   0  0  0  0  0  0  0  0  0  0  0  0
  147.0698  135.7952  153.4749 N   0  0  0  0  0  0  0  0  0  0  0  0
  146.0610  134.7476  153.6430 C   0  0  2  0  0  0  0  0  0  0  0  0
  146.2457  133.8860  154.9093 C   0  0  0  0  0  0  0  0  0  0  0  0
  145.8871  132.4487  154.4846 C   0  0  0  0  0  0  0  0  0  0  0  0
  145.4287  132.5584  153.0868 N   0  3  2  0  0  0  0  0  0  0  0  0
  145.5383  131.3485  152.2429 C   0  0  0  0  0  0  0  0  0  0  0  0
  144.9391  131.6428  150.8527 C   0  0  0  0  0  0  0  0  0  0  0  0
  145.5645  132.8999  150.2134 C   0  0  0  0  0  0  0  0  0  0  0  0
  145.5026  134.1022  151.1750 C   0  0  0  0  0  0  0  0  0  0  0  0
  146.1385  133.7148  152.5198 C   0  0  1  0  0  0  0  0  0  0  0  0
  153.5126  139.0795  156.0777 H   0  0  0  0  0  0  0  0  0  0  0  0
  152.1400  138.0673  156.5221 H   0  0  0  0  0  0  0  0  0  0  0  0
  151.8908  139.7680  156.1272 H   0  0  0  0  0  0  0  0  0  0  0  0
  152.6025  139.3227  153.7595 H   0  0  0  0  0  0  0  0  0  0  0  0
  152.8535  137.6194  154.1586 H   0  0  0  0  0  0  0  0  0  0  0  0
  149.9497  142.3940  155.4209 H   0  0  0  0  0  0  0  0  0  0  0  0
  147.4777  142.1071  155.1236 H   0  0  0  0  0  0  0  0  0  0  0  0
  146.6066  139.9135  154.3602 H   0  0  0  0  0  0  0  0  0  0  0  0
  148.7591  137.3540  152.9943 H   0  0  0  0  0  0  0  0  0  0  0  0
  147.7587  135.6336  152.7541 H   0  0  0  0  0  0  0  0  0  0  0  0
  145.0618  135.1886  153.6463 H   0  0  0  0  0  0  0  0  0  0  0  0
  147.2764  133.9180  155.2655 H   0  0  0  0  0  0  0  0  0  0  0  0
  145.6081  134.2382  155.7212 H   0  0  0  0  0  0  0  0  0  0  0  0
  146.7709  131.8112  154.5412 H   0  0  0  0  0  0  0  0  0  0  0  0
  145.1116  132.0103  155.1132 H   0  0  0  0  0  0  0  0  0  0  0  0
  146.5844  131.0514  152.1530 H   0  0  0  0  0  0  0  0  0  0  0  0
  145.0068  130.5221  152.7158 H   0  0  0  0  0  0  0  0  0  0  0  0
  145.0756  130.7826  150.1968 H   0  0  0  0  0  0  0  0  0  0  0  0
  143.8623  131.7881  150.9484 H   0  0  0  0  0  0  0  0  0  0  0  0
  146.6046  132.6952  149.9559 H   0  0  0  0  0  0  0  0  0  0  0  0
  145.0560  133.1393  149.2790 H   0  0  0  0  0  0  0  0  0  0  0  0
  146.0226  134.9570  150.7413 H   0  0  0  0  0  0  0  0  0  0  0  0
  144.4655  134.4066  151.3217 H   0  0  0  0  0  0  0  0  0  0  0  0
  147.1832  133.4360  152.3608 H   0  0  0  0  0  0  0  0  0  0  0  0
  144.4519  132.8129  153.1239 H   0  0  0  0  0  0  0  0  0  0  0  0
  1  2  1  0  0  0  0
  1 23  1  0  0  0  0
  1 24  1  0  0  0  0
  1 25  1  0  0  0  0
  2  3  1  0  0  0  0
  2 26  1  0  0  0  0
  2 27  1  0  0  0  0
  3  4  1  0  0  0  0
  4  9  1  0  0  0  0
  4  5  2  0  0  0  0
  5  6  1  0  0  0  0
  6  7  2  0  0  0  0
  6 28  1  0  0  0  0
  7  8  1  0  0  0  0
  7 29  1  0  0  0  0
  8  9  2  0  0  0  0
  8 30  1  0  0  0  0
  9 10  1  0  0  0  0
 10 11  1  0  0  0  0
 10 31  1  0  0  0  0
 11 12  2  0  0  0  0
 11 13  1  0  0  0  0
 13 14  1  0  0  0  0
 13 32  1  0  0  0  0
 14 22  1  0  0  0  0
 14 15  1  0  0  0  0
 14 33  1  0  0  0  0
 15 16  1  0  0  0  0
 15 34  1  0  0  0  0
 15 35  1  0  0  0  0
 16 17  1  0  0  0  0
 16 36  1  0  0  0  0
 16 37  1  0  0  0  0
 17 22  1  0  0  0  0
 17 18  1  0  0  0  0
 17 47  1  0  0  0  0
 18 19  1  0  0  0  0
 18 38  1  0  0  0  0
 18 39  1  0  0  0  0
 19 20  1  0  0  0  0
 19 40  1  0  0  0  0
 19 41  1  0  0  0  0
 20 21  1  0  0  0  0
 20 42  1  0  0  0  0
 20 43  1  0  0  0  0
 21 22  1  0  0  0  0
 21 44  1  0  0  0  0
 21 45  1  0  0  0  0
 22 46  1  0  0  0  0
M  CHG  1  17   1
M  END
> <s_m_source_file>
AV-unprocessed.smi

> <i_m_source_file_index>
315

> <i_lp_mmshare_version>
43012

> <i_f3d_flags>
0

> <s_epik_input>
W0NIM11bQ0gyXU9jMW5bY0hdW2NIXVtjSF1jMVtOSF1DKD1PKVtOSF1bQ0BIXShbQ0gyXVtDSDJdMilbQ0BASF0oTjIzKVtDSDJdW0NIMl1bQ0gyXVtDSDJdMw==

> <s_epik_cmdline>
J2VwaWtfcHl0aG9uJywgJy1waCcsICc3LjAnLCAnLXRuJywgJzgnLCAnLW1hJywgJzIwMCcsICctbWV0YWxfYmluZGluZycsICctaW1hZScsICc8aW5maWxlLm1hZT4nLCAnLW9tYWUnLCAnPG91dGZpbGUubWFlPic=

> <r_lp_tautomer_probability>
1

> <r_epik_Ionization_Penalty>
0.00106455

> <r_epik_Ionization_Penalty_Charging>
0.000974069

> <r_epik_Ionization_Penalty_Neutral>
9.04821e-05

> <r_epik_State_Penalty>
0.000633842

> <r_epik_Charging_Adjusted_Penalty>
0.00160791

> <i_epik_Tot_Q>
1

> <i_epik_Tot_abs_Q>
1

> <r_epik_Metal_State_Penalty>
-0

> <b_epik_Metal_Only>
0

> <s_lp_Force_Field>
OPLS_2005

> <r_lp_Energy>
47.5763

> <b_lp_Chiralities_Consistent>
1

> <s_lp_Variant>
AV-unprocessed.smi:315-3

> <Gold.Version>
5.8.1

> <Gold.Id.Protein>
6NUR|6NUR_protein|mol2

> <Gold.PLP.Fitness>
43.3700

> <Gold.PLP.PLP>
-32.3458

> <Gold.PLP.part.hbond>
-2.8222

> <Gold.PLP.part.metal>
0.0000

> <Gold.PLP.part.buried>
-4.8012

> <Gold.PLP.part.nonpolar>
-25.7356

> <Gold.PLP.part.repulsive>
0.3622

> <Gold.PLP.ligand.clash>
0.0000

> <Gold.PLP.ligand.torsion>
0.4347

> <Gold.PLP.Chemscore.Hbond>
2.9600

> <Gold.PLP.Chemscore.CHOScore>
1.0000

> <Gold.PLP.Chemscore.Metal>
0.0000

> <Gold.Chemscore.Hbonds>
donor molecule, donor type, donor heavy atom, donor atom, acceptor molecule, acceptor atom, score
      L1  H    10    31       P1  7948  1.00
      L1  H    13    32       P1  7948  0.98
      P1  H  7989  7998       L1     5  1.00
      L1  C     6    28       P1  8028  0.91

> <Gold.PLP.Chemscore.Internal.Correction>
0.0135

> <Gold.Rescore>
     Score         DG    S(hbond)    S(metal)    S(lipo)     H(rot)  DE(clash)    DE(int)     intcor
     18.35     -19.72       2.85        0.00      70.56       1.38       0.07       1.30       ----

> <Gold.Chemscore.Fitness>
18.3540

> <Gold.Chemscore.DG>
-19.7225

> <Gold.Chemscore.ZeroCoef>
-5.4800

> <Gold.Chemscore.Hbond>
2.8480

> <Gold.Chemscore.Metal>
0.0000

> <Gold.Chemscore.Lipo>
70.5578

> <Gold.Chemscore.Internal_Hbond>
0.0000

> <Gold.Chemscore.DEClash>
0.0678

> <Gold.Chemscore.DEInternal>
1.3007

> <Gold.Chemscore.Rot>
1.3770

> <Gold.Chemscore.Internal.Correction>
   9.000000E+99

> <Gold.Chemscore.Hbonds>
donor molecule, donor type, donor heavy atom, donor atom, acceptor molecule, acceptor atom, score
      L1  H    10    31       P1  7948  0.93
      L1  H    13    32       P1  7948  0.92
      P1  H  7989  7998       L1     5  0.24

> <Gold.Chemscore.Hbond.Weighted>
-9.5124

> <Gold.Chemscore.Metal.Weighted>
-0.0000

> <Gold.Chemscore.Lipo.Weighted>
-8.2553

> <Gold.Chemscore.Internal_Hbond.Weighted>
0.0000

> <Gold.Chemscore.DEClash.Weighted>
0.0678

> <Gold.Chemscore.DEInternal.Weighted>
1.3007

> <Gold.Chemscore.Rot.Weighted>
3.5252

> <Gold.Chemscore.Internal.Correction.Weighted>
   9.000000E+99

> <Gold.Protein.RotatedTorsions>
[ 6907 6896 6895 6894 ] final -124.62 input  -60.11 | X-H torsion
[ 7974 7965 7964 7962 ] final -136.03 input  175.53 | X-H torsion
[ 8008 7997 7996 7995 ] final   55.36 input   59.86 | X-H torsion
[ 10167 10162 10161 10158 ] final  -20.81 input  -65.29 | X-H torsion
[ 10718 10713 10712 10709 ] final   46.14 input   66.30 | X-H torsion
[ 10763 10752 10751 10750 ] final  -34.12 input  -60.55 | X-H torsion
[ 11005 11000 10999 10996 ] final  -29.23 input  -57.11 | X-H torsion

> <Gold.Protein.ActiveResidues>
 VAL166  LYS551  ARG553  GLY616  TRP617  ASP618  TYR619  PRO620  LYS621  CYS622 
 ASP623  PHE694  ASN695  SER759  ASP760  ASP761  ALA762  ILE779  LEU786  VAL792 
 PHE793  MET794  SER795  GLU796  ALA797  LYS798  CYS799  TRP800  GLU811  SER814 

> <Gold.Protein.RotatedAtoms>
  150.8786  133.7404  159.2938 H   0  0  0  0  0  0  0  0  0  0  0  0  # atno 6907 bound_to 6896
  151.4993  135.1059  159.9834 H   0  0  0  0  0  0  0  0  0  0  0  0  # atno 6908 bound_to 6896
  152.4744  133.8059  159.7033 H   0  0  0  0  0  0  0  0  0  0  0  0  # atno 6909 bound_to 6896
  144.8962  140.6710  143.5114 H   0  0  0  0  0  0  0  0  0  0  0  0  # atno 7974 bound_to 7965
  155.4998  140.3474  155.4369 H   0  0  0  0  0  0  0  0  0  0  0  0  # atno 8008 bound_to 7997
  156.0921  140.1413  156.9606 H   0  0  0  0  0  0  0  0  0  0  0  0  # atno 8009 bound_to 7997
  154.4641  140.0924  156.6951 H   0  0  0  0  0  0  0  0  0  0  0  0  # atno 8010 bound_to 7997
  140.7278  143.4687  151.0277 H   0  0  0  0  0  0  0  0  0  0  0  0  # atno 10167 bound_to 10162
  157.4449  130.8104  149.7731 H   0  0  0  0  0  0  0  0  0  0  0  0  # atno 10718 bound_to 10713
  153.8414  135.6857  153.4802 H   0  0  0  0  0  0  0  0  0  0  0  0  # atno 10763 bound_to 10752
  153.1451  135.4641  154.9552 H   0  0  0  0  0  0  0  0  0  0  0  0  # atno 10764 bound_to 10752
  154.7843  135.3279  154.7867 H   0  0  0  0  0  0  0  0  0  0  0  0  # atno 10765 bound_to 10752
  140.9278  133.7357  156.0893 H   0  0  0  0  0  0  0  0  0  0  0  0  # atno 11005 bound_to 11000
  145.3696  139.1662  143.4339 LP  0  0  0  0  0  0  0  0  0  0  0  0  # atno 17320 bound_to 7965
  146.3083  140.3766  142.8679 LP  0  0  0  0  0  0  0  0  0  0  0  0  # atno 17321 bound_to 7965
  139.8377  143.7605  152.3180 LP  0  0  0  0  0  0  0  0  0  0  0  0  # atno 17342 bound_to 10162
  139.7743  144.7466  151.0179 LP  0  0  0  0  0  0  0  0  0  0  0  0  # atno 17343 bound_to 10162
  155.9963  130.3906  150.2783 LP  0  0  0  0  0  0  0  0  0  0  0  0  # atno 17370 bound_to 10713
  157.0950  131.0180  151.3107 LP  0  0  0  0  0  0  0  0  0  0  0  0  # atno 17371 bound_to 10713
  140.7903  134.3625  157.5466 LP  0  0  0  0  0  0  0  0  0  0  0  0  # atno 17394 bound_to 11000
  139.8789  134.9136  156.3087 LP  0  0  0  0  0  0  0  0  0  0  0  0  # atno 17395 bound_to 11000

$$$$
