AV-unprocessed.smi:2679|AV-procd|sdf|10370|dock5
  -GOLD-   2272014393D 1   1.00000     0.00000
 Structure written by MMmdl.
 39 40  0  0  0  0  0  0  0  0  1 V2000
  150.4334  138.3954  155.7149 C   0  0  0  0  0  0  0  0  0  0  0  0
  151.4891  138.8312  156.6791 C   0  0  0  0  0  0  0  0  0  0  0  0
  152.7949  138.6409  156.4775 N   0  0  0  0  0  0  0  0  0  0  0  0
  153.4172  139.1743  157.5844 N   0  0  0  0  0  0  0  0  0  0  0  0
  152.4334  139.6401  158.3572 C   0  0  0  0  0  0  0  0  0  0  0  0
  152.7044  140.4236  159.9102 S   0  0  0  0  0  0  0  0  0  0  0  0
  153.9003  141.6728  159.3514 C   0  0  2  0  0  0  0  0  0  0  0  0
  155.1684  141.4487  160.0659 C   0  0  0  0  0  0  0  0  0  0  0  0
  156.1646  141.2723  160.6276 N   0  0  0  0  0  0  0  0  0  0  0  0
  153.3506  143.1068  159.5262 C   0  0  0  0  0  0  0  0  0  0  0  0
  152.9181  143.3770  160.9863 C   0  0  0  0  0  0  0  0  0  0  0  0
  152.3669  144.8000  161.1702 C   0  0  0  0  0  0  0  0  0  0  0  0
  151.1999  145.0737  160.2114 C   0  0  0  0  0  0  0  0  0  0  0  0
  151.6163  144.8198  158.7561 C   0  0  0  0  0  0  0  0  0  0  0  0
  152.1693  143.3971  158.5722 C   0  0  0  0  0  0  0  0  0  0  0  0
  151.2015  139.4575  157.8391 N   0  0  0  0  0  0  0  0  0  0  0  0
  149.9061  139.8336  158.3905 C   0  0  0  0  0  0  0  0  0  0  0  0
  149.2315  140.9079  157.5351 C   0  0  0  0  0  0  0  0  0  0  0  0
  148.8354  142.0221  158.1555 N   0  0  0  0  0  0  0  0  0  0  0  0
  149.0661  140.7325  156.3300 O   0  0  0  0  0  0  0  0  0  0  0  0
  150.8814  137.8674  154.8724 H   0  0  0  0  0  0  0  0  0  0  0  0
  149.8923  139.2606  155.3317 H   0  0  0  0  0  0  0  0  0  0  0  0
  149.7273  137.7249  156.2047 H   0  0  0  0  0  0  0  0  0  0  0  0
  154.1070  141.5038  158.2941 H   0  0  0  0  0  0  0  0  0  0  0  0
  154.1520  143.8030  159.2744 H   0  0  0  0  0  0  0  0  0  0  0  0
  152.1588  142.6522  161.2828 H   0  0  0  0  0  0  0  0  0  0  0  0
  153.7561  143.2360  161.6685 H   0  0  0  0  0  0  0  0  0  0  0  0
  152.0410  144.9416  162.2011 H   0  0  0  0  0  0  0  0  0  0  0  0
  153.1626  145.5253  160.9952 H   0  0  0  0  0  0  0  0  0  0  0  0
  150.3556  144.4324  160.4680 H   0  0  0  0  0  0  0  0  0  0  0  0
  150.8552  146.1018  160.3267 H   0  0  0  0  0  0  0  0  0  0  0  0
  150.7640  144.9751  158.0939 H   0  0  0  0  0  0  0  0  0  0  0  0
  152.3736  145.5468  158.4601 H   0  0  0  0  0  0  0  0  0  0  0  0
  152.4773  143.2757  157.5338 H   0  0  0  0  0  0  0  0  0  0  0  0
  151.3735  142.6711  158.7439 H   0  0  0  0  0  0  0  0  0  0  0  0
  149.2778  138.9452  158.4683 H   0  0  0  0  0  0  0  0  0  0  0  0
  150.0368  140.2085  159.4056 H   0  0  0  0  0  0  0  0  0  0  0  0
  148.3891  142.7618  157.6331 H   0  0  0  0  0  0  0  0  0  0  0  0
  148.9883  142.1228  159.1487 H   0  0  0  0  0  0  0  0  0  0  0  0
  1  2  1  0  0  0  0
  1 21  1  0  0  0  0
  1 22  1  0  0  0  0
  1 23  1  0  0  0  0
  2 16  1  0  0  0  0
  2  3  2  0  0  0  0
  3  4  1  0  0  0  0
  4  5  2  0  0  0  0
  5  6  1  0  0  0  0
  5 16  1  0  0  0  0
  6  7  1  0  0  0  0
  7  8  1  0  0  0  0
  7 10  1  0  0  0  0
  7 24  1  0  0  0  0
  8  9  3  0  0  0  0
 10 15  1  0  0  0  0
 10 11  1  0  0  0  0
 10 25  1  0  0  0  0
 11 12  1  0  0  0  0
 11 26  1  0  0  0  0
 11 27  1  0  0  0  0
 12 13  1  0  0  0  0
 12 28  1  0  0  0  0
 12 29  1  0  0  0  0
 13 14  1  0  0  0  0
 13 30  1  0  0  0  0
 13 31  1  0  0  0  0
 14 15  1  0  0  0  0
 14 32  1  0  0  0  0
 14 33  1  0  0  0  0
 15 34  1  0  0  0  0
 15 35  1  0  0  0  0
 16 17  1  0  0  0  0
 17 18  1  0  0  0  0
 17 36  1  0  0  0  0
 17 37  1  0  0  0  0
 18 19  1  0  0  0  0
 18 20  2  0  0  0  0
 19 38  1  0  0  0  0
 19 39  1  0  0  0  0
M  END
> <s_m_source_file>
AV-unprocessed.smi

> <i_m_source_file_index>
2679

> <i_lp_mmshare_version>
43012

> <i_f3d_flags>
0

> <s_epik_input>
W0NIM11jMW5uYyhuMVtDSDJdQyg9TylbTkgyXSlTW0NASF0oQyNOKVtDSF0yW0NIMl1bQ0gyXVtDSDJdW0NIMl1bQ0gyXTI=

> <s_epik_cmdline>
J2VwaWtfcHl0aG9uJywgJy1waCcsICc3LjAnLCAnLXRuJywgJzgnLCAnLW1hJywgJzIwMCcsICctbWV0YWxfYmluZGluZycsICctaW1hZScsICc8aW5maWxlLm1hZT4nLCAnLW9tYWUnLCAnPG91dGZpbGUubWFlPic=

> <r_lp_tautomer_probability>
1

> <r_epik_Ionization_Penalty>
1.94949e-07

> <r_epik_Ionization_Penalty_Charging>
0

> <r_epik_Ionization_Penalty_Neutral>
1.94949e-07

> <r_epik_State_Penalty>
-0

> <r_epik_Charging_Adjusted_Penalty>
0

> <i_epik_Tot_Q>
0

> <i_epik_Tot_abs_Q>
0

> <r_epik_Metal_State_Penalty>
-0

> <b_epik_Metal_Only>
0

> <s_lp_Force_Field>
OPLS_2005

> <r_lp_Energy>
7.74931

> <b_lp_Chiralities_Consistent>
1

> <s_lp_Variant>
AV-unprocessed.smi:2679-1

> <Gold.Version>
5.8.1

> <Gold.Id.Protein>
6NUR|6NUR_protein|mol2

> <Gold.PLP.Fitness>
48.3123

> <Gold.PLP.PLP>
-44.5955

> <Gold.PLP.part.hbond>
-3.8228

> <Gold.PLP.part.metal>
0.0000

> <Gold.PLP.part.buried>
-6.1168

> <Gold.PLP.part.nonpolar>
-35.8978

> <Gold.PLP.part.repulsive>
0.1402

> <Gold.PLP.ligand.clash>
0.0000

> <Gold.PLP.ligand.torsion>
0.9306

> <Gold.PLP.Chemscore.Hbond>
1.8336

> <Gold.PLP.Chemscore.CHOScore>
0.0000

> <Gold.PLP.Chemscore.Metal>
0.0000

> <Gold.Chemscore.Hbonds>
donor molecule, donor type, donor heavy atom, donor atom, acceptor molecule, acceptor atom, score
      P1  H  7997  8010       L1     4  0.65

> <Gold.PLP.Chemscore.Internal.Correction>
0.0770

> <Gold.Rescore>
     Score         DG    S(hbond)    S(metal)    S(lipo)     H(rot)  DE(clash)    DE(int)     intcor
     13.52     -15.75       1.71        0.00      95.21       2.57       0.03       2.19       ----

> <Gold.Chemscore.Fitness>
13.5241

> <Gold.Chemscore.DG>
-15.7456

> <Gold.Chemscore.ZeroCoef>
-5.4800

> <Gold.Chemscore.Hbond>
1.7103

> <Gold.Chemscore.Metal>
0.0000

> <Gold.Chemscore.Lipo>
95.2119

> <Gold.Chemscore.Internal_Hbond>
0.0000

> <Gold.Chemscore.DEClash>
0.0309

> <Gold.Chemscore.DEInternal>
2.1906

> <Gold.Chemscore.Rot>
2.5728

> <Gold.Chemscore.Internal.Correction>
   9.000000E+99

> <Gold.Chemscore.Hbonds>
donor molecule, donor type, donor heavy atom, donor atom, acceptor molecule, acceptor atom, score
      P1  H  7997  8010       L1     4  0.05

> <Gold.Chemscore.Hbond.Weighted>
-5.7122

> <Gold.Chemscore.Metal.Weighted>
-0.0000

> <Gold.Chemscore.Lipo.Weighted>
-11.1398

> <Gold.Chemscore.Internal_Hbond.Weighted>
0.0000

> <Gold.Chemscore.DEClash.Weighted>
0.0309

> <Gold.Chemscore.DEInternal.Weighted>
2.1906

> <Gold.Chemscore.Rot.Weighted>
6.5865

> <Gold.Chemscore.Internal.Correction.Weighted>
   9.000000E+99

> <Gold.Protein.RotatedTorsions>
[ 6907 6896 6895 6894 ] final -143.03 input  -60.11 | X-H torsion
[ 7974 7965 7964 7962 ] final  120.37 input  175.53 | X-H torsion
[ 8008 7997 7996 7995 ] final   57.05 input   59.86 | X-H torsion
[ 10167 10162 10161 10158 ] final -172.25 input  -65.29 | X-H torsion
[ 10718 10713 10712 10709 ] final    2.04 input   66.30 | X-H torsion
[ 10763 10752 10751 10750 ] final -142.03 input  -60.55 | X-H torsion
[ 11005 11000 10999 10996 ] final -160.38 input  -57.11 | X-H torsion

> <Gold.Protein.ActiveResidues>
 VAL166  LYS551  ARG553  GLY616  TRP617  ASP618  TYR619  PRO620  LYS621  CYS622 
 ASP623  PHE694  ASN695  SER759  ASP760  ASP761  ALA762  ILE779  LEU786  VAL792 
 PHE793  MET794  SER795  GLU796  ALA797  LYS798  CYS799  TRP800  GLU811  SER814 

> <Gold.Protein.RotatedAtoms>
  151.0949  133.5287  159.2612 H   0  0  0  0  0  0  0  0  0  0  0  0  # atno 6907 bound_to 6896
  151.2140  135.0492  159.8933 H   0  0  0  0  0  0  0  0  0  0  0  0  # atno 6908 bound_to 6896
  152.5438  134.0761  159.8268 H   0  0  0  0  0  0  0  0  0  0  0  0  # atno 6909 bound_to 6896
  145.1319  139.3322  143.4660 H   0  0  0  0  0  0  0  0  0  0  0  0  # atno 7974 bound_to 7965
  155.5274  140.3481  155.4419 H   0  0  0  0  0  0  0  0  0  0  0  0  # atno 8008 bound_to 7997
  156.0742  140.1370  156.9818 H   0  0  0  0  0  0  0  0  0  0  0  0  # atno 8009 bound_to 7997
  154.4544  140.0959  156.6690 H   0  0  0  0  0  0  0  0  0  0  0  0  # atno 8010 bound_to 7997
  139.5755  144.1542  152.1445 H   0  0  0  0  0  0  0  0  0  0  0  0  # atno 10167 bound_to 10162
  156.8571  130.5574  149.5665 H   0  0  0  0  0  0  0  0  0  0  0  0  # atno 10718 bound_to 10713
  154.8524  135.3507  154.5962 H   0  0  0  0  0  0  0  0  0  0  0  0  # atno 10763 bound_to 10752
  153.6572  135.6991  153.5194 H   0  0  0  0  0  0  0  0  0  0  0  0  # atno 10764 bound_to 10752
  153.2847  135.4253  155.1069 H   0  0  0  0  0  0  0  0  0  0  0  0  # atno 10765 bound_to 10752
  140.6322  134.4640  157.5230 H   0  0  0  0  0  0  0  0  0  0  0  0  # atno 11005 bound_to 11000
  146.3513  140.1321  142.8597 LP  0  0  0  0  0  0  0  0  0  0  0  0  # atno 17320 bound_to 7965
  145.0626  140.9098  143.4930 LP  0  0  0  0  0  0  0  0  0  0  0  0  # atno 17321 bound_to 7965
  140.1084  144.5479  150.6941 LP  0  0  0  0  0  0  0  0  0  0  0  0  # atno 17342 bound_to 10162
  140.7038  143.2453  151.4787 LP  0  0  0  0  0  0  0  0  0  0  0  0  # atno 17343 bound_to 10162
  156.0796  130.5810  150.9539 LP  0  0  0  0  0  0  0  0  0  0  0  0  # atno 17370 bound_to 10713
  157.6271  131.0924  150.8513 LP  0  0  0  0  0  0  0  0  0  0  0  0  # atno 17371 bound_to 10713
  139.9112  134.8341  156.1523 LP  0  0  0  0  0  0  0  0  0  0  0  0  # atno 17394 bound_to 11000
  141.0667  133.6816  156.2059 LP  0  0  0  0  0  0  0  0  0  0  0  0  # atno 17395 bound_to 11000

$$$$
