AV-unprocessed.smi:203|AV-procd|sdf|1591|dock10
  -GOLD-   2262019493D 1   1.00000     0.00000
 Structure written by MMmdl.
 57 61  0  0  0  0  0  0  0  0  1 V2000
  145.5611  142.2727  155.7232 O   0  0  0  0  0  0  0  0  0  0  0  0
  146.6456  141.7262  155.5368 C   0  0  0  0  0  0  0  0  0  0  0  0
  147.1561  140.5688  156.3776 C   0  0  0  0  0  0  0  0  0  0  0  0
  148.6121  140.3892  155.9057 C   0  0  2  0  0  0  0  0  0  0  0  0
  149.6818  140.7364  156.9909 C   0  0  2  0  0  0  0  0  0  0  0  0
  149.5221  142.1705  157.5603 C   0  0  0  0  0  0  0  0  0  0  0  0
  150.5746  142.4723  158.6363 C   0  0  0  0  0  0  0  0  0  0  0  0
  151.9815  142.2406  158.0737 C   0  0  0  0  0  0  0  0  0  0  0  0
  152.1086  140.8159  157.5169 C   0  0  0  0  0  0  0  0  0  0  0  0
  151.0680  140.5406  156.5278 N   0  0  0  0  0  0  0  0  0  0  0  0
  151.3201  139.3859  155.8737 C   0  0  0  0  0  0  0  0  0  0  0  0
  151.7025  139.4804  154.5767 N   0  0  0  0  0  0  0  0  0  0  0  0
  151.9004  138.3711  153.8584 C   0  0  0  0  0  0  0  0  0  0  0  0
  151.7643  137.0977  154.2346 N   0  0  0  0  0  0  0  0  0  0  0  0
  151.3942  137.0038  155.5444 C   0  0  0  0  0  0  0  0  0  0  0  0
  151.1669  138.0880  156.4358 C   0  0  0  0  0  0  0  0  0  0  0  0
  150.8059  137.6072  157.6888 N   0  0  0  0  0  0  0  0  0  0  0  0
  150.7890  136.3110  157.5380 C   0  0  0  0  0  0  0  0  0  0  0  0
  151.1066  135.8654  156.2756 N   0  0  0  0  0  0  0  0  0  0  0  0
  151.0929  134.4913  155.8117 C   0  0  0  0  0  0  0  0  0  0  0  0
  150.1531  134.2856  154.6027 C   0  0  2  0  0  0  0  0  0  0  0  0
  149.1163  135.2405  154.7073 O   0  0  0  0  0  0  0  0  0  0  0  0
  149.5372  132.8699  154.5018 C   0  0  1  0  0  0  0  0  0  0  0  0
  148.6826  132.6266  153.2551 C   0  0  0  0  0  0  0  0  0  0  0  0
  148.7443  131.1185  153.0576 C   0  0  0  0  0  0  0  0  0  0  0  0
  149.8986  130.6726  153.9572 C   0  0  0  0  0  0  0  0  0  0  0  0
  150.5425  131.8795  154.3324 O   0  0  0  0  0  0  0  0  0  0  0  0
  148.7249  141.2334  154.6166 C   0  0  0  0  0  0  0  0  0  0  0  0
  147.5245  142.0457  154.5897 N   0  0  0  0  0  0  0  0  0  0  0  0
  147.0671  140.7757  157.4439 H   0  0  0  0  0  0  0  0  0  0  0  0
  146.5607  139.6819  156.1586 H   0  0  0  0  0  0  0  0  0  0  0  0
  148.7126  139.3385  155.6323 H   0  0  0  0  0  0  0  0  0  0  0  0
  149.5282  140.0483  157.8231 H   0  0  0  0  0  0  0  0  0  0  0  0
  149.6145  142.9076  156.7625 H   0  0  0  0  0  0  0  0  0  0  0  0
  148.5316  142.3112  157.9908 H   0  0  0  0  0  0  0  0  0  0  0  0
  150.4723  143.5004  158.9849 H   0  0  0  0  0  0  0  0  0  0  0  0
  150.4114  141.8298  159.5024 H   0  0  0  0  0  0  0  0  0  0  0  0
  152.1853  142.9632  157.2826 H   0  0  0  0  0  0  0  0  0  0  0  0
  152.7292  142.4077  158.8494 H   0  0  0  0  0  0  0  0  0  0  0  0
  153.0943  140.6867  157.0671 H   0  0  0  0  0  0  0  0  0  0  0  0
  152.0334  140.0937  158.3313 H   0  0  0  0  0  0  0  0  0  0  0  0
  152.1986  138.5259  152.8321 H   0  0  0  0  0  0  0  0  0  0  0  0
  150.5156  135.6415  158.3403 H   0  0  0  0  0  0  0  0  0  0  0  0
  152.1135  134.2065  155.5514 H   0  0  0  0  0  0  0  0  0  0  0  0
  150.7927  133.8507  156.6419 H   0  0  0  0  0  0  0  0  0  0  0  0
  150.7000  134.4976  153.6832 H   0  0  0  0  0  0  0  0  0  0  0  0
  148.7900  135.4264  153.8402 H   0  0  0  0  0  0  0  0  0  0  0  0
  148.9552  132.6436  155.3977 H   0  0  0  0  0  0  0  0  0  0  0  0
  147.6625  132.9951  153.3679 H   0  0  0  0  0  0  0  0  0  0  0  0
  149.1258  133.1253  152.3920 H   0  0  0  0  0  0  0  0  0  0  0  0
  147.8138  130.6348  153.3560 H   0  0  0  0  0  0  0  0  0  0  0  0
  148.9316  130.8728  152.0118 H   0  0  0  0  0  0  0  0  0  0  0  0
  149.5234  130.1734  154.8519 H   0  0  0  0  0  0  0  0  0  0  0  0
  150.5890  129.9958  153.4540 H   0  0  0  0  0  0  0  0  0  0  0  0
  149.6181  141.8575  154.5860 H   0  0  0  0  0  0  0  0  0  0  0  0
  148.7409  140.5924  153.7342 H   0  0  0  0  0  0  0  0  0  0  0  0
  147.3860  142.7870  153.9180 H   0  0  0  0  0  0  0  0  0  0  0  0
  1  2  2  0  0  0  0
  2 29  1  0  0  0  0
  2  3  1  0  0  0  0
  3  4  1  0  0  0  0
  3 30  1  0  0  0  0
  3 31  1  0  0  0  0
  4  5  1  0  0  0  0
  4 28  1  0  0  0  0
  4 32  1  0  0  0  0
  5 10  1  0  0  0  0
  5  6  1  0  0  0  0
  5 33  1  0  0  0  0
  6  7  1  0  0  0  0
  6 34  1  0  0  0  0
  6 35  1  0  0  0  0
  7  8  1  0  0  0  0
  7 36  1  0  0  0  0
  7 37  1  0  0  0  0
  8  9  1  0  0  0  0
  8 38  1  0  0  0  0
  8 39  1  0  0  0  0
  9 10  1  0  0  0  0
  9 40  1  0  0  0  0
  9 41  1  0  0  0  0
 10 11  1  0  0  0  0
 11 16  1  0  0  0  0
 11 12  2  0  0  0  0
 12 13  1  0  0  0  0
 13 14  2  0  0  0  0
 13 42  1  0  0  0  0
 14 15  1  0  0  0  0
 15 19  1  0  0  0  0
 15 16  2  0  0  0  0
 16 17  1  0  0  0  0
 17 18  2  0  0  0  0
 18 19  1  0  0  0  0
 18 43  1  0  0  0  0
 19 20  1  0  0  0  0
 20 21  1  0  0  0  0
 20 44  1  0  0  0  0
 20 45  1  0  0  0  0
 21 22  1  0  0  0  0
 21 23  1  0  0  0  0
 21 46  1  0  0  0  0
 22 47  1  0  0  0  0
 23 27  1  0  0  0  0
 23 24  1  0  0  0  0
 23 48  1  0  0  0  0
 24 25  1  0  0  0  0
 24 49  1  0  0  0  0
 24 50  1  0  0  0  0
 25 26  1  0  0  0  0
 25 51  1  0  0  0  0
 25 52  1  0  0  0  0
 26 27  1  0  0  0  0
 26 53  1  0  0  0  0
 26 54  1  0  0  0  0
 28 29  1  0  0  0  0
 28 55  1  0  0  0  0
 28 56  1  0  0  0  0
 29 57  1  0  0  0  0
M  END
> <s_m_source_file>
AV-unprocessed.smi

> <i_m_source_file_index>
203

> <i_lp_mmshare_version>
43012

> <i_f3d_flags>
0

> <s_epik_input>
Tz1DMVtDSDJdW0NASF0oW0NIMl1bTkhdMSlbQ0BASF0yW0NIMl1bQ0gyXVtDSDJdW0NIMl1OMmMobltjSF1uMyljKGMzNCluW2NIXW40W0NIMl1bQ0BIXShbT0hdKVtDQEBIXTVbQ0gyXVtDSDJdW0NIMl1PNQ==

> <s_epik_cmdline>
J2VwaWtfcHl0aG9uJywgJy1waCcsICc3LjAnLCAnLXRuJywgJzgnLCAnLW1hJywgJzIwMCcsICctbWV0YWxfYmluZGluZycsICctaW1hZScsICc8aW5maWxlLm1hZT4nLCAnLW9tYWUnLCAnPG91dGZpbGUubWFlPic=

> <r_lp_tautomer_probability>
1

> <r_epik_Ionization_Penalty>
0.00175146

> <r_epik_Ionization_Penalty_Charging>
0

> <r_epik_Ionization_Penalty_Neutral>
0.00175146

> <r_epik_State_Penalty>
0.00109045

> <r_epik_Charging_Adjusted_Penalty>
0.00109045

> <i_epik_Tot_Q>
0

> <i_epik_Tot_abs_Q>
0

> <r_epik_Metal_State_Penalty>
-0

> <b_epik_Metal_Only>
0

> <s_lp_Force_Field>
OPLS_2005

> <r_lp_Energy>
54.7877

> <b_lp_Chiralities_Consistent>
1

> <s_lp_Variant>
AV-unprocessed.smi:203-10

> <Gold.Version>
5.8.1

> <Gold.Id.Protein>
6NUR|6NUR_protein|mol2

> <Gold.PLP.Fitness>
47.2590

> <Gold.PLP.PLP>
-39.0630

> <Gold.PLP.part.hbond>
-4.0000

> <Gold.PLP.part.metal>
0.0000

> <Gold.PLP.part.buried>
-4.4446

> <Gold.PLP.part.nonpolar>
-31.1469

> <Gold.PLP.part.repulsive>
0.8990

> <Gold.PLP.ligand.clash>
0.0076

> <Gold.PLP.ligand.torsion>
0.5511

> <Gold.PLP.Chemscore.Hbond>
3.0000

> <Gold.PLP.Chemscore.CHOScore>
0.0000

> <Gold.PLP.Chemscore.Metal>
0.0000

> <Gold.Chemscore.Hbonds>
donor molecule, donor type, donor heavy atom, donor atom, acceptor molecule, acceptor atom, score
      L1  H    22    47       P1  7948  0.78
      P1  H  7989  7998       L1    12  1.00
      P1  H 10752 10763       L1    14  1.00

> <Gold.PLP.Chemscore.Internal.Correction>
0.3057

> <Gold.Rescore>
     Score         DG    S(hbond)    S(metal)    S(lipo)     H(rot)  DE(clash)    DE(int)     intcor
     13.85     -15.87       2.35        0.00      81.04       2.72       0.29       1.72       ----

> <Gold.Chemscore.Fitness>
13.8533

> <Gold.Chemscore.DG>
-15.8659

> <Gold.Chemscore.ZeroCoef>
-5.4800

> <Gold.Chemscore.Hbond>
2.3534

> <Gold.Chemscore.Metal>
0.0000

> <Gold.Chemscore.Lipo>
81.0353

> <Gold.Chemscore.Internal_Hbond>
0.0000

> <Gold.Chemscore.DEClash>
0.2877

> <Gold.Chemscore.DEInternal>
1.7249

> <Gold.Chemscore.Rot>
2.7171

> <Gold.Chemscore.Internal.Correction>
   9.000000E+99

> <Gold.Chemscore.Hbonds>
donor molecule, donor type, donor heavy atom, donor atom, acceptor molecule, acceptor atom, score
      L1  H    22    47       P1  7948  0.67
      P1  H  7989  7998       L1    12  0.68
      P1  H 10752 10763       L1    14  0.25

> <Gold.Chemscore.Hbond.Weighted>
-7.8605

> <Gold.Chemscore.Metal.Weighted>
-0.0000

> <Gold.Chemscore.Lipo.Weighted>
-9.4811

> <Gold.Chemscore.Internal_Hbond.Weighted>
0.0000

> <Gold.Chemscore.DEClash.Weighted>
0.2877

> <Gold.Chemscore.DEInternal.Weighted>
1.7249

> <Gold.Chemscore.Rot.Weighted>
6.9557

> <Gold.Chemscore.Internal.Correction.Weighted>
   9.000000E+99

> <Gold.Protein.RotatedTorsions>
[ 6907 6896 6895 6894 ] final    2.19 input  -60.11 | X-H torsion
[ 7974 7965 7964 7962 ] final  -20.85 input  175.53 | X-H torsion
[ 8008 7997 7996 7995 ] final  145.63 input   59.86 | X-H torsion
[ 10167 10162 10161 10158 ] final -162.47 input  -65.29 | X-H torsion
[ 10718 10713 10712 10709 ] final   34.42 input   66.30 | X-H torsion
[ 10763 10752 10751 10750 ] final   32.64 input  -60.55 | X-H torsion
[ 11005 11000 10999 10996 ] final -162.88 input  -57.11 | X-H torsion

> <Gold.Protein.ActiveResidues>
 VAL166  LYS551  ARG553  GLY616  TRP617  ASP618  TYR619  PRO620  LYS621  CYS622 
 ASP623  PHE694  ASN695  SER759  ASP760  ASP761  ALA762  ILE779  LEU786  VAL792 
 PHE793  MET794  SER795  GLU796  ALA797  LYS798  CYS799  TRP800  GLU811  SER814 

> <Gold.Protein.RotatedAtoms>
  151.6048  135.1045  160.0067 H   0  0  0  0  0  0  0  0  0  0  0  0  # atno 6907 bound_to 6896
  152.4239  133.7158  159.6516 H   0  0  0  0  0  0  0  0  0  0  0  0  # atno 6908 bound_to 6896
  150.8127  133.8320  159.3196 H   0  0  0  0  0  0  0  0  0  0  0  0  # atno 6909 bound_to 6896
  146.1765  140.4260  142.8511 H   0  0  0  0  0  0  0  0  0  0  0  0  # atno 7974 bound_to 7965
  156.2878  140.2204  156.5246 H   0  0  0  0  0  0  0  0  0  0  0  0  # atno 8008 bound_to 7997
  154.7500  140.0481  157.0907 H   0  0  0  0  0  0  0  0  0  0  0  0  # atno 8009 bound_to 7997
  155.0122  140.3114  155.4828 H   0  0  0  0  0  0  0  0  0  0  0  0  # atno 8010 bound_to 7997
  139.6390  144.0295  152.2077 H   0  0  0  0  0  0  0  0  0  0  0  0  # atno 10167 bound_to 10162
  157.3101  130.7395  149.6719 H   0  0  0  0  0  0  0  0  0  0  0  0  # atno 10718 bound_to 10713
  153.0252  135.6408  154.1387 H   0  0  0  0  0  0  0  0  0  0  0  0  # atno 10763 bound_to 10752
  154.1117  135.2852  155.3230 H   0  0  0  0  0  0  0  0  0  0  0  0  # atno 10764 bound_to 10752
  154.6327  135.5487  153.7761 H   0  0  0  0  0  0  0  0  0  0  0  0  # atno 10765 bound_to 10752
  140.6043  134.4915  157.5209 H   0  0  0  0  0  0  0  0  0  0  0  0  # atno 11005 bound_to 11000
  144.8245  140.6605  143.6331 LP  0  0  0  0  0  0  0  0  0  0  0  0  # atno 17320 bound_to 7965
  145.4196  139.1566  143.4081 LP  0  0  0  0  0  0  0  0  0  0  0  0  # atno 17321 bound_to 7965
  139.9980  144.6314  150.7755 LP  0  0  0  0  0  0  0  0  0  0  0  0  # atno 17342 bound_to 10162
  140.7481  143.2916  151.3315 LP  0  0  0  0  0  0  0  0  0  0  0  0  # atno 17343 bound_to 10162
  155.9677  130.4254  150.4651 LP  0  0  0  0  0  0  0  0  0  0  0  0  # atno 17370 bound_to 10713
  157.2648  131.0574  151.2297 LP  0  0  0  0  0  0  0  0  0  0  0  0  # atno 17371 bound_to 10713
  139.9219  134.8132  156.1185 LP  0  0  0  0  0  0  0  0  0  0  0  0  # atno 17394 bound_to 11000
  141.0851  133.6737  156.2419 LP  0  0  0  0  0  0  0  0  0  0  0  0  # atno 17395 bound_to 11000

$$$$
