#       Name:                AV-unprocessed.smi:36
#       Creating user name   scv26
#       Creation time:       Thu Mar 26 16:08:31 2020


#       File generated by GOLD software.
#

@<TRIPOS>MOLECULE
AV-unprocessed.smi:36
    73    76     1
SMALL
NO_CHARGES


@<TRIPOS>ATOM
      1 ****        -4.0360   5.2482  -2.3014 C.3            1 S1                 0.0000
      2 ****        -3.3577   3.9538  -1.8227 C.3            1 S1                 0.0000
      3 ****        -3.8210   3.6181  -0.3953 C.3            1 S1                 0.0000
      4 ****        -3.7148   2.7958  -2.7696 C.3            1 S1                 0.0000
      5 ****        -1.4622   4.1937  -1.8229 Si             1 S1                 0.0000
      6 ****        -0.8246   4.5782  -3.5720 C.3            1 S1                 0.0000
      7 ****        -0.9490   5.5901  -0.6407 C.3            1 S1                 0.0000
      8 ****        -0.7495   2.7561  -1.2800 O.3            1 S1                 0.0000
      9 ****         0.6422   2.5074  -1.3032 C.3            1 S1                 0.0000
     10 ****         0.9900   1.6382  -2.5291 C.3            1 S1                 0.0000
     11 ****         0.5037   0.3186  -2.2709 O.3            1 S1                 0.0000
     12 ****         1.5642  -0.5630  -2.0408 C.3            1 S1                 0.0000
     13 ****         1.2932  -1.3412  -0.7960 N.pl3          1 S1                 0.0000
     14 ****         0.4545  -1.0300   0.2116 C.2            1 S1                 0.0000
     15 ****         0.4197  -1.9065   1.2130 N.2            1 S1                 0.0000
     16 ****         1.3297  -2.8754   0.8022 C.2            1 S1                 0.0000
     17 ****         1.7638  -4.1257   1.4631 C.2            1 S1                 0.0000
     18 ****         1.2378  -4.4147   2.6147 N.2            1 S1                 0.0000
     19 ****         1.6038  -5.5807   3.2755 C.2            1 S1                 0.0000
     20 ****         2.4128  -6.4451   2.9266 O.2            1 S1                 0.0000
     21 ****         0.9489  -5.7361   4.6098 C.ar           1 S1                 0.0000
     22 ****        -0.4206  -6.0667   4.6943 C.ar           1 S1                 0.0000
     23 ****        -1.0363  -6.2114   5.9529 C.ar           1 S1                 0.0000
     24 ****        -0.2858  -6.0271   7.1301 C.ar           1 S1                 0.0000
     25 ****         1.0806  -5.6954   7.0492 C.ar           1 S1                 0.0000
     26 ****         1.6973  -5.5486   5.7913 C.ar           1 S1                 0.0000
     27 ****         2.7102  -4.7813   0.6643 N.pl3          1 S1                 0.0000
     28 ****         3.1891  -4.3375  -0.5782 C.2            1 S1                 0.0000
     29 ****         2.8140  -3.2369  -1.1736 N.2            1 S1                 0.0000
     30 ****         1.8730  -2.5482  -0.4214 C.2            1 S1                 0.0000
     31 ****         2.8219   0.2823  -1.8710 C.3            1 S1                 0.0000
     32 ****         2.4930   1.4382  -2.7862 C.3            1 S1                 0.0000
     33 ****         3.2950   2.5710  -2.5196 O.3            1 S1                 0.0000
     34 ****        -5.1217   5.1458  -2.3105 H              1 S1                 0.0000
     35 ****        -3.7230   5.5108  -3.3121 H              1 S1                 0.0000
     36 ****        -3.7914   6.0895  -1.6522 H              1 S1                 0.0000
     37 ****        -3.5825   4.4233   0.2998 H              1 S1                 0.0000
     38 ****        -3.3406   2.7114  -0.0260 H              1 S1                 0.0000
     39 ****        -4.8993   3.4596  -0.3551 H              1 S1                 0.0000
     40 ****        -4.7896   2.6119  -2.7835 H              1 S1                 0.0000
     41 ****        -3.2255   1.8700  -2.4648 H              1 S1                 0.0000
     42 ****        -3.4061   3.0087  -3.7934 H              1 S1                 0.0000
     43 ****        -1.2552   5.5010  -3.9600 H              1 S1                 0.0000
     44 ****        -1.0735   3.7835  -4.2747 H              1 S1                 0.0000
     45 ****         0.2587   4.6961  -3.5854 H              1 S1                 0.0000
     46 ****        -1.3909   6.5432  -0.9300 H              1 S1                 0.0000
     47 ****         0.1323   5.7257  -0.6283 H              1 S1                 0.0000
     48 ****        -1.2606   5.3834   0.3828 H              1 S1                 0.0000
     49 ****         1.1638   3.4638  -1.3428 H              1 S1                 0.0000
     50 ****         0.9407   2.0234  -0.3733 H              1 S1                 0.0000
     51 ****         0.5125   2.0456  -3.4198 H              1 S1                 0.0000
     52 ****         1.6305  -1.2985  -2.8436 H              1 S1                 0.0000
     53 ****        -0.1481  -0.1337   0.2148 H              1 S1                 0.0000
     54 ****        -1.0030  -6.2095   3.7955 H              1 S1                 0.0000
     55 ****        -2.0845  -6.4637   6.0150 H              1 S1                 0.0000
     56 ****        -0.7585  -6.1386   8.0946 H              1 S1                 0.0000
     57 ****         1.6560  -5.5541   7.9522 H              1 S1                 0.0000
     58 ****         2.7460  -5.2935   5.7378 H              1 S1                 0.0000
     59 ****         3.9260  -5.0014  -1.0320 H              1 S1                 0.0000
     60 ****         2.9135   0.6112  -0.8341 H              1 S1                 0.0000
     61 ****         3.7160  -0.2733  -2.1554 H              1 S1                 0.0000
     62 ****         2.6475   1.1328  -3.8223 H              1 S1                 0.0000
     63 ****         3.0477   3.2611  -3.1160 H              1 S1                 0.0000
     64 ****         3.0815  -5.6520   1.0163 H              1 S1                 0.0000
     65 ****        -0.0210   0.0017  -3.0610 LP             1 S1                 0.0000
     66 ****        -0.0874   0.3385  -1.4645 LP             1 S1                 0.0000
     67 ****        -0.1247  -1.8761   2.0513 LP             1 S1                 0.0000
     68 ****         0.5681  -3.7969   3.0267 LP             1 S1                 0.0000
     69 ****         2.9036  -6.3501   2.0606 LP             1 S1                 0.0000
     70 ****         2.5774  -7.2405   3.5100 LP             1 S1                 0.0000
     71 ****         3.1612  -2.9295  -2.0596 LP             1 S1                 0.0000
     72 ****         4.2590   2.3403  -2.6518 LP             1 S1                 0.0000
     73 ****         3.1506   2.8721  -1.5770 LP             1 S1                 0.0000
@<TRIPOS>BOND
    1    1    2 1     
    2    1   34 1     
    3    1   35 1     
    4    1   36 1     
    5    2    3 1     
    6    2    4 1     
    7    2    5 1     
    8    3   37 1     
    9    3   38 1     
   10    3   39 1     
   11    4   40 1     
   12    4   41 1     
   13    4   42 1     
   14    5    6 1     
   15    5    7 1     
   16    5    8 1     
   17    6   43 1     
   18    6   44 1     
   19    6   45 1     
   20    7   46 1     
   21    7   47 1     
   22    7   48 1     
   23    8    9 1     
   24    9   10 1     
   25    9   49 1     
   26    9   50 1     
   27   10   32 1     
   28   10   11 1     
   29   10   51 1     
   30   11   12 1     
   31   12   13 1     
   32   12   31 1     
   33   12   52 1     
   34   13   30 1     
   35   13   14 1     
   36   14   15 2     
   37   14   53 1     
   38   15   16 1     
   39   16   30 2     
   40   16   17 1     
   41   17   18 2     
   42   17   27 1     
   43   18   19 1     
   44   19   20 2     
   45   19   21 1     
   46   21   26 ar    
   47   21   22 ar    
   48   22   23 ar    
   49   22   54 1     
   50   23   24 ar    
   51   23   55 1     
   52   24   25 ar    
   53   24   56 1     
   54   25   26 ar    
   55   25   57 1     
   56   26   58 1     
   57   27   28 1     
   58   27   64 1     
   59   28   29 2     
   60   28   59 1     
   61   29   30 1     
   62   31   32 1     
   63   31   60 1     
   64   31   61 1     
   65   32   33 1     
   66   32   62 1     
   67   33   63 1     
   68   11   65 1     
   69   11   66 1     
   70   15   67 1     
   71   18   68 1     
   72   20   69 1     
   73   20   70 1     
   74   29   71 1     
   75   33   72 1     
   76   33   73 1     
@<TRIPOS>SUBSTRUCTURE
      1 S1             1
@<TRIPOS>SET
LONE_PAIRS      STATIC     ATOMS    <user>   **** ""
9 65 66 67 68 69 70 71 72 73
DONOR_HYDROGENS      STATIC     ATOMS    <user>   **** ""
2 64 63
ATOM$BLUE        STATIC     ATOMS    COLORGROUP SYSTEM
9 65 66 67 68 69 70 71 72 73
ATOM$RED        STATIC     ATOMS    COLORGROUP SYSTEM
2 64 63
