#       Name:                AV-unprocessed.smi:284
#       Creating user name   scv26
#       Creation time:       Thu Mar 26 21:51:04 2020


#       File generated by GOLD software.
#

@<TRIPOS>MOLECULE
AV-unprocessed.smi:284
    72    74     1
SMALL
NO_CHARGES


@<TRIPOS>ATOM
      1 ****         0.0054   5.1041   3.0262 C.3            1 S1                 0.0000
      2 ****         0.6744   3.7956   2.6344 C.2            1 S1                 0.0000
      3 ****         1.9886   3.7249   2.3215 C.2            1 S1                 0.0000
      4 ****         2.6268   2.5566   1.9517 N.am           1 S1                 0.0000
      5 ****         4.1093   2.5849   1.6464 C.3            1 S1                 0.0000
      6 ****         4.4484   2.1654   0.2087 C.3            1 S1                 0.0000
      7 ****         5.8136   1.5366   0.4011 C.3            1 S1                 0.0000
      8 ****         6.0806   0.5876  -0.6111 O.3            1 S1                 0.0000
      9 ****         5.6690   0.8901   1.7855 C.3            1 S1                 0.0000
     10 ****         6.9643   0.6544   2.5825 C.3            1 S1                 0.0000
     11 ****         7.7784   1.8087   2.6200 O.3            1 S1                 0.0000
     12 ****         4.7679   1.7154   2.5195 O.3            1 S1                 0.0000
     13 ****         1.9032   1.3433   1.9352 C.2            1 S1                 0.0000
     14 ****         2.4520   0.2775   1.6491 O.2            1 S1                 0.0000
     15 ****         0.5274   1.3830   2.2566 N.am           1 S1                 0.0000
     16 ****        -0.2542   0.1269   2.1974 C.3            1 S1                 0.0000
     17 ****        -0.9108  -0.1224   0.8299 C.2            1 S1                 0.0000
     18 ****        -0.6099   0.5700  -0.1437 O.2            1 S1                 0.0000
     19 ****        -1.7824  -1.1468   0.7923 N.am           1 S1                 0.0000
     20 ****        -2.5561  -1.6080  -0.3069 C.ar           1 S1                 0.0000
     21 ****        -2.9736  -2.9529  -0.2907 C.ar           1 S1                 0.0000
     22 ****        -3.7550  -3.4757  -1.3390 C.ar           1 S1                 0.0000
     23 ****        -4.1485  -2.6593  -2.4281 C.ar           1 S1                 0.0000
     24 ****        -4.9980  -3.1941  -3.5972 C.3            1 S1                 0.0000
     25 ****        -6.3242  -2.4097  -3.6751 C.3            1 S1                 0.0000
     26 ****        -5.3470  -4.6927  -3.4534 C.3            1 S1                 0.0000
     27 ****        -4.2249  -3.0195  -4.9213 C.3            1 S1                 0.0000
     28 ****        -3.7427  -1.3039  -2.4245 C.ar           1 S1                 0.0000
     29 ****        -2.9616  -0.7791  -1.3777 C.ar           1 S1                 0.0000
     30 ****        -0.1440   2.5816   2.6021 C.2            1 S1                 0.0000
     31 ****        -1.3507   2.5754   2.8533 O.2            1 S1                 0.0000
     32 ****         0.7042   5.9407   3.0010 H              1 S1                 0.0000
     33 ****        -0.3999   5.0376   4.0365 H              1 S1                 0.0000
     34 ****        -0.8130   5.3344   2.3429 H              1 S1                 0.0000
     35 ****         2.5668   4.6373   2.3565 H              1 S1                 0.0000
     36 ****         4.4515   3.5977   1.8609 H              1 S1                 0.0000
     37 ****         3.7312   1.4382  -0.1705 H              1 S1                 0.0000
     38 ****         4.4535   3.0268  -0.4595 H              1 S1                 0.0000
     39 ****         6.5762   2.3159   0.3962 H              1 S1                 0.0000
     40 ****         5.3947  -0.0628  -0.6011 H              1 S1                 0.0000
     41 ****         5.1594  -0.0681   1.6727 H              1 S1                 0.0000
     42 ****         6.7363   0.3350   3.5997 H              1 S1                 0.0000
     43 ****         7.5404  -0.1460   2.1177 H              1 S1                 0.0000
     44 ****         8.5639   1.6068   3.1051 H              1 S1                 0.0000
     45 ****         0.3638  -0.7380   2.4432 H              1 S1                 0.0000
     46 ****        -1.0301   0.1194   2.9649 H              1 S1                 0.0000
     47 ****        -1.8545  -1.6975   1.6354 H              1 S1                 0.0000
     48 ****        -2.6883  -3.5975   0.5282 H              1 S1                 0.0000
     49 ****        -4.0386  -4.5147  -1.2788 H              1 S1                 0.0000
     50 ****        -6.9563  -2.7790  -4.4835 H              1 S1                 0.0000
     51 ****        -6.1636  -1.3469  -3.8569 H              1 S1                 0.0000
     52 ****        -6.8916  -2.5017  -2.7482 H              1 S1                 0.0000
     53 ****        -5.9278  -4.8871  -2.5509 H              1 S1                 0.0000
     54 ****        -4.4516  -5.3146  -3.4215 H              1 S1                 0.0000
     55 ****        -5.9453  -5.0411  -4.2961 H              1 S1                 0.0000
     56 ****        -4.7927  -3.4093  -5.7670 H              1 S1                 0.0000
     57 ****        -3.2724  -3.5503  -4.8945 H              1 S1                 0.0000
     58 ****        -4.0110  -1.9728  -5.1374 H              1 S1                 0.0000
     59 ****        -4.0320  -0.6458  -3.2300 H              1 S1                 0.0000
     60 ****        -2.6965   0.2665  -1.4118 H              1 S1                 0.0000
     61 ****         6.9630   0.1499  -0.4387 LP             1 S1                 0.0000
     62 ****         6.1020   1.0415  -1.5018 LP             1 S1                 0.0000
     63 ****         7.2863   2.5538   3.0702 LP             1 S1                 0.0000
     64 ****         8.0183   2.0824   1.6886 LP             1 S1                 0.0000
     65 ****         4.0957   1.1407   2.9864 LP             1 S1                 0.0000
     66 ****         5.2788   2.2466   3.1953 LP             1 S1                 0.0000
     67 ****         3.4260   0.2615   1.4234 LP             1 S1                 0.0000
     68 ****         1.9232  -0.5713   1.6428 LP             1 S1                 0.0000
     69 ****         0.0660   1.3006  -0.0478 LP             1 S1                 0.0000
     70 ****        -1.0417   0.4013  -1.0298 LP             1 S1                 0.0000
     71 ****        -1.8159   3.4275   3.0933 LP             1 S1                 0.0000
     72 ****        -1.8646   1.7183   2.8172 LP             1 S1                 0.0000
@<TRIPOS>BOND
    1    1    2 1     
    2    1   32 1     
    3    1   33 1     
    4    1   34 1     
    5    2   30 1     
    6    2    3 2     
    7    3    4 1     
    8    3   35 1     
    9    4    5 1     
   10    4   13 am    
   11    5   12 1     
   12    5    6 1     
   13    5   36 1     
   14    6    7 1     
   15    6   37 1     
   16    6   38 1     
   17    7    8 1     
   18    7    9 1     
   19    7   39 1     
   20    8   40 1     
   21    9   10 1     
   22    9   12 1     
   23    9   41 1     
   24   10   11 1     
   25   10   42 1     
   26   10   43 1     
   27   11   44 1     
   28   13   14 2     
   29   13   15 am    
   30   15   16 1     
   31   15   30 am    
   32   16   17 1     
   33   16   45 1     
   34   16   46 1     
   35   17   18 2     
   36   17   19 am    
   37   19   20 1     
   38   19   47 1     
   39   20   29 ar    
   40   20   21 ar    
   41   21   22 ar    
   42   21   48 1     
   43   22   23 ar    
   44   22   49 1     
   45   23   24 1     
   46   23   28 ar    
   47   24   25 1     
   48   24   26 1     
   49   24   27 1     
   50   25   50 1     
   51   25   51 1     
   52   25   52 1     
   53   26   53 1     
   54   26   54 1     
   55   26   55 1     
   56   27   56 1     
   57   27   57 1     
   58   27   58 1     
   59   28   29 ar    
   60   28   59 1     
   61   29   60 1     
   62   30   31 2     
   63    8   61 1     
   64    8   62 1     
   65   11   63 1     
   66   11   64 1     
   67   12   65 1     
   68   12   66 1     
   69   14   67 1     
   70   14   68 1     
   71   18   69 1     
   72   18   70 1     
   73   31   71 1     
   74   31   72 1     
@<TRIPOS>SUBSTRUCTURE
      1 S1             1
@<TRIPOS>SET
LONE_PAIRS      STATIC     ATOMS    <user>   **** ""
12 61 62 63 64 65 66 67 68 69 70 71 72
DONOR_HYDROGENS      STATIC     ATOMS    <user>   **** ""
3 40 44 47
ATOM$BLUE        STATIC     ATOMS    COLORGROUP SYSTEM
12 61 62 63 64 65 66 67 68 69 70 71 72
ATOM$RED        STATIC     ATOMS    COLORGROUP SYSTEM
3 40 44 47
