AV-unprocessed.smi:2525|AV-procd|sdf|9930|dock4
  -GOLD-   2272013573D 1   1.00000     0.00000
 Structure written by MMmdl.
 44 45  0  0  0  0  0  0  0  0  1 V2000
  146.6081  139.1041  152.9186 C   0  0  0  0  0  0  0  0  0  0  0  0
  148.1452  139.1848  152.9305 C   0  0  0  0  0  0  0  0  0  0  0  0
  148.8611  138.9363  154.2887 C   0  0  0  0  0  0  0  0  0  0  0  0
  148.6823  140.2307  155.1198 C   0  0  0  0  0  0  0  0  0  0  0  0
  149.1954  141.5139  154.4426 C   0  0  0  0  0  0  0  0  0  0  0  0
  148.5226  137.6385  155.0823 C   0  0  1  0  0  0  0  0  0  0  0  0
  148.0867  136.5246  154.2424 N   0  0  0  0  0  0  0  0  0  0  0  0
  147.2749  135.5301  154.6312 C   0  0  0  0  0  0  0  0  0  0  0  0
  146.7816  135.4597  155.7562 O   0  0  0  0  0  0  0  0  0  0  0  0
  146.9525  134.4583  153.5861 C   0  0  0  0  0  0  0  0  0  0  0  0
  145.8273  134.8400  152.7483 N   0  0  0  0  0  0  0  0  0  0  0  0
  145.7327  135.8953  151.8644 C   0  0  0  0  0  0  0  0  0  0  0  0
  144.4623  135.7876  151.3757 C   0  0  0  0  0  0  0  0  0  0  0  0
  143.8452  134.6896  151.9728 N   0  0  0  0  0  0  0  0  0  0  0  0
  144.6757  134.1264  152.7928 N   0  0  0  0  0  0  0  0  0  0  0  0
  150.0047  137.5047  155.4774 C   0  0  1  0  0  0  0  0  0  0  0  0
  150.6462  136.1247  155.6126 C   0  0  0  0  0  0  0  0  0  0  0  0
  150.3137  138.3802  154.2539 C   0  0  2  0  0  0  0  0  0  0  0  0
  151.2903  139.3904  154.4610 O   0  0  0  0  0  0  0  0  0  0  0  0
  152.5858  138.8750  154.7124 C   0  0  0  0  0  0  0  0  0  0  0  0
  146.2251  139.3391  151.9253 H   0  0  0  0  0  0  0  0  0  0  0  0
  146.1465  139.8038  153.6140 H   0  0  0  0  0  0  0  0  0  0  0  0
  146.2619  138.1003  153.1650 H   0  0  0  0  0  0  0  0  0  0  0  0
  148.4915  138.4709  152.1821 H   0  0  0  0  0  0  0  0  0  0  0  0
  148.4364  140.1611  152.5417 H   0  0  0  0  0  0  0  0  0  0  0  0
  147.6296  140.3852  155.3574 H   0  0  0  0  0  0  0  0  0  0  0  0
  149.1719  140.1256  156.0888 H   0  0  0  0  0  0  0  0  0  0  0  0
  148.9959  142.3814  155.0715 H   0  0  0  0  0  0  0  0  0  0  0  0
  148.7090  141.6891  153.4834 H   0  0  0  0  0  0  0  0  0  0  0  0
  150.2709  141.4816  154.2706 H   0  0  0  0  0  0  0  0  0  0  0  0
  147.8888  137.7988  155.9553 H   0  0  0  0  0  0  0  0  0  0  0  0
  148.4406  136.5030  153.2969 H   0  0  0  0  0  0  0  0  0  0  0  0
  147.8196  134.2888  152.9465 H   0  0  0  0  0  0  0  0  0  0  0  0
  146.7329  133.5146  154.0877 H   0  0  0  0  0  0  0  0  0  0  0  0
  146.5347  136.5941  151.6758 H   0  0  0  0  0  0  0  0  0  0  0  0
  143.9454  136.4027  150.6537 H   0  0  0  0  0  0  0  0  0  0  0  0
  150.1711  138.0832  156.3877 H   0  0  0  0  0  0  0  0  0  0  0  0
  150.6533  135.5859  154.6645 H   0  0  0  0  0  0  0  0  0  0  0  0
  150.1088  135.5109  156.3355 H   0  0  0  0  0  0  0  0  0  0  0  0
  151.6790  136.1989  155.9520 H   0  0  0  0  0  0  0  0  0  0  0  0
  150.5316  137.7649  153.3804 H   0  0  0  0  0  0  0  0  0  0  0  0
  153.2933  139.6988  154.8043 H   0  0  0  0  0  0  0  0  0  0  0  0
  152.9220  138.2329  153.8976 H   0  0  0  0  0  0  0  0  0  0  0  0
  152.6141  138.3078  155.6422 H   0  0  0  0  0  0  0  0  0  0  0  0
  1  2  1  0  0  0  0
  1 21  1  0  0  0  0
  1 22  1  0  0  0  0
  1 23  1  0  0  0  0
  2  3  1  0  0  0  0
  2 24  1  0  0  0  0
  2 25  1  0  0  0  0
  3 18  1  0  0  0  0
  3  4  1  0  0  0  0
  3  6  1  0  0  0  0
  4  5  1  0  0  0  0
  4 26  1  0  0  0  0
  4 27  1  0  0  0  0
  5 28  1  0  0  0  0
  5 29  1  0  0  0  0
  5 30  1  0  0  0  0
  6  7  1  0  0  0  0
  6 16  1  0  0  0  0
  6 31  1  0  0  0  0
  7  8  1  0  0  0  0
  7 32  1  0  0  0  0
  8  9  2  0  0  0  0
  8 10  1  0  0  0  0
 10 11  1  0  0  0  0
 10 33  1  0  0  0  0
 10 34  1  0  0  0  0
 11 15  1  0  0  0  0
 11 12  1  0  0  0  0
 12 13  2  0  0  0  0
 12 35  1  0  0  0  0
 13 14  1  0  0  0  0
 13 36  1  0  0  0  0
 14 15  2  0  0  0  0
 16 17  1  0  0  0  0
 16 18  1  0  0  0  0
 16 37  1  0  0  0  0
 17 38  1  0  0  0  0
 17 39  1  0  0  0  0
 17 40  1  0  0  0  0
 18 19  1  0  0  0  0
 18 41  1  0  0  0  0
 19 20  1  0  0  0  0
 20 42  1  0  0  0  0
 20 43  1  0  0  0  0
 20 44  1  0  0  0  0
M  END
> <s_m_source_file>
AV-unprocessed.smi

> <i_m_source_file_index>
2525

> <i_lp_mmshare_version>
43012

> <i_f3d_flags>
0

> <s_epik_input>
W0NIM11PW0NAQEhdMVtDQEhdKFtDSDNdKVtDQEBIXShDMShbQ0gyXVtDSDNdKVtDSDJdW0NIM10pW05IXUMoPU8pW0NIMl1uMltjSF1bY0hdbm4y

> <s_epik_cmdline>
J2VwaWtfcHl0aG9uJywgJy1waCcsICc3LjAnLCAnLXRuJywgJzgnLCAnLW1hJywgJzIwMCcsICctbWV0YWxfYmluZGluZycsICctaW1hZScsICc8aW5maWxlLm1hZT4nLCAnLW9tYWUnLCAnPG91dGZpbGUubWFlPic=

> <r_lp_tautomer_probability>
1

> <r_epik_Ionization_Penalty>
1.18045e-06

> <r_epik_Ionization_Penalty_Charging>
0

> <r_epik_Ionization_Penalty_Neutral>
1.18045e-06

> <r_epik_State_Penalty>
-0

> <r_epik_Charging_Adjusted_Penalty>
0

> <i_epik_Tot_Q>
0

> <i_epik_Tot_abs_Q>
0

> <r_epik_Metal_State_Penalty>
-0

> <b_epik_Metal_Only>
0

> <s_lp_Force_Field>
OPLS_2005

> <r_lp_Energy>
28.6674

> <b_lp_Chiralities_Consistent>
1

> <s_lp_Variant>
AV-unprocessed.smi:2525-5

> <Gold.Version>
5.8.1

> <Gold.Id.Protein>
6NUR|6NUR_protein|mol2

> <Gold.PLP.Fitness>
34.2566

> <Gold.PLP.PLP>
-23.6851

> <Gold.PLP.part.hbond>
-2.0000

> <Gold.PLP.part.metal>
0.0000

> <Gold.PLP.part.buried>
4.1438

> <Gold.PLP.part.nonpolar>
-25.3122

> <Gold.PLP.part.repulsive>
0.3633

> <Gold.PLP.ligand.clash>
0.0000

> <Gold.PLP.ligand.torsion>
1.0054

> <Gold.PLP.Chemscore.Hbond>
2.0000

> <Gold.PLP.Chemscore.CHOScore>
2.0000

> <Gold.PLP.Chemscore.Metal>
0.0000

> <Gold.Chemscore.Hbonds>
donor molecule, donor type, donor heavy atom, donor atom, acceptor molecule, acceptor atom, score
      L1  H     7    32       P1  7948  1.00
      P1  H  7989  7998       L1    19  1.00
      L1  C    12    35       P1  7948  0.97
      L1  C    13    36       P1 10171  1.00

> <Gold.PLP.Chemscore.Internal.Correction>
0.5824

> <Gold.Rescore>
     Score         DG    S(hbond)    S(metal)    S(lipo)     H(rot)  DE(clash)    DE(int)     intcor
     12.14     -14.80       1.77        0.00      72.57       1.98       1.78       0.88       ----

> <Gold.Chemscore.Fitness>
12.1426

> <Gold.Chemscore.DG>
-14.8041

> <Gold.Chemscore.ZeroCoef>
-5.4800

> <Gold.Chemscore.Hbond>
1.7685

> <Gold.Chemscore.Metal>
0.0000

> <Gold.Chemscore.Lipo>
72.5664

> <Gold.Chemscore.Internal_Hbond>
0.0000

> <Gold.Chemscore.DEClash>
1.7829

> <Gold.Chemscore.DEInternal>
0.8786

> <Gold.Chemscore.Rot>
1.9817

> <Gold.Chemscore.Internal.Correction>
   9.000000E+99

> <Gold.Chemscore.Hbonds>
donor molecule, donor type, donor heavy atom, donor atom, acceptor molecule, acceptor atom, score
      L1  H     7    32       P1  7948  0.94
      P1  H  7989  7998       L1    19  0.35

> <Gold.Chemscore.Hbond.Weighted>
-5.9069

> <Gold.Chemscore.Metal.Weighted>
-0.0000

> <Gold.Chemscore.Lipo.Weighted>
-8.4903

> <Gold.Chemscore.Internal_Hbond.Weighted>
0.0000

> <Gold.Chemscore.DEClash.Weighted>
1.7829

> <Gold.Chemscore.DEInternal.Weighted>
0.8786

> <Gold.Chemscore.Rot.Weighted>
5.0731

> <Gold.Chemscore.Internal.Correction.Weighted>
   9.000000E+99

> <Gold.Protein.RotatedTorsions>
[ 6907 6896 6895 6894 ] final  -70.17 input  -60.11 | X-H torsion
[ 7974 7965 7964 7962 ] final    9.98 input  175.53 | X-H torsion
[ 8008 7997 7996 7995 ] final  121.43 input   59.86 | X-H torsion
[ 10167 10162 10161 10158 ] final  -53.00 input  -65.29 | X-H torsion
[ 10718 10713 10712 10709 ] final  -13.51 input   66.30 | X-H torsion
[ 10763 10752 10751 10750 ] final  135.37 input  -60.55 | X-H torsion
[ 11005 11000 10999 10996 ] final   66.15 input  -57.11 | X-H torsion

> <Gold.Protein.ActiveResidues>
 VAL166  LYS551  ARG553  GLY616  TRP617  ASP618  TYR619  PRO620  LYS621  CYS622 
 ASP623  PHE694  ASN695  SER759  ASP760  ASP761  ALA762  ILE779  LEU786  VAL792 
 PHE793  MET794  SER795  GLU796  ALA797  LYS798  CYS799  TRP800  GLU811  SER814 

> <Gold.Protein.RotatedAtoms>
  150.7270  134.5492  159.5785 H   0  0  0  0  0  0  0  0  0  0  0  0  # atno 6907 bound_to 6896
  152.2983  134.7638  160.0372 H   0  0  0  0  0  0  0  0  0  0  0  0  # atno 6908 bound_to 6896
  151.8227  133.3361  159.3626 H   0  0  0  0  0  0  0  0  0  0  0  0  # atno 6909 bound_to 6896
  146.2395  139.9703  142.8448 H   0  0  0  0  0  0  0  0  0  0  0  0  # atno 7974 bound_to 7965
  156.2686  140.2808  156.1306 H   0  0  0  0  0  0  0  0  0  0  0  0  # atno 8008 bound_to 7997
  155.1058  140.0390  157.2727 H   0  0  0  0  0  0  0  0  0  0  0  0  # atno 8009 bound_to 7997
  154.6780  140.2602  155.6943 H   0  0  0  0  0  0  0  0  0  0  0  0  # atno 8010 bound_to 7997
  140.6508  143.2565  151.4728 H   0  0  0  0  0  0  0  0  0  0  0  0  # atno 10167 bound_to 10162
  156.6293  130.4897  149.6135 H   0  0  0  0  0  0  0  0  0  0  0  0  # atno 10718 bound_to 10713
  153.8388  135.3094  155.3424 H   0  0  0  0  0  0  0  0  0  0  0  0  # atno 10763 bound_to 10752
  154.7941  135.4765  154.0124 H   0  0  0  0  0  0  0  0  0  0  0  0  # atno 10764 bound_to 10752
  153.1588  135.6857  153.8864 H   0  0  0  0  0  0  0  0  0  0  0  0  # atno 10765 bound_to 10752
  139.9849  134.6683  156.0194 H   0  0  0  0  0  0  0  0  0  0  0  0  # atno 11005 bound_to 11000
  145.1688  140.9710  143.4334 LP  0  0  0  0  0  0  0  0  0  0  0  0  # atno 17320 bound_to 7965
  145.0048  139.3564  143.6149 LP  0  0  0  0  0  0  0  0  0  0  0  0  # atno 17321 bound_to 7965
  139.5723  144.1900  152.1854 LP  0  0  0  0  0  0  0  0  0  0  0  0  # atno 17342 bound_to 10162
  140.1200  144.5382  150.6869 LP  0  0  0  0  0  0  0  0  0  0  0  0  # atno 17343 bound_to 10162
  156.2248  130.6759  151.1404 LP  0  0  0  0  0  0  0  0  0  0  0  0  # atno 17370 bound_to 10713
  157.7205  131.0684  150.6156 LP  0  0  0  0  0  0  0  0  0  0  0  0  # atno 17371 bound_to 10713
  141.1516  133.6548  156.4031 LP  0  0  0  0  0  0  0  0  0  0  0  0  # atno 17394 bound_to 11000
  140.5021  134.6475  157.5252 LP  0  0  0  0  0  0  0  0  0  0  0  0  # atno 17395 bound_to 11000

$$$$
