AV-unprocessed.smi:1164|AV-procd|sdf|4926|dock10
  -GOLD-   22720 3503D 1   1.00000     0.00000
 Structure written by MMmdl.
 30 30  0  0  0  0  0  0  0  0  2 V2000
  150.6666  144.1008  159.6261 C   0  0  0  0  0  0  0  0  0  0  0  0
  151.7849  143.7218  158.6389 C   0  0  0  0  0  0  0  0  0  0  0  0
  152.5721  144.9950  158.2624 C   0  0  0  0  0  0  0  0  0  0  0  0
  152.7135  142.6855  159.3066 C   0  0  0  0  0  0  0  0  0  0  0  0
  151.1327  143.1456  157.4572 N   0  0  0  0  0  0  0  0  0  0  0  0
  150.5378  141.9461  157.3294 C   0  0  0  0  0  0  0  0  0  0  0  0
  150.4633  141.1204  158.2406 O   0  0  0  0  0  0  0  0  0  0  0  0
  149.9474  141.6525  155.9408 C   0  0  0  0  0  0  0  0  0  0  0  0
  150.2830  140.3226  155.4104 N   0  0  0  0  0  0  0  0  0  0  0  0
  151.6996  139.9850  155.5177 N   0  5  0  0  0  0  0  0  0  0  0  0
  152.1264  138.7711  155.0789 C   0  0  0  0  0  0  0  0  0  0  0  0
  153.2985  138.4095  155.1540 O   0  0  0  0  0  0  0  0  0  0  0  0
  151.1460  137.8715  154.4937 C   0  0  0  0  0  0  0  0  0  0  0  0
  149.8483  138.2188  154.3865 C   0  0  0  0  0  0  0  0  0  0  0  0
  149.3451  139.5060  154.8504 C   0  0  0  0  0  0  0  0  0  0  0  0
  148.1623  139.8328  154.7487 O   0  0  0  0  0  0  0  0  0  0  0  0
  151.0736  144.5339  160.5403 H   0  0  0  0  0  0  0  0  0  0  0  0
  150.0751  143.2300  159.9120 H   0  0  0  0  0  0  0  0  0  0  0  0
  149.9845  144.8335  159.1926 H   0  0  0  0  0  0  0  0  0  0  0  0
  151.9372  145.7155  157.7455 H   0  0  0  0  0  0  0  0  0  0  0  0
  153.4194  144.7768  157.6125 H   0  0  0  0  0  0  0  0  0  0  0  0
  152.9703  145.4870  159.1502 H   0  0  0  0  0  0  0  0  0  0  0  0
  153.1308  143.0736  160.2363 H   0  0  0  0  0  0  0  0  0  0  0  0
  153.5545  142.4165  158.6673 H   0  0  0  0  0  0  0  0  0  0  0  0
  152.1758  141.7675  159.5470 H   0  0  0  0  0  0  0  0  0  0  0  0
  151.1327  143.7313  156.6347 H   0  0  0  0  0  0  0  0  0  0  0  0
  148.8625  141.7629  155.9877 H   0  0  0  0  0  0  0  0  0  0  0  0
  150.2895  142.4303  155.2556 H   0  0  0  0  0  0  0  0  0  0  0  0
  151.4663  136.9045  154.1348 H   0  0  0  0  0  0  0  0  0  0  0  0
  149.1548  137.5197  153.9435 H   0  0  0  0  0  0  0  0  0  0  0  0
  1  2  1  0  0  0  0
  1 17  1  0  0  0  0
  1 18  1  0  0  0  0
  1 19  1  0  0  0  0
  2  3  1  0  0  0  0
  2  4  1  0  0  0  0
  2  5  1  0  0  0  0
  3 20  1  0  0  0  0
  3 21  1  0  0  0  0
  3 22  1  0  0  0  0
  4 23  1  0  0  0  0
  4 24  1  0  0  0  0
  4 25  1  0  0  0  0
  5  6  1  0  0  0  0
  5 26  1  0  0  0  0
  6  7  2  0  0  0  0
  6  8  1  0  0  0  0
  8 27  1  0  0  0  0
  8 28  1  0  0  0  0
  8  9  1  0  0  0  0
  9 10  1  0  0  0  0
  9 15  1  0  0  0  0
 10 11  1  0  0  0  0
 11 12  2  0  0  0  0
 11 13  1  0  0  0  0
 13 29  1  0  0  0  0
 13 14  2  0  0  0  0
 14 30  1  0  0  0  0
 14 15  1  0  0  0  0
 15 16  2  0  0  0  0
M  CHG  1  10  -1
M  END
> <s_m_source_file>
AV-unprocessed.smi

> <i_m_source_file_index>
1164

> <i_lp_mmshare_version>
43012

> <i_f3d_flags>
0

> <s_epik_input>
W0NIM11DKFtDSDNdKShbQ0gzXSlbTkhdQyg9TylbQ0gyXW4xW25IXWMoPU8pW2NIXVtjSF1jMT1P

> <s_epik_cmdline>
J2VwaWtfcHl0aG9uJywgJy1waCcsICc3LjAnLCAnLXRuJywgJzgnLCAnLW1hJywgJzIwMCcsICctbWV0YWxfYmluZGluZycsICctaW1hZScsICc8aW5maWxlLm1hZT4nLCAnLW9tYWUnLCAnPG91dGZpbGUubWFlPic=

> <r_lp_tautomer_probability>
1

> <r_epik_Ionization_Penalty>
0.098909

> <r_epik_Ionization_Penalty_Charging>
0.0989089

> <r_epik_Ionization_Penalty_Neutral>
2.46306e-08

> <r_epik_State_Penalty>
0.0348838

> <r_epik_Charging_Adjusted_Penalty>
0.133793

> <i_epik_Tot_Q>
-1

> <i_epik_Tot_abs_Q>
1

> <r_epik_Metal_State_Penalty>
0.0348839

> <b_epik_Metal_Only>
0

> <s_lp_Force_Field>
OPLS_2005

> <r_lp_Energy>
18.541

> <b_lp_Chiralities_Consistent>
1

> <s_lp_Variant>
AV-unprocessed.smi:1164-1

> <Gold.Version>
5.8.1

> <Gold.Id.Protein>
6NUR|6NUR_protein|mol2

> <Gold.PLP.Fitness>
38.4304

> <Gold.PLP.PLP>
-36.7644

> <Gold.PLP.part.hbond>
-2.1806

> <Gold.PLP.part.metal>
0.0000

> <Gold.PLP.part.buried>
-4.4837

> <Gold.PLP.part.nonpolar>
-30.1475

> <Gold.PLP.part.repulsive>
0.1245

> <Gold.PLP.ligand.clash>
0.0000

> <Gold.PLP.ligand.torsion>
0.5141

> <Gold.PLP.Chemscore.Hbond>
0.8960

> <Gold.PLP.Chemscore.CHOScore>
0.0000

> <Gold.PLP.Chemscore.Metal>
0.0000

> <Gold.Chemscore.Hbonds>
donor molecule, donor type, donor heavy atom, donor atom, acceptor molecule, acceptor atom, score
      P1  H  7997  8010       L1    12  0.40

> <Gold.PLP.Chemscore.Internal.Correction>
0.0063

> <Gold.Rescore>
     Score         DG    S(hbond)    S(metal)    S(lipo)     H(rot)  DE(clash)    DE(int)     intcor
      9.87     -11.44       0.66        0.00      69.10       1.70       0.04       1.53       ----

> <Gold.Chemscore.Fitness>
9.8694

> <Gold.Chemscore.DG>
-11.4395

> <Gold.Chemscore.ZeroCoef>
-5.4800

> <Gold.Chemscore.Hbond>
0.6630

> <Gold.Chemscore.Metal>
0.0000

> <Gold.Chemscore.Lipo>
69.0959

> <Gold.Chemscore.Internal_Hbond>
0.0000

> <Gold.Chemscore.DEClash>
0.0398

> <Gold.Chemscore.DEInternal>
1.5303

> <Gold.Chemscore.Rot>
1.6950

> <Gold.Chemscore.Internal.Correction>
   9.000000E+99

> <Gold.Chemscore.Hbonds>
donor molecule, donor type, donor heavy atom, donor atom, acceptor molecule, acceptor atom, score
      P1  H  7997  8010       L1    12  0.26

> <Gold.Chemscore.Hbond.Weighted>
-2.2145

> <Gold.Chemscore.Metal.Weighted>
-0.0000

> <Gold.Chemscore.Lipo.Weighted>
-8.0842

> <Gold.Chemscore.Internal_Hbond.Weighted>
0.0000

> <Gold.Chemscore.DEClash.Weighted>
0.0398

> <Gold.Chemscore.DEInternal.Weighted>
1.5303

> <Gold.Chemscore.Rot.Weighted>
4.3393

> <Gold.Chemscore.Internal.Correction.Weighted>
   9.000000E+99

> <Gold.Protein.RotatedTorsions>
[ 6907 6896 6895 6894 ] final -111.47 input  -60.11 | X-H torsion
[ 7974 7965 7964 7962 ] final   -9.49 input  175.53 | X-H torsion
[ 8008 7997 7996 7995 ] final  110.95 input   59.86 | X-H torsion
[ 10167 10162 10161 10158 ] final  134.54 input  -65.29 | X-H torsion
[ 10718 10713 10712 10709 ] final -179.77 input   66.30 | X-H torsion
[ 10763 10752 10751 10750 ] final  -51.51 input  -60.55 | X-H torsion
[ 11005 11000 10999 10996 ] final   74.97 input  -57.11 | X-H torsion

> <Gold.Protein.ActiveResidues>
 VAL166  LYS551  ARG553  GLY616  TRP617  ASP618  TYR619  PRO620  LYS621  CYS622 
 ASP623  PHE694  ASN695  SER759  ASP760  ASP761  ALA762  ILE779  LEU786  VAL792 
 PHE793  MET794  SER795  GLU796  ALA797  LYS798  CYS799  TRP800  GLU811  SER814 

> <Gold.Protein.RotatedAtoms>
  150.7693  133.9230  159.3403 H   0  0  0  0  0  0  0  0  0  0  0  0  # atno 6907 bound_to 6896
  151.7120  135.0909  160.0279 H   0  0  0  0  0  0  0  0  0  0  0  0  # atno 6908 bound_to 6896
  152.3703  133.6372  159.6118 H   0  0  0  0  0  0  0  0  0  0  0  0  # atno 6909 bound_to 6896
  146.2250  140.2623  142.8352 H   0  0  0  0  0  0  0  0  0  0  0  0  # atno 7974 bound_to 7965
  156.2089  140.3029  155.9689 H   0  0  0  0  0  0  0  0  0  0  0  0  # atno 8008 bound_to 7997
  155.2772  140.0436  157.3029 H   0  0  0  0  0  0  0  0  0  0  0  0  # atno 8009 bound_to 7997
  154.5672  140.2337  155.8254 H   0  0  0  0  0  0  0  0  0  0  0  0  # atno 8010 bound_to 7997
  139.5252  144.6562  151.5155 H   0  0  0  0  0  0  0  0  0  0  0  0  # atno 10167 bound_to 10162
  156.8641  130.9761  151.3080 H   0  0  0  0  0  0  0  0  0  0  0  0  # atno 10718 bound_to 10713
  154.1277  135.6525  153.4915 H   0  0  0  0  0  0  0  0  0  0  0  0  # atno 10763 bound_to 10752
  153.0205  135.5285  154.7032 H   0  0  0  0  0  0  0  0  0  0  0  0  # atno 10764 bound_to 10752
  154.6258  135.2970  155.0244 H   0  0  0  0  0  0  0  0  0  0  0  0  # atno 10765 bound_to 10752
  139.9365  134.7478  156.1214 H   0  0  0  0  0  0  0  0  0  0  0  0  # atno 11005 bound_to 11000
  144.9330  140.7995  143.5677 LP  0  0  0  0  0  0  0  0  0  0  0  0  # atno 17320 bound_to 7965
  145.2569  139.2008  143.4913 LP  0  0  0  0  0  0  0  0  0  0  0  0  # atno 17321 bound_to 7965
  140.6389  143.8929  150.6673 LP  0  0  0  0  0  0  0  0  0  0  0  0  # atno 17342 bound_to 10162
  140.2257  143.3774  152.1606 LP  0  0  0  0  0  0  0  0  0  0  0  0  # atno 17343 bound_to 10162
  157.6233  130.8672  149.9146 LP  0  0  0  0  0  0  0  0  0  0  0  0  # atno 17370 bound_to 10713
  156.0761  130.3679  150.0675 LP  0  0  0  0  0  0  0  0  0  0  0  0  # atno 17371 bound_to 10713
  141.0981  133.6687  156.2692 LP  0  0  0  0  0  0  0  0  0  0  0  0  # atno 17394 bound_to 11000
  140.6061  134.5505  157.5526 LP  0  0  0  0  0  0  0  0  0  0  0  0  # atno 17395 bound_to 11000

$$$$
