AV-unprocessed.smi:2295|AV-procd|sdf|9219|dock9
  -GOLD-   2272012443D 1   1.00000     0.00000
 Structure written by MMmdl.
 37 38  0  0  0  0  0  0  0  0  1 V2000
  152.0048  145.8550  160.3109 C   0  0  0  0  0  0  0  0  0  0  0  0
  151.9735  144.4967  159.6422 C   0  0  0  0  0  0  0  0  0  0  0  0
  152.8072  143.4523  160.0856 C   0  0  0  0  0  0  0  0  0  0  0  0
  152.7291  142.2120  159.4219 C   0  0  0  0  0  0  0  0  0  0  0  0
  153.5970  141.0456  159.8454 C   0  0  0  0  0  0  0  0  0  0  0  0
  151.8955  141.9824  158.3848 N   0  0  0  0  0  0  0  0  0  0  0  0
  151.0875  142.9810  157.9494 C   0  0  0  0  0  0  0  0  0  0  0  0
  150.1742  142.8428  156.8705 N   0  0  0  0  0  0  0  0  0  0  0  0
  149.5269  141.7363  156.4645 C   0  0  0  0  0  0  0  0  0  0  0  0
  149.6388  140.6191  156.9702 O   0  0  0  0  0  0  0  0  0  0  0  0
  148.7290  142.0000  155.4194 N   0  0  0  0  0  0  0  0  0  0  0  0
  147.8735  141.0324  154.7388 C   0  0  0  0  0  0  0  0  0  0  0  0
  146.4012  141.4815  154.7116 C   0  0  1  0  0  0  0  0  0  0  0  0
  145.8091  141.8002  156.0929 C   0  0  0  0  0  0  0  0  0  0  0  0
  144.5990  142.7048  155.8579 C   0  0  0  0  0  0  0  0  0  0  0  0
  145.0443  143.7658  154.8511 C   0  0  0  0  0  0  0  0  0  0  0  0
  146.1754  142.9624  153.6869 S   0  0  0  0  0  0  0  0  0  0  0  0
  151.1042  144.2556  158.5593 C   0  0  0  0  0  0  0  0  0  0  0  0
  152.6835  145.8618  161.1641 H   0  0  0  0  0  0  0  0  0  0  0  0
  151.0097  146.1247  160.6653 H   0  0  0  0  0  0  0  0  0  0  0  0
  152.3366  146.6161  159.6043 H   0  0  0  0  0  0  0  0  0  0  0  0
  153.4884  143.5978  160.9116 H   0  0  0  0  0  0  0  0  0  0  0  0
  154.1712  141.2841  160.7410 H   0  0  0  0  0  0  0  0  0  0  0  0
  154.2966  140.7869  159.0503 H   0  0  0  0  0  0  0  0  0  0  0  0
  152.9812  140.1717  160.0602 H   0  0  0  0  0  0  0  0  0  0  0  0
  149.9816  143.6888  156.3552 H   0  0  0  0  0  0  0  0  0  0  0  0
  148.7034  142.9470  155.0712 H   0  0  0  0  0  0  0  0  0  0  0  0
  148.2324  140.8317  153.7279 H   0  0  0  0  0  0  0  0  0  0  0  0
  147.9552  140.0899  155.2810 H   0  0  0  0  0  0  0  0  0  0  0  0
  145.7959  140.6996  154.2510 H   0  0  0  0  0  0  0  0  0  0  0  0
  145.5363  140.8950  156.6363 H   0  0  0  0  0  0  0  0  0  0  0  0
  146.5424  142.3334  156.6997 H   0  0  0  0  0  0  0  0  0  0  0  0
  143.7818  142.1180  155.4365 H   0  0  0  0  0  0  0  0  0  0  0  0
  144.2360  143.1515  156.7838 H   0  0  0  0  0  0  0  0  0  0  0  0
  144.2012  144.2211  154.3309 H   0  0  0  0  0  0  0  0  0  0  0  0
  145.5898  144.5602  155.3612 H   0  0  0  0  0  0  0  0  0  0  0  0
  150.4557  145.0430  158.2032 H   0  0  0  0  0  0  0  0  0  0  0  0
  1  2  1  0  0  0  0
  1 19  1  0  0  0  0
  1 20  1  0  0  0  0
  1 21  1  0  0  0  0
  2 18  1  0  0  0  0
  2  3  2  0  0  0  0
  3  4  1  0  0  0  0
  3 22  1  0  0  0  0
  4  5  1  0  0  0  0
  4  6  2  0  0  0  0
  5 23  1  0  0  0  0
  5 24  1  0  0  0  0
  5 25  1  0  0  0  0
  6  7  1  0  0  0  0
  7  8  1  0  0  0  0
  7 18  2  0  0  0  0
  8  9  1  0  0  0  0
  8 26  1  0  0  0  0
  9 10  2  0  0  0  0
  9 11  1  0  0  0  0
 11 12  1  0  0  0  0
 11 27  1  0  0  0  0
 12 13  1  0  0  0  0
 12 28  1  0  0  0  0
 12 29  1  0  0  0  0
 13 17  1  0  0  0  0
 13 14  1  0  0  0  0
 13 30  1  0  0  0  0
 14 15  1  0  0  0  0
 14 31  1  0  0  0  0
 14 32  1  0  0  0  0
 15 16  1  0  0  0  0
 15 33  1  0  0  0  0
 15 34  1  0  0  0  0
 16 17  1  0  0  0  0
 16 35  1  0  0  0  0
 16 36  1  0  0  0  0
 18 37  1  0  0  0  0
M  END
> <s_m_source_file>
AV-unprocessed.smi

> <i_m_source_file_index>
2295

> <i_lp_mmshare_version>
43012

> <i_f3d_flags>
0

> <s_epik_input>
W0NIM11jMVtjSF1jKFtDSDNdKW5jKFtjSF0xKVtOSF1DKD1PKVtOSF1bQ0gyXVtDQEBIXTJbQ0gyXVtDSDJdW0NIMl1TMg==

> <s_epik_cmdline>
J2VwaWtfcHl0aG9uJywgJy1waCcsICc3LjAnLCAnLXRuJywgJzgnLCAnLW1hJywgJzIwMCcsICctbWV0YWxfYmluZGluZycsICctaW1hZScsICc8aW5maWxlLm1hZT4nLCAnLW9tYWUnLCAnPG91dGZpbGUubWFlPic=

> <r_lp_tautomer_probability>
1

> <r_epik_Ionization_Penalty>
0.000247769

> <r_epik_Ionization_Penalty_Charging>
0

> <r_epik_Ionization_Penalty_Neutral>
0.000247769

> <r_epik_State_Penalty>
-0

> <r_epik_Charging_Adjusted_Penalty>
0

> <i_epik_Tot_Q>
0

> <i_epik_Tot_abs_Q>
0

> <r_epik_Metal_State_Penalty>
-0

> <b_epik_Metal_Only>
0

> <s_lp_Force_Field>
OPLS_2005

> <r_lp_Energy>
14.3156

> <b_lp_Chiralities_Consistent>
1

> <s_lp_Variant>
AV-unprocessed.smi:2295-2

> <Gold.Version>
5.8.1

> <Gold.Id.Protein>
6NUR|6NUR_protein|mol2

> <Gold.PLP.Fitness>
44.8011

> <Gold.PLP.PLP>
-39.6824

> <Gold.PLP.part.hbond>
-2.0000

> <Gold.PLP.part.metal>
0.0000

> <Gold.PLP.part.buried>
-6.5479

> <Gold.PLP.part.nonpolar>
-32.5436

> <Gold.PLP.part.repulsive>
0.1982

> <Gold.PLP.ligand.clash>
0.0000

> <Gold.PLP.ligand.torsion>
0.2133

> <Gold.PLP.Chemscore.Hbond>
1.8480

> <Gold.PLP.Chemscore.CHOScore>
0.0000

> <Gold.PLP.Chemscore.Metal>
0.0000

> <Gold.Chemscore.Hbonds>
donor molecule, donor type, donor heavy atom, donor atom, acceptor molecule, acceptor atom, score
      L1  H     8    26       P1  8028  1.00
      L1  H    11    27       P1  8028  0.85

> <Gold.PLP.Chemscore.Internal.Correction>
0.0012

> <Gold.Rescore>
     Score         DG    S(hbond)    S(metal)    S(lipo)     H(rot)  DE(clash)    DE(int)     intcor
     18.14     -19.72       1.93        0.00      92.33       1.17       0.21       1.38       ----

> <Gold.Chemscore.Fitness>
18.1353

> <Gold.Chemscore.DG>
-19.7190

> <Gold.Chemscore.ZeroCoef>
-5.4800

> <Gold.Chemscore.Hbond>
1.9264

> <Gold.Chemscore.Metal>
0.0000

> <Gold.Chemscore.Lipo>
92.3289

> <Gold.Chemscore.Internal_Hbond>
0.0000

> <Gold.Chemscore.DEClash>
0.2061

> <Gold.Chemscore.DEInternal>
1.3777

> <Gold.Chemscore.Rot>
1.1709

> <Gold.Chemscore.Internal.Correction>
   9.000000E+99

> <Gold.Chemscore.Hbonds>
donor molecule, donor type, donor heavy atom, donor atom, acceptor molecule, acceptor atom, score
      L1  H     8    26       P1  8028  0.94
      L1  H    11    27       P1  8028  0.83

> <Gold.Chemscore.Hbond.Weighted>
-6.4341

> <Gold.Chemscore.Metal.Weighted>
-0.0000

> <Gold.Chemscore.Lipo.Weighted>
-10.8025

> <Gold.Chemscore.Internal_Hbond.Weighted>
0.0000

> <Gold.Chemscore.DEClash.Weighted>
0.2061

> <Gold.Chemscore.DEInternal.Weighted>
1.3777

> <Gold.Chemscore.Rot.Weighted>
2.9975

> <Gold.Chemscore.Internal.Correction.Weighted>
   9.000000E+99

> <Gold.Protein.RotatedTorsions>
[ 6907 6896 6895 6894 ] final   64.45 input  -60.11 | X-H torsion
[ 7974 7965 7964 7962 ] final   88.53 input  175.53 | X-H torsion
[ 8008 7997 7996 7995 ] final -160.44 input   59.86 | X-H torsion
[ 10167 10162 10161 10158 ] final  176.95 input  -65.29 | X-H torsion
[ 10718 10713 10712 10709 ] final  108.02 input   66.30 | X-H torsion
[ 10763 10752 10751 10750 ] final   98.98 input  -60.55 | X-H torsion
[ 11005 11000 10999 10996 ] final -101.92 input  -57.11 | X-H torsion

> <Gold.Protein.ActiveResidues>
 VAL166  LYS551  ARG553  GLY616  TRP617  ASP618  TYR619  PRO620  LYS621  CYS622 
 ASP623  PHE694  ASN695  SER759  ASP760  ASP761  ALA762  ILE779  LEU786  VAL792 
 PHE793  MET794  SER795  GLU796  ALA797  LYS798  CYS799  TRP800  GLU811  SER814 

> <Gold.Protein.RotatedAtoms>
  152.4332  134.5737  159.9928 H   0  0  0  0  0  0  0  0  0  0  0  0  # atno 6907 bound_to 6896
  151.5854  133.3367  159.3025 H   0  0  0  0  0  0  0  0  0  0  0  0  # atno 6908 bound_to 6896
  150.8228  134.7479  159.6851 H   0  0  0  0  0  0  0  0  0  0  0  0  # atno 6909 bound_to 6896
  145.5445  139.2291  143.2547 H   0  0  0  0  0  0  0  0  0  0  0  0  # atno 7974 bound_to 7965
  155.7774  140.0860  157.2076 H   0  0  0  0  0  0  0  0  0  0  0  0  # atno 8008 bound_to 7997
  154.3992  140.1514  156.3070 H   0  0  0  0  0  0  0  0  0  0  0  0  # atno 8009 bound_to 7997
  155.8687  140.3426  155.5809 H   0  0  0  0  0  0  0  0  0  0  0  0  # atno 8010 bound_to 7997
  139.5234  144.2855  152.0509 H   0  0  0  0  0  0  0  0  0  0  0  0  # atno 10167 bound_to 10162
  157.6604  131.0885  150.6243 H   0  0  0  0  0  0  0  0  0  0  0  0  # atno 10718 bound_to 10713
  153.2957  135.4129  155.1207 H   0  0  0  0  0  0  0  0  0  0  0  0  # atno 10763 bound_to 10752
  154.8534  135.3529  154.5920 H   0  0  0  0  0  0  0  0  0  0  0  0  # atno 10764 bound_to 10752
  153.6344  135.7059  153.5322 H   0  0  0  0  0  0  0  0  0  0  0  0  # atno 10765 bound_to 10752
  141.1211  133.8516  157.1293 H   0  0  0  0  0  0  0  0  0  0  0  0  # atno 11005 bound_to 11000
  146.1959  140.6266  142.9124 LP  0  0  0  0  0  0  0  0  0  0  0  0  # atno 17320 bound_to 7965
  144.7560  140.5309  143.6768 LP  0  0  0  0  0  0  0  0  0  0  0  0  # atno 17321 bound_to 7965
  140.2309  144.4370  150.6300 LP  0  0  0  0  0  0  0  0  0  0  0  0  # atno 17342 bound_to 10162
  140.6356  143.2194  151.6402 LP  0  0  0  0  0  0  0  0  0  0  0  0  # atno 17343 bound_to 10162
  156.6546  130.4495  149.5708 LP  0  0  0  0  0  0  0  0  0  0  0  0  # atno 17370 bound_to 10713
  156.2112  130.6680  151.1271 LP  0  0  0  0  0  0  0  0  0  0  0  0  # atno 17371 bound_to 10713
  140.0169  134.9963  157.0512 LP  0  0  0  0  0  0  0  0  0  0  0  0  # atno 17394 bound_to 11000
  140.4504  134.1588  155.7181 LP  0  0  0  0  0  0  0  0  0  0  0  0  # atno 17395 bound_to 11000

$$$$
