AV-unprocessed.smi:2810|AV-procd|sdf|10828|dock6
  -GOLD-   2272015273D 1   1.00000     0.00000
 Structure written by MMmdl.
 39 40  0  0  0  0  0  0  0  0  1 V2000
  147.0767  143.5364  159.7513 C   0  0  0  0  0  0  0  0  0  0  0  0
  148.4329  143.1307  159.2147 C   0  0  0  0  0  0  0  0  0  0  0  0
  148.5672  142.1266  158.2333 C   0  0  0  0  0  0  0  0  0  0  0  0
  149.8808  141.8273  157.8069 C   0  0  0  0  0  0  0  0  0  0  0  0
  150.0946  140.8365  156.8248 N   0  0  0  0  0  0  0  0  0  0  0  0
  149.3287  141.1453  155.6179 C   0  0  0  0  0  0  0  0  0  0  0  0
  149.4271  140.0049  154.5959 C   0  0  0  0  0  0  0  0  0  0  0  0
  150.7955  139.7619  154.3061 O   0  0  0  0  0  0  0  0  0  0  0  0
  151.5002  139.3237  155.4605 C   0  0  0  0  0  0  0  0  0  0  0  0
  151.4830  140.4087  156.5645 C   0  0  2  0  0  0  0  0  0  0  0  0
  152.2694  139.8537  157.7722 C   0  0  0  0  0  0  0  0  0  0  0  0
  151.6171  139.6490  158.9216 N   0  0  0  0  0  0  0  0  0  0  0  0
  153.4716  139.6213  157.6651 O   0  0  0  0  0  0  0  0  0  0  0  0
  150.9419  142.4942  158.3209 N   0  0  0  0  0  0  0  0  0  0  0  0
  150.7029  143.4245  159.2502 C   0  0  0  0  0  0  0  0  0  0  0  0
  151.9139  144.1424  159.8310 C   0  0  0  0  0  0  0  0  0  0  0  0
  151.7681  145.6701  159.7533 C   0  0  0  0  0  0  0  0  0  0  0  0
  153.2283  143.6326  159.2193 C   0  0  0  0  0  0  0  0  0  0  0  0
  149.5037  143.7773  159.7232 N   0  0  0  0  0  0  0  0  0  0  0  0
  146.2892  142.8928  159.3586 H   0  0  0  0  0  0  0  0  0  0  0  0
  146.8502  144.5645  159.4681 H   0  0  0  0  0  0  0  0  0  0  0  0
  147.0613  143.4669  160.8394 H   0  0  0  0  0  0  0  0  0  0  0  0
  147.7084  141.6085  157.8322 H   0  0  0  0  0  0  0  0  0  0  0  0
  148.2780  141.3159  155.8558 H   0  0  0  0  0  0  0  0  0  0  0  0
  149.7086  142.0690  155.1775 H   0  0  0  0  0  0  0  0  0  0  0  0
  148.9486  139.0980  154.9696 H   0  0  0  0  0  0  0  0  0  0  0  0
  148.9133  140.2806  153.6749 H   0  0  0  0  0  0  0  0  0  0  0  0
  151.0648  138.3885  155.8189 H   0  0  0  0  0  0  0  0  0  0  0  0
  152.5251  139.0976  155.1635 H   0  0  0  0  0  0  0  0  0  0  0  0
  152.0325  141.2719  156.1838 H   0  0  0  0  0  0  0  0  0  0  0  0
  152.1128  139.2835  159.7216 H   0  0  0  0  0  0  0  0  0  0  0  0
  150.6312  139.8577  158.9833 H   0  0  0  0  0  0  0  0  0  0  0  0
  151.9557  143.8946  160.8932 H   0  0  0  0  0  0  0  0  0  0  0  0
  150.8606  146.0022  160.2583 H   0  0  0  0  0  0  0  0  0  0  0  0
  151.7195  146.0142  158.7197 H   0  0  0  0  0  0  0  0  0  0  0  0
  152.6126  146.1694  160.2289 H   0  0  0  0  0  0  0  0  0  0  0  0
  153.3312  142.5557  159.3559 H   0  0  0  0  0  0  0  0  0  0  0  0
  154.0899  144.1091  159.6873 H   0  0  0  0  0  0  0  0  0  0  0  0
  153.2765  143.8385  158.1494 H   0  0  0  0  0  0  0  0  0  0  0  0
  1  2  1  0  0  0  0
  1 20  1  0  0  0  0
  1 21  1  0  0  0  0
  1 22  1  0  0  0  0
  2 19  1  0  0  0  0
  2  3  2  0  0  0  0
  3  4  1  0  0  0  0
  3 23  1  0  0  0  0
  4  5  1  0  0  0  0
  4 14  2  0  0  0  0
  5 10  1  0  0  0  0
  5  6  1  0  0  0  0
  6  7  1  0  0  0  0
  6 24  1  0  0  0  0
  6 25  1  0  0  0  0
  7  8  1  0  0  0  0
  7 26  1  0  0  0  0
  7 27  1  0  0  0  0
  8  9  1  0  0  0  0
  9 10  1  0  0  0  0
  9 28  1  0  0  0  0
  9 29  1  0  0  0  0
 10 11  1  0  0  0  0
 10 30  1  0  0  0  0
 11 12  1  0  0  0  0
 11 13  2  0  0  0  0
 12 31  1  0  0  0  0
 12 32  1  0  0  0  0
 14 15  1  0  0  0  0
 15 16  1  0  0  0  0
 15 19  2  0  0  0  0
 16 17  1  0  0  0  0
 16 18  1  0  0  0  0
 16 33  1  0  0  0  0
 17 34  1  0  0  0  0
 17 35  1  0  0  0  0
 17 36  1  0  0  0  0
 18 37  1  0  0  0  0
 18 38  1  0  0  0  0
 18 39  1  0  0  0  0
M  END
> <s_m_source_file>
AV-unprocessed.smi

> <i_m_source_file_index>
2810

> <i_lp_mmshare_version>
43012

> <i_f3d_flags>
0

> <s_epik_input>
W0NIM11bQ0hdKFtDSDNdKWMobjEpbmMoW2NIXWMxW0NIM10pTjJbQ0gyXVtDSDJdT1tDSDJdW0NASF0yQyg9TylbTkgyXQ==

> <s_epik_cmdline>
J2VwaWtfcHl0aG9uJywgJy1waCcsICc3LjAnLCAnLXRuJywgJzgnLCAnLW1hJywgJzIwMCcsICctbWV0YWxfYmluZGluZycsICctaW1hZScsICc8aW5maWxlLm1hZT4nLCAnLW9tYWUnLCAnPG91dGZpbGUubWFlPic=

> <r_lp_tautomer_probability>
1

> <r_epik_Ionization_Penalty>
0.00607782

> <r_epik_Ionization_Penalty_Charging>
0

> <r_epik_Ionization_Penalty_Neutral>
0.00607782

> <r_epik_State_Penalty>
0.00441345

> <r_epik_Charging_Adjusted_Penalty>
0.00441345

> <i_epik_Tot_Q>
0

> <i_epik_Tot_abs_Q>
0

> <r_epik_Metal_State_Penalty>
-0

> <b_epik_Metal_Only>
0

> <s_lp_Force_Field>
OPLS_2005

> <r_lp_Energy>
6.30102

> <b_lp_Chiralities_Consistent>
1

> <s_lp_Variant>
AV-unprocessed.smi:2810-2

> <Gold.Version>
5.8.1

> <Gold.Id.Protein>
6NUR|6NUR_protein|mol2

> <Gold.PLP.Fitness>
38.8685

> <Gold.PLP.PLP>
-33.0843

> <Gold.PLP.part.hbond>
-2.4989

> <Gold.PLP.part.metal>
0.0000

> <Gold.PLP.part.buried>
-2.4845

> <Gold.PLP.part.nonpolar>
-27.8936

> <Gold.PLP.part.repulsive>
0.5821

> <Gold.PLP.ligand.clash>
0.0000

> <Gold.PLP.ligand.torsion>
0.2381

> <Gold.PLP.Chemscore.Hbond>
2.0000

> <Gold.PLP.Chemscore.CHOScore>
0.0000

> <Gold.PLP.Chemscore.Metal>
0.0000

> <Gold.Chemscore.Hbonds>
donor molecule, donor type, donor heavy atom, donor atom, acceptor molecule, acceptor atom, score
      P1  H  7989  7998       L1     8  1.00
      P1  H  7997  8008       L1    13  0.55

> <Gold.PLP.Chemscore.Internal.Correction>
0.2604

> <Gold.Rescore>
     Score         DG    S(hbond)    S(metal)    S(lipo)     H(rot)  DE(clash)    DE(int)     intcor
     13.85     -15.44       1.77        0.00      71.96       1.71       0.01       1.58       ----

> <Gold.Chemscore.Fitness>
13.8493

> <Gold.Chemscore.DG>
-15.4367

> <Gold.Chemscore.ZeroCoef>
-5.4800

> <Gold.Chemscore.Hbond>
1.7722

> <Gold.Chemscore.Metal>
0.0000

> <Gold.Chemscore.Lipo>
71.9618

> <Gold.Chemscore.Internal_Hbond>
0.0000

> <Gold.Chemscore.DEClash>
0.0079

> <Gold.Chemscore.DEInternal>
1.5795

> <Gold.Chemscore.Rot>
1.7117

> <Gold.Chemscore.Internal.Correction>
   9.000000E+99

> <Gold.Chemscore.Hbonds>
donor molecule, donor type, donor heavy atom, donor atom, acceptor molecule, acceptor atom, score
      P1  H  7989  7998       L1     8  0.78
      P1  H  7997  8008       L1    13  0.54

> <Gold.Chemscore.Hbond.Weighted>
-5.9191

> <Gold.Chemscore.Metal.Weighted>
-0.0000

> <Gold.Chemscore.Lipo.Weighted>
-8.4195

> <Gold.Chemscore.Internal_Hbond.Weighted>
0.0000

> <Gold.Chemscore.DEClash.Weighted>
0.0079

> <Gold.Chemscore.DEInternal.Weighted>
1.5795

> <Gold.Chemscore.Rot.Weighted>
4.3820

> <Gold.Chemscore.Internal.Correction.Weighted>
   9.000000E+99

> <Gold.Protein.RotatedTorsions>
[ 6907 6896 6895 6894 ] final   13.37 input  -60.11 | X-H torsion
[ 7974 7965 7964 7962 ] final -155.70 input  175.53 | X-H torsion
[ 8008 7997 7996 7995 ] final  -75.62 input   59.86 | X-H torsion
[ 10167 10162 10161 10158 ] final  130.75 input  -65.29 | X-H torsion
[ 10718 10713 10712 10709 ] final -149.36 input   66.30 | X-H torsion
[ 10763 10752 10751 10750 ] final   27.87 input  -60.55 | X-H torsion
[ 11005 11000 10999 10996 ] final -109.58 input  -57.11 | X-H torsion

> <Gold.Protein.ActiveResidues>
 VAL166  LYS551  ARG553  GLY616  TRP617  ASP618  TYR619  PRO620  LYS621  CYS622 
 ASP623  PHE694  ASN695  SER759  ASP760  ASP761  ALA762  ILE779  LEU786  VAL792 
 PHE793  MET794  SER795  GLU796  ALA797  LYS798  CYS799  TRP800  GLU811  SER814 

> <Gold.Protein.RotatedAtoms>
  151.7853  135.0750  160.0379 H   0  0  0  0  0  0  0  0  0  0  0  0  # atno 6907 bound_to 6896
  152.3195  133.5834  159.5743 H   0  0  0  0  0  0  0  0  0  0  0  0  # atno 6908 bound_to 6896
  150.7362  133.9949  159.3661 H   0  0  0  0  0  0  0  0  0  0  0  0  # atno 6909 bound_to 6896
  144.7628  140.4213  143.5964 H   0  0  0  0  0  0  0  0  0  0  0  0  # atno 7974 bound_to 7965
  154.5433  140.0741  156.8547 H   0  0  0  0  0  0  0  0  0  0  0  0  # atno 8008 bound_to 7997
  155.3137  140.3392  155.4225 H   0  0  0  0  0  0  0  0  0  0  0  0  # atno 8009 bound_to 7997
  156.1895  140.1681  156.8107 H   0  0  0  0  0  0  0  0  0  0  0  0  # atno 8010 bound_to 7997
  139.5415  144.6735  151.4608 H   0  0  0  0  0  0  0  0  0  0  0  0  # atno 10167 bound_to 10162
  156.4321  130.8081  151.2308 H   0  0  0  0  0  0  0  0  0  0  0  0  # atno 10718 bound_to 10713
  153.0528  135.6526  154.0652 H   0  0  0  0  0  0  0  0  0  0  0  0  # atno 10763 bound_to 10752
  154.0336  135.2909  155.3366 H   0  0  0  0  0  0  0  0  0  0  0  0  # atno 10764 bound_to 10752
  154.6826  135.5314  153.8350 H   0  0  0  0  0  0  0  0  0  0  0  0  # atno 10765 bound_to 10752
  141.0840  133.9172  157.2227 H   0  0  0  0  0  0  0  0  0  0  0  0  # atno 11005 bound_to 11000
  145.6566  139.1574  143.2832 LP  0  0  0  0  0  0  0  0  0  0  0  0  # atno 17320 bound_to 7965
  146.1707  140.6650  142.9234 LP  0  0  0  0  0  0  0  0  0  0  0  0  # atno 17321 bound_to 7965
  140.6647  143.8423  150.6928 LP  0  0  0  0  0  0  0  0  0  0  0  0  # atno 17342 bound_to 10162
  140.1829  143.4100  152.1920 LP  0  0  0  0  0  0  0  0  0  0  0  0  # atno 17343 bound_to 10162
  157.7508  131.0195  150.3669 LP  0  0  0  0  0  0  0  0  0  0  0  0  # atno 17370 bound_to 10713
  156.4008  130.3915  149.6961 LP  0  0  0  0  0  0  0  0  0  0  0  0  # atno 17371 bound_to 10713
  139.9656  135.0143  156.9377 LP  0  0  0  0  0  0  0  0  0  0  0  0  # atno 17394 bound_to 11000
  140.5406  134.0724  155.7340 LP  0  0  0  0  0  0  0  0  0  0  0  0  # atno 17395 bound_to 11000

$$$$
