#       Name:                AV-unprocessed.smi:1296
#       Creating user name   scv26
#       Creation time:       Fri Mar 27 04:57:14 2020


#       File generated by GOLD software.
#

@<TRIPOS>MOLECULE
AV-unprocessed.smi:1296
    41    41     1
SMALL
NO_CHARGES


@<TRIPOS>ATOM
      1 ****        -3.2931   5.1877   0.5201 C.3            1 S1                 0.0000
      2 ****        -2.6970   3.8123   0.3074 C.2            1 S1                 0.0000
      3 ****        -2.2798   3.3764  -0.8355 N.2            1 S1                 0.0000
      4 ****        -1.7468   2.0818  -0.9090 C.2            1 S1                 0.0000
      5 ****        -1.2768   1.6427  -2.2850 C.3            1 S1                 0.0000
      6 ****        -1.6627   1.2786   0.1919 C.2            1 S1                 0.0000
      7 ****        -1.0882  -0.1371   0.1449 C.3            1 S1                 0.0000
      8 ****         0.4372  -0.2539   0.2117 C.2            1 S1                 0.0000
      9 ****         1.1334   0.7278   0.4723 O.2            1 S1                 0.0000
     10 ****         0.9446  -1.4705  -0.0294 N.am           1 S1                 0.0000
     11 ****         2.3667  -1.7887  -0.0158 C.3            1 S1                 0.0000
     12 ****         2.6183  -3.2811  -0.3044 C.3            1 S1                 0.0000
     13 ****         1.9626  -4.1992   0.7422 C.3            1 S1                 0.0000
     14 ****         4.1231  -3.5692  -0.4094 C.3            1 S1                 0.0000
     15 ****        -2.1393   1.7878   1.4924 C.2            1 S1                 0.0000
     16 ****        -2.1029   1.1537   2.5457 O.2            1 S1                 0.0000
     17 ****        -2.6372   3.0444   1.4692 N.am           1 S1                 0.0000
     18 ****        -2.9761   3.4386   2.3345 H              1 S1                 0.0000
     19 ****        -2.5680   5.9563   0.2516 H              1 S1                 0.0000
     20 ****        -3.5872   5.3436   1.5590 H              1 S1                 0.0000
     21 ****        -4.1758   5.3151  -0.1069 H              1 S1                 0.0000
     22 ****        -1.8807   0.8107  -2.6473 H              1 S1                 0.0000
     23 ****        -0.2334   1.3284  -2.2540 H              1 S1                 0.0000
     24 ****        -1.3574   2.4546  -3.0088 H              1 S1                 0.0000
     25 ****        -1.5138  -0.7452   0.9440 H              1 S1                 0.0000
     26 ****        -1.4229  -0.6162  -0.7754 H              1 S1                 0.0000
     27 ****         0.3060  -2.2251  -0.2351 H              1 S1                 0.0000
     28 ****         2.8692  -1.1753  -0.7655 H              1 S1                 0.0000
     29 ****         2.7899  -1.5171   0.9528 H              1 S1                 0.0000
     30 ****         2.1752  -3.5143  -1.2736 H              1 S1                 0.0000
     31 ****         2.3478  -3.9960   1.7419 H              1 S1                 0.0000
     32 ****         2.1568  -5.2486   0.5188 H              1 S1                 0.0000
     33 ****         0.8805  -4.0703   0.7705 H              1 S1                 0.0000
     34 ****         4.6314  -3.3713   0.5348 H              1 S1                 0.0000
     35 ****         4.5904  -2.9494  -1.1751 H              1 S1                 0.0000
     36 ****         4.3067  -4.6107  -0.6748 H              1 S1                 0.0000
     37 ****        -2.3361   3.9514  -1.6517 LP             1 S1                 0.0000
     38 ****         0.7036   1.6144   0.6433 LP             1 S1                 0.0000
     39 ****         2.1285   0.6384   0.5129 LP             1 S1                 0.0000
     40 ****        -1.7309   0.2255   2.5579 LP             1 S1                 0.0000
     41 ****        -2.4454   1.5663   3.3898 LP             1 S1                 0.0000
@<TRIPOS>BOND
    1    1    2 1     
    2    1   19 1     
    3    1   20 1     
    4    1   21 1     
    5    2   17 1     
    6    2    3 2     
    7    3    4 1     
    8    4    5 1     
    9    4    6 2     
   10    5   22 1     
   11    5   23 1     
   12    5   24 1     
   13    6    7 1     
   14    6   15 1     
   15    7    8 1     
   16    7   25 1     
   17    7   26 1     
   18    8    9 2     
   19    8   10 am    
   20   10   11 1     
   21   10   27 1     
   22   11   12 1     
   23   11   28 1     
   24   11   29 1     
   25   12   13 1     
   26   12   14 1     
   27   12   30 1     
   28   13   31 1     
   29   13   32 1     
   30   13   33 1     
   31   14   34 1     
   32   14   35 1     
   33   14   36 1     
   34   15   16 2     
   35   15   17 am    
   36   17   18 1     
   37    3   37 1     
   38    9   38 1     
   39    9   39 1     
   40   16   40 1     
   41   16   41 1     
@<TRIPOS>SUBSTRUCTURE
      1 S1             1
@<TRIPOS>SET
LONE_PAIRS      STATIC     ATOMS    <user>   **** ""
5 37 38 39 40 41
DONOR_HYDROGENS      STATIC     ATOMS    <user>   **** ""
2 27 18
ATOM$BLUE        STATIC     ATOMS    COLORGROUP SYSTEM
5 37 38 39 40 41
ATOM$RED        STATIC     ATOMS    COLORGROUP SYSTEM
2 27 18
