AV-unprocessed.smi:1680|AV-procd|sdf|6739|dock2
  -GOLD-   22720 7493D 1   1.00000     0.00000
 Structure written by MMmdl.
 37 38  0  0  0  0  0  0  0  0  2 V2000
  151.6631  145.4030  159.9481 C   0  0  0  0  0  0  0  0  0  0  0  0
  151.9019  144.0008  160.5120 C   0  0  0  0  0  0  0  0  0  0  0  0
  151.7108  143.8208  161.7150 O   0  0  0  0  0  0  0  0  0  0  0  0
  152.3107  143.0140  159.6798 N   0  0  0  0  0  0  0  0  0  0  0  0
  152.4895  143.1995  158.2374 C   0  0  0  0  0  0  0  0  0  0  0  0
  151.4643  142.3236  157.4912 C   0  0  0  0  0  0  0  0  0  0  0  0
  151.6448  140.9141  157.8504 N   0  0  0  0  0  0  0  0  0  0  0  0
  150.6872  140.0968  157.1049 C   0  0  0  0  0  0  0  0  0  0  0  0
  150.6537  138.6234  157.5610 C   0  0  0  0  0  0  0  0  0  0  0  0
  149.5428  138.3600  158.4721 N   0  0  0  0  0  0  0  0  0  0  0  0
  149.0778  137.1533  158.8274 C   0  0  0  0  0  0  0  0  0  0  0  0
  149.6031  136.1317  158.3787 O   0  0  0  0  0  0  0  0  0  0  0  0
  148.0322  137.2045  159.6841 N   0  5  0  0  0  0  0  0  0  0  0  0
  147.5658  136.0751  160.2420 C   0  0  0  0  0  0  0  0  0  0  0  0
  147.6450  134.8843  159.6263 N   0  0  0  0  0  0  0  0  0  0  0  0
  147.1013  133.8470  160.3719 N   0  0  0  0  0  0  0  0  0  0  0  0
  146.6167  134.2856  161.5334 C   0  0  0  0  0  0  0  0  0  0  0  0
  146.7761  136.0056  161.8203 S   0  0  0  0  0  0  0  0  0  0  0  0
  151.4920  140.7409  159.3000 C   0  0  0  0  0  0  0  0  0  0  0  0
  152.5215  141.6103  160.0468 C   0  0  0  0  0  0  0  0  0  0  0  0
  152.5782  145.8059  159.5132 H   0  0  0  0  0  0  0  0  0  0  0  0
  151.3409  146.0846  160.7361 H   0  0  0  0  0  0  0  0  0  0  0  0
  150.8846  145.3845  159.1850 H   0  0  0  0  0  0  0  0  0  0  0  0
  152.3735  144.2391  157.9287 H   0  0  0  0  0  0  0  0  0  0  0  0
  153.5053  142.9154  157.9583 H   0  0  0  0  0  0  0  0  0  0  0  0
  150.4487  142.6447  157.7281 H   0  0  0  0  0  0  0  0  0  0  0  0
  151.5990  142.4464  156.4160 H   0  0  0  0  0  0  0  0  0  0  0  0
  149.6923  140.5376  157.1828 H   0  0  0  0  0  0  0  0  0  0  0  0
  150.9489  140.1147  156.0459 H   0  0  0  0  0  0  0  0  0  0  0  0
  150.6572  137.9295  156.7205 H   0  0  0  0  0  0  0  0  0  0  0  0
  151.5696  138.4112  158.1123 H   0  0  0  0  0  0  0  0  0  0  0  0
  149.0772  139.1651  158.8640 H   0  0  0  0  0  0  0  0  0  0  0  0
  146.1587  133.5930  162.2237 H   0  0  0  0  0  0  0  0  0  0  0  0
  150.4792  141.0064  159.6068 H   0  0  0  0  0  0  0  0  0  0  0  0
  151.6484  139.6996  159.5768 H   0  0  0  0  0  0  0  0  0  0  0  0
  153.5342  141.3134  159.7689 H   0  0  0  0  0  0  0  0  0  0  0  0
  152.4444  141.4224  161.1164 H   0  0  0  0  0  0  0  0  0  0  0  0
  1  2  1  0  0  0  0
  1 21  1  0  0  0  0
  1 22  1  0  0  0  0
  1 23  1  0  0  0  0
  2  3  2  0  0  0  0
  2  4  1  0  0  0  0
  4 20  1  0  0  0  0
  4  5  1  0  0  0  0
  5  6  1  0  0  0  0
  5 24  1  0  0  0  0
  5 25  1  0  0  0  0
  6  7  1  0  0  0  0
  6 26  1  0  0  0  0
  6 27  1  0  0  0  0
  7  8  1  0  0  0  0
  7 19  1  0  0  0  0
  8  9  1  0  0  0  0
  8 28  1  0  0  0  0
  8 29  1  0  0  0  0
  9 10  1  0  0  0  0
  9 30  1  0  0  0  0
  9 31  1  0  0  0  0
 10 11  1  0  0  0  0
 10 32  1  0  0  0  0
 11 12  2  0  0  0  0
 11 13  1  0  0  0  0
 13 14  1  0  0  0  0
 14 18  1  0  0  0  0
 14 15  2  0  0  0  0
 15 16  1  0  0  0  0
 16 17  2  0  0  0  0
 17 18  1  0  0  0  0
 17 33  1  0  0  0  0
 19 20  1  0  0  0  0
 19 34  1  0  0  0  0
 19 35  1  0  0  0  0
 20 36  1  0  0  0  0
 20 37  1  0  0  0  0
M  CHG  1  13  -1
M  END
> <s_m_source_file>
AV-unprocessed.smi

> <i_m_source_file_index>
1680

> <i_lp_mmshare_version>
43012

> <i_f3d_flags>
0

> <s_epik_input>
W0NIM11DKD1PKU4xW0NIMl1bQ0gyXU4oW0NIMl1bQ0gyXTEpW0NIMl1bQ0gyXVtOSF1DKD1PKVtOSF1jMm5uW2NIXXMy

> <s_epik_cmdline>
J2VwaWtfcHl0aG9uJywgJy1waCcsICc3LjAnLCAnLXRuJywgJzgnLCAnLW1hJywgJzIwMCcsICctbWV0YWxfYmluZGluZycsICctaW1hZScsICc8aW5maWxlLm1hZT4nLCAnLW9tYWUnLCAnPG91dGZpbGUubWFlPic=

> <r_lp_tautomer_probability>
1

> <r_epik_Ionization_Penalty>
3.80493

> <r_epik_Ionization_Penalty_Charging>
3.53258

> <r_epik_Ionization_Penalty_Neutral>
0.272353

> <r_epik_State_Penalty>
3.75006

> <r_epik_Charging_Adjusted_Penalty>
7.28264

> <i_epik_Tot_Q>
-1

> <i_epik_Tot_abs_Q>
1

> <r_epik_Metal_State_Penalty>
0.749383

> <b_epik_Metal_Only>
1

> <s_lp_Force_Field>
OPLS_2005

> <r_lp_Energy>
35.6067

> <b_lp_Chiralities_Consistent>
1

> <s_lp_Variant>
AV-unprocessed.smi:1680-3

> <Gold.Version>
5.8.1

> <Gold.Id.Protein>
6NUR|6NUR_protein|mol2

> <Gold.PLP.Fitness>
50.1458

> <Gold.PLP.PLP>
-41.7953

> <Gold.PLP.part.hbond>
-3.0000

> <Gold.PLP.part.metal>
0.0000

> <Gold.PLP.part.buried>
-7.0650

> <Gold.PLP.part.nonpolar>
-33.4280

> <Gold.PLP.part.repulsive>
0.3969

> <Gold.PLP.ligand.clash>
0.0000

> <Gold.PLP.ligand.torsion>
0.6002

> <Gold.PLP.Chemscore.Hbond>
3.1664

> <Gold.PLP.Chemscore.CHOScore>
0.0000

> <Gold.PLP.Chemscore.Metal>
0.0000

> <Gold.Chemscore.Hbonds>
donor molecule, donor type, donor heavy atom, donor atom, acceptor molecule, acceptor atom, score
      P1  H  6896  6907       L1    12  0.60
      P1  H  6934  6947       L1    13  0.28

> <Gold.PLP.Chemscore.Internal.Correction>
0.0518

> <Gold.Rescore>
     Score         DG    S(hbond)    S(metal)    S(lipo)     H(rot)  DE(clash)    DE(int)     intcor
     12.95     -15.22       1.68        0.00      73.93       1.77       0.22       2.05       ----

> <Gold.Chemscore.Fitness>
12.9500

> <Gold.Chemscore.DG>
-15.2187

> <Gold.Chemscore.ZeroCoef>
-5.4800

> <Gold.Chemscore.Hbond>
1.6792

> <Gold.Chemscore.Metal>
0.0000

> <Gold.Chemscore.Lipo>
73.9342

> <Gold.Chemscore.Internal_Hbond>
0.0000

> <Gold.Chemscore.DEClash>
0.2196

> <Gold.Chemscore.DEInternal>
2.0491

> <Gold.Chemscore.Rot>
1.7657

> <Gold.Chemscore.Internal.Correction>
   9.000000E+99

> <Gold.Chemscore.Hbonds>
donor molecule, donor type, donor heavy atom, donor atom, acceptor molecule, acceptor atom, score
      P1  H  6896  6907       L1    12  0.60
      P1  H  6934  6947       L1    13  0.10

> <Gold.Chemscore.Hbond.Weighted>
-5.6086

> <Gold.Chemscore.Metal.Weighted>
-0.0000

> <Gold.Chemscore.Lipo.Weighted>
-8.6503

> <Gold.Chemscore.Internal_Hbond.Weighted>
0.0000

> <Gold.Chemscore.DEClash.Weighted>
0.2196

> <Gold.Chemscore.DEInternal.Weighted>
2.0491

> <Gold.Chemscore.Rot.Weighted>
4.5201

> <Gold.Chemscore.Internal.Correction.Weighted>
   9.000000E+99

> <Gold.Protein.RotatedTorsions>
[ 6907 6896 6895 6894 ] final  -58.50 input  -60.11 | X-H torsion
[ 7974 7965 7964 7962 ] final  175.71 input  175.53 | X-H torsion
[ 8008 7997 7996 7995 ] final   13.23 input   59.86 | X-H torsion
[ 10167 10162 10161 10158 ] final   34.45 input  -65.29 | X-H torsion
[ 10718 10713 10712 10709 ] final   93.04 input   66.30 | X-H torsion
[ 10763 10752 10751 10750 ] final -151.21 input  -60.55 | X-H torsion
[ 11005 11000 10999 10996 ] final  -83.47 input  -57.11 | X-H torsion

> <Gold.Protein.ActiveResidues>
 VAL166  LYS551  ARG553  GLY616  TRP617  ASP618  TYR619  PRO620  LYS621  CYS622 
 ASP623  PHE694  ASN695  SER759  ASP760  ASP761  ALA762  ILE779  LEU786  VAL792 
 PHE793  MET794  SER795  GLU796  ALA797  LYS798  CYS799  TRP800  GLU811  SER814 

> <Gold.Protein.RotatedAtoms>
  150.8002  134.7090  159.6592 H   0  0  0  0  0  0  0  0  0  0  0  0  # atno 6907 bound_to 6896
  152.4118  134.6107  160.0035 H   0  0  0  0  0  0  0  0  0  0  0  0  # atno 6908 bound_to 6896
  151.6348  133.3292  159.3153 H   0  0  0  0  0  0  0  0  0  0  0  0  # atno 6909 bound_to 6896
  144.7197  139.9987  143.6440 H   0  0  0  0  0  0  0  0  0  0  0  0  # atno 7974 bound_to 7965
  154.8315  140.2900  155.5719 H   0  0  0  0  0  0  0  0  0  0  0  0  # atno 8008 bound_to 7997
  156.3006  140.2531  156.3172 H   0  0  0  0  0  0  0  0  0  0  0  0  # atno 8009 bound_to 7997
  154.9226  140.0385  157.1995 H   0  0  0  0  0  0  0  0  0  0  0  0  # atno 8010 bound_to 7997
  140.4314  144.1319  150.6160 H   0  0  0  0  0  0  0  0  0  0  0  0  # atno 10167 bound_to 10162
  157.6956  131.0464  150.3973 H   0  0  0  0  0  0  0  0  0  0  0  0  # atno 10718 bound_to 10713
  154.8072  135.3265  154.7401 H   0  0  0  0  0  0  0  0  0  0  0  0  # atno 10763 bound_to 10752
  153.8057  135.6900  153.4853 H   0  0  0  0  0  0  0  0  0  0  0  0  # atno 10764 bound_to 10752
  153.1825  135.4581  154.9991 H   0  0  0  0  0  0  0  0  0  0  0  0  # atno 10765 bound_to 10752
  141.1657  133.7296  156.8726 H   0  0  0  0  0  0  0  0  0  0  0  0  # atno 11005 bound_to 11000
  146.0353  139.3371  143.0730 LP  0  0  0  0  0  0  0  0  0  0  0  0  # atno 17320 bound_to 7965
  145.8403  140.9584  143.0803 LP  0  0  0  0  0  0  0  0  0  0  0  0  # atno 17321 bound_to 7965
  140.4423  143.2521  151.9457 LP  0  0  0  0  0  0  0  0  0  0  0  0  # atno 17342 bound_to 10162
  139.4785  144.5643  151.8190 LP  0  0  0  0  0  0  0  0  0  0  0  0  # atno 17343 bound_to 10162
  156.4370  130.3984  149.6722 LP  0  0  0  0  0  0  0  0  0  0  0  0  # atno 17370 bound_to 10713
  156.3919  130.7631  151.2633 LP  0  0  0  0  0  0  0  0  0  0  0  0  # atno 17371 bound_to 10713
  140.1771  134.9059  157.2904 LP  0  0  0  0  0  0  0  0  0  0  0  0  # atno 17394 bound_to 11000
  140.2436  134.3766  155.7470 LP  0  0  0  0  0  0  0  0  0  0  0  0  # atno 17395 bound_to 11000

$$$$
