AV-unprocessed.smi:1008|AV-procd|sdf|4410|dock9
  -GOLD-   22720 2353D 1   1.00000     0.00000
 Structure written by MMmdl.
 23 23  0  0  0  0  0  0  0  0  1 V2000
  146.8957  142.2595  154.7223 C   0  0  0  0  0  0  0  0  0  0  0  0
  147.6256  141.0203  154.2347 C   0  0  0  0  0  0  0  0  0  0  0  0
  146.8675  140.1382  153.4528 N   0  0  0  0  0  0  0  0  0  0  0  0
  147.4116  139.0568  152.9976 C   0  0  0  0  0  0  0  0  0  0  0  0
  146.7862  138.1039  152.2203 N   0  0  0  0  0  0  0  0  0  0  0  0
  148.7450  138.7504  153.2694 N   0  0  0  0  0  0  0  0  0  0  0  0
  149.5581  139.5389  154.0079 C   0  0  0  0  0  0  0  0  0  0  0  0
  150.7286  139.2160  154.2052 O   0  0  0  0  0  0  0  0  0  0  0  0
  148.9338  140.7690  154.5249 C   0  0  0  0  0  0  0  0  0  0  0  0
  149.7914  141.6933  155.3849 C   0  0  0  0  0  0  0  0  0  0  0  0
  149.3061  141.7446  156.8407 C   0  0  0  0  0  0  0  0  0  0  0  0
  149.7553  142.9339  157.4524 O   0  0  0  0  0  0  0  0  0  0  0  0
  149.1333  137.8967  152.8963 H   0  0  0  0  0  0  0  0  0  0  0  0
  147.4525  143.1613  154.4667 H   0  0  0  0  0  0  0  0  0  0  0  0
  146.7689  142.2239  155.8046 H   0  0  0  0  0  0  0  0  0  0  0  0
  145.9062  142.3401  154.2709 H   0  0  0  0  0  0  0  0  0  0  0  0
  145.8208  138.1715  151.9315 H   0  0  0  0  0  0  0  0  0  0  0  0
  147.2414  137.2688  151.8812 H   0  0  0  0  0  0  0  0  0  0  0  0
  150.8323  141.3722  155.3579 H   0  0  0  0  0  0  0  0  0  0  0  0
  149.7915  142.6959  154.9543 H   0  0  0  0  0  0  0  0  0  0  0  0
  148.2173  141.7111  156.8882 H   0  0  0  0  0  0  0  0  0  0  0  0
  149.6848  140.8915  157.4042 H   0  0  0  0  0  0  0  0  0  0  0  0
  149.4911  143.6660  156.9165 H   0  0  0  0  0  0  0  0  0  0  0  0
  1  2  1  0  0  0  0
  1 14  1  0  0  0  0
  1 15  1  0  0  0  0
  1 16  1  0  0  0  0
  2  9  2  0  0  0  0
  2  3  1  0  0  0  0
  3  4  2  0  0  0  0
  4  5  1  0  0  0  0
  4  6  1  0  0  0  0
  5 17  1  0  0  0  0
  5 18  1  0  0  0  0
  6 13  1  0  0  0  0
  6  7  1  0  0  0  0
  7  8  2  0  0  0  0
  7  9  1  0  0  0  0
  9 10  1  0  0  0  0
 10 11  1  0  0  0  0
 10 19  1  0  0  0  0
 10 20  1  0  0  0  0
 11 12  1  0  0  0  0
 11 21  1  0  0  0  0
 11 22  1  0  0  0  0
 12 23  1  0  0  0  0
M  END
> <s_m_source_file>
AV-unprocessed.smi

> <i_m_source_file_index>
1008

> <i_lp_mmshare_version>
43012

> <i_f3d_flags>
0

> <s_epik_input>
W0NIM11jMW5jKFtOSDJdKVtuSF1jKD1PKWMxW0NIMl1bQ0gyXVtPSF0=

> <s_epik_cmdline>
J2VwaWtfcHl0aG9uJywgJy1waCcsICc3LjAnLCAnLXRuJywgJzgnLCAnLW1hJywgJzIwMCcsICctbWV0YWxfYmluZGluZycsICctaW1hZScsICc8aW5maWxlLm1hZT4nLCAnLW9tYWUnLCAnPG91dGZpbGUubWFlPic=

> <r_lp_tautomer_probability>
0.878315

> <r_epik_Ionization_Penalty>
0.000554322

> <r_epik_Ionization_Penalty_Charging>
3.57358e-05

> <r_epik_Ionization_Penalty_Neutral>
0.000518586

> <r_epik_State_Penalty>
0.0663044

> <r_epik_Charging_Adjusted_Penalty>
0.0663402

> <i_epik_Tot_Q>
0

> <i_epik_Tot_abs_Q>
0

> <r_epik_Metal_State_Penalty>
0.196169

> <b_epik_Metal_Only>
0

> <s_lp_Force_Field>
OPLS_2005

> <r_lp_Energy>
7.47934

> <b_lp_Chiralities_Consistent>
1

> <s_lp_Variant>
AV-unprocessed.smi:1008-1

> <Gold.Version>
5.8.1

> <Gold.Id.Protein>
6NUR|6NUR_protein|mol2

> <Gold.PLP.Fitness>
32.1480

> <Gold.PLP.PLP>
-20.7235

> <Gold.PLP.part.hbond>
-5.0000

> <Gold.PLP.part.metal>
0.0000

> <Gold.PLP.part.buried>
0.2498

> <Gold.PLP.part.nonpolar>
-16.0036

> <Gold.PLP.part.repulsive>
0.4889

> <Gold.PLP.ligand.clash>
0.0000

> <Gold.PLP.ligand.torsion>
0.1560

> <Gold.PLP.Chemscore.Hbond>
3.9120

> <Gold.PLP.Chemscore.CHOScore>
0.0000

> <Gold.PLP.Chemscore.Metal>
0.0000

> <Gold.Chemscore.Hbonds>
donor molecule, donor type, donor heavy atom, donor atom, acceptor molecule, acceptor atom, score
      L1  H     5    18       P1  7948  0.91
      L1  H     6    13       P1  7948  1.00
      L1  H    12    23       P1  8028  1.00
      P1  H  7989  7998       L1     8  0.95

> <Gold.PLP.Chemscore.Internal.Correction>
0.0006

> <Gold.Rescore>
     Score         DG    S(hbond)    S(metal)    S(lipo)     H(rot)  DE(clash)    DE(int)     intcor
     13.19     -13.51       2.84        0.00      32.57       2.06       0.19       0.13       ----

> <Gold.Chemscore.Fitness>
13.1945

> <Gold.Chemscore.DG>
-13.5123

> <Gold.Chemscore.ZeroCoef>
-5.4800

> <Gold.Chemscore.Hbond>
2.8426

> <Gold.Chemscore.Metal>
0.0000

> <Gold.Chemscore.Lipo>
32.5673

> <Gold.Chemscore.Internal_Hbond>
0.0000

> <Gold.Chemscore.DEClash>
0.1870

> <Gold.Chemscore.DEInternal>
0.1309

> <Gold.Chemscore.Rot>
2.0595

> <Gold.Chemscore.Internal.Correction>
   9.000000E+99

> <Gold.Chemscore.Hbonds>
donor molecule, donor type, donor heavy atom, donor atom, acceptor molecule, acceptor atom, score
      L1  H     5    18       P1  7948  0.86
      L1  H     6    13       P1  7948  0.95
      L1  H    12    23       P1  8028  0.93
      P1  H  7989  7998       L1     8  0.21

> <Gold.Chemscore.Hbond.Weighted>
-9.4943

> <Gold.Chemscore.Metal.Weighted>
-0.0000

> <Gold.Chemscore.Lipo.Weighted>
-3.8104

> <Gold.Chemscore.Internal_Hbond.Weighted>
0.0000

> <Gold.Chemscore.DEClash.Weighted>
0.1870

> <Gold.Chemscore.DEInternal.Weighted>
0.1309

> <Gold.Chemscore.Rot.Weighted>
5.2724

> <Gold.Chemscore.Internal.Correction.Weighted>
   9.000000E+99

> <Gold.Protein.RotatedTorsions>
[ 6907 6896 6895 6894 ] final -138.71 input  -60.11 | X-H torsion
[ 7974 7965 7964 7962 ] final  155.93 input  175.53 | X-H torsion
[ 8008 7997 7996 7995 ] final  -26.06 input   59.86 | X-H torsion
[ 10167 10162 10161 10158 ] final -101.75 input  -65.29 | X-H torsion
[ 10718 10713 10712 10709 ] final -155.43 input   66.30 | X-H torsion
[ 10763 10752 10751 10750 ] final  -71.03 input  -60.55 | X-H torsion
[ 11005 11000 10999 10996 ] final    3.77 input  -57.11 | X-H torsion

> <Gold.Protein.ActiveResidues>
 VAL166  LYS551  ARG553  GLY616  TRP617  ASP618  TYR619  PRO620  LYS621  CYS622 
 ASP623  PHE694  ASN695  SER759  ASP760  ASP761  ALA762  ILE779  LEU786  VAL792 
 PHE793  MET794  SER795  GLU796  ALA797  LYS798  CYS799  TRP800  GLU811  SER814 

> <Gold.Protein.RotatedAtoms>
  151.0385  133.5727  159.2653 H   0  0  0  0  0  0  0  0  0  0  0  0  # atno 6907 bound_to 6896
  151.2782  135.0705  159.9169 H   0  0  0  0  0  0  0  0  0  0  0  0  # atno 6908 bound_to 6896
  152.5359  134.0104  159.7990 H   0  0  0  0  0  0  0  0  0  0  0  0  # atno 6909 bound_to 6896
  144.7994  139.7135  143.6188 H   0  0  0  0  0  0  0  0  0  0  0  0  # atno 7974 bound_to 7965
  154.4444  140.1909  156.0717 H   0  0  0  0  0  0  0  0  0  0  0  0  # atno 8008 bound_to 7997
  156.0506  140.3309  155.7320 H   0  0  0  0  0  0  0  0  0  0  0  0  # atno 8009 bound_to 7997
  155.5562  140.0599  157.2830 H   0  0  0  0  0  0  0  0  0  0  0  0  # atno 8010 bound_to 7997
  140.2380  143.3559  152.0827 H   0  0  0  0  0  0  0  0  0  0  0  0  # atno 10167 bound_to 10162
  156.5127  130.8442  151.2652 H   0  0  0  0  0  0  0  0  0  0  0  0  # atno 10718 bound_to 10713
  154.4261  135.5975  153.6039 H   0  0  0  0  0  0  0  0  0  0  0  0  # atno 10763 bound_to 10752
  152.9796  135.5964  154.3896 H   0  0  0  0  0  0  0  0  0  0  0  0  # atno 10764 bound_to 10752
  154.3728  135.2841  155.2235 H   0  0  0  0  0  0  0  0  0  0  0  0  # atno 10765 bound_to 10752
  140.5894  133.9939  155.8082 H   0  0  0  0  0  0  0  0  0  0  0  0  # atno 11005 bound_to 11000
  146.2271  139.5744  142.9579 LP  0  0  0  0  0  0  0  0  0  0  0  0  # atno 17320 bound_to 7965
  145.5591  141.0406  143.2236 LP  0  0  0  0  0  0  0  0  0  0  0  0  # atno 17321 bound_to 7965
  139.5087  144.6854  151.5900 LP  0  0  0  0  0  0  0  0  0  0  0  0  # atno 17342 bound_to 10162
  140.6135  143.9392  150.6471 LP  0  0  0  0  0  0  0  0  0  0  0  0  # atno 17343 bound_to 10162
  157.7448  130.9944  150.2707 LP  0  0  0  0  0  0  0  0  0  0  0  0  # atno 17370 bound_to 10713
  156.3225  130.3788  149.7562 LP  0  0  0  0  0  0  0  0  0  0  0  0  # atno 17371 bound_to 10713
  141.0945  133.9865  157.3183 LP  0  0  0  0  0  0  0  0  0  0  0  0  # atno 17394 bound_to 11000
  139.9281  135.0201  156.8306 LP  0  0  0  0  0  0  0  0  0  0  0  0  # atno 17395 bound_to 11000

$$$$
