#       Name:                AV-unprocessed.smi:2058
#       Creating user name   scv26
#       Creation time:       Fri Mar 27 11:01:46 2020


#       File generated by GOLD software.
#

@<TRIPOS>MOLECULE
AV-unprocessed.smi:2058
    48    49     1
SMALL
NO_CHARGES


@<TRIPOS>ATOM
      1 ****        -5.0174  -2.9106   3.3800 C.3            1 S1                 0.0000
      2 ****        -4.6821  -2.1771   2.0724 C.3            1 S1                 0.0000
      3 ****        -5.2780  -2.8834   0.8377 C.3            1 S1                 0.0000
      4 ****        -6.6828  -2.7460   0.8210 O.3            1 S1                 0.0000
      5 ****        -3.2308  -2.0663   1.9481 N.am           1 S1                 0.0000
      6 ****        -2.5817  -1.1487   1.2174 C.2            1 S1                 0.0000
      7 ****        -3.1493  -0.2854   0.5484 O.2            1 S1                 0.0000
      8 ****        -1.2499  -1.2888   1.3306 N.am           1 S1                 0.0000
      9 ****        -0.2297  -0.5482   0.6761 C.ar           1 S1                 0.0000
     10 ****        -0.4117   0.1239  -0.5586 C.ar           1 S1                 0.0000
     11 ****         0.6733   0.8104  -1.1411 C.ar           1 S1                 0.0000
     12 ****         1.9270   0.8099  -0.4883 C.ar           1 S1                 0.0000
     13 ****         3.0591   1.4634  -0.9922 N.3            1 S1                 0.0000
     14 ****         2.9645   2.9164  -0.8799 C.3            1 S1                 0.0000
     15 ****         4.3001   3.5824  -1.2547 C.3            1 S1                 0.0000
     16 ****         4.7704   3.1289  -2.6463 C.3            1 S1                 0.0000
     17 ****         4.8233   1.5941  -2.7145 C.3            1 S1                 0.0000
     18 ****         3.4722   0.9810  -2.3081 C.3            1 S1                 0.0000
     19 ****         2.0604   0.1504   0.6830 N.pl3          1 S1                 1.0000
     20 ****         1.0479  -0.5209   1.2734 C.ar           1 S1                 0.0000
     21 ****        -6.0949  -2.9663   3.5369 H              1 S1                 0.0000
     22 ****        -4.5890  -2.3952   4.2402 H              1 S1                 0.0000
     23 ****        -4.6293  -3.9298   3.3751 H              1 S1                 0.0000
     24 ****        -5.0946  -1.1681   2.1364 H              1 S1                 0.0000
     25 ****        -4.8957  -2.4433  -0.0839 H              1 S1                 0.0000
     26 ****        -5.0124  -3.9410   0.8225 H              1 S1                 0.0000
     27 ****        -7.0165  -3.1671   0.0436 H              1 S1                 0.0000
     28 ****        -2.6821  -2.7356   2.4677 H              1 S1                 0.0000
     29 ****        -0.9295  -1.9767   1.9965 H              1 S1                 0.0000
     30 ****        -1.3573   0.1139  -1.0785 H              1 S1                 0.0000
     31 ****         0.5389   1.3268  -2.0801 H              1 S1                 0.0000
     32 ****         2.1724   3.2803  -1.5360 H              1 S1                 0.0000
     33 ****         2.6876   3.1912   0.1389 H              1 S1                 0.0000
     34 ****         4.1972   4.6676  -1.2282 H              1 S1                 0.0000
     35 ****         5.0569   3.3244  -0.5125 H              1 S1                 0.0000
     36 ****         4.0858   3.5066  -3.4069 H              1 S1                 0.0000
     37 ****         5.7505   3.5511  -2.8702 H              1 S1                 0.0000
     38 ****         5.0934   1.2715  -3.7204 H              1 S1                 0.0000
     39 ****         5.6060   1.2261  -2.0498 H              1 S1                 0.0000
     40 ****         3.5480  -0.1071  -2.2939 H              1 S1                 0.0000
     41 ****         2.7149   1.2398  -3.0491 H              1 S1                 0.0000
     42 ****         1.2912  -1.0104   2.2055 H              1 S1                 0.0000
     43 ****         2.9718   0.1560   1.1419 H              1 S1                 0.0000
     44 ****        -6.9266  -1.7763   0.8103 LP             1 S1                 0.0000
     45 ****        -7.0736  -3.1790   1.6332 LP             1 S1                 0.0000
     46 ****        -4.1482  -0.2430   0.5307 LP             1 S1                 0.0000
     47 ****        -2.6115   0.3736   0.0225 LP             1 S1                 0.0000
     48 ****         3.8192   1.2080  -0.3946 LP             1 S1                 0.0000
@<TRIPOS>BOND
    1    1    2 1     
    2    1   21 1     
    3    1   22 1     
    4    1   23 1     
    5    2    3 1     
    6    2    5 1     
    7    2   24 1     
    8    3    4 1     
    9    3   25 1     
   10    3   26 1     
   11    4   27 1     
   12    5    6 am    
   13    5   28 1     
   14    6    7 2     
   15    6    8 am    
   16    8    9 1     
   17    8   29 1     
   18    9   20 ar    
   19    9   10 ar    
   20   10   11 ar    
   21   10   30 1     
   22   11   12 ar    
   23   11   31 1     
   24   12   13 1     
   25   12   19 ar    
   26   13   18 1     
   27   13   14 1     
   28   14   15 1     
   29   14   32 1     
   30   14   33 1     
   31   15   16 1     
   32   15   34 1     
   33   15   35 1     
   34   16   17 1     
   35   16   36 1     
   36   16   37 1     
   37   17   18 1     
   38   17   38 1     
   39   17   39 1     
   40   18   40 1     
   41   18   41 1     
   42   19   20 ar    
   43   19   43 1     
   44   20   42 1     
   45    4   44 1     
   46    4   45 1     
   47    7   46 1     
   48    7   47 1     
   49   13   48 1     
@<TRIPOS>SUBSTRUCTURE
      1 S1             1
@<TRIPOS>SET
LONE_PAIRS      STATIC     ATOMS    <user>   **** ""
5 44 45 46 47 48
DONOR_HYDROGENS      STATIC     ATOMS    <user>   **** ""
4 27 28 29 43
ATOM$BLUE        STATIC     ATOMS    COLORGROUP SYSTEM
5 44 45 46 47 48
ATOM$RED        STATIC     ATOMS    COLORGROUP SYSTEM
4 27 28 29 43
