#       Name:                AV-unprocessed.smi:1927
#       Creating user name   scv26
#       Creation time:       Fri Mar 27 09:54:05 2020


#       File generated by GOLD software.
#

@<TRIPOS>MOLECULE
AV-unprocessed.smi:1927
    39    40     1
SMALL
NO_CHARGES


@<TRIPOS>ATOM
      1 ****        -2.2240  -3.3254   0.3607 C.3            1 S1                 0.0000
      2 ****        -3.0324  -2.0379   0.3687 C.ar           1 S1                 0.0000
      3 ****        -4.4356  -2.1022   0.2334 C.ar           1 S1                 0.0000
      4 ****        -5.1807  -0.9108   0.2404 C.ar           1 S1                 0.0000
      5 ****        -4.4864   0.3027   0.3832 C.ar           1 S1                 0.0000
      6 ****        -3.1458   0.3735   0.5134 N.ar           1 S1                 0.0000
      7 ****        -2.4116  -0.7674   0.5093 C.ar           1 S1                 0.0000
      8 ****        -0.9947  -0.7704   0.6475 N.am           1 S1                 0.0000
      9 ****        -0.1626   0.2773   0.7826 C.2            1 S1                 0.0000
     10 ****        -0.4995   1.4617   0.7807 O.2            1 S1                 0.0000
     11 ****         1.1075  -0.1316   0.9170 N.am           1 S1                 0.0000
     12 ****         2.2671   0.7390   1.0837 C.3            1 S1                 0.0000
     13 ****         3.0085   0.9643  -0.2468 C.3            1 S1                 0.0000
     14 ****         2.2429   1.7615  -1.2855 C.3            1 S1                 0.0000
     15 ****         3.3581   2.2263  -2.2183 C.3            1 S1                 0.0000
     16 ****         4.5301   2.3264  -1.4134 O.3            1 S1                 0.0000
     17 ****         4.2726   1.8116  -0.1111 C.3            1 S1                 0.0000
     18 ****        -2.8672  -4.1981   0.2429 H              1 S1                 0.0000
     19 ****        -1.6745  -3.4374   1.2959 H              1 S1                 0.0000
     20 ****        -1.5101  -3.3223  -0.4634 H              1 S1                 0.0000
     21 ****        -4.9383  -3.0521   0.1252 H              1 S1                 0.0000
     22 ****        -6.2558  -0.9265   0.1393 H              1 S1                 0.0000
     23 ****        -5.0202   1.2413   0.3945 H              1 S1                 0.0000
     24 ****        -0.5652  -1.6833   0.6542 H              1 S1                 0.0000
     25 ****         1.2880  -1.1248   0.9053 H              1 S1                 0.0000
     26 ****         1.9813   1.6919   1.5327 H              1 S1                 0.0000
     27 ****         2.9388   0.2587   1.7955 H              1 S1                 0.0000
     28 ****         3.2840   0.0001  -0.6782 H              1 S1                 0.0000
     29 ****         1.4777   1.1788  -1.7994 H              1 S1                 0.0000
     30 ****         1.7601   2.6236  -0.8226 H              1 S1                 0.0000
     31 ****         3.5371   1.4843  -2.9973 H              1 S1                 0.0000
     32 ****         3.1252   3.1754  -2.7018 H              1 S1                 0.0000
     33 ****         4.1047   2.6515   0.5647 H              1 S1                 0.0000
     34 ****         5.1211   1.2398   0.2655 H              1 S1                 0.0000
     35 ****        -2.6960   1.2611   0.6124 LP             1 S1                 0.0000
     36 ****        -1.4628   1.7074   0.6722 LP             1 S1                 0.0000
     37 ****         0.1902   2.1779   0.8877 LP             1 S1                 0.0000
     38 ****         4.8019   3.2861  -1.3422 LP             1 S1                 0.0000
     39 ****         5.2684   1.8015  -1.8368 LP             1 S1                 0.0000
@<TRIPOS>BOND
    1    1    2 1     
    2    1   18 1     
    3    1   19 1     
    4    1   20 1     
    5    2    7 ar    
    6    2    3 ar    
    7    3    4 ar    
    8    3   21 1     
    9    4    5 ar    
   10    4   22 1     
   11    5    6 ar    
   12    5   23 1     
   13    6    7 ar    
   14    7    8 1     
   15    8    9 am    
   16    8   24 1     
   17    9   10 2     
   18    9   11 am    
   19   11   12 1     
   20   11   25 1     
   21   12   13 1     
   22   12   26 1     
   23   12   27 1     
   24   13   17 1     
   25   13   14 1     
   26   13   28 1     
   27   14   15 1     
   28   14   29 1     
   29   14   30 1     
   30   15   16 1     
   31   15   31 1     
   32   15   32 1     
   33   16   17 1     
   34   17   33 1     
   35   17   34 1     
   36    6   35 1     
   37   10   36 1     
   38   10   37 1     
   39   16   38 1     
   40   16   39 1     
@<TRIPOS>SUBSTRUCTURE
      1 S1             1
@<TRIPOS>SET
LONE_PAIRS      STATIC     ATOMS    <user>   **** ""
5 35 36 37 38 39
DONOR_HYDROGENS      STATIC     ATOMS    <user>   **** ""
2 24 25
ATOM$BLUE        STATIC     ATOMS    COLORGROUP SYSTEM
5 35 36 37 38 39
ATOM$RED        STATIC     ATOMS    COLORGROUP SYSTEM
2 24 25
