AV-unprocessed.smi:2448|AV-procd|sdf|9660|dock2
  -GOLD-   2272013293D 1   1.00000     0.00000
 Structure written by MMmdl.
 38 39  0  0  0  0  0  0  0  0  2 V2000
  151.4243  139.5777  154.9816 O   0  0  0  0  0  0  0  0  0  0  0  0
  150.8247  140.2559  156.0717 C   0  0  2  0  0  0  0  0  0  0  0  0
  151.9486  140.7713  156.9944 C   0  0  0  0  0  0  0  0  0  0  0  0
  151.4144  141.4113  158.1993 N   0  0  0  0  0  0  0  0  0  0  0  0
  152.1988  142.5180  158.7675 C   0  0  2  0  0  0  0  0  0  0  0  0
  152.4999  142.1552  160.2416 C   0  0  0  0  0  0  0  0  0  0  0  0
  153.5584  141.0822  160.4331 C   0  0  0  0  0  0  0  0  0  0  0  0
  153.4267  139.8224  159.8067 C   0  0  0  0  0  0  0  0  0  0  0  0
  154.4258  138.8474  160.0034 C   0  0  0  0  0  0  0  0  0  0  0  0
  155.4944  139.1267  160.7814 N   0  3  0  0  0  0  0  0  0  0  0  0
  155.6618  140.3188  161.3944 C   0  0  0  0  0  0  0  0  0  0  0  0
  154.6949  141.3326  161.2341 C   0  0  0  0  0  0  0  0  0  0  0  0
  151.4817  143.8900  158.6181 C   0  0  0  0  0  0  0  0  0  0  0  0
  151.4309  144.2779  157.3453 F   0  0  0  0  0  0  0  0  0  0  0  0
  150.2394  143.8157  159.0962 F   0  0  0  0  0  0  0  0  0  0  0  0
  152.1337  144.8461  159.2780 F   0  0  0  0  0  0  0  0  0  0  0  0
  149.9152  139.2481  156.7936 C   0  0  0  0  0  0  0  0  0  0  0  0
  148.6713  139.0317  155.9256 C   0  0  0  0  0  0  0  0  0  0  0  0
  148.3019  140.5998  155.1004 S   0  0  0  0  0  0  0  0  0  0  0  0
  149.8841  141.3601  155.5550 C   0  0  0  0  0  0  0  0  0  0  0  0
  151.5552  140.1964  154.2797 H   0  0  0  0  0  0  0  0  0  0  0  0
  152.5892  139.9366  157.2812 H   0  0  0  0  0  0  0  0  0  0  0  0
  152.5690  141.4632  156.4271 H   0  0  0  0  0  0  0  0  0  0  0  0
  150.4674  141.7274  158.0160 H   0  0  0  0  0  0  0  0  0  0  0  0
  153.1511  142.5731  158.2387 H   0  0  0  0  0  0  0  0  0  0  0  0
  152.7908  143.0515  160.7914 H   0  0  0  0  0  0  0  0  0  0  0  0
  151.5891  141.7940  160.7220 H   0  0  0  0  0  0  0  0  0  0  0  0
  152.5702  139.6011  159.1863 H   0  0  0  0  0  0  0  0  0  0  0  0
  154.4024  137.8602  159.5654 H   0  0  0  0  0  0  0  0  0  0  0  0
  156.5572  140.4250  161.9894 H   0  0  0  0  0  0  0  0  0  0  0  0
  154.8252  142.2881  161.7213 H   0  0  0  0  0  0  0  0  0  0  0  0
  150.4250  138.3083  157.0093 H   0  0  0  0  0  0  0  0  0  0  0  0
  149.6032  139.6647  157.7523 H   0  0  0  0  0  0  0  0  0  0  0  0
  148.8745  138.2839  155.1585 H   0  0  0  0  0  0  0  0  0  0  0  0
  147.8183  138.6848  156.5089 H   0  0  0  0  0  0  0  0  0  0  0  0
  149.6805  142.0774  156.3509 H   0  0  0  0  0  0  0  0  0  0  0  0
  150.3055  141.9161  154.7170 H   0  0  0  0  0  0  0  0  0  0  0  0
  156.2058  138.4066  160.9105 H   0  0  0  0  0  0  0  0  0  0  0  0
  1  2  1  0  0  0  0
  1 21  1  0  0  0  0
  2 20  1  0  0  0  0
  2  3  1  0  0  0  0
  2 17  1  0  0  0  0
  3  4  1  0  0  0  0
  3 22  1  0  0  0  0
  3 23  1  0  0  0  0
  4  5  1  0  0  0  0
  4 24  1  0  0  0  0
  5  6  1  0  0  0  0
  5 13  1  0  0  0  0
  5 25  1  0  0  0  0
  6  7  1  0  0  0  0
  6 26  1  0  0  0  0
  6 27  1  0  0  0  0
  7 12  1  0  0  0  0
  7  8  2  0  0  0  0
  8  9  1  0  0  0  0
  8 28  1  0  0  0  0
  9 10  2  0  0  0  0
  9 29  1  0  0  0  0
 10 11  1  0  0  0  0
 10 38  1  0  0  0  0
 11 12  2  0  0  0  0
 11 30  1  0  0  0  0
 12 31  1  0  0  0  0
 13 14  1  0  0  0  0
 13 15  1  0  0  0  0
 13 16  1  0  0  0  0
 17 18  1  0  0  0  0
 17 32  1  0  0  0  0
 17 33  1  0  0  0  0
 18 19  1  0  0  0  0
 18 34  1  0  0  0  0
 18 35  1  0  0  0  0
 19 20  1  0  0  0  0
 20 36  1  0  0  0  0
 20 37  1  0  0  0  0
M  CHG  1  10   1
M  END
> <s_m_source_file>
AV-unprocessed.smi

> <i_m_source_file_index>
2448

> <i_lp_mmshare_version>
43012

> <i_f3d_flags>
0

> <s_epik_input>
W0NIMl0xU1tDSDJdW0NIMl1bQ0BAXTEoW09IXSlbQ0gyXVtOSF1bQ0BASF0oQyhGKShGKUYpW0NIMl1jMltjSF1bY0hdbltjSF1bY0hdMg==

> <s_epik_cmdline>
J2VwaWtfcHl0aG9uJywgJy1waCcsICc3LjAnLCAnLXRuJywgJzgnLCAnLW1hJywgJzIwMCcsICctbWV0YWxfYmluZGluZycsICctaW1hZScsICc8aW5maWxlLm1hZT4nLCAnLW9tYWUnLCAnPG91dGZpbGUubWFlPic=

> <r_epik_Ionization_Penalty>
1.11129

> <r_epik_Ionization_Penalty_Charging>
1.08366

> <r_epik_Ionization_Penalty_Neutral>
0.0276276

> <r_epik_State_Penalty>
1.93785

> <r_epik_Charging_Adjusted_Penalty>
3.02151

> <i_epik_Tot_Q>
1

> <i_epik_Tot_abs_Q>
1

> <r_epik_Metal_State_Penalty>
5.97911

> <b_epik_Metal_Only>
0

> <s_lp_Force_Field>
OPLS_2005

> <r_lp_Energy>
38.3653

> <b_lp_Chiralities_Consistent>
1

> <s_lp_Variant>
AV-unprocessed.smi:2448-10

> <Gold.Version>
5.8.1

> <Gold.Id.Protein>
6NUR|6NUR_protein|mol2

> <Gold.PLP.Fitness>
38.6999

> <Gold.PLP.PLP>
-40.6041

> <Gold.PLP.part.hbond>
-1.0000

> <Gold.PLP.part.metal>
0.0000

> <Gold.PLP.part.buried>
-4.6523

> <Gold.PLP.part.nonpolar>
-34.0555

> <Gold.PLP.part.repulsive>
0.0118

> <Gold.PLP.ligand.clash>
0.0000

> <Gold.PLP.ligand.torsion>
1.2078

> <Gold.PLP.Chemscore.Hbond>
0.0000

> <Gold.PLP.Chemscore.CHOScore>
0.0000

> <Gold.PLP.Chemscore.Metal>
0.0000

> <Gold.PLP.Chemscore.Internal.Correction>
0.5115

> <Gold.Rescore>
     Score         DG    S(hbond)    S(metal)    S(lipo)     H(rot)  DE(clash)    DE(int)     intcor
      9.45     -10.59       0.00        0.00      96.75       2.42       0.01       1.14       ----

> <Gold.Chemscore.Fitness>
9.4472

> <Gold.Chemscore.DG>
-10.5923

> <Gold.Chemscore.ZeroCoef>
-5.4800

> <Gold.Chemscore.Hbond>
0.0000

> <Gold.Chemscore.Metal>
0.0000

> <Gold.Chemscore.Lipo>
96.7479

> <Gold.Chemscore.Internal_Hbond>
0.0000

> <Gold.Chemscore.DEClash>
0.0075

> <Gold.Chemscore.DEInternal>
1.1376

> <Gold.Chemscore.Rot>
2.4247

> <Gold.Chemscore.Internal.Correction>
   9.000000E+99

> <Gold.Chemscore.Hbond.Weighted>
-0.0000

> <Gold.Chemscore.Metal.Weighted>
-0.0000

> <Gold.Chemscore.Lipo.Weighted>
-11.3195

> <Gold.Chemscore.Internal_Hbond.Weighted>
0.0000

> <Gold.Chemscore.DEClash.Weighted>
0.0075

> <Gold.Chemscore.DEInternal.Weighted>
1.1376

> <Gold.Chemscore.Rot.Weighted>
6.2072

> <Gold.Chemscore.Internal.Correction.Weighted>
   9.000000E+99

> <Gold.Protein.RotatedTorsions>
[ 6907 6896 6895 6894 ] final  113.08 input  -60.11 | X-H torsion
[ 7974 7965 7964 7962 ] final   13.90 input  175.53 | X-H torsion
[ 8008 7997 7996 7995 ] final  163.06 input   59.86 | X-H torsion
[ 10167 10162 10161 10158 ] final  -53.44 input  -65.29 | X-H torsion
[ 10718 10713 10712 10709 ] final  -59.45 input   66.30 | X-H torsion
[ 10763 10752 10751 10750 ] final  -20.88 input  -60.55 | X-H torsion
[ 11005 11000 10999 10996 ] final -162.88 input  -57.11 | X-H torsion

> <Gold.Protein.ActiveResidues>
 VAL166  LYS551  ARG553  GLY616  TRP617  ASP618  TYR619  PRO620  LYS621  CYS622 
 ASP623  PHE694  ASN695  SER759  ASP760  ASP761  ALA762  ILE779  LEU786  VAL792 
 PHE793  MET794  SER795  GLU796  ALA797  LYS798  CYS799  TRP800  GLU811  SER814 

> <Gold.Protein.RotatedAtoms>
  152.4881  133.8425  159.7159 H   0  0  0  0  0  0  0  0  0  0  0  0  # atno 6907 bound_to 6896
  150.8984  133.7141  159.2892 H   0  0  0  0  0  0  0  0  0  0  0  0  # atno 6908 bound_to 6896
  151.4590  135.1040  159.9771 H   0  0  0  0  0  0  0  0  0  0  0  0  # atno 6909 bound_to 6896
  146.2318  139.9120  142.8523 H   0  0  0  0  0  0  0  0  0  0  0  0  # atno 7974 bound_to 7965
  156.1985  140.1733  156.7948 H   0  0  0  0  0  0  0  0  0  0  0  0  # atno 8008 bound_to 7997
  154.5561  140.0708  156.8776 H   0  0  0  0  0  0  0  0  0  0  0  0  # atno 8009 bound_to 7997
  155.2936  140.3357  155.4253 H   0  0  0  0  0  0  0  0  0  0  0  0  # atno 8010 bound_to 7997
  140.6484  143.2550  151.4792 H   0  0  0  0  0  0  0  0  0  0  0  0  # atno 10167 bound_to 10162
  156.1061  130.4180  150.0716 H   0  0  0  0  0  0  0  0  0  0  0  0  # atno 10718 bound_to 10713
  153.6274  135.6990  153.5288 H   0  0  0  0  0  0  0  0  0  0  0  0  # atno 10763 bound_to 10752
  153.2887  135.4163  155.1146 H   0  0  0  0  0  0  0  0  0  0  0  0  # atno 10764 bound_to 10752
  154.8530  135.3620  154.5816 H   0  0  0  0  0  0  0  0  0  0  0  0  # atno 10765 bound_to 10752
  140.6043  134.4915  157.5209 H   0  0  0  0  0  0  0  0  0  0  0  0  # atno 11005 bound_to 11000
  145.2220  140.9939  143.4040 LP  0  0  0  0  0  0  0  0  0  0  0  0  # atno 17320 bound_to 7965
  144.9602  139.3988  143.6359 LP  0  0  0  0  0  0  0  0  0  0  0  0  # atno 17321 bound_to 7965
  139.5697  144.1958  152.1818 LP  0  0  0  0  0  0  0  0  0  0  0  0  # atno 17342 bound_to 10162
  140.1250  144.5339  150.6838 LP  0  0  0  0  0  0  0  0  0  0  0  0  # atno 17343 bound_to 10162
  156.8691  130.9518  151.3611 LP  0  0  0  0  0  0  0  0  0  0  0  0  # atno 17370 bound_to 10713
  157.6238  130.8675  149.9154 LP  0  0  0  0  0  0  0  0  0  0  0  0  # atno 17371 bound_to 10713
  139.9219  134.8132  156.1186 LP  0  0  0  0  0  0  0  0  0  0  0  0  # atno 17394 bound_to 11000
  141.0851  133.6737  156.2419 LP  0  0  0  0  0  0  0  0  0  0  0  0  # atno 17395 bound_to 11000

$$$$
