AV-unprocessed.smi:1292|AV-procd|sdf|5397|dock5
  -GOLD-   22720 4553D 1   1.00000     0.00000
 Structure written by MMmdl.
 39 40  0  0  0  0  0  0  0  0  2 V2000
  153.0018  142.6991  161.2486 C   0  0  0  0  0  0  0  0  0  0  0  0
  152.8056  142.7960  159.7292 C   0  0  2  0  0  0  0  0  0  0  0  0
  151.9692  144.0248  159.3463 C   0  0  0  0  0  0  0  0  0  0  0  0
  151.8169  144.0867  157.8241 C   0  0  0  0  0  0  0  0  0  0  0  0
  151.1882  142.7967  157.2751 C   0  0  0  0  0  0  0  0  0  0  0  0
  151.9431  141.6021  157.7064 N   0  0  0  0  0  0  0  0  0  0  0  0
  151.6875  140.1194  156.8362 S   0  0  0  0  0  0  0  0  0  0  0  0
  151.1767  140.4930  155.5072 O   0  0  0  0  0  0  0  0  0  0  0  0
  152.9588  139.3790  156.9008 O   0  0  0  0  0  0  0  0  0  0  0  0
  150.5424  139.5257  157.8157 N   0  5  0  0  0  0  0  0  0  0  0  0
  149.1490  139.5869  157.4129 C   0  0  0  0  0  0  0  0  0  0  0  0
  148.6383  141.0467  157.4532 C   0  0  0  0  0  0  0  0  0  0  0  0
  147.7586  141.4633  156.2748 C   0  0  0  0  0  0  0  0  0  0  0  0
  146.5122  142.0947  156.4924 C   0  0  0  0  0  0  0  0  0  0  0  0
  145.7375  142.4623  155.3752 C   0  0  0  0  0  0  0  0  0  0  0  0
  146.2288  142.1824  154.0858 C   0  0  0  0  0  0  0  0  0  0  0  0
  147.4779  141.5412  153.9705 C   0  0  0  0  0  0  0  0  0  0  0  0
  148.2264  141.1810  155.0340 N   0  0  0  0  0  0  0  0  0  0  0  0
  152.1650  141.5129  159.1658 C   0  0  0  0  0  0  0  0  0  0  0  0
  152.0479  142.5857  161.7647 H   0  0  0  0  0  0  0  0  0  0  0  0
  153.4894  143.5921  161.6399 H   0  0  0  0  0  0  0  0  0  0  0  0
  153.6246  141.8428  161.5090 H   0  0  0  0  0  0  0  0  0  0  0  0
  153.7929  142.9043  159.2774 H   0  0  0  0  0  0  0  0  0  0  0  0
  150.9859  143.9723  159.8159 H   0  0  0  0  0  0  0  0  0  0  0  0
  152.4446  144.9367  159.7090 H   0  0  0  0  0  0  0  0  0  0  0  0
  151.2035  144.9439  157.5457 H   0  0  0  0  0  0  0  0  0  0  0  0
  152.7931  144.2420  157.3629 H   0  0  0  0  0  0  0  0  0  0  0  0
  150.1556  142.7056  157.6151 H   0  0  0  0  0  0  0  0  0  0  0  0
  151.1591  142.8430  156.1868 H   0  0  0  0  0  0  0  0  0  0  0  0
  149.0166  139.1977  156.4030 H   0  0  0  0  0  0  0  0  0  0  0  0
  148.5132  138.9728  158.0517 H   0  0  0  0  0  0  0  0  0  0  0  0
  148.0942  141.2205  158.3829 H   0  0  0  0  0  0  0  0  0  0  0  0
  149.4965  141.7186  157.4873 H   0  0  0  0  0  0  0  0  0  0  0  0
  146.1628  142.3003  157.4934 H   0  0  0  0  0  0  0  0  0  0  0  0
  144.7837  142.9520  155.5053 H   0  0  0  0  0  0  0  0  0  0  0  0
  145.6629  142.4518  153.2065 H   0  0  0  0  0  0  0  0  0  0  0  0
  147.8858  141.3089  152.9980 H   0  0  0  0  0  0  0  0  0  0  0  0
  152.8089  140.6615  159.3854 H   0  0  0  0  0  0  0  0  0  0  0  0
  151.2103  141.3171  159.6562 H   0  0  0  0  0  0  0  0  0  0  0  0
  1  2  1  0  0  0  0
  1 20  1  0  0  0  0
  1 21  1  0  0  0  0
  1 22  1  0  0  0  0
  2 19  1  0  0  0  0
  2  3  1  0  0  0  0
  2 23  1  0  0  0  0
  3  4  1  0  0  0  0
  3 24  1  0  0  0  0
  3 25  1  0  0  0  0
  4  5  1  0  0  0  0
  4 26  1  0  0  0  0
  4 27  1  0  0  0  0
  5  6  1  0  0  0  0
  5 28  1  0  0  0  0
  5 29  1  0  0  0  0
  6  7  1  0  0  0  0
  6 19  1  0  0  0  0
  7  8  2  0  0  0  0
  7  9  2  0  0  0  0
  7 10  1  0  0  0  0
 10 11  1  0  0  0  0
 11 12  1  0  0  0  0
 11 30  1  0  0  0  0
 11 31  1  0  0  0  0
 12 13  1  0  0  0  0
 12 32  1  0  0  0  0
 12 33  1  0  0  0  0
 13 18  1  0  0  0  0
 13 14  2  0  0  0  0
 14 15  1  0  0  0  0
 14 34  1  0  0  0  0
 15 16  2  0  0  0  0
 15 35  1  0  0  0  0
 16 17  1  0  0  0  0
 16 36  1  0  0  0  0
 17 18  2  0  0  0  0
 17 37  1  0  0  0  0
 19 38  1  0  0  0  0
 19 39  1  0  0  0  0
M  CHG  1  10  -1
M  END
> <s_m_source_file>
AV-unprocessed.smi

> <i_m_source_file_index>
1292

> <i_lp_mmshare_version>
43012

> <i_f3d_flags>
0

> <s_epik_input>
W0NIM11bQ0BASF0xW0NIMl1bQ0gyXVtDSDJdTihbQ0gyXTEpUyg9TykoPU8pW05IXVtDSDJdW0NIMl1jMltjSF1bY0hdW2NIXVtjSF1uMg==

> <s_epik_cmdline>
J2VwaWtfcHl0aG9uJywgJy1waCcsICc3LjAnLCAnLXRuJywgJzgnLCAnLW1hJywgJzIwMCcsICctbWV0YWxfYmluZGluZycsICctaW1hZScsICc8aW5maWxlLm1hZT4nLCAnLW9tYWUnLCAnPG91dGZpbGUubWFlPic=

> <r_epik_Ionization_Penalty>
2.02944

> <r_epik_Ionization_Penalty_Charging>
1.95606

> <r_epik_Ionization_Penalty_Neutral>
0.0733799

> <r_epik_State_Penalty>
2.47711

> <r_epik_Charging_Adjusted_Penalty>
4.43317

> <i_epik_Tot_Q>
-1

> <i_epik_Tot_abs_Q>
1

> <r_epik_Metal_State_Penalty>
0.729901

> <b_epik_Metal_Only>
0

> <s_lp_Force_Field>
OPLS_2005

> <r_lp_Energy>
8.05256

> <b_lp_Chiralities_Consistent>
1

> <s_lp_Variant>
AV-unprocessed.smi:1292-3

> <Gold.Version>
5.8.1

> <Gold.Id.Protein>
6NUR|6NUR_protein|mol2

> <Gold.PLP.Fitness>
47.6257

> <Gold.PLP.PLP>
-39.9396

> <Gold.PLP.part.hbond>
-2.0000

> <Gold.PLP.part.metal>
0.0000

> <Gold.PLP.part.buried>
-6.4681

> <Gold.PLP.part.nonpolar>
-30.3120

> <Gold.PLP.part.repulsive>
0.1467

> <Gold.PLP.ligand.clash>
0.0000

> <Gold.PLP.ligand.torsion>
2.0132

> <Gold.PLP.Chemscore.Hbond>
1.8736

> <Gold.PLP.Chemscore.CHOScore>
0.9997

> <Gold.PLP.Chemscore.Metal>
0.0000

> <Gold.Chemscore.Hbonds>
donor molecule, donor type, donor heavy atom, donor atom, acceptor molecule, acceptor atom, score
      P1  H  7989  7998       L1     8  0.79
      P1  H  7997  8010       L1     9  1.00
      L1  C    17    37       P1  7957  0.32

> <Gold.PLP.Chemscore.Internal.Correction>
3.0924

> <Gold.Rescore>
     Score         DG    S(hbond)    S(metal)    S(lipo)     H(rot)  DE(clash)    DE(int)     intcor
     17.38     -19.56       1.77        0.00      97.74       1.27       0.16       2.02       ----

> <Gold.Chemscore.Fitness>
17.3772

> <Gold.Chemscore.DG>
-19.5579

> <Gold.Chemscore.ZeroCoef>
-5.4800

> <Gold.Chemscore.Hbond>
1.7676

> <Gold.Chemscore.Metal>
0.0000

> <Gold.Chemscore.Lipo>
97.7376

> <Gold.Chemscore.Internal_Hbond>
0.0000

> <Gold.Chemscore.DEClash>
0.1566

> <Gold.Chemscore.DEInternal>
2.0240

> <Gold.Chemscore.Rot>
1.2738

> <Gold.Chemscore.Internal.Correction>
   9.000000E+99

> <Gold.Chemscore.Hbonds>
donor molecule, donor type, donor heavy atom, donor atom, acceptor molecule, acceptor atom, score
      P1  H  7989  7998       L1     8  0.74
      P1  H  7997  8010       L1     9  0.95

> <Gold.Chemscore.Hbond.Weighted>
-5.9036

> <Gold.Chemscore.Metal.Weighted>
-0.0000

> <Gold.Chemscore.Lipo.Weighted>
-11.4353

> <Gold.Chemscore.Internal_Hbond.Weighted>
0.0000

> <Gold.Chemscore.DEClash.Weighted>
0.1566

> <Gold.Chemscore.DEInternal.Weighted>
2.0240

> <Gold.Chemscore.Rot.Weighted>
3.2610

> <Gold.Chemscore.Internal.Correction.Weighted>
   9.000000E+99

> <Gold.Protein.RotatedTorsions>
[ 6907 6896 6895 6894 ] final   88.28 input  -60.11 | X-H torsion
[ 7974 7965 7964 7962 ] final -138.63 input  175.53 | X-H torsion
[ 8008 7997 7996 7995 ] final   41.95 input   59.86 | X-H torsion
[ 10167 10162 10161 10158 ] final  101.18 input  -65.29 | X-H torsion
[ 10718 10713 10712 10709 ] final   41.01 input   66.30 | X-H torsion
[ 10763 10752 10751 10750 ] final  -51.49 input  -60.55 | X-H torsion
[ 11005 11000 10999 10996 ] final -138.72 input  -57.11 | X-H torsion

> <Gold.Protein.ActiveResidues>
 VAL166  LYS551  ARG553  GLY616  TRP617  ASP618  TYR619  PRO620  LYS621  CYS622 
 ASP623  PHE694  ASN695  SER759  ASP760  ASP761  ALA762  ILE779  LEU786  VAL792 
 PHE793  MET794  SER795  GLU796  ALA797  LYS798  CYS799  TRP800  GLU811  SER814 

> <Gold.Protein.RotatedAtoms>
  152.5423  134.2146  159.8763 H   0  0  0  0  0  0  0  0  0  0  0  0  # atno 6907 bound_to 6896
  151.2126  133.4540  159.2606 H   0  0  0  0  0  0  0  0  0  0  0  0  # atno 6908 bound_to 6896
  151.0882  134.9912  159.8445 H   0  0  0  0  0  0  0  0  0  0  0  0  # atno 6909 bound_to 6896
  144.8742  140.6412  143.5247 H   0  0  0  0  0  0  0  0  0  0  0  0  # atno 7974 bound_to 7965
  155.2781  140.3370  155.4260 H   0  0  0  0  0  0  0  0  0  0  0  0  # atno 8008 bound_to 7997
  156.2102  140.1767  156.7752 H   0  0  0  0  0  0  0  0  0  0  0  0  # atno 8009 bound_to 7997
  154.5676  140.0676  156.8899 H   0  0  0  0  0  0  0  0  0  0  0  0  # atno 8010 bound_to 7997
  139.7460  144.6998  151.0503 H   0  0  0  0  0  0  0  0  0  0  0  0  # atno 10167 bound_to 10162
  157.3887  130.7794  149.7251 H   0  0  0  0  0  0  0  0  0  0  0  0  # atno 10718 bound_to 10713
  154.1275  135.6525  153.4915 H   0  0  0  0  0  0  0  0  0  0  0  0  # atno 10763 bound_to 10752
  153.0205  135.5285  154.7035 H   0  0  0  0  0  0  0  0  0  0  0  0  # atno 10764 bound_to 10752
  154.6260  135.2970  155.0242 H   0  0  0  0  0  0  0  0  0  0  0  0  # atno 10765 bound_to 10752
  140.8589  134.2194  157.4719 H   0  0  0  0  0  0  0  0  0  0  0  0  # atno 11005 bound_to 11000
  145.4073  139.1586  143.4145 LP  0  0  0  0  0  0  0  0  0  0  0  0  # atno 17320 bound_to 7965
  146.2951  140.4174  142.8724 LP  0  0  0  0  0  0  0  0  0  0  0  0  # atno 17321 bound_to 7965
  140.7792  143.4866  150.9948 LP  0  0  0  0  0  0  0  0  0  0  0  0  # atno 17342 bound_to 10162
  139.8554  143.7384  152.3176 LP  0  0  0  0  0  0  0  0  0  0  0  0  # atno 17343 bound_to 10162
  155.9793  130.4042  150.3596 LP  0  0  0  0  0  0  0  0  0  0  0  0  # atno 17370 bound_to 10713
  157.1710  131.0368  151.2795 LP  0  0  0  0  0  0  0  0  0  0  0  0  # atno 17371 bound_to 10713
  139.8706  134.9720  156.4756 LP  0  0  0  0  0  0  0  0  0  0  0  0  # atno 17394 bound_to 11000
  140.8706  133.7991  155.9360 LP  0  0  0  0  0  0  0  0  0  0  0  0  # atno 17395 bound_to 11000

$$$$
