AV-unprocessed.smi:1537|AV-procd|sdf|6190|dock8
  -GOLD-   22720 6353D 1   1.00000     0.00000
 Structure written by MMmdl.
 43 43  0  0  0  0  0  0  0  0  1 V2000
  152.4357  143.2987  160.3383 C   0  0  0  0  0  0  0  0  0  0  0  0
  153.5865  142.2880  160.2857 C   0  0  0  0  0  0  0  0  0  0  0  0
  153.1722  140.9791  159.7022 C   0  0  0  0  0  0  0  0  0  0  0  0
  151.9269  140.7129  159.2994 N   0  0  0  0  0  0  0  0  0  0  0  0
  151.7797  139.4030  158.8301 C   0  0  0  0  0  0  0  0  0  0  0  0
  150.4420  138.9207  158.3391 C   0  0  0  0  0  0  0  0  0  0  0  0
  149.9699  137.6653  159.0848 C   0  0  0  0  0  0  0  0  0  0  0  0
  150.6704  137.1901  159.9785 O   0  0  0  0  0  0  0  0  0  0  0  0
  148.7801  137.1472  158.7342 N   0  0  0  0  0  0  0  0  0  0  0  0
  148.1490  135.9788  159.3434 C   0  0  2  0  0  0  0  0  0  0  0  0
  146.7986  135.7537  158.6431 C   0  0  0  0  0  0  0  0  0  0  0  0
  147.8709  136.2346  160.8332 C   0  0  0  0  0  0  0  0  0  0  0  0
  148.1903  137.3057  161.3515 O   0  0  0  0  0  0  0  0  0  0  0  0
  147.2554  135.2374  161.4935 N   0  0  0  0  0  0  0  0  0  0  0  0
  146.8506  135.1897  162.9034 C   0  0  0  0  0  0  0  0  0  0  0  0
  146.3487  133.7614  163.1777 C   0  0  0  0  0  0  0  0  0  0  0  0
  145.7016  136.1838  163.1747 C   0  0  0  0  0  0  0  0  0  0  0  0
  148.0535  135.4836  163.8247 C   0  0  0  0  0  0  0  0  0  0  0  0
  152.9442  138.6768  158.8842 C   0  0  0  0  0  0  0  0  0  0  0  0
  154.2614  139.6063  159.5434 S   0  0  0  0  0  0  0  0  0  0  0  0
  152.7668  144.2425  160.7717 H   0  0  0  0  0  0  0  0  0  0  0  0
  151.6108  142.9242  160.9451 H   0  0  0  0  0  0  0  0  0  0  0  0
  152.0500  143.5072  159.3399 H   0  0  0  0  0  0  0  0  0  0  0  0
  154.4108  142.6917  159.6965 H   0  0  0  0  0  0  0  0  0  0  0  0
  153.9755  142.1150  161.2895 H   0  0  0  0  0  0  0  0  0  0  0  0
  149.6930  139.7056  158.4523 H   0  0  0  0  0  0  0  0  0  0  0  0
  150.4852  138.6898  157.2743 H   0  0  0  0  0  0  0  0  0  0  0  0
  148.2668  137.6058  157.9956 H   0  0  0  0  0  0  0  0  0  0  0  0
  148.7809  135.0970  159.2182 H   0  0  0  0  0  0  0  0  0  0  0  0
  146.2758  134.8903  159.0566 H   0  0  0  0  0  0  0  0  0  0  0  0
  146.9405  135.5660  157.5781 H   0  0  0  0  0  0  0  0  0  0  0  0
  146.1409  136.6191  158.7391 H   0  0  0  0  0  0  0  0  0  0  0  0
  147.0458  134.4089  160.9558 H   0  0  0  0  0  0  0  0  0  0  0  0
  146.0307  133.6446  164.2145 H   0  0  0  0  0  0  0  0  0  0  0  0
  147.1281  133.0217  162.9895 H   0  0  0  0  0  0  0  0  0  0  0  0
  145.4970  133.5101  162.5444 H   0  0  0  0  0  0  0  0  0  0  0  0
  144.8593  136.0096  162.5041 H   0  0  0  0  0  0  0  0  0  0  0  0
  146.0155  137.2198  163.0477 H   0  0  0  0  0  0  0  0  0  0  0  0
  145.3318  136.0864  164.1961 H   0  0  0  0  0  0  0  0  0  0  0  0
  147.7827  135.3598  164.8737 H   0  0  0  0  0  0  0  0  0  0  0  0
  148.4204  136.5035  163.7091 H   0  0  0  0  0  0  0  0  0  0  0  0
  148.8850  134.8086  163.6190 H   0  0  0  0  0  0  0  0  0  0  0  0
  153.1035  137.6510  158.5864 H   0  0  0  0  0  0  0  0  0  0  0  0
  1  2  1  0  0  0  0
  1 21  1  0  0  0  0
  1 22  1  0  0  0  0
  1 23  1  0  0  0  0
  2  3  1  0  0  0  0
  2 24  1  0  0  0  0
  2 25  1  0  0  0  0
  3 20  1  0  0  0  0
  3  4  2  0  0  0  0
  4  5  1  0  0  0  0
  5  6  1  0  0  0  0
  5 19  2  0  0  0  0
  6  7  1  0  0  0  0
  6 26  1  0  0  0  0
  6 27  1  0  0  0  0
  7  8  2  0  0  0  0
  7  9  1  0  0  0  0
  9 10  1  0  0  0  0
  9 28  1  0  0  0  0
 10 11  1  0  0  0  0
 10 12  1  0  0  0  0
 10 29  1  0  0  0  0
 11 30  1  0  0  0  0
 11 31  1  0  0  0  0
 11 32  1  0  0  0  0
 12 13  2  0  0  0  0
 12 14  1  0  0  0  0
 14 15  1  0  0  0  0
 14 33  1  0  0  0  0
 15 16  1  0  0  0  0
 15 17  1  0  0  0  0
 15 18  1  0  0  0  0
 16 34  1  0  0  0  0
 16 35  1  0  0  0  0
 16 36  1  0  0  0  0
 17 37  1  0  0  0  0
 17 38  1  0  0  0  0
 17 39  1  0  0  0  0
 18 40  1  0  0  0  0
 18 41  1  0  0  0  0
 18 42  1  0  0  0  0
 19 20  1  0  0  0  0
 19 43  1  0  0  0  0
M  END
> <s_m_source_file>
AV-unprocessed.smi

> <i_m_source_file_index>
1537

> <i_lp_mmshare_version>
43012

> <i_f3d_flags>
0

> <s_epik_input>
W0NIM11bQ0gyXWMxbmMoW2NIXXMxKVtDSDJdQyg9TylbTkhdW0NASF0oW0NIM10pQyg9TylbTkhdQyhbQ0gzXSkoW0NIM10pW0NIM10=

> <s_epik_cmdline>
J2VwaWtfcHl0aG9uJywgJy1waCcsICc3LjAnLCAnLXRuJywgJzgnLCAnLW1hJywgJzIwMCcsICctbWV0YWxfYmluZGluZycsICctaW1hZScsICc8aW5maWxlLm1hZT4nLCAnLW9tYWUnLCAnPG91dGZpbGUubWFlPic=

> <r_lp_tautomer_probability>
1

> <r_epik_Ionization_Penalty>
4.05444e-05

> <r_epik_Ionization_Penalty_Charging>
0

> <r_epik_Ionization_Penalty_Neutral>
4.05444e-05

> <r_epik_State_Penalty>
-0

> <r_epik_Charging_Adjusted_Penalty>
0

> <i_epik_Tot_Q>
0

> <i_epik_Tot_abs_Q>
0

> <r_epik_Metal_State_Penalty>
-0

> <b_epik_Metal_Only>
0

> <s_lp_Force_Field>
OPLS_2005

> <r_lp_Energy>
-1.93446

> <b_lp_Chiralities_Consistent>
1

> <s_lp_Variant>
AV-unprocessed.smi:1537-1

> <Gold.Version>
5.8.1

> <Gold.Id.Protein>
6NUR|6NUR_protein|mol2

> <Gold.PLP.Fitness>
44.0509

> <Gold.PLP.PLP>
-36.5003

> <Gold.PLP.part.hbond>
-3.1282

> <Gold.PLP.part.metal>
0.0000

> <Gold.PLP.part.buried>
-5.6112

> <Gold.PLP.part.nonpolar>
-28.1314

> <Gold.PLP.part.repulsive>
0.1275

> <Gold.PLP.ligand.clash>
0.0000

> <Gold.PLP.ligand.torsion>
0.0924

> <Gold.PLP.Chemscore.Hbond>
2.5588

> <Gold.PLP.Chemscore.CHOScore>
0.0000

> <Gold.PLP.Chemscore.Metal>
0.0000

> <Gold.Chemscore.Hbonds>
donor molecule, donor type, donor heavy atom, donor atom, acceptor molecule, acceptor atom, score
      P1  H  6896  6909       L1     8  0.73
      P1  H  6931  6943       L1    13  0.63
      P1  H  6934  6947       L1    13  0.56

> <Gold.PLP.Chemscore.Internal.Correction>
0.0593

> <Gold.Rescore>
     Score         DG    S(hbond)    S(metal)    S(lipo)     H(rot)  DE(clash)    DE(int)     intcor
     18.06     -18.95       2.71        0.00      78.78       1.88       0.01       0.88       ----

> <Gold.Chemscore.Fitness>
18.0560

> <Gold.Chemscore.DG>
-18.9526

> <Gold.Chemscore.ZeroCoef>
-5.4800

> <Gold.Chemscore.Hbond>
2.7126

> <Gold.Chemscore.Metal>
0.0000

> <Gold.Chemscore.Lipo>
78.7759

> <Gold.Chemscore.Internal_Hbond>
0.0000

> <Gold.Chemscore.DEClash>
0.0121

> <Gold.Chemscore.DEInternal>
0.8845

> <Gold.Chemscore.Rot>
1.8766

> <Gold.Chemscore.Internal.Correction>
   9.000000E+99

> <Gold.Chemscore.Hbonds>
donor molecule, donor type, donor heavy atom, donor atom, acceptor molecule, acceptor atom, score
      P1  H  6896  6909       L1     8  0.71
      P1  H  6931  6943       L1    13  0.61
      P1  H  6934  6947       L1    13  0.52

> <Gold.Chemscore.Hbond.Weighted>
-9.0600

> <Gold.Chemscore.Metal.Weighted>
-0.0000

> <Gold.Chemscore.Lipo.Weighted>
-9.2168

> <Gold.Chemscore.Internal_Hbond.Weighted>
0.0000

> <Gold.Chemscore.DEClash.Weighted>
0.0121

> <Gold.Chemscore.DEInternal.Weighted>
0.8845

> <Gold.Chemscore.Rot.Weighted>
4.8042

> <Gold.Chemscore.Internal.Correction.Weighted>
   9.000000E+99

> <Gold.Protein.RotatedTorsions>
[ 6907 6896 6895 6894 ] final   98.10 input  -60.11 | X-H torsion
[ 7974 7965 7964 7962 ] final  161.73 input  175.53 | X-H torsion
[ 8008 7997 7996 7995 ] final -124.61 input   59.86 | X-H torsion
[ 10167 10162 10161 10158 ] final -149.17 input  -65.29 | X-H torsion
[ 10718 10713 10712 10709 ] final  -94.97 input   66.30 | X-H torsion
[ 10763 10752 10751 10750 ] final    0.97 input  -60.55 | X-H torsion
[ 11005 11000 10999 10996 ] final  -24.46 input  -57.11 | X-H torsion

> <Gold.Protein.ActiveResidues>
 VAL166  LYS551  ARG553  GLY616  TRP617  ASP618  TYR619  PRO620  LYS621  CYS622 
 ASP623  PHE694  ASN695  SER759  ASP760  ASP761  ALA762  ILE779  LEU786  VAL792 
 PHE793  MET794  SER795  GLU796  ALA797  LYS798  CYS799  TRP800  GLU811  SER814 

> <Gold.Protein.RotatedAtoms>
  152.5414  134.0633  159.8161 H   0  0  0  0  0  0  0  0  0  0  0  0  # atno 6907 bound_to 6896
  151.0757  133.5422  159.2631 H   0  0  0  0  0  0  0  0  0  0  0  0  # atno 6908 bound_to 6896
  151.2268  135.0548  159.9026 H   0  0  0  0  0  0  0  0  0  0  0  0  # atno 6909 bound_to 6896
  144.7671  139.7939  143.6311 H   0  0  0  0  0  0  0  0  0  0  0  0  # atno 7974 bound_to 7965
  155.1997  140.0415  157.2915 H   0  0  0  0  0  0  0  0  0  0  0  0  # atno 8008 bound_to 7997
  154.6083  140.2470  155.7674 H   0  0  0  0  0  0  0  0  0  0  0  0  # atno 8009 bound_to 7997
  156.2363  140.2920  156.0332 H   0  0  0  0  0  0  0  0  0  0  0  0  # atno 8010 bound_to 7997
  139.7467  143.8580  152.2576 H   0  0  0  0  0  0  0  0  0  0  0  0  # atno 10167 bound_to 10162
  156.0035  130.5089  150.6006 H   0  0  0  0  0  0  0  0  0  0  0  0  # atno 10718 bound_to 10713
  153.3139  135.6964  153.7090 H   0  0  0  0  0  0  0  0  0  0  0  0  # atno 10763 bound_to 10752
  153.5957  135.3471  155.2928 H   0  0  0  0  0  0  0  0  0  0  0  0  # atno 10764 bound_to 10752
  154.8582  135.4328  154.2285 H   0  0  0  0  0  0  0  0  0  0  0  0  # atno 10765 bound_to 10752
  140.8847  133.7629  156.0346 H   0  0  0  0  0  0  0  0  0  0  0  0  # atno 11005 bound_to 11000
  146.1788  139.4971  142.9880 LP  0  0  0  0  0  0  0  0  0  0  0  0  # atno 17320 bound_to 7965
  145.6436  141.0279  143.1798 LP  0  0  0  0  0  0  0  0  0  0  0  0  # atno 17321 bound_to 7965
  139.8547  144.7147  150.9172 LP  0  0  0  0  0  0  0  0  0  0  0  0  # atno 17342 bound_to 10162
  140.7793  143.3869  151.1378 LP  0  0  0  0  0  0  0  0  0  0  0  0  # atno 17343 bound_to 10162
  157.3856  131.0787  151.1439 LP  0  0  0  0  0  0  0  0  0  0  0  0  # atno 17370 bound_to 10713
  157.2147  130.6454  149.5788 LP  0  0  0  0  0  0  0  0  0  0  0  0  # atno 17371 bound_to 10713
  140.8419  134.3056  157.5310 LP  0  0  0  0  0  0  0  0  0  0  0  0  # atno 17394 bound_to 11000
  139.8723  134.9421  156.3815 LP  0  0  0  0  0  0  0  0  0  0  0  0  # atno 17395 bound_to 11000

$$$$
