#       Name:                AV-unprocessed.smi:148
#       Creating user name   scv26
#       Creation time:       Thu Mar 26 18:38:01 2020


#       File generated by GOLD software.
#

@<TRIPOS>MOLECULE
AV-unprocessed.smi:148
    73    77     1
SMALL
NO_CHARGES


@<TRIPOS>ATOM
      1 ****        -4.4816  -3.4683   0.7051 O.3            1 S1                 0.0000
      2 ****        -3.0739  -3.5011   0.8145 C.3            1 S1                 0.0000
      3 ****        -2.5801  -2.6008   1.9698 C.3            1 S1                 0.0000
      4 ****        -1.0427  -2.4052   1.9145 C.3            1 S1                 0.0000
      5 ****        -0.6086  -1.6899   0.7275 N.pl3          1 S1                 0.0000
      6 ****         0.0887  -2.2061  -0.3426 C.2            1 S1                 0.0000
      7 ****         0.3725  -1.3509  -1.2873 N.2            1 S1                 0.0000
      8 ****        -0.1666  -0.1559  -0.8294 C.ar           1 S1                 0.0000
      9 ****        -0.2125   1.1663  -1.3422 C.ar           1 S1                 0.0000
     10 ****         0.3469   1.4916  -2.5279 N.3            1 S1                 0.0000
     11 ****        -0.6997   1.8502  -3.4878 C.3            1 S1                 0.0000
     12 ****        -0.1447   1.9463  -4.9118 C.3            1 S1                 0.0000
     13 ****         1.0153   2.9419  -4.9478 C.3            1 S1                 0.0000
     14 ****         2.0862   2.5305  -3.9295 C.3            1 S1                 0.0000
     15 ****         1.5247   2.3839  -2.4884 C.3            1 S1                 0.0000
     16 ****         2.6530   1.8993  -1.5104 C.3            1 S1                 0.0000
     17 ****         4.0304   2.5584  -1.7187 C.3            1 S1                 0.0000
     18 ****         4.8343   2.3031  -0.4385 C.3            1 S1                 0.0000
     19 ****         3.8149   1.9014   0.6329 C.3            1 S1                 0.0000
     20 ****         2.4334   2.1141   0.0054 C.3            1 S1                 0.0000
     21 ****         2.0075   3.4355   0.2820 O.3            1 S1                 0.0000
     22 ****        -0.8475   2.1164  -0.6058 N.ar           1 S1                 0.0000
     23 ****        -1.3865   1.7932   0.5738 C.ar           1 S1                 0.0000
     24 ****        -1.4080   0.6062   1.1853 N.ar           1 S1                 0.0000
     25 ****        -0.7839  -0.3488   0.4370 C.ar           1 S1                 0.0000
     26 ****        -3.0875  -3.0958   3.3522 C.3            1 S1                 0.0000
     27 ****        -2.8528  -2.1347   4.5196 C.3            1 S1                 0.0000
     28 ****        -2.1801  -2.9985   5.5859 C.3            1 S1                 0.0000
     29 ****        -2.5872  -4.3177   5.2619 O.3            1 S1                 0.0000
     30 ****        -2.5088  -4.4279   3.8506 C.3            1 S1                 0.0000
     31 ****        -4.8541  -3.7921   1.5112 H              1 S1                 0.0000
     32 ****        -2.7450  -4.5310   0.9546 H              1 S1                 0.0000
     33 ****        -2.6709  -3.1674  -0.1415 H              1 S1                 0.0000
     34 ****        -3.0308  -1.6189   1.8170 H              1 S1                 0.0000
     35 ****        -0.6810  -1.8485   2.7779 H              1 S1                 0.0000
     36 ****        -0.5314  -3.3674   1.9344 H              1 S1                 0.0000
     37 ****         0.3802  -3.2447  -0.4028 H              1 S1                 0.0000
     38 ****        -1.5000   1.1085  -3.4617 H              1 S1                 0.0000
     39 ****        -1.1430   2.8062  -3.2046 H              1 S1                 0.0000
     40 ****         0.1959   0.9647  -5.2439 H              1 S1                 0.0000
     41 ****        -0.9301   2.2572  -5.6011 H              1 S1                 0.0000
     42 ****         1.4440   2.9854  -5.9493 H              1 S1                 0.0000
     43 ****         0.6515   3.9440  -4.7175 H              1 S1                 0.0000
     44 ****         2.5352   1.5871  -4.2437 H              1 S1                 0.0000
     45 ****         2.8788   3.2774  -3.9638 H              1 S1                 0.0000
     46 ****         1.1821   3.3707  -2.1743 H              1 S1                 0.0000
     47 ****         2.7951   0.8292  -1.6739 H              1 S1                 0.0000
     48 ****         4.5487   2.1737  -2.5977 H              1 S1                 0.0000
     49 ****         3.9099   3.6343  -1.8538 H              1 S1                 0.0000
     50 ****         5.5577   1.5007  -0.5881 H              1 S1                 0.0000
     51 ****         5.3909   3.1944  -0.1473 H              1 S1                 0.0000
     52 ****         3.9438   0.8435   0.8652 H              1 S1                 0.0000
     53 ****         3.9469   2.4509   1.5659 H              1 S1                 0.0000
     54 ****         1.7205   1.4174   0.4413 H              1 S1                 0.0000
     55 ****         2.6462   4.0357  -0.0711 H              1 S1                 0.0000
     56 ****        -1.8658   2.6023   1.1047 H              1 S1                 0.0000
     57 ****        -4.1690  -3.2251   3.2912 H              1 S1                 0.0000
     58 ****        -2.2490  -1.2635   4.2661 H              1 S1                 0.0000
     59 ****        -3.8099  -1.7627   4.8875 H              1 S1                 0.0000
     60 ****        -1.0936  -2.9270   5.5114 H              1 S1                 0.0000
     61 ****        -2.4728  -2.7224   6.5993 H              1 S1                 0.0000
     62 ****        -3.0692  -5.2895   3.4868 H              1 S1                 0.0000
     63 ****        -1.4641  -4.5624   3.5724 H              1 S1                 0.0000
     64 ****        -4.7739  -4.0459  -0.0571 LP             1 S1                 0.0000
     65 ****        -4.7855  -2.5288   0.5469 LP             1 S1                 0.0000
     66 ****         0.8639  -1.5176  -2.1421 LP             1 S1                 0.0000
     67 ****         0.7979   0.6658  -2.8665 LP             1 S1                 0.0000
     68 ****         1.9322   3.5659   1.2706 LP             1 S1                 0.0000
     69 ****         1.1180   3.5997  -0.1446 LP             1 S1                 0.0000
     70 ****        -0.9112   3.0547  -0.9458 LP             1 S1                 0.0000
     71 ****        -1.8278   0.4388   2.0774 LP             1 S1                 0.0000
     72 ****        -3.5258  -4.4749   5.5691 LP             1 S1                 0.0000
     73 ****        -1.9790  -4.9830   5.6947 LP             1 S1                 0.0000
@<TRIPOS>BOND
    1    1    2 1     
    2    1   31 1     
    3    2    3 1     
    4    2   32 1     
    5    2   33 1     
    6    3    4 1     
    7    3   26 1     
    8    3   34 1     
    9    4    5 1     
   10    4   35 1     
   11    4   36 1     
   12    5   25 1     
   13    5    6 1     
   14    6    7 2     
   15    6   37 1     
   16    7    8 1     
   17    8   25 ar    
   18    8    9 ar    
   19    9   10 1     
   20    9   22 ar    
   21   10   15 1     
   22   10   11 1     
   23   11   12 1     
   24   11   38 1     
   25   11   39 1     
   26   12   13 1     
   27   12   40 1     
   28   12   41 1     
   29   13   14 1     
   30   13   42 1     
   31   13   43 1     
   32   14   15 1     
   33   14   44 1     
   34   14   45 1     
   35   15   16 1     
   36   15   46 1     
   37   16   20 1     
   38   16   17 1     
   39   16   47 1     
   40   17   18 1     
   41   17   48 1     
   42   17   49 1     
   43   18   19 1     
   44   18   50 1     
   45   18   51 1     
   46   19   20 1     
   47   19   52 1     
   48   19   53 1     
   49   20   21 1     
   50   20   54 1     
   51   21   55 1     
   52   22   23 ar    
   53   23   24 ar    
   54   23   56 1     
   55   24   25 ar    
   56   26   30 1     
   57   26   27 1     
   58   26   57 1     
   59   27   28 1     
   60   27   58 1     
   61   27   59 1     
   62   28   29 1     
   63   28   60 1     
   64   28   61 1     
   65   29   30 1     
   66   30   62 1     
   67   30   63 1     
   68    1   64 1     
   69    1   65 1     
   70    7   66 1     
   71   10   67 1     
   72   21   68 1     
   73   21   69 1     
   74   22   70 1     
   75   24   71 1     
   76   29   72 1     
   77   29   73 1     
@<TRIPOS>SUBSTRUCTURE
      1 S1             1
@<TRIPOS>SET
LONE_PAIRS      STATIC     ATOMS    <user>   **** ""
10 64 65 66 67 68 69 70 71 72 73
DONOR_HYDROGENS      STATIC     ATOMS    <user>   **** ""
2 31 55
ATOM$BLUE        STATIC     ATOMS    COLORGROUP SYSTEM
10 64 65 66 67 68 69 70 71 72 73
ATOM$RED        STATIC     ATOMS    COLORGROUP SYSTEM
2 31 55
