AV-unprocessed.smi:1959|AV-procd|sdf|7912|dock6
  -GOLD-   2272010 73D 1   1.00000     0.00000
 Structure written by MMmdl.
 44 45  0  0  0  0  0  0  0  0  1 V2000
  153.7719  143.1152  164.2095 C   0  0  0  0  0  0  0  0  0  0  0  0
  153.6582  142.5210  162.8371 C   0  0  0  0  0  0  0  0  0  0  0  0
  152.9316  143.0167  161.7189 C   0  0  0  0  0  0  0  0  0  0  0  0
  153.1548  142.0945  160.7356 C   0  0  0  0  0  0  0  0  0  0  0  0
  152.6507  142.0512  159.3304 C   0  0  0  0  0  0  0  0  0  0  0  0
  153.9751  141.1190  161.2769 N   0  0  0  0  0  0  0  0  0  0  0  0
  154.4904  139.9009  160.6657 C   0  0  0  0  0  0  0  0  0  0  0  0
  154.6330  138.7812  161.6993 C   0  0  0  0  0  0  0  0  0  0  0  0
  155.5398  138.8186  162.5301 O   0  0  0  0  0  0  0  0  0  0  0  0
  153.7147  137.8041  161.6476 N   0  0  0  0  0  0  0  0  0  0  0  0
  153.5417  136.7455  162.6369 C   0  0  2  0  0  0  0  0  0  0  0  0
  153.4532  137.3723  164.0374 C   0  0  0  0  0  0  0  0  0  0  0  0
  154.7165  135.7476  162.5371 C   0  0  0  0  0  0  0  0  0  0  0  0
  154.4404  134.3863  163.0052 N   0  0  0  0  0  0  0  0  0  0  0  0
  153.4139  134.3366  164.0458 C   0  0  0  0  0  0  0  0  0  0  0  0
  153.0964  132.8976  164.4861 C   0  0  0  0  0  0  0  0  0  0  0  0
  152.7172  132.1211  163.3555 O   0  0  0  0  0  0  0  0  0  0  0  0
  153.7243  132.0955  162.3500 C   0  0  0  0  0  0  0  0  0  0  0  0
  154.0291  133.5329  161.8950 C   0  0  0  0  0  0  0  0  0  0  0  0
  154.2832  141.3879  162.5650 N   0  0  0  0  0  0  0  0  0  0  0  0
  154.8147  143.2750  164.4847 H   0  0  0  0  0  0  0  0  0  0  0  0
  153.3249  142.4600  164.9574 H   0  0  0  0  0  0  0  0  0  0  0  0
  153.2630  144.0776  164.2655 H   0  0  0  0  0  0  0  0  0  0  0  0
  152.3314  143.9118  161.6515 H   0  0  0  0  0  0  0  0  0  0  0  0
  152.0272  142.9192  159.1151 H   0  0  0  0  0  0  0  0  0  0  0  0
  152.0497  141.1586  159.1582 H   0  0  0  0  0  0  0  0  0  0  0  0
  153.4771  142.0494  158.6199 H   0  0  0  0  0  0  0  0  0  0  0  0
  153.8243  139.5816  159.8644 H   0  0  0  0  0  0  0  0  0  0  0  0
  155.4580  140.1142  160.2086 H   0  0  0  0  0  0  0  0  0  0  0  0
  153.0180  137.8558  160.9188 H   0  0  0  0  0  0  0  0  0  0  0  0
  152.6104  136.2070  162.4504 H   0  0  0  0  0  0  0  0  0  0  0  0
  153.3023  136.6083  164.8004 H   0  0  0  0  0  0  0  0  0  0  0  0
  152.6171  138.0692  164.1059 H   0  0  0  0  0  0  0  0  0  0  0  0
  154.3637  137.9181  164.2875 H   0  0  0  0  0  0  0  0  0  0  0  0
  155.1062  135.7252  161.5178 H   0  0  0  0  0  0  0  0  0  0  0  0
  155.5296  136.1443  163.1464 H   0  0  0  0  0  0  0  0  0  0  0  0
  153.7402  134.8909  164.9241 H   0  0  0  0  0  0  0  0  0  0  0  0
  152.5009  134.8156  163.6887 H   0  0  0  0  0  0  0  0  0  0  0  0
  153.9604  132.4448  164.9749 H   0  0  0  0  0  0  0  0  0  0  0  0
  152.2813  132.8956  165.2100 H   0  0  0  0  0  0  0  0  0  0  0  0
  154.6231  131.6112  162.7351 H   0  0  0  0  0  0  0  0  0  0  0  0
  153.3729  131.4980  161.5088 H   0  0  0  0  0  0  0  0  0  0  0  0
  153.1431  133.9519  161.4151 H   0  0  0  0  0  0  0  0  0  0  0  0
  154.8122  133.5095  161.1364 H   0  0  0  0  0  0  0  0  0  0  0  0
  1  2  1  0  0  0  0
  1 21  1  0  0  0  0
  1 22  1  0  0  0  0
  1 23  1  0  0  0  0
  2 20  2  0  0  0  0
  2  3  1  0  0  0  0
  3  4  2  0  0  0  0
  3 24  1  0  0  0  0
  4  5  1  0  0  0  0
  4  6  1  0  0  0  0
  5 25  1  0  0  0  0
  5 26  1  0  0  0  0
  5 27  1  0  0  0  0
  6  7  1  0  0  0  0
  6 20  1  0  0  0  0
  7  8  1  0  0  0  0
  7 28  1  0  0  0  0
  7 29  1  0  0  0  0
  8  9  2  0  0  0  0
  8 10  1  0  0  0  0
 10 11  1  0  0  0  0
 10 30  1  0  0  0  0
 11 12  1  0  0  0  0
 11 13  1  0  0  0  0
 11 31  1  0  0  0  0
 12 32  1  0  0  0  0
 12 33  1  0  0  0  0
 12 34  1  0  0  0  0
 13 14  1  0  0  0  0
 13 35  1  0  0  0  0
 13 36  1  0  0  0  0
 14 19  1  0  0  0  0
 14 15  1  0  0  0  0
 15 16  1  0  0  0  0
 15 37  1  0  0  0  0
 15 38  1  0  0  0  0
 16 17  1  0  0  0  0
 16 39  1  0  0  0  0
 16 40  1  0  0  0  0
 17 18  1  0  0  0  0
 18 19  1  0  0  0  0
 18 41  1  0  0  0  0
 18 42  1  0  0  0  0
 19 43  1  0  0  0  0
 19 44  1  0  0  0  0
M  END
> <s_m_source_file>
AV-unprocessed.smi

> <i_m_source_file_index>
1959

> <i_lp_mmshare_version>
43012

> <i_f3d_flags>
0

> <s_epik_input>
W0NIM11jMVtjSF1jKFtDSDNdKW4objEpW0NIMl1DKD1PKVtOSF1bQ0BIXShbQ0gzXSlbQ0gyXU4yW0NIMl1bQ0gyXU9bQ0gyXVtDSDJdMg==

> <s_epik_cmdline>
J2VwaWtfcHl0aG9uJywgJy1waCcsICc3LjAnLCAnLXRuJywgJzgnLCAnLW1hJywgJzIwMCcsICctbWV0YWxfYmluZGluZycsICctaW1hZScsICc8aW5maWxlLm1hZT4nLCAnLW9tYWUnLCAnPG91dGZpbGUubWFlPic=

> <r_lp_tautomer_probability>
1

> <r_epik_Ionization_Penalty>
0.197284

> <r_epik_Ionization_Penalty_Charging>
0

> <r_epik_Ionization_Penalty_Neutral>
0.197284

> <r_epik_State_Penalty>
0.186684

> <r_epik_Charging_Adjusted_Penalty>
0.186684

> <i_epik_Tot_Q>
0

> <i_epik_Tot_abs_Q>
0

> <r_epik_Metal_State_Penalty>
0.186639

> <b_epik_Metal_Only>
0

> <s_lp_Force_Field>
OPLS_2005

> <r_lp_Energy>
23.1408

> <b_lp_Chiralities_Consistent>
1

> <s_lp_Variant>
AV-unprocessed.smi:1959-1

> <Gold.Version>
5.8.1

> <Gold.Id.Protein>
6NUR|6NUR_protein|mol2

> <Gold.PLP.Fitness>
40.0131

> <Gold.PLP.PLP>
-42.6568

> <Gold.PLP.part.hbond>
-1.0000

> <Gold.PLP.part.metal>
0.0000

> <Gold.PLP.part.buried>
-5.2252

> <Gold.PLP.part.nonpolar>
-34.8188

> <Gold.PLP.part.repulsive>
0.0437

> <Gold.PLP.ligand.clash>
0.0000

> <Gold.PLP.ligand.torsion>
1.3366

> <Gold.PLP.Chemscore.Hbond>
0.0000

> <Gold.PLP.Chemscore.CHOScore>
0.0000

> <Gold.PLP.Chemscore.Metal>
0.0000

> <Gold.PLP.Chemscore.Internal.Correction>
0.0294

> <Gold.Rescore>
     Score         DG    S(hbond)    S(metal)    S(lipo)     H(rot)  DE(clash)    DE(int)     intcor
     10.17     -13.82       0.00        0.00     108.41       1.70       0.08       3.57       ----

> <Gold.Chemscore.Fitness>
10.1700

> <Gold.Chemscore.DG>
-13.8246

> <Gold.Chemscore.ZeroCoef>
-5.4800

> <Gold.Chemscore.Hbond>
0.0000

> <Gold.Chemscore.Metal>
0.0000

> <Gold.Chemscore.Lipo>
108.4137

> <Gold.Chemscore.Internal_Hbond>
0.0000

> <Gold.Chemscore.DEClash>
0.0811

> <Gold.Chemscore.DEInternal>
3.5735

> <Gold.Chemscore.Rot>
1.6952

> <Gold.Chemscore.Internal.Correction>
   9.000000E+99

> <Gold.Chemscore.Hbond.Weighted>
-0.0000

> <Gold.Chemscore.Metal.Weighted>
-0.0000

> <Gold.Chemscore.Lipo.Weighted>
-12.6844

> <Gold.Chemscore.Internal_Hbond.Weighted>
0.0000

> <Gold.Chemscore.DEClash.Weighted>
0.0811

> <Gold.Chemscore.DEInternal.Weighted>
3.5735

> <Gold.Chemscore.Rot.Weighted>
4.3398

> <Gold.Chemscore.Internal.Correction.Weighted>
   9.000000E+99

> <Gold.Protein.RotatedTorsions>
[ 6907 6896 6895 6894 ] final  168.22 input  -60.11 | X-H torsion
[ 7974 7965 7964 7962 ] final -174.05 input  175.53 | X-H torsion
[ 8008 7997 7996 7995 ] final   16.61 input   59.86 | X-H torsion
[ 10167 10162 10161 10158 ] final -163.07 input  -65.29 | X-H torsion
[ 10718 10713 10712 10709 ] final  129.62 input   66.30 | X-H torsion
[ 10763 10752 10751 10750 ] final  167.76 input  -60.55 | X-H torsion
[ 11005 11000 10999 10996 ] final -172.07 input  -57.11 | X-H torsion

> <Gold.Protein.ActiveResidues>
 VAL166  LYS551  ARG553  GLY616  TRP617  ASP618  TYR619  PRO620  LYS621  CYS622 
 ASP623  PHE694  ASN695  SER759  ASP760  ASP761  ALA762  ILE779  LEU786  VAL792 
 PHE793  MET794  SER795  GLU796  ALA797  LYS798  CYS799  TRP800  GLU811  SER814 

> <Gold.Protein.RotatedAtoms>
  151.8511  133.3440  159.3673 H   0  0  0  0  0  0  0  0  0  0  0  0  # atno 6907 bound_to 6896
  150.7206  134.5298  159.5704 H   0  0  0  0  0  0  0  0  0  0  0  0  # atno 6908 bound_to 6896
  152.2792  134.7848  160.0451 H   0  0  0  0  0  0  0  0  0  0  0  0  # atno 6909 bound_to 6896
  144.7134  140.1529  143.6382 H   0  0  0  0  0  0  0  0  0  0  0  0  # atno 7974 bound_to 7965
  154.8794  140.2970  155.5434 H   0  0  0  0  0  0  0  0  0  0  0  0  # atno 8008 bound_to 7997
  156.3022  140.2445  156.3728 H   0  0  0  0  0  0  0  0  0  0  0  0  # atno 8009 bound_to 7997
  154.8733  140.0400  157.1727 H   0  0  0  0  0  0  0  0  0  0  0  0  # atno 8010 bound_to 7997
  139.6347  144.0373  152.2044 H   0  0  0  0  0  0  0  0  0  0  0  0  # atno 10167 bound_to 10162
  157.5138  131.1097  150.9254 H   0  0  0  0  0  0  0  0  0  0  0  0  # atno 10718 bound_to 10713
  154.3586  135.2753  155.2332 H   0  0  0  0  0  0  0  0  0  0  0  0  # atno 10763 bound_to 10752
  154.4530  135.5926  153.6208 H   0  0  0  0  0  0  0  0  0  0  0  0  # atno 10764 bound_to 10752
  152.9845  135.6046  154.3804 H   0  0  0  0  0  0  0  0  0  0  0  0  # atno 10765 bound_to 10752
  140.5011  134.5892  157.4988 H   0  0  0  0  0  0  0  0  0  0  0  0  # atno 11005 bound_to 11000
  145.9100  139.2481  143.1443 LP  0  0  0  0  0  0  0  0  0  0  0  0  # atno 17320 bound_to 7965
  145.9726  140.8748  143.0155 LP  0  0  0  0  0  0  0  0  0  0  0  0  # atno 17321 bound_to 7965
  140.0047  144.6268  150.7699 LP  0  0  0  0  0  0  0  0  0  0  0  0  # atno 17342 bound_to 10162
  140.7458  143.2882  151.3405 LP  0  0  0  0  0  0  0  0  0  0  0  0  # atno 17343 bound_to 10162
  156.9887  130.5555  149.5301 LP  0  0  0  0  0  0  0  0  0  0  0  0  # atno 17370 bound_to 10713
  156.0306  130.5398  150.8525 LP  0  0  0  0  0  0  0  0  0  0  0  0  # atno 17371 bound_to 10713
  139.9713  134.7289  156.0037 LP  0  0  0  0  0  0  0  0  0  0  0  0  # atno 17394 bound_to 11000
  141.1435  133.6560  156.3798 LP  0  0  0  0  0  0  0  0  0  0  0  0  # atno 17395 bound_to 11000

$$$$
