AV-unprocessed.smi:3316|AV-procd|sdf|12757|dock10
  -GOLD-   2272019 93D 1   1.00000     0.00000
 Structure written by MMmdl.
 41 43  0  0  0  0  0  0  0  0  2 V2000
  150.2254  138.1808  155.2010 C   0  0  0  0  0  0  0  0  0  0  0  0
  150.4143  139.6405  154.7590 C   0  0  2  0  0  0  0  0  0  0  0  0
  151.2146  140.4464  155.8004 C   0  0  0  0  0  0  0  0  0  0  0  0
  150.4054  140.7416  157.0005 N   0  3  0  0  0  0  0  0  0  0  0  0
  151.2027  141.1081  158.1867 C   0  0  0  0  0  0  0  0  0  0  0  0
  151.0448  142.6019  158.5243 C   0  0  2  0  0  0  0  0  0  0  0  0
  151.5022  143.5611  157.3793 C   0  0  0  0  0  0  0  0  0  0  0  0
  152.5417  144.4700  158.0750 C   0  0  1  0  0  0  0  0  0  0  0  0
  151.8241  145.2855  159.1296 C   0  0  0  0  0  0  0  0  0  0  0  0
  151.4712  144.4476  160.1063 C   0  0  0  0  0  0  0  0  0  0  0  0
  151.9395  143.0642  159.7041 C   0  0  2  0  0  0  0  0  0  0  0  0
  153.2324  143.4329  158.9645 C   0  0  0  0  0  0  0  0  0  0  0  0
  149.0781  140.2947  154.4287 C   0  0  0  0  0  0  0  0  0  0  0  0
  147.9818  139.5119  154.0089 C   0  0  0  0  0  0  0  0  0  0  0  0
  146.7658  140.1582  153.7097 C   0  0  0  0  0  0  0  0  0  0  0  0
  146.5946  141.4941  153.8010 N   0  0  0  0  0  0  0  0  0  0  0  0
  147.6453  142.2396  154.2044 C   0  0  0  0  0  0  0  0  0  0  0  0
  148.9035  141.6924  154.5266 C   0  0  0  0  0  0  0  0  0  0  0  0
  149.7079  137.6041  154.4337 H   0  0  0  0  0  0  0  0  0  0  0  0
  149.6427  138.1092  156.1199 H   0  0  0  0  0  0  0  0  0  0  0  0
  151.1863  137.6982  155.3813 H   0  0  0  0  0  0  0  0  0  0  0  0
  151.0051  139.6177  153.8417 H   0  0  0  0  0  0  0  0  0  0  0  0
  152.1140  139.9043  156.0959 H   0  0  0  0  0  0  0  0  0  0  0  0
  151.5432  141.3891  155.3613 H   0  0  0  0  0  0  0  0  0  0  0  0
  149.7799  141.5055  156.7874 H   0  0  0  0  0  0  0  0  0  0  0  0
  150.8663  140.5053  159.0312 H   0  0  0  0  0  0  0  0  0  0  0  0
  152.2489  140.8557  158.0120 H   0  0  0  0  0  0  0  0  0  0  0  0
  149.9987  142.7876  158.7759 H   0  0  0  0  0  0  0  0  0  0  0  0
  151.9663  143.0137  156.5576 H   0  0  0  0  0  0  0  0  0  0  0  0
  150.6710  144.1342  156.9664 H   0  0  0  0  0  0  0  0  0  0  0  0
  153.2015  145.0413  157.4215 H   0  0  0  0  0  0  0  0  0  0  0  0
  151.6229  146.3444  159.0607 H   0  0  0  0  0  0  0  0  0  0  0  0
  150.9173  144.6752  161.0051 H   0  0  0  0  0  0  0  0  0  0  0  0
  152.0538  142.3664  160.5342 H   0  0  0  0  0  0  0  0  0  0  0  0
  153.6873  142.6092  158.4123 H   0  0  0  0  0  0  0  0  0  0  0  0
  153.9880  143.8702  159.6207 H   0  0  0  0  0  0  0  0  0  0  0  0
  148.0623  138.4385  153.9186 H   0  0  0  0  0  0  0  0  0  0  0  0
  145.9082  139.5866  153.3867 H   0  0  0  0  0  0  0  0  0  0  0  0
  147.4795  143.3045  154.2711 H   0  0  0  0  0  0  0  0  0  0  0  0
  149.7105  142.3364  154.8441 H   0  0  0  0  0  0  0  0  0  0  0  0
  149.8532  139.9255  157.2235 H   0  0  0  0  0  0  0  0  0  0  0  0
  1  2  1  0  0  0  0
  1 19  1  0  0  0  0
  1 20  1  0  0  0  0
  1 21  1  0  0  0  0
  2  3  1  0  0  0  0
  2 13  1  0  0  0  0
  2 22  1  0  0  0  0
  3  4  1  0  0  0  0
  3 23  1  0  0  0  0
  3 24  1  0  0  0  0
  4  5  1  0  0  0  0
  4 25  1  0  0  0  0
  4 41  1  0  0  0  0
  5  6  1  0  0  0  0
  5 26  1  0  0  0  0
  5 27  1  0  0  0  0
  6 11  1  0  0  0  0
  6  7  1  0  0  0  0
  6 28  1  0  0  0  0
  7  8  1  0  0  0  0
  7 29  1  0  0  0  0
  7 30  1  0  0  0  0
  8 12  1  0  0  0  0
  8  9  1  0  0  0  0
  8 31  1  0  0  0  0
  9 10  2  0  0  0  0
  9 32  1  0  0  0  0
 10 11  1  0  0  0  0
 10 33  1  0  0  0  0
 11 12  1  0  0  0  0
 11 34  1  0  0  0  0
 12 35  1  0  0  0  0
 12 36  1  0  0  0  0
 13 18  1  0  0  0  0
 13 14  2  0  0  0  0
 14 15  1  0  0  0  0
 14 37  1  0  0  0  0
 15 16  2  0  0  0  0
 15 38  1  0  0  0  0
 16 17  1  0  0  0  0
 17 18  2  0  0  0  0
 17 39  1  0  0  0  0
 18 40  1  0  0  0  0
M  CHG  1   4   1
M  END
> <s_m_source_file>
AV-unprocessed.smi

> <i_m_source_file_index>
3316

> <i_lp_mmshare_version>
43012

> <i_f3d_flags>
0

> <s_epik_input>
W2NIXTFbY0hdbltjSF1bY0hdYzFbQ0BIXShbQ0gzXSlbQ0gyXVtOSF1bQ0gyXVtDQEhdKFtDSDJdW0NASF0yMylbQ0BIXShbQ0gyXTMpW0NIXT1bQ0hdMg==

> <s_epik_cmdline>
J2VwaWtfcHl0aG9uJywgJy1waCcsICc3LjAnLCAnLXRuJywgJzgnLCAnLW1hJywgJzIwMCcsICctbWV0YWxfYmluZGluZycsICctaW1hZScsICc8aW5maWxlLm1hZT4nLCAnLW9tYWUnLCAnPG91dGZpbGUubWFlPic=

> <r_lp_tautomer_probability>
1

> <r_epik_Ionization_Penalty>
0.00280406

> <r_epik_Ionization_Penalty_Charging>
0.000446589

> <r_epik_Ionization_Penalty_Neutral>
0.00235747

> <r_epik_State_Penalty>
-0

> <r_epik_Charging_Adjusted_Penalty>
0.000446589

> <i_epik_Tot_Q>
1

> <i_epik_Tot_abs_Q>
1

> <r_epik_Metal_State_Penalty>
-0

> <b_epik_Metal_Only>
0

> <s_lp_Force_Field>
OPLS_2005

> <r_lp_Energy>
65.5539

> <b_lp_Chiralities_Consistent>
1

> <s_lp_Variant>
AV-unprocessed.smi:3316-5

> <Gold.Version>
5.8.1

> <Gold.Id.Protein>
6NUR|6NUR_protein|mol2

> <Gold.PLP.Fitness>
47.3458

> <Gold.PLP.PLP>
-44.5474

> <Gold.PLP.part.hbond>
0.0000

> <Gold.PLP.part.metal>
0.0000

> <Gold.PLP.part.buried>
-1.1424

> <Gold.PLP.part.nonpolar>
-43.7579

> <Gold.PLP.part.repulsive>
0.2184

> <Gold.PLP.ligand.clash>
0.0000

> <Gold.PLP.ligand.torsion>
1.2246

> <Gold.PLP.Chemscore.Hbond>
0.0000

> <Gold.PLP.Chemscore.CHOScore>
1.7229

> <Gold.PLP.Chemscore.Metal>
0.0000

> <Gold.Chemscore.Hbonds>
donor molecule, donor type, donor heavy atom, donor atom, acceptor molecule, acceptor atom, score
      L1  C    15    38       P1 10175  0.87
      L1  C    17    39       P1  8028  0.86

> <Gold.PLP.Chemscore.Internal.Correction>
0.0788

> <Gold.Rescore>
     Score         DG    S(hbond)    S(metal)    S(lipo)     H(rot)  DE(clash)    DE(int)     intcor
     17.57     -18.80       0.00        0.00     143.66       1.36       0.07       1.16       ----

> <Gold.Chemscore.Fitness>
17.5651

> <Gold.Chemscore.DG>
-18.7962

> <Gold.Chemscore.ZeroCoef>
-5.4800

> <Gold.Chemscore.Hbond>
0.0000

> <Gold.Chemscore.Metal>
0.0000

> <Gold.Chemscore.Lipo>
143.6590

> <Gold.Chemscore.Internal_Hbond>
0.0000

> <Gold.Chemscore.DEClash>
0.0738

> <Gold.Chemscore.DEInternal>
1.1573

> <Gold.Chemscore.Rot>
1.3640

> <Gold.Chemscore.Internal.Correction>
   9.000000E+99

> <Gold.Chemscore.Hbond.Weighted>
-0.0000

> <Gold.Chemscore.Metal.Weighted>
-0.0000

> <Gold.Chemscore.Lipo.Weighted>
-16.8081

> <Gold.Chemscore.Internal_Hbond.Weighted>
0.0000

> <Gold.Chemscore.DEClash.Weighted>
0.0738

> <Gold.Chemscore.DEInternal.Weighted>
1.1573

> <Gold.Chemscore.Rot.Weighted>
3.4919

> <Gold.Chemscore.Internal.Correction.Weighted>
   9.000000E+99

> <Gold.Protein.RotatedTorsions>
[ 6907 6896 6895 6894 ] final   29.30 input  -60.11 | X-H torsion
[ 7974 7965 7964 7962 ] final -159.02 input  175.53 | X-H torsion
[ 8008 7997 7996 7995 ] final  -79.97 input   59.86 | X-H torsion
[ 10167 10162 10161 10158 ] final  130.89 input  -65.29 | X-H torsion
[ 10718 10713 10712 10709 ] final   40.67 input   66.30 | X-H torsion
[ 10763 10752 10751 10750 ] final  -39.50 input  -60.55 | X-H torsion
[ 11005 11000 10999 10996 ] final   93.17 input  -57.11 | X-H torsion

> <Gold.Protein.ActiveResidues>
 VAL166  LYS551  ARG553  GLY616  TRP617  ASP618  TYR619  PRO620  LYS621  CYS622 
 ASP623  PHE694  ASN695  SER759  ASP760  ASP761  ALA762  ILE779  LEU786  VAL792 
 PHE793  MET794  SER795  GLU796  ALA797  LYS798  CYS799  TRP800  GLU811  SER814 

> <Gold.Protein.RotatedAtoms>
  152.0296  134.9776  160.0572 H   0  0  0  0  0  0  0  0  0  0  0  0  # atno 6907 bound_to 6896
  152.1258  133.4374  159.4705 H   0  0  0  0  0  0  0  0  0  0  0  0  # atno 6908 bound_to 6896
  150.6852  134.2399  159.4511 H   0  0  0  0  0  0  0  0  0  0  0  0  # atno 6909 bound_to 6896
  144.7482  140.3745  143.6069 H   0  0  0  0  0  0  0  0  0  0  0  0  # atno 7974 bound_to 7965
  154.5837  140.0670  156.9141 H   0  0  0  0  0  0  0  0  0  0  0  0  # atno 8008 bound_to 7997
  155.2416  140.3345  155.4273 H   0  0  0  0  0  0  0  0  0  0  0  0  # atno 8009 bound_to 7997
  156.2208  140.1798  156.7466 H   0  0  0  0  0  0  0  0  0  0  0  0  # atno 8010 bound_to 7997
  139.5409  144.6729  151.4629 H   0  0  0  0  0  0  0  0  0  0  0  0  # atno 10167 bound_to 10162
  157.3848  130.7773  149.7222 H   0  0  0  0  0  0  0  0  0  0  0  0  # atno 10718 bound_to 10713
  153.9304  135.6772  153.4745 H   0  0  0  0  0  0  0  0  0  0  0  0  # atno 10763 bound_to 10752
  153.0982  135.4841  154.8815 H   0  0  0  0  0  0  0  0  0  0  0  0  # atno 10764 bound_to 10752
  154.7431  135.3165  154.8651 H   0  0  0  0  0  0  0  0  0  0  0  0  # atno 10765 bound_to 10752
  139.8813  134.8774  156.3679 H   0  0  0  0  0  0  0  0  0  0  0  0  # atno 11005 bound_to 11000
  145.7043  139.1669  143.2575 LP  0  0  0  0  0  0  0  0  0  0  0  0  # atno 17320 bound_to 7965
  146.1393  140.7080  142.9375 LP  0  0  0  0  0  0  0  0  0  0  0  0  # atno 17321 bound_to 7965
  140.6638  143.8442  150.6918 LP  0  0  0  0  0  0  0  0  0  0  0  0  # atno 17342 bound_to 10162
  140.1845  143.4087  152.1909 LP  0  0  0  0  0  0  0  0  0  0  0  0  # atno 17343 bound_to 10162
  155.9784  130.4052  150.3651 LP  0  0  0  0  0  0  0  0  0  0  0  0  # atno 17370 bound_to 10713
  157.1759  131.0380  151.2772 LP  0  0  0  0  0  0  0  0  0  0  0  0  # atno 17371 bound_to 10713
  140.9485  133.7467  156.0240 LP  0  0  0  0  0  0  0  0  0  0  0  0  # atno 17394 bound_to 11000
  140.8135  134.3372  157.5404 LP  0  0  0  0  0  0  0  0  0  0  0  0  # atno 17395 bound_to 11000

$$$$
