AV-unprocessed.smi:646|AV-procd|sdf|3167|dock6
  -GOLD-   22720 0 93D 1   1.00000     0.00000
 Structure written by MMmdl.
 44 45  0  0  0  0  0  0  0  0  1 V2000
  142.4675  135.0322  152.7229 C   0  0  0  0  0  0  0  0  0  0  0  0
  143.4899  134.1001  152.3926 O   0  0  0  0  0  0  0  0  0  0  0  0
  144.6122  134.5890  151.6450 C   0  0  1  0  0  0  0  0  0  0  0  0
  144.1477  135.2010  150.3177 C   0  0  0  0  0  0  0  0  0  0  0  0
  145.5551  135.3951  152.5593 C   0  0  0  0  0  0  0  0  0  0  0  0
  146.1615  134.0602  152.9863 C   0  0  2  0  0  0  0  0  0  0  0  0
  147.6059  134.1314  153.1690 N   0  0  0  0  0  0  0  0  0  0  0  0
  148.2846  133.4600  154.1108 C   0  0  0  0  0  0  0  0  0  0  0  0
  147.7449  132.7759  154.9799 O   0  0  0  0  0  0  0  0  0  0  0  0
  149.8084  133.5486  154.0413 C   0  0  0  0  0  0  0  0  0  0  0  0
  150.4009  132.9736  155.3034 C   0  0  0  0  0  0  0  0  0  0  0  0
  150.5647  131.6013  155.6499 C   0  0  0  0  0  0  0  0  0  0  0  0
  150.1927  130.3851  154.8515 C   0  0  0  0  0  0  0  0  0  0  0  0
  151.1405  131.4556  156.8314 N   0  0  0  0  0  0  0  0  0  0  0  0
  151.3763  132.7496  157.3052 O   0  0  0  0  0  0  0  0  0  0  0  0
  150.9310  133.6344  156.3773 C   0  0  0  0  0  0  0  0  0  0  0  0
  151.1066  135.0810  156.6930 C   0  0  0  0  0  0  0  0  0  0  0  0
  145.7110  133.4763  151.6218 C   0  0  0  0  0  0  0  0  0  0  0  0
  145.2199  132.0247  151.6444 C   0  0  0  0  0  0  0  0  0  0  0  0
  146.7267  133.5542  150.4648 C   0  0  0  0  0  0  0  0  0  0  0  0
  141.7600  134.5561  153.4016 H   0  0  0  0  0  0  0  0  0  0  0  0
  141.9063  135.3443  151.8424 H   0  0  0  0  0  0  0  0  0  0  0  0
  142.8573  135.9185  153.2221 H   0  0  0  0  0  0  0  0  0  0  0  0
  144.9885  135.4803  149.6836 H   0  0  0  0  0  0  0  0  0  0  0  0
  143.5691  136.1120  150.4689 H   0  0  0  0  0  0  0  0  0  0  0  0
  143.5313  134.5010  149.7533 H   0  0  0  0  0  0  0  0  0  0  0  0
  146.2454  136.0303  152.0010 H   0  0  0  0  0  0  0  0  0  0  0  0
  145.0827  135.9505  153.3686 H   0  0  0  0  0  0  0  0  0  0  0  0
  145.6266  133.6265  153.8346 H   0  0  0  0  0  0  0  0  0  0  0  0
  148.1290  134.6718  152.4957 H   0  0  0  0  0  0  0  0  0  0  0  0
  150.1539  133.0167  153.1541 H   0  0  0  0  0  0  0  0  0  0  0  0
  150.1029  134.5898  153.9054 H   0  0  0  0  0  0  0  0  0  0  0  0
  149.2573  130.5399  154.3134 H   0  0  0  0  0  0  0  0  0  0  0  0
  150.0655  129.5089  155.4881 H   0  0  0  0  0  0  0  0  0  0  0  0
  150.9632  130.1544  154.1154 H   0  0  0  0  0  0  0  0  0  0  0  0
  151.4000  135.6382  155.8030 H   0  0  0  0  0  0  0  0  0  0  0  0
  151.8779  135.2271  157.4498 H   0  0  0  0  0  0  0  0  0  0  0  0
  150.1772  135.5083  157.0693 H   0  0  0  0  0  0  0  0  0  0  0  0
  146.0509  131.3202  151.6972 H   0  0  0  0  0  0  0  0  0  0  0  0
  144.6409  131.7868  150.7517 H   0  0  0  0  0  0  0  0  0  0  0  0
  144.5853  131.8218  152.5071 H   0  0  0  0  0  0  0  0  0  0  0  0
  147.5519  132.8554  150.6046 H   0  0  0  0  0  0  0  0  0  0  0  0
  147.1663  134.5470  150.3670 H   0  0  0  0  0  0  0  0  0  0  0  0
  146.2622  133.3124  149.5084 H   0  0  0  0  0  0  0  0  0  0  0  0
  1  2  1  0  0  0  0
  1 21  1  0  0  0  0
  1 22  1  0  0  0  0
  1 23  1  0  0  0  0
  2  3  1  0  0  0  0
  3 18  1  0  0  0  0
  3  4  1  0  0  0  0
  3  5  1  0  0  0  0
  4 24  1  0  0  0  0
  4 25  1  0  0  0  0
  4 26  1  0  0  0  0
  5  6  1  0  0  0  0
  5 27  1  0  0  0  0
  5 28  1  0  0  0  0
  6  7  1  0  0  0  0
  6 18  1  0  0  0  0
  6 29  1  0  0  0  0
  7  8  1  0  0  0  0
  7 30  1  0  0  0  0
  8  9  2  0  0  0  0
  8 10  1  0  0  0  0
 10 11  1  0  0  0  0
 10 31  1  0  0  0  0
 10 32  1  0  0  0  0
 11 16  2  0  0  0  0
 11 12  1  0  0  0  0
 12 13  1  0  0  0  0
 12 14  2  0  0  0  0
 13 33  1  0  0  0  0
 13 34  1  0  0  0  0
 13 35  1  0  0  0  0
 14 15  1  0  0  0  0
 15 16  1  0  0  0  0
 16 17  1  0  0  0  0
 17 36  1  0  0  0  0
 17 37  1  0  0  0  0
 17 38  1  0  0  0  0
 18 19  1  0  0  0  0
 18 20  1  0  0  0  0
 19 39  1  0  0  0  0
 19 40  1  0  0  0  0
 19 41  1  0  0  0  0
 20 42  1  0  0  0  0
 20 43  1  0  0  0  0
 20 44  1  0  0  0  0
M  END
> <s_m_source_file>
AV-unprocessed.smi

> <i_m_source_file_index>
646

> <i_lp_mmshare_version>
43012

> <i_f3d_flags>
0

> <s_epik_input>
W0NIM11PW0NAQF0xKFtDSDNdKVtDSDJdW0NASF0oQzEoW0NIM10pW0NIM10pW05IXUMoPU8pW0NIMl1jMmMoW0NIM10pbm9jMltDSDNd

> <s_epik_cmdline>
J2VwaWtfcHl0aG9uJywgJy1waCcsICc3LjAnLCAnLXRuJywgJzgnLCAnLW1hJywgJzIwMCcsICctbWV0YWxfYmluZGluZycsICctaW1hZScsICc8aW5maWxlLm1hZT4nLCAnLW9tYWUnLCAnPG91dGZpbGUubWFlPic=

> <r_lp_tautomer_probability>
1

> <r_epik_Ionization_Penalty>
2.13169e-08

> <r_epik_Ionization_Penalty_Charging>
0

> <r_epik_Ionization_Penalty_Neutral>
2.13169e-08

> <r_epik_State_Penalty>
-0

> <r_epik_Charging_Adjusted_Penalty>
0

> <i_epik_Tot_Q>
0

> <i_epik_Tot_abs_Q>
0

> <r_epik_Metal_State_Penalty>
-0

> <b_epik_Metal_Only>
0

> <s_lp_Force_Field>
OPLS_2005

> <r_lp_Energy>
15.7725

> <b_lp_Chiralities_Consistent>
1

> <s_lp_Variant>
AV-unprocessed.smi:646-3

> <Gold.Version>
5.8.1

> <Gold.Id.Protein>
6NUR|6NUR_protein|mol2

> <Gold.PLP.Fitness>
34.8482

> <Gold.PLP.PLP>
-29.8180

> <Gold.PLP.part.hbond>
-2.0000

> <Gold.PLP.part.metal>
0.0000

> <Gold.PLP.part.buried>
-5.6583

> <Gold.PLP.part.nonpolar>
-22.8878

> <Gold.PLP.part.repulsive>
0.1621

> <Gold.PLP.ligand.clash>
0.0000

> <Gold.PLP.ligand.torsion>
0.6166

> <Gold.PLP.Chemscore.Hbond>
1.9600

> <Gold.PLP.Chemscore.CHOScore>
0.0000

> <Gold.PLP.Chemscore.Metal>
0.0000

> <Gold.Chemscore.Hbonds>
donor molecule, donor type, donor heavy atom, donor atom, acceptor molecule, acceptor atom, score
      L1  H     7    30       P1  7948  1.00
      P1  H  6896  6907       L1    15  0.96

> <Gold.PLP.Chemscore.Internal.Correction>
0.3835

> <Gold.Rescore>
     Score         DG    S(hbond)    S(metal)    S(lipo)     H(rot)  DE(clash)    DE(int)     intcor
     15.03     -15.98       1.83        0.00      70.03       1.49       0.05       0.90       ----

> <Gold.Chemscore.Fitness>
15.0330

> <Gold.Chemscore.DG>
-15.9804

> <Gold.Chemscore.ZeroCoef>
-5.4800

> <Gold.Chemscore.Hbond>
1.8348

> <Gold.Chemscore.Metal>
0.0000

> <Gold.Chemscore.Lipo>
70.0339

> <Gold.Chemscore.Internal_Hbond>
0.0000

> <Gold.Chemscore.DEClash>
0.0465

> <Gold.Chemscore.DEInternal>
0.9008

> <Gold.Chemscore.Rot>
1.4928

> <Gold.Chemscore.Internal.Correction>
   9.000000E+99

> <Gold.Chemscore.Hbonds>
donor molecule, donor type, donor heavy atom, donor atom, acceptor molecule, acceptor atom, score
      L1  H     7    30       P1  7948  0.44
      P1  H  6896  6907       L1    15  0.85

> <Gold.Chemscore.Hbond.Weighted>
-6.1281

> <Gold.Chemscore.Metal.Weighted>
-0.0000

> <Gold.Chemscore.Lipo.Weighted>
-8.1940

> <Gold.Chemscore.Internal_Hbond.Weighted>
0.0000

> <Gold.Chemscore.DEClash.Weighted>
0.0465

> <Gold.Chemscore.DEInternal.Weighted>
0.9008

> <Gold.Chemscore.Rot.Weighted>
3.8217

> <Gold.Chemscore.Internal.Correction.Weighted>
   9.000000E+99

> <Gold.Protein.RotatedTorsions>
[ 6907 6896 6895 6894 ] final -171.88 input  -60.11 | X-H torsion
[ 7974 7965 7964 7962 ] final  -63.23 input  175.53 | X-H torsion
[ 8008 7997 7996 7995 ] final  161.77 input   59.86 | X-H torsion
[ 10167 10162 10161 10158 ] final -152.78 input  -65.29 | X-H torsion
[ 10718 10713 10712 10709 ] final  149.65 input   66.30 | X-H torsion
[ 10763 10752 10751 10750 ] final    8.01 input  -60.55 | X-H torsion
[ 11005 11000 10999 10996 ] final  -55.96 input  -57.11 | X-H torsion

> <Gold.Protein.ActiveResidues>
 VAL166  LYS551  ARG553  GLY616  TRP617  ASP618  TYR619  PRO620  LYS621  CYS622 
 ASP623  PHE694  ASN695  SER759  ASP760  ASP761  ALA762  ILE779  LEU786  VAL792 
 PHE793  MET794  SER795  GLU796  ALA797  LYS798  CYS799  TRP800  GLU811  SER814 

> <Gold.Protein.RotatedAtoms>
  151.5310  133.3449  159.2917 H   0  0  0  0  0  0  0  0  0  0  0  0  # atno 6907 bound_to 6896
  150.8593  134.7943  159.7081 H   0  0  0  0  0  0  0  0  0  0  0  0  # atno 6908 bound_to 6896
  152.4618  134.5176  159.9824 H   0  0  0  0  0  0  0  0  0  0  0  0  # atno 6909 bound_to 6896
  145.7816  140.8759  143.0327 H   0  0  0  0  0  0  0  0  0  0  0  0  # atno 7974 bound_to 7965
  156.2080  140.1768  156.7758 H   0  0  0  0  0  0  0  0  0  0  0  0  # atno 8008 bound_to 7997
  154.5681  140.0687  156.8953 H   0  0  0  0  0  0  0  0  0  0  0  0  # atno 8009 bound_to 7997
  155.2723  140.3343  155.4267 H   0  0  0  0  0  0  0  0  0  0  0  0  # atno 8010 bound_to 7997
  139.7152  143.9045  152.2483 H   0  0  0  0  0  0  0  0  0  0  0  0  # atno 10167 bound_to 10162
  157.2934  131.0857  151.1445 H   0  0  0  0  0  0  0  0  0  0  0  0  # atno 10718 bound_to 10713
  153.2299  135.6891  153.7902 H   0  0  0  0  0  0  0  0  0  0  0  0  # atno 10763 bound_to 10752
  153.7071  135.3288  155.3239 H   0  0  0  0  0  0  0  0  0  0  0  0  # atno 10764 bound_to 10752
  154.8309  135.4581  154.1180 H   0  0  0  0  0  0  0  0  0  0  0  0  # atno 10765 bound_to 10752
  141.1098  133.6611  156.4547 H   0  0  0  0  0  0  0  0  0  0  0  0  # atno 11005 bound_to 11000
  144.6795  139.9996  143.7484 LP  0  0  0  0  0  0  0  0  0  0  0  0  # atno 17320 bound_to 7965
  146.0069  139.3137  143.0894 LP  0  0  0  0  0  0  0  0  0  0  0  0  # atno 17321 bound_to 7965
  139.8925  144.6957  150.8754 LP  0  0  0  0  0  0  0  0  0  0  0  0  # atno 17342 bound_to 10162
  140.7742  143.3575  151.1892 LP  0  0  0  0  0  0  0  0  0  0  0  0  # atno 17343 bound_to 10162
  157.2832  130.6760  149.6076 LP  0  0  0  0  0  0  0  0  0  0  0  0  # atno 17370 bound_to 10713
  155.9668  130.4443  150.5457 LP  0  0  0  0  0  0  0  0  0  0  0  0  # atno 17371 bound_to 10713
  140.4806  134.6668  157.5169 LP  0  0  0  0  0  0  0  0  0  0  0  0  # atno 17394 bound_to 11000
  139.9986  134.6872  155.9568 LP  0  0  0  0  0  0  0  0  0  0  0  0  # atno 17395 bound_to 11000

$$$$
