#       Name:                AV-unprocessed.smi:2749
#       Creating user name   scv26
#       Creation time:       Fri Mar 27 15:03:57 2020


#       File generated by GOLD software.
#

@<TRIPOS>MOLECULE
AV-unprocessed.smi:2749
    37    39     1
SMALL
NO_CHARGES


@<TRIPOS>ATOM
      1 ****        -2.5666  -1.6266   0.4072 O.2            1 S1                 0.0000
      2 ****        -1.3508  -1.4974   0.2743 C.2            1 S1                 0.0000
      3 ****        -0.5360  -2.5747   0.2713 N.am           1 S1                 0.0000
      4 ****        -0.8066  -3.9688   0.4053 C.ar           1 S1                 0.0000
      5 ****         0.3429  -4.7919   0.3807 C.ar           1 S1                 0.0000
      6 ****         0.2031  -6.1884   0.5000 C.ar           1 S1                 0.0000
      7 ****        -1.0872  -6.7286   0.6399 C.ar           1 S1                 0.0000
      8 ****        -1.2723  -8.0647   0.7576 F              1 S1                 0.0000
      9 ****        -2.1808  -5.8442   0.6532 C.ar           1 S1                 0.0000
     10 ****        -2.0467  -4.5057   0.5392 N.ar           1 S1                 0.0000
     11 ****        -0.7569  -0.3029   0.1218 N.am           1 S1                 0.0000
     12 ****        -1.4233   0.9958   0.0947 C.3            1 S1                 0.0000
     13 ****        -0.9537   1.9014   1.2379 C.3            1 S1                 0.0000
     14 ****        -0.3857   3.1051   0.4738 C.3            1 S1                 0.0000
     15 ****        -1.4872   3.9301  -0.2079 C.3            1 S1                 0.0000
     16 ****        -1.8946   3.0167  -1.3645 C.3            1 S1                 0.0000
     17 ****        -0.9827   1.8038  -1.1377 C.3            1 S1                 0.0000
     18 ****         0.1806   2.4499  -0.6466 O.3            1 S1                 0.0000
     19 ****         0.4395  -2.3543   0.1327 H              1 S1                 0.0000
     20 ****         1.3277  -4.3607   0.2716 H              1 S1                 0.0000
     21 ****         1.0703  -6.8318   0.4838 H              1 S1                 0.0000
     22 ****        -3.1886  -6.2187   0.7572 H              1 S1                 0.0000
     23 ****         0.2483  -0.2941   0.0181 H              1 S1                 0.0000
     24 ****        -2.5089   0.8836   0.1041 H              1 S1                 0.0000
     25 ****        -1.7634   2.1826   1.9120 H              1 S1                 0.0000
     26 ****        -0.1712   1.4265   1.8319 H              1 S1                 0.0000
     27 ****         0.3216   3.7016   1.0506 H              1 S1                 0.0000
     28 ****        -2.3140   4.1546   0.4668 H              1 S1                 0.0000
     29 ****        -1.0897   4.8721  -0.5872 H              1 S1                 0.0000
     30 ****        -2.9531   2.7547  -1.3480 H              1 S1                 0.0000
     31 ****        -1.6752   3.4918  -2.3214 H              1 S1                 0.0000
     32 ****        -0.8221   1.2053  -2.0353 H              1 S1                 0.0000
     33 ****        -2.9637  -2.5380   0.5148 LP             1 S1                 0.0000
     34 ****        -3.1580  -0.8202   0.4075 LP             1 S1                 0.0000
     35 ****        -2.8533  -3.9148   0.5533 LP             1 S1                 0.0000
     36 ****         0.8885   1.7958  -0.3802 LP             1 S1                 0.0000
     37 ****         0.5575   3.0977  -1.3088 LP             1 S1                 0.0000
@<TRIPOS>BOND
    1    1    2 2     
    2    2    3 am    
    3    2   11 am    
    4    3    4 1     
    5    3   19 1     
    6    4   10 ar    
    7    4    5 ar    
    8    5    6 ar    
    9    5   20 1     
   10    6    7 ar    
   11    6   21 1     
   12    7    8 1     
   13    7    9 ar    
   14    9   10 ar    
   15    9   22 1     
   16   11   12 1     
   17   11   23 1     
   18   12   17 1     
   19   12   13 1     
   20   12   24 1     
   21   13   14 1     
   22   13   25 1     
   23   13   26 1     
   24   14   18 1     
   25   14   15 1     
   26   14   27 1     
   27   15   16 1     
   28   15   28 1     
   29   15   29 1     
   30   16   17 1     
   31   16   30 1     
   32   16   31 1     
   33   17   18 1     
   34   17   32 1     
   35    1   33 1     
   36    1   34 1     
   37   10   35 1     
   38   18   36 1     
   39   18   37 1     
@<TRIPOS>SUBSTRUCTURE
      1 S1             1
@<TRIPOS>SET
LONE_PAIRS      STATIC     ATOMS    <user>   **** ""
5 33 34 35 36 37
DONOR_HYDROGENS      STATIC     ATOMS    <user>   **** ""
2 19 23
ATOM$BLUE        STATIC     ATOMS    COLORGROUP SYSTEM
5 33 34 35 36 37
ATOM$RED        STATIC     ATOMS    COLORGROUP SYSTEM
2 19 23
