#       Name:                AV-unprocessed.smi:2776
#       Creating user name   scv26
#       Creation time:       Fri Mar 27 15:14:18 2020


#       File generated by GOLD software.
#

@<TRIPOS>MOLECULE
AV-unprocessed.smi:2776
    28    29     1
SMALL
NO_CHARGES


@<TRIPOS>ATOM
      1 ****        -2.1085  -0.1715  -0.8049 O.3            1 S1                 0.0000
      2 ****        -1.5529  -1.4665  -0.9338 C.3            1 S1                 0.0000
      3 ****        -0.0125  -1.3840  -0.9063 C.3            1 S1                 0.0000
      4 ****         0.5050  -0.7880   0.3342 N.pl3          1 S1                 0.0000
      5 ****         0.7843  -1.3763   1.5290 C.2            1 S1                 0.0000
      6 ****         1.2402  -0.4064   2.3692 N.pl3          1 S1                 1.0000
      7 ****         1.2513   0.8207   1.7024 C.ar           1 S1                 0.0000
      8 ****         1.6270   2.0887   2.1342 C.ar           1 S1                 0.0000
      9 ****         1.5141   3.1379   1.1984 C.ar           1 S1                 0.0000
     10 ****         1.8658   4.3924   1.5671 F              1 S1                 0.0000
     11 ****         1.0417   2.9057  -0.1108 C.ar           1 S1                 0.0000
     12 ****         0.9462   3.9415  -0.9776 F              1 S1                 0.0000
     13 ****         0.6651   1.6150  -0.5372 C.ar           1 S1                 0.0000
     14 ****         0.7804   0.5835   0.3939 C.ar           1 S1                 0.0000
     15 ****        -2.0951  -2.1220  -2.2185 C.3            1 S1                 0.0000
     16 ****        -3.4262  -2.1815  -2.1730 F              1 S1                 0.0000
     17 ****        -1.7146  -1.4400  -3.2994 F              1 S1                 0.0000
     18 ****        -1.6292  -3.3672  -2.3126 F              1 S1                 0.0000
     19 ****        -3.0507  -0.2477  -0.8280 H              1 S1                 0.0000
     20 ****        -1.8894  -2.0503  -0.0759 H              1 S1                 0.0000
     21 ****         0.4146  -2.3845  -0.9814 H              1 S1                 0.0000
     22 ****         0.3710  -0.8256  -1.7604 H              1 S1                 0.0000
     23 ****         0.6652  -2.4235   1.7677 H              1 S1                 0.0000
     24 ****         1.9876   2.2712   3.1357 H              1 S1                 0.0000
     25 ****         0.2996   1.4511  -1.5400 H              1 S1                 0.0000
     26 ****         1.5212  -0.5728   3.3273 H              1 S1                 0.0000
     27 ****        -1.7977   0.4061  -1.5597 LP             1 S1                 0.0000
     28 ****        -1.8236   0.2334   0.0639 LP             1 S1                 0.0000
@<TRIPOS>BOND
    1    1    2 1     
    2    1   19 1     
    3    2    3 1     
    4    2   15 1     
    5    2   20 1     
    6    3    4 1     
    7    3   21 1     
    8    3   22 1     
    9    4   14 1     
   10    4    5 1     
   11    5    6 2     
   12    5   23 1     
   13    6    7 1     
   14    6   26 1     
   15    7   14 ar    
   16    7    8 ar    
   17    8    9 ar    
   18    8   24 1     
   19    9   10 1     
   20    9   11 ar    
   21   11   12 1     
   22   11   13 ar    
   23   13   14 ar    
   24   13   25 1     
   25   15   16 1     
   26   15   17 1     
   27   15   18 1     
   28    1   27 1     
   29    1   28 1     
@<TRIPOS>SUBSTRUCTURE
      1 S1             1
@<TRIPOS>SET
LONE_PAIRS      STATIC     ATOMS    <user>   **** ""
2 27 28
DONOR_HYDROGENS      STATIC     ATOMS    <user>   **** ""
2 19 26
ATOM$BLUE        STATIC     ATOMS    COLORGROUP SYSTEM
2 27 28
ATOM$RED        STATIC     ATOMS    COLORGROUP SYSTEM
2 19 26
