AV-unprocessed.smi:535|AV-procd|sdf|2859|dock7
  -GOLD-   2262023353D 1   1.00000     0.00000
 Structure written by MMmdl.
 46 48  0  0  0  0  0  0  0  0  1 V2000
  147.9087  141.2557  153.9066 C   0  0  0  0  0  0  0  0  0  0  0  0
  149.2318  141.6299  154.2485 O   0  0  0  0  0  0  0  0  0  0  0  0
  149.4590  141.6061  155.6470 C   0  0  0  0  0  0  0  0  0  0  0  0
  150.9061  142.0499  155.9179 C   0  0  0  0  0  0  0  0  0  0  0  0
  151.6293  141.1063  156.7653 N   0  0  0  0  0  0  0  0  0  0  0  0
  152.2441  141.3072  157.9687 C   0  0  0  0  0  0  0  0  0  0  0  0
  152.3028  142.5490  158.6182 N   0  0  0  0  0  0  0  0  0  0  0  0
  151.8992  143.8585  158.0994 C   0  0  0  0  0  0  0  0  0  0  0  0
  150.9597  144.5986  159.0683 C   0  0  0  0  0  0  0  0  0  0  0  0
  151.6317  144.7781  160.4346 C   0  0  0  0  0  0  0  0  0  0  0  0
  152.1503  143.4252  160.9487 C   0  0  2  0  0  0  0  0  0  0  0  0
  152.9047  143.5785  162.2763 C   0  0  0  0  0  0  0  0  0  0  0  0
  153.0307  142.7567  159.8732 C   0  0  0  0  0  0  0  0  0  0  0  0
  152.7633  140.1976  158.5058 N   0  0  0  0  0  0  0  0  0  0  0  0
  152.4730  139.2165  157.5736 C   0  0  0  0  0  0  0  0  0  0  0  0
  151.7852  139.7379  156.5278 C   0  0  0  0  0  0  0  0  0  0  0  0
  151.3139  138.9095  155.4081 C   0  0  0  0  0  0  0  0  0  0  0  0
  150.6748  139.3528  154.4565 O   0  0  0  0  0  0  0  0  0  0  0  0
  151.6494  137.6027  155.5340 N   0  0  0  0  0  0  0  0  0  0  0  0
  152.3429  137.0171  156.5568 C   0  0  0  0  0  0  0  0  0  0  0  0
  152.5683  135.8072  156.5341 O   0  0  0  0  0  0  0  0  0  0  0  0
  152.7623  137.8222  157.5845 N   0  0  0  0  0  0  0  0  0  0  0  0
  153.5052  137.2482  158.7080 C   0  0  0  0  0  0  0  0  0  0  0  0
  151.3492  136.9902  154.7897 H   0  0  0  0  0  0  0  0  0  0  0  0
  147.7832  141.3006  152.8249 H   0  0  0  0  0  0  0  0  0  0  0  0
  147.1788  141.9284  154.3585 H   0  0  0  0  0  0  0  0  0  0  0  0
  147.6924  140.2361  154.2283 H   0  0  0  0  0  0  0  0  0  0  0  0
  148.7539  142.2707  156.1465 H   0  0  0  0  0  0  0  0  0  0  0  0
  149.2779  140.6047  156.0373 H   0  0  0  0  0  0  0  0  0  0  0  0
  151.4473  142.1991  154.9872 H   0  0  0  0  0  0  0  0  0  0  0  0
  150.9123  143.0260  156.4024 H   0  0  0  0  0  0  0  0  0  0  0  0
  152.7961  144.4568  157.9332 H   0  0  0  0  0  0  0  0  0  0  0  0
  151.4329  143.7658  157.1239 H   0  0  0  0  0  0  0  0  0  0  0  0
  150.6887  145.5708  158.6562 H   0  0  0  0  0  0  0  0  0  0  0  0
  150.0297  144.0430  159.1888 H   0  0  0  0  0  0  0  0  0  0  0  0
  152.4606  145.4812  160.3413 H   0  0  0  0  0  0  0  0  0  0  0  0
  150.9286  145.2146  161.1446 H   0  0  0  0  0  0  0  0  0  0  0  0
  151.2907  142.7780  161.1304 H   0  0  0  0  0  0  0  0  0  0  0  0
  153.7845  144.2124  162.1617 H   0  0  0  0  0  0  0  0  0  0  0  0
  153.2387  142.6103  162.6508 H   0  0  0  0  0  0  0  0  0  0  0  0
  152.2683  144.0254  163.0405 H   0  0  0  0  0  0  0  0  0  0  0  0
  153.3891  141.8000  160.2544 H   0  0  0  0  0  0  0  0  0  0  0  0
  153.9188  143.3595  159.6785 H   0  0  0  0  0  0  0  0  0  0  0  0
  154.3897  136.7170  158.3543 H   0  0  0  0  0  0  0  0  0  0  0  0
  152.8797  136.5424  159.2556 H   0  0  0  0  0  0  0  0  0  0  0  0
  153.8450  138.0039  159.4157 H   0  0  0  0  0  0  0  0  0  0  0  0
  1  2  1  0  0  0  0
  1 25  1  0  0  0  0
  1 26  1  0  0  0  0
  1 27  1  0  0  0  0
  2  3  1  0  0  0  0
  3  4  1  0  0  0  0
  3 28  1  0  0  0  0
  3 29  1  0  0  0  0
  4  5  1  0  0  0  0
  4 30  1  0  0  0  0
  4 31  1  0  0  0  0
  5 16  1  0  0  0  0
  5  6  1  0  0  0  0
  6  7  1  0  0  0  0
  6 14  2  0  0  0  0
  7 13  1  0  0  0  0
  7  8  1  0  0  0  0
  8  9  1  0  0  0  0
  8 32  1  0  0  0  0
  8 33  1  0  0  0  0
  9 10  1  0  0  0  0
  9 34  1  0  0  0  0
  9 35  1  0  0  0  0
 10 11  1  0  0  0  0
 10 36  1  0  0  0  0
 10 37  1  0  0  0  0
 11 12  1  0  0  0  0
 11 13  1  0  0  0  0
 11 38  1  0  0  0  0
 12 39  1  0  0  0  0
 12 40  1  0  0  0  0
 12 41  1  0  0  0  0
 13 42  1  0  0  0  0
 13 43  1  0  0  0  0
 14 15  1  0  0  0  0
 15 22  1  0  0  0  0
 15 16  2  0  0  0  0
 16 17  1  0  0  0  0
 17 18  2  0  0  0  0
 17 19  1  0  0  0  0
 19 24  1  0  0  0  0
 19 20  1  0  0  0  0
 20 21  2  0  0  0  0
 20 22  1  0  0  0  0
 22 23  1  0  0  0  0
 23 44  1  0  0  0  0
 23 45  1  0  0  0  0
 23 46  1  0  0  0  0
M  END
> <s_m_source_file>
AV-unprocessed.smi

> <i_m_source_file_index>
535

> <i_lp_mmshare_version>
43012

> <i_f3d_flags>
0

> <s_epik_input>
W0NIM11uMWMoPU8pW25IXWMoPU8pYyhjMTIpbihbQ0gyXVtDSDJdT1tDSDNdKWMobjIpTjNbQ0gyXVtDSDJdW0NIMl1bQ0BASF0oW0NIM10pW0NIMl0z

> <s_epik_cmdline>
J2VwaWtfcHl0aG9uJywgJy1waCcsICc3LjAnLCAnLXRuJywgJzgnLCAnLW1hJywgJzIwMCcsICctbWV0YWxfYmluZGluZycsICctaW1hZScsICc8aW5maWxlLm1hZT4nLCAnLW9tYWUnLCAnPG91dGZpbGUubWFlPic=

> <r_lp_tautomer_probability>
1

> <r_epik_Ionization_Penalty>
0.00042181

> <r_epik_Ionization_Penalty_Charging>
0.000122112

> <r_epik_Ionization_Penalty_Neutral>
0.000299698

> <r_epik_State_Penalty>
-0

> <r_epik_Charging_Adjusted_Penalty>
0.000122112

> <i_epik_Tot_Q>
0

> <i_epik_Tot_abs_Q>
0

> <r_epik_Metal_State_Penalty>
0.0934894

> <b_epik_Metal_Only>
0

> <s_lp_Force_Field>
OPLS_2005

> <r_lp_Energy>
38.1768

> <b_lp_Chiralities_Consistent>
1

> <s_lp_Variant>
AV-unprocessed.smi:535-2

> <Gold.Version>
5.8.1

> <Gold.Id.Protein>
6NUR|6NUR_protein|mol2

> <Gold.PLP.Fitness>
52.0828

> <Gold.PLP.PLP>
-45.6124

> <Gold.PLP.part.hbond>
-4.0000

> <Gold.PLP.part.metal>
0.0000

> <Gold.PLP.part.buried>
-5.8700

> <Gold.PLP.part.nonpolar>
-34.2734

> <Gold.PLP.part.repulsive>
0.4246

> <Gold.PLP.ligand.clash>
0.0000

> <Gold.PLP.ligand.torsion>
0.3927

> <Gold.PLP.Chemscore.Hbond>
2.4027

> <Gold.PLP.Chemscore.CHOScore>
0.0000

> <Gold.PLP.Chemscore.Metal>
0.0000

> <Gold.Chemscore.Hbonds>
donor molecule, donor type, donor heavy atom, donor atom, acceptor molecule, acceptor atom, score
      P1  H  7989  7998       L1    18  1.00
      P1  H  8011  8017       L1     2  0.37
      P1  H 10752 10763       L1    21  1.00

> <Gold.PLP.Chemscore.Internal.Correction>
0.0477

> <Gold.Rescore>
     Score         DG    S(hbond)    S(metal)    S(lipo)     H(rot)  DE(clash)    DE(int)     intcor
     16.41     -19.18       1.76        0.00      98.63       1.46       0.28       2.49       ----

> <Gold.Chemscore.Fitness>
16.4107

> <Gold.Chemscore.DG>
-19.1840

> <Gold.Chemscore.ZeroCoef>
-5.4800

> <Gold.Chemscore.Hbond>
1.7639

> <Gold.Chemscore.Metal>
0.0000

> <Gold.Chemscore.Lipo>
98.6271

> <Gold.Chemscore.Internal_Hbond>
0.0000

> <Gold.Chemscore.DEClash>
0.2784

> <Gold.Chemscore.DEInternal>
2.4949

> <Gold.Chemscore.Rot>
1.4557

> <Gold.Chemscore.Internal.Correction>
   9.000000E+99

> <Gold.Chemscore.Hbonds>
donor molecule, donor type, donor heavy atom, donor atom, acceptor molecule, acceptor atom, score
      P1  H  7989  7998       L1    18  0.80
      P1  H  8011  8017       L1     2  0.07
      P1  H 10752 10763       L1    21  0.86

> <Gold.Chemscore.Hbond.Weighted>
-5.8914

> <Gold.Chemscore.Metal.Weighted>
-0.0000

> <Gold.Chemscore.Lipo.Weighted>
-11.5394

> <Gold.Chemscore.Internal_Hbond.Weighted>
0.0000

> <Gold.Chemscore.DEClash.Weighted>
0.2784

> <Gold.Chemscore.DEInternal.Weighted>
2.4949

> <Gold.Chemscore.Rot.Weighted>
3.7267

> <Gold.Chemscore.Internal.Correction.Weighted>
   9.000000E+99

> <Gold.Protein.RotatedTorsions>
[ 6907 6896 6895 6894 ] final   59.85 input  -60.11 | X-H torsion
[ 7974 7965 7964 7962 ] final  -94.22 input  175.53 | X-H torsion
[ 8008 7997 7996 7995 ] final  141.72 input   59.86 | X-H torsion
[ 10167 10162 10161 10158 ] final  172.60 input  -65.29 | X-H torsion
[ 10718 10713 10712 10709 ] final   32.71 input   66.30 | X-H torsion
[ 10763 10752 10751 10750 ] final  122.24 input  -60.55 | X-H torsion
[ 11005 11000 10999 10996 ] final  144.40 input  -57.11 | X-H torsion

> <Gold.Protein.ActiveResidues>
 VAL166  LYS551  ARG553  GLY616  TRP617  ASP618  TYR619  PRO620  LYS621  CYS622 
 ASP623  PHE694  ASN695  SER759  ASP760  ASP761  ALA762  ILE779  LEU786  VAL792 
 PHE793  MET794  SER795  GLU796  ALA797  LYS798  CYS799  TRP800  GLU811  SER814 

> <Gold.Protein.RotatedAtoms>
  152.3951  134.6378  160.0091 H   0  0  0  0  0  0  0  0  0  0  0  0  # atno 6907 bound_to 6896
  151.6600  133.3312  159.3180 H   0  0  0  0  0  0  0  0  0  0  0  0  # atno 6908 bound_to 6896
  150.7860  134.6889  159.6530 H   0  0  0  0  0  0  0  0  0  0  0  0  # atno 6909 bound_to 6896
  145.3762  140.9512  143.2419 H   0  0  0  0  0  0  0  0  0  0  0  0  # atno 7974 bound_to 7965
  156.2961  140.2307  156.4611 H   0  0  0  0  0  0  0  0  0  0  0  0  # atno 8008 bound_to 7997
  154.8017  140.0448  157.1298 H   0  0  0  0  0  0  0  0  0  0  0  0  # atno 8009 bound_to 7997
  154.9526  140.3044  155.5071 H   0  0  0  0  0  0  0  0  0  0  0  0  # atno 8010 bound_to 7997
  139.5082  144.3355  152.0069 H   0  0  0  0  0  0  0  0  0  0  0  0  # atno 10167 bound_to 10162
  157.2887  130.7291  149.6598 H   0  0  0  0  0  0  0  0  0  0  0  0  # atno 10718 bound_to 10713
  153.6266  135.3403  155.3028 H   0  0  0  0  0  0  0  0  0  0  0  0  # atno 10763 bound_to 10752
  154.8589  135.4285  154.2150 H   0  0  0  0  0  0  0  0  0  0  0  0  # atno 10764 bound_to 10752
  153.3036  135.7026  153.7253 H   0  0  0  0  0  0  0  0  0  0  0  0  # atno 10765 bound_to 10752
  140.0629  134.9194  157.1215 H   0  0  0  0  0  0  0  0  0  0  0  0  # atno 11005 bound_to 11000
  144.8540  139.5277  143.6843 LP  0  0  0  0  0  0  0  0  0  0  0  0  # atno 17320 bound_to 7965
  146.2863  139.7013  142.9193 LP  0  0  0  0  0  0  0  0  0  0  0  0  # atno 17321 bound_to 7965
  140.2794  144.3876  150.6124 LP  0  0  0  0  0  0  0  0  0  0  0  0  # atno 17342 bound_to 10162
  140.6029  143.2167  151.7036 LP  0  0  0  0  0  0  0  0  0  0  0  0  # atno 17343 bound_to 10162
  155.9666  130.4315  150.4925 LP  0  0  0  0  0  0  0  0  0  0  0  0  # atno 17370 bound_to 10713
  157.2883  131.0621  151.2151 LP  0  0  0  0  0  0  0  0  0  0  0  0  # atno 17371 bound_to 10713
  140.3742  134.2357  155.7175 LP  0  0  0  0  0  0  0  0  0  0  0  0  # atno 17394 bound_to 11000
  141.1981  133.8044  157.0599 LP  0  0  0  0  0  0  0  0  0  0  0  0  # atno 17395 bound_to 11000

$$$$
