AV-unprocessed.smi:66|AV-procd|sdf|619|dock2
  -GOLD-   2262016513D 1   1.00000     0.00000
 Structure written by MMmdl.
 28 30  0  0  0  0  0  0  0  0  2 V2000
  153.4024  139.5254  154.4668 O   0  0  0  0  0  0  0  0  0  0  0  0
  152.4873  138.6779  154.5548 C   0  0  0  0  0  0  0  0  0  0  0  0
  152.5564  137.4915  154.1626 O   0  5  0  0  0  0  0  0  0  0  0  0
  151.1735  139.1441  155.1944 C   0  0  2  0  0  0  0  0  0  0  0  0
  150.4437  140.2060  154.3500 C   0  0  0  0  0  0  0  0  0  0  0  0
  149.7256  141.0481  155.3968 C   0  0  2  0  0  0  0  0  0  0  0  0
  149.3950  142.3384  154.9279 O   0  0  0  0  0  0  0  0  0  0  0  0
  150.7498  141.0806  156.5265 C   0  0  0  0  0  0  0  0  0  0  0  0
  151.3912  139.7676  156.5057 N   0  0  0  0  0  0  0  0  0  0  0  0
  151.1592  138.9308  157.5461 C   0  0  0  0  0  0  0  0  0  0  0  0
  149.9226  138.3937  157.7312 N   0  0  0  0  0  0  0  0  0  0  0  0
  149.7037  137.5450  158.7409 C   0  0  0  0  0  0  0  0  0  0  0  0
  150.5626  137.1012  159.6624 N   0  0  0  0  0  0  0  0  0  0  0  0
  151.8018  137.6349  159.4723 C   0  0  0  0  0  0  0  0  0  0  0  0
  152.9468  137.4174  160.2089 N   0  0  0  0  0  0  0  0  0  0  0  0
  153.9262  138.1805  159.6206 C   0  0  0  0  0  0  0  0  0  0  0  0
  153.5325  138.8707  158.5845 N   0  0  0  0  0  0  0  0  0  0  0  0
  152.1859  138.5481  158.4510 C   0  0  0  0  0  0  0  0  0  0  0  0
  152.9941  136.8050  161.0101 H   0  0  0  0  0  0  0  0  0  0  0  0
  150.5139  138.2811  155.3099 H   0  0  0  0  0  0  0  0  0  0  0  0
  151.1532  140.8262  153.7986 H   0  0  0  0  0  0  0  0  0  0  0  0
  149.7572  139.7645  153.6272 H   0  0  0  0  0  0  0  0  0  0  0  0
  148.8210  140.5360  155.7284 H   0  0  0  0  0  0  0  0  0  0  0  0
  149.2233  142.8919  155.6739 H   0  0  0  0  0  0  0  0  0  0  0  0
  151.5232  141.8224  156.3211 H   0  0  0  0  0  0  0  0  0  0  0  0
  150.2997  141.3500  157.4830 H   0  0  0  0  0  0  0  0  0  0  0  0
  148.6961  137.1647  158.8199 H   0  0  0  0  0  0  0  0  0  0  0  0
  154.9424  138.2103  159.9854 H   0  0  0  0  0  0  0  0  0  0  0  0
  1  2  2  0  0  0  0
  2  3  1  0  0  0  0
  2  4  1  0  0  0  0
  4  5  1  0  0  0  0
  4 20  1  0  0  0  0
  4  9  1  0  0  0  0
  5  6  1  0  0  0  0
  5 21  1  0  0  0  0
  5 22  1  0  0  0  0
  6  7  1  0  0  0  0
  6  8  1  0  0  0  0
  6 23  1  0  0  0  0
  7 24  1  0  0  0  0
  8 25  1  0  0  0  0
  8 26  1  0  0  0  0
  8  9  1  0  0  0  0
  9 10  1  0  0  0  0
 10 11  1  0  0  0  0
 10 18  2  0  0  0  0
 11 12  2  0  0  0  0
 12 27  1  0  0  0  0
 12 13  1  0  0  0  0
 13 14  2  0  0  0  0
 14 15  1  0  0  0  0
 14 18  1  0  0  0  0
 15 16  1  0  0  0  0
 15 19  1  0  0  0  0
 16 17  2  0  0  0  0
 16 28  1  0  0  0  0
 17 18  1  0  0  0  0
M  CHG  1   3  -1
M  END
> <s_m_source_file>
AV-unprocessed.smi

> <i_m_source_file_index>
66

> <i_lp_mmshare_version>
43012

> <i_f3d_flags>
0

> <s_epik_input>
Tz1DKFtPSF0pW0NAQEhdMVtDSDJdW0NAQEhdKFtPSF0pW0NIMl1OMWMobltjSF1uMiljKGMyMylbbkhdW2NIXW4z

> <s_epik_cmdline>
J2VwaWtfcHl0aG9uJywgJy1waCcsICc3LjAnLCAnLXRuJywgJzgnLCAnLW1hJywgJzIwMCcsICctbWV0YWxfYmluZGluZycsICctaW1hZScsICc8aW5maWxlLm1hZT4nLCAnLW9tYWUnLCAnPG91dGZpbGUubWFlPic=

> <r_lp_tautomer_probability>
0.955585

> <r_epik_Ionization_Penalty>
0.00455415

> <r_epik_Ionization_Penalty_Charging>
0.000248217

> <r_epik_Ionization_Penalty_Neutral>
0.00430593

> <r_epik_State_Penalty>
0.0207074

> <r_epik_Charging_Adjusted_Penalty>
0.0209557

> <i_epik_Tot_Q>
-1

> <i_epik_Tot_abs_Q>
1

> <r_epik_Metal_State_Penalty>
0.337372

> <b_epik_Metal_Only>
0

> <s_lp_Force_Field>
OPLS_2005

> <r_lp_Energy>
28.2566

> <b_lp_Chiralities_Consistent>
1

> <s_lp_Variant>
AV-unprocessed.smi:66-3

> <Gold.Version>
5.8.1

> <Gold.Id.Protein>
6NUR|6NUR_protein|mol2

> <Gold.PLP.Fitness>
42.3365

> <Gold.PLP.PLP>
-25.8985

> <Gold.PLP.part.hbond>
-6.5064

> <Gold.PLP.part.metal>
0.0000

> <Gold.PLP.part.buried>
0.7862

> <Gold.PLP.part.nonpolar>
-18.8361

> <Gold.PLP.part.repulsive>
0.2279

> <Gold.PLP.ligand.clash>
0.0000

> <Gold.PLP.ligand.torsion>
0.1527

> <Gold.PLP.Chemscore.Hbond>
5.5489

> <Gold.PLP.Chemscore.CHOScore>
0.0000

> <Gold.PLP.Chemscore.Metal>
0.0000

> <Gold.Chemscore.Hbonds>
donor molecule, donor type, donor heavy atom, donor atom, acceptor molecule, acceptor atom, score
      L1  H     7    24       P1  8028  0.53
      P1  H  6896  6908       L1    13  0.57
      P1  H  7989  7998       L1     1  0.01
      P1  H  7997  8008       L1     1  2.00
      P1  H  7997  8010       L1    17  0.37
      P1  H 10752 10765       L1     3  1.25

> <Gold.PLP.Chemscore.Internal.Correction>
0.0966

> <Gold.Rescore>
     Score         DG    S(hbond)    S(metal)    S(lipo)     H(rot)  DE(clash)    DE(int)     intcor
     13.49     -15.22       3.69        0.00      32.08       2.48       1.61       0.12       ----

> <Gold.Chemscore.Fitness>
13.4900

> <Gold.Chemscore.DG>
-15.2166

> <Gold.Chemscore.ZeroCoef>
-5.4800

> <Gold.Chemscore.Hbond>
3.6895

> <Gold.Chemscore.Metal>
0.0000

> <Gold.Chemscore.Lipo>
32.0758

> <Gold.Chemscore.Internal_Hbond>
0.0000

> <Gold.Chemscore.DEClash>
1.6063

> <Gold.Chemscore.DEInternal>
0.1204

> <Gold.Chemscore.Rot>
2.4762

> <Gold.Chemscore.Internal.Correction>
   9.000000E+99

> <Gold.Chemscore.Hbonds>
donor molecule, donor type, donor heavy atom, donor atom, acceptor molecule, acceptor atom, score
      L1  H     7    24       P1  8028  0.54
      P1  H  6896  6908       L1    13  0.06
      P1  H  7997  8008       L1     1  1.00
      P1  H  7997  8010       L1    17  0.34
      P1  H 10752 10765       L1     3  0.62

> <Gold.Chemscore.Hbond.Weighted>
-12.3228

> <Gold.Chemscore.Metal.Weighted>
-0.0000

> <Gold.Chemscore.Lipo.Weighted>
-3.7529

> <Gold.Chemscore.Internal_Hbond.Weighted>
0.0000

> <Gold.Chemscore.DEClash.Weighted>
1.6063

> <Gold.Chemscore.DEInternal.Weighted>
0.1204

> <Gold.Chemscore.Rot.Weighted>
6.3391

> <Gold.Chemscore.Internal.Correction.Weighted>
   9.000000E+99

> <Gold.Protein.RotatedTorsions>
[ 6907 6896 6895 6894 ] final -135.99 input  -60.11 | X-H torsion
[ 7974 7965 7964 7962 ] final  147.95 input  175.53 | X-H torsion
[ 8008 7997 7996 7995 ] final    2.15 input   59.86 | X-H torsion
[ 10167 10162 10161 10158 ] final  -27.88 input  -65.29 | X-H torsion
[ 10718 10713 10712 10709 ] final  103.94 input   66.30 | X-H torsion
[ 10763 10752 10751 10750 ] final  137.20 input  -60.55 | X-H torsion
[ 11005 11000 10999 10996 ] final  -32.46 input  -57.11 | X-H torsion

> <Gold.Protein.ActiveResidues>
 VAL166  LYS551  ARG553  GLY616  TRP617  ASP618  TYR619  PRO620  LYS621  CYS622 
 ASP623  PHE694  ASN695  SER759  ASP760  ASP761  ALA762  ILE779  LEU786  VAL792 
 PHE793  MET794  SER795  GLU796  ALA797  LYS798  CYS799  TRP800  GLU811  SER814 

> <Gold.Protein.RotatedAtoms>
  151.0046  133.6023  159.2690 H   0  0  0  0  0  0  0  0  0  0  0  0  # atno 6907 bound_to 6896
  151.3197  135.0814  159.9311 H   0  0  0  0  0  0  0  0  0  0  0  0  # atno 6908 bound_to 6896
  152.5283  133.9696  159.7810 H   0  0  0  0  0  0  0  0  0  0  0  0  # atno 6909 bound_to 6896
  144.8552  139.6092  143.5956 H   0  0  0  0  0  0  0  0  0  0  0  0  # atno 7974 bound_to 7965
  154.6882  140.2647  155.6839 H   0  0  0  0  0  0  0  0  0  0  0  0  # atno 8008 bound_to 7997
  156.2722  140.2796  156.1373 H   0  0  0  0  0  0  0  0  0  0  0  0  # atno 8009 bound_to 7997
  155.0935  140.0373  157.2665 H   0  0  0  0  0  0  0  0  0  0  0  0  # atno 8010 bound_to 7997
  140.7274  143.4056  151.1190 H   0  0  0  0  0  0  0  0  0  0  0  0  # atno 10167 bound_to 10162
  157.6756  131.0791  150.5631 H   0  0  0  0  0  0  0  0  0  0  0  0  # atno 10718 bound_to 10713
  153.8691  135.3058  155.3441 H   0  0  0  0  0  0  0  0  0  0  0  0  # atno 10763 bound_to 10752
  154.7814  135.4833  153.9855 H   0  0  0  0  0  0  0  0  0  0  0  0  # atno 10764 bound_to 10752
  153.1417  135.6825  153.9113 H   0  0  0  0  0  0  0  0  0  0  0  0  # atno 10765 bound_to 10752
  140.9554  133.7196  156.1285 H   0  0  0  0  0  0  0  0  0  0  0  0  # atno 11005 bound_to 11000
  146.2817  139.6895  142.9224 LP  0  0  0  0  0  0  0  0  0  0  0  0  # atno 17320 bound_to 7965
  145.4421  141.0423  143.2852 LP  0  0  0  0  0  0  0  0  0  0  0  0  # atno 17321 bound_to 7965
  139.7683  143.8533  152.3115 LP  0  0  0  0  0  0  0  0  0  0  0  0  # atno 17342 bound_to 10162
  139.8442  144.7195  150.9293 LP  0  0  0  0  0  0  0  0  0  0  0  0  # atno 17343 bound_to 10162
  156.5934  130.4335  149.5927 LP  0  0  0  0  0  0  0  0  0  0  0  0  # atno 17370 bound_to 10713
  156.2565  130.6937  151.1692 LP  0  0  0  0  0  0  0  0  0  0  0  0  # atno 17371 bound_to 10713
  140.7544  134.4009  157.5536 LP  0  0  0  0  0  0  0  0  0  0  0  0  # atno 17394 bound_to 11000
  139.8860  134.8920  156.2607 LP  0  0  0  0  0  0  0  0  0  0  0  0  # atno 17395 bound_to 11000

$$$$
