#       Name:                AV-unprocessed.smi:756
#       Creating user name   scv26
#       Creation time:       Fri Mar 27 01:00:57 2020


#       File generated by GOLD software.
#

@<TRIPOS>MOLECULE
AV-unprocessed.smi:756
    48    49     1
SMALL
NO_CHARGES


@<TRIPOS>ATOM
      1 ****        -4.2660  -1.4963   2.8931 C.3            1 S1                 0.0000
      2 ****        -4.5770  -0.0113   2.8273 C.2            1 S1                 0.0000
      3 ****        -5.3174   0.6690   3.7088 C.2            1 S1                 0.0000
      4 ****        -5.4286   2.3699   3.3278 S.3            1 S1                 0.0000
      5 ****        -4.3920   2.1216   1.8770 C.2            1 S1                 0.0000
      6 ****        -4.0740   3.0370   1.1196 O.2            1 S1                 0.0000
      7 ****        -4.0501   0.7722   1.7909 N.am           1 S1                 0.0000
      8 ****        -3.2166   0.2336   0.7077 C.3            1 S1                 0.0000
      9 ****        -1.7126   0.3387   0.9934 C.2            1 S1                 0.0000
     10 ****        -1.2950   0.5572   2.1315 O.2            1 S1                 0.0000
     11 ****        -0.9040   0.1616  -0.0601 N.am           1 S1                 0.0000
     12 ****         0.5526   0.2164  -0.0039 C.3            1 S1                 0.0000
     13 ****         1.2236  -0.1731  -1.3461 C.3            1 S1                 0.0000
     14 ****         0.6205  -1.4632  -1.9451 C.3            1 S1                 0.0000
     15 ****         0.9828   0.8829  -2.2586 O.3            1 S1                 0.0000
     16 ****         2.7611  -0.3227  -1.1546 C.3            1 S1                 0.0000
     17 ****         3.4883   0.9020  -0.5814 C.3            1 S1                 0.0000
     18 ****         4.9668   0.6171  -0.8428 C.3            1 S1                 0.0000
     19 ****         5.0093  -0.1893  -2.1468 C.3            1 S1                 0.0000
     20 ****         3.5726  -0.6606  -2.4189 C.3            1 S1                 0.0000
     21 ****        -4.5117  -1.8924   3.8790 H              1 S1                 0.0000
     22 ****        -3.2081  -1.6914   2.7162 H              1 S1                 0.0000
     23 ****        -4.8536  -2.0410   2.1538 H              1 S1                 0.0000
     24 ****        -5.8057   0.2638   4.5829 H              1 S1                 0.0000
     25 ****        -3.4693  -0.8048   0.4953 H              1 S1                 0.0000
     26 ****        -3.4346   0.7758  -0.2142 H              1 S1                 0.0000
     27 ****        -1.3205  -0.0090  -0.9639 H              1 S1                 0.0000
     28 ****         0.8570   1.2168   0.3082 H              1 S1                 0.0000
     29 ****         0.8865  -0.4694   0.7768 H              1 S1                 0.0000
     30 ****         0.7557  -2.3082  -1.2693 H              1 S1                 0.0000
     31 ****         1.0869  -1.7242  -2.8950 H              1 S1                 0.0000
     32 ****        -0.4476  -1.3665  -2.1420 H              1 S1                 0.0000
     33 ****         1.4099   0.6766  -3.0759 H              1 S1                 0.0000
     34 ****         2.9256  -1.1401  -0.4500 H              1 S1                 0.0000
     35 ****         3.1939   1.8088  -1.1111 H              1 S1                 0.0000
     36 ****         3.2859   1.0556   0.4790 H              1 S1                 0.0000
     37 ****         5.5608   1.5298  -0.8970 H              1 S1                 0.0000
     38 ****         5.3683   0.0121  -0.0286 H              1 S1                 0.0000
     39 ****         5.3652   0.4277  -2.9726 H              1 S1                 0.0000
     40 ****         5.6938  -1.0332  -2.0536 H              1 S1                 0.0000
     41 ****         3.5359  -1.7250  -2.6527 H              1 S1                 0.0000
     42 ****         3.1833  -0.1264  -3.2860 H              1 S1                 0.0000
     43 ****        -4.3938   3.9676   1.2981 LP             1 S1                 0.0000
     44 ****        -3.4958   2.8508   0.3254 LP             1 S1                 0.0000
     45 ****        -1.9397   0.6693   2.8878 LP             1 S1                 0.0000
     46 ****        -0.3114   0.6226   2.2992 LP             1 S1                 0.0000
     47 ****         1.3518   1.7367  -1.8913 LP             1 S1                 0.0000
     48 ****        -0.0011   0.9820  -2.4078 LP             1 S1                 0.0000
@<TRIPOS>BOND
    1    1    2 1     
    2    1   21 1     
    3    1   22 1     
    4    1   23 1     
    5    2    7 1     
    6    2    3 2     
    7    3    4 1     
    8    3   24 1     
    9    4    5 1     
   10    5    6 2     
   11    5    7 am    
   12    7    8 1     
   13    8    9 1     
   14    8   25 1     
   15    8   26 1     
   16    9   10 2     
   17    9   11 am    
   18   11   12 1     
   19   11   27 1     
   20   12   13 1     
   21   12   28 1     
   22   12   29 1     
   23   13   14 1     
   24   13   15 1     
   25   13   16 1     
   26   14   30 1     
   27   14   31 1     
   28   14   32 1     
   29   15   33 1     
   30   16   20 1     
   31   16   17 1     
   32   16   34 1     
   33   17   18 1     
   34   17   35 1     
   35   17   36 1     
   36   18   19 1     
   37   18   37 1     
   38   18   38 1     
   39   19   20 1     
   40   19   39 1     
   41   19   40 1     
   42   20   41 1     
   43   20   42 1     
   44    6   43 1     
   45    6   44 1     
   46   10   45 1     
   47   10   46 1     
   48   15   47 1     
   49   15   48 1     
@<TRIPOS>SUBSTRUCTURE
      1 S1             1
@<TRIPOS>SET
LONE_PAIRS      STATIC     ATOMS    <user>   **** ""
6 43 44 45 46 47 48
DONOR_HYDROGENS      STATIC     ATOMS    <user>   **** ""
2 27 33
ATOM$BLUE        STATIC     ATOMS    COLORGROUP SYSTEM
6 43 44 45 46 47 48
ATOM$RED        STATIC     ATOMS    COLORGROUP SYSTEM
2 27 33
