AV-unprocessed.smi:15|AV-procd|sdf|81|dock10
  -GOLD-   2262015213D 1   1.00000     0.00000
 Structure written by MMmdl.
 53 56  0  0  0  0  0  0  0  0  1 V2000
  150.1498  139.8303  154.7070 C   0  0  0  0  0  0  0  0  0  0  0  0
  149.3410  140.4115  155.8747 C   0  0  0  0  0  0  0  0  0  0  0  0
  150.0579  140.3661  157.1526 N   0  0  0  0  0  0  0  0  0  0  0  0
  151.3037  141.1230  157.3045 C   0  0  0  0  0  0  0  0  0  0  0  0
  151.2840  142.0956  158.4980 C   0  0  2  0  0  0  0  0  0  0  0  0
  151.2128  143.5624  158.0823 C   0  0  0  0  0  0  0  0  0  0  0  0
  151.7891  144.2955  159.2827 C   0  0  0  0  0  0  0  0  0  0  0  0
  152.5544  143.2104  160.0463 C   0  0  0  0  0  0  0  0  0  0  0  0
  152.5106  142.0625  159.2100 O   0  0  0  0  0  0  0  0  0  0  0  0
  150.0355  139.1844  157.8237 C   0  0  0  0  0  0  0  0  0  0  0  0
  151.2026  138.6302  158.2497 N   0  0  0  0  0  0  0  0  0  0  0  0
  151.1962  137.4859  158.9389 C   0  0  0  0  0  0  0  0  0  0  0  0
  150.1536  136.7385  159.3044 N   0  0  0  0  0  0  0  0  0  0  0  0
  148.9800  137.2807  158.8707 C   0  0  0  0  0  0  0  0  0  0  0  0
  148.8312  138.4906  158.1346 C   0  0  0  0  0  0  0  0  0  0  0  0
  147.4852  138.7208  157.8740 N   0  0  0  0  0  0  0  0  0  0  0  0
  146.8743  137.7130  158.4341 C   0  0  0  0  0  0  0  0  0  0  0  0
  147.6965  136.7926  159.0437 N   0  0  0  0  0  0  0  0  0  0  0  0
  147.2843  135.5819  159.7376 C   0  0  0  0  0  0  0  0  0  0  0  0
  146.6274  135.8283  161.1231 C   0  0  2  0  0  0  0  0  0  0  0  0
  147.2321  136.9666  161.7113 O   0  0  0  0  0  0  0  0  0  0  0  0
  146.7516  134.6533  162.0869 C   0  0  0  0  0  0  0  0  0  0  0  0
  145.5700  133.7848  161.6860 C   0  0  0  0  0  0  0  0  0  0  0  0
  144.5366  134.7232  161.4268 O   0  0  0  0  0  0  0  0  0  0  0  0
  145.0887  135.9667  160.9909 C   0  0  1  0  0  0  0  0  0  0  0  0
  144.4393  137.0629  161.8535 C   0  0  0  0  0  0  0  0  0  0  0  0
  149.6140  139.9660  153.7674 H   0  0  0  0  0  0  0  0  0  0  0  0
  150.3239  138.7613  154.8273 H   0  0  0  0  0  0  0  0  0  0  0  0
  151.1169  140.3249  154.6122 H   0  0  0  0  0  0  0  0  0  0  0  0
  149.1036  141.4489  155.6342 H   0  0  0  0  0  0  0  0  0  0  0  0
  148.3890  139.8882  155.9666 H   0  0  0  0  0  0  0  0  0  0  0  0
  152.1467  140.4387  157.3935 H   0  0  0  0  0  0  0  0  0  0  0  0
  151.4980  141.6906  156.3956 H   0  0  0  0  0  0  0  0  0  0  0  0
  150.4599  141.8715  159.1781 H   0  0  0  0  0  0  0  0  0  0  0  0
  151.8446  143.7365  157.2099 H   0  0  0  0  0  0  0  0  0  0  0  0
  150.2002  143.8819  157.8342 H   0  0  0  0  0  0  0  0  0  0  0  0
  152.4391  145.1135  158.9711 H   0  0  0  0  0  0  0  0  0  0  0  0
  150.9984  144.7125  159.9074 H   0  0  0  0  0  0  0  0  0  0  0  0
  153.5844  143.4958  160.2607 H   0  0  0  0  0  0  0  0  0  0  0  0
  152.0593  142.9855  160.9920 H   0  0  0  0  0  0  0  0  0  0  0  0
  152.1648  137.1176  159.2427 H   0  0  0  0  0  0  0  0  0  0  0  0
  145.7993  137.6073  158.4098 H   0  0  0  0  0  0  0  0  0  0  0  0
  146.5942  135.0393  159.0899 H   0  0  0  0  0  0  0  0  0  0  0  0
  148.1608  134.9411  159.8403 H   0  0  0  0  0  0  0  0  0  0  0  0
  146.9552  137.0209  162.6130 H   0  0  0  0  0  0  0  0  0  0  0  0
  147.7044  134.1281  162.0475 H   0  0  0  0  0  0  0  0  0  0  0  0
  146.6082  134.9882  163.1157 H   0  0  0  0  0  0  0  0  0  0  0  0
  145.7885  133.2225  160.7775 H   0  0  0  0  0  0  0  0  0  0  0  0
  145.2821  133.0784  162.4645 H   0  0  0  0  0  0  0  0  0  0  0  0
  144.8061  136.1301  159.9499 H   0  0  0  0  0  0  0  0  0  0  0  0
  144.7758  138.0562  161.5549 H   0  0  0  0  0  0  0  0  0  0  0  0
  144.6734  136.9282  162.9100 H   0  0  0  0  0  0  0  0  0  0  0  0
  143.3542  137.0426  161.7512 H   0  0  0  0  0  0  0  0  0  0  0  0
  1  2  1  0  0  0  0
  1 27  1  0  0  0  0
  1 28  1  0  0  0  0
  1 29  1  0  0  0  0
  2  3  1  0  0  0  0
  2 30  1  0  0  0  0
  2 31  1  0  0  0  0
  3  4  1  0  0  0  0
  3 10  1  0  0  0  0
  4  5  1  0  0  0  0
  4 32  1  0  0  0  0
  4 33  1  0  0  0  0
  5  9  1  0  0  0  0
  5  6  1  0  0  0  0
  5 34  1  0  0  0  0
  6  7  1  0  0  0  0
  6 35  1  0  0  0  0
  6 36  1  0  0  0  0
  7  8  1  0  0  0  0
  7 37  1  0  0  0  0
  7 38  1  0  0  0  0
  8  9  1  0  0  0  0
  8 39  1  0  0  0  0
  8 40  1  0  0  0  0
 10 15  1  0  0  0  0
 10 11  2  0  0  0  0
 11 12  1  0  0  0  0
 12 13  2  0  0  0  0
 12 41  1  0  0  0  0
 13 14  1  0  0  0  0
 14 18  1  0  0  0  0
 14 15  2  0  0  0  0
 15 16  1  0  0  0  0
 16 17  2  0  0  0  0
 17 18  1  0  0  0  0
 17 42  1  0  0  0  0
 18 19  1  0  0  0  0
 19 20  1  0  0  0  0
 19 43  1  0  0  0  0
 19 44  1  0  0  0  0
 20 25  1  0  0  0  0
 20 21  1  0  0  0  0
 20 22  1  0  0  0  0
 21 45  1  0  0  0  0
 22 23  1  0  0  0  0
 22 46  1  0  0  0  0
 22 47  1  0  0  0  0
 23 24  1  0  0  0  0
 23 48  1  0  0  0  0
 23 49  1  0  0  0  0
 24 25  1  0  0  0  0
 25 26  1  0  0  0  0
 25 50  1  0  0  0  0
 26 51  1  0  0  0  0
 26 52  1  0  0  0  0
 26 53  1  0  0  0  0
M  END
> <s_m_source_file>
AV-unprocessed.smi

> <i_m_source_file_index>
15

> <i_lp_mmshare_version>
43012

> <i_f3d_flags>
0

> <s_epik_input>
TzFbQ0gyXVtDSDJdW0NIMl1bQ0BIXTFbQ0gyXU4oW0NIMl1bQ0gzXSljKG5bY0hdbjIpYyhjMjMpbltjSF1uM1tDSDJdW0NAQF00KFtPSF0pW0NIMl1bQ0gyXU9bQ0BIXTRbQ0gzXQ==

> <s_epik_cmdline>
J2VwaWtfcHl0aG9uJywgJy1waCcsICc3LjAnLCAnLXRuJywgJzgnLCAnLW1hJywgJzIwMCcsICctbWV0YWxfYmluZGluZycsICctaW1hZScsICc8aW5maWxlLm1hZT4nLCAnLW9tYWUnLCAnPG91dGZpbGUubWFlPic=

> <r_lp_tautomer_probability>
1

> <r_epik_Ionization_Penalty>
0.00360814

> <r_epik_Ionization_Penalty_Charging>
0

> <r_epik_Ionization_Penalty_Neutral>
0.00360814

> <r_epik_State_Penalty>
0.00237482

> <r_epik_Charging_Adjusted_Penalty>
0.00237482

> <i_epik_Tot_Q>
0

> <i_epik_Tot_abs_Q>
0

> <r_epik_Metal_State_Penalty>
-0

> <b_epik_Metal_Only>
0

> <s_lp_Force_Field>
OPLS_2005

> <r_lp_Energy>
47.2651

> <b_lp_Chiralities_Consistent>
1

> <s_lp_Variant>
AV-unprocessed.smi:15-3

> <Gold.Version>
5.8.1

> <Gold.Id.Protein>
6NUR|6NUR_protein|mol2

> <Gold.PLP.Fitness>
51.7207

> <Gold.PLP.PLP>
-47.9356

> <Gold.PLP.part.hbond>
-3.0402

> <Gold.PLP.part.metal>
0.0000

> <Gold.PLP.part.buried>
-6.2001

> <Gold.PLP.part.nonpolar>
-38.6562

> <Gold.PLP.part.repulsive>
0.0000

> <Gold.PLP.ligand.clash>
0.0000

> <Gold.PLP.ligand.torsion>
2.2031

> <Gold.PLP.Chemscore.Hbond>
2.4329

> <Gold.PLP.Chemscore.CHOScore>
0.0000

> <Gold.PLP.Chemscore.Metal>
0.0000

> <Gold.Chemscore.Hbonds>
donor molecule, donor type, donor heavy atom, donor atom, acceptor molecule, acceptor atom, score
      P1  H  6896  6908       L1    13  1.00
      P1  H  6931  6943       L1    21  0.41
      P1  H  6934  6947       L1    21  0.53

> <Gold.PLP.Chemscore.Internal.Correction>
0.8926

> <Gold.Rescore>
     Score         DG    S(hbond)    S(metal)    S(lipo)     H(rot)  DE(clash)    DE(int)     intcor
     15.50     -17.82       1.94        0.00     103.66       2.44       0.07       2.26       ----

> <Gold.Chemscore.Fitness>
15.4969

> <Gold.Chemscore.DG>
-17.8206

> <Gold.Chemscore.ZeroCoef>
-5.4800

> <Gold.Chemscore.Hbond>
1.9363

> <Gold.Chemscore.Metal>
0.0000

> <Gold.Chemscore.Lipo>
103.6556

> <Gold.Chemscore.Internal_Hbond>
0.0000

> <Gold.Chemscore.DEClash>
0.0655

> <Gold.Chemscore.DEInternal>
2.2582

> <Gold.Chemscore.Rot>
2.4431

> <Gold.Chemscore.Internal.Correction>
   9.000000E+99

> <Gold.Chemscore.Hbonds>
donor molecule, donor type, donor heavy atom, donor atom, acceptor molecule, acceptor atom, score
      P1  H  6896  6908       L1    13  0.43
      P1  H  6931  6943       L1    21  0.06
      P1  H  6934  6947       L1    21  0.29

> <Gold.Chemscore.Hbond.Weighted>
-6.4673

> <Gold.Chemscore.Metal.Weighted>
-0.0000

> <Gold.Chemscore.Lipo.Weighted>
-12.1277

> <Gold.Chemscore.Internal_Hbond.Weighted>
0.0000

> <Gold.Chemscore.DEClash.Weighted>
0.0655

> <Gold.Chemscore.DEInternal.Weighted>
2.2582

> <Gold.Chemscore.Rot.Weighted>
6.2544

> <Gold.Chemscore.Internal.Correction.Weighted>
   9.000000E+99

> <Gold.Protein.RotatedTorsions>
[ 6907 6896 6895 6894 ] final -160.60 input  -60.11 | X-H torsion
[ 7974 7965 7964 7962 ] final  -38.80 input  175.53 | X-H torsion
[ 8008 7997 7996 7995 ] final   67.36 input   59.86 | X-H torsion
[ 10167 10162 10161 10158 ] final  -72.35 input  -65.29 | X-H torsion
[ 10718 10713 10712 10709 ] final   -7.31 input   66.30 | X-H torsion
[ 10763 10752 10751 10750 ] final  -13.03 input  -60.55 | X-H torsion
[ 11005 11000 10999 10996 ] final  107.05 input  -57.11 | X-H torsion

> <Gold.Protein.ActiveResidues>
 VAL166  LYS551  ARG553  GLY616  TRP617  ASP618  TYR619  PRO620  LYS621  CYS622 
 ASP623  PHE694  ASN695  SER759  ASP760  ASP761  ALA762  ILE779  LEU786  VAL792 
 PHE793  MET794  SER795  GLU796  ALA797  LYS798  CYS799  TRP800  GLU811  SER814 

> <Gold.Protein.RotatedAtoms>
  151.3516  133.3923  159.2680 H   0  0  0  0  0  0  0  0  0  0  0  0  # atno 6907 bound_to 6896
  150.9797  134.9155  159.7847 H   0  0  0  0  0  0  0  0  0  0  0  0  # atno 6908 bound_to 6896
  152.5213  134.3480  159.9293 H   0  0  0  0  0  0  0  0  0  0  0  0  # atno 6909 bound_to 6896
  146.0454  140.6553  142.9067 H   0  0  0  0  0  0  0  0  0  0  0  0  # atno 7974 bound_to 7965
  155.6918  140.3496  155.4896 H   0  0  0  0  0  0  0  0  0  0  0  0  # atno 8008 bound_to 7997
  155.9518  140.1120  157.0993 H   0  0  0  0  0  0  0  0  0  0  0  0  # atno 8009 bound_to 7997
  154.4123  140.1193  156.5048 H   0  0  0  0  0  0  0  0  0  0  0  0  # atno 8010 bound_to 7997
  140.5199  143.2333  151.7447 H   0  0  0  0  0  0  0  0  0  0  0  0  # atno 10167 bound_to 10162
  156.7191  130.5145  149.5872 H   0  0  0  0  0  0  0  0  0  0  0  0  # atno 10718 bound_to 10713
  153.5073  135.7016  153.5800 H   0  0  0  0  0  0  0  0  0  0  0  0  # atno 10763 bound_to 10752
  153.3905  135.3897  155.1920 H   0  0  0  0  0  0  0  0  0  0  0  0  # atno 10764 bound_to 10752
  154.8706  135.3857  154.4549 H   0  0  0  0  0  0  0  0  0  0  0  0  # atno 10765 bound_to 10752
  139.8822  134.9389  156.5760 H   0  0  0  0  0  0  0  0  0  0  0  0  # atno 11005 bound_to 11000
  144.7095  140.3984  143.7091 LP  0  0  0  0  0  0  0  0  0  0  0  0  # atno 17320 bound_to 7965
  145.6815  139.1619  143.2698 LP  0  0  0  0  0  0  0  0  0  0  0  0  # atno 17321 bound_to 7965
  139.4920  144.4269  151.9916 LP  0  0  0  0  0  0  0  0  0  0  0  0  # atno 17342 bound_to 10162
  140.3365  144.3254  150.5976 LP  0  0  0  0  0  0  0  0  0  0  0  0  # atno 17343 bound_to 10162
  156.1607  130.6372  151.0715 LP  0  0  0  0  0  0  0  0  0  0  0  0  # atno 17370 bound_to 10713
  157.6905  131.0811  150.7120 LP  0  0  0  0  0  0  0  0  0  0  0  0  # atno 17371 bound_to 10713
  140.8062  133.8465  155.8770 LP  0  0  0  0  0  0  0  0  0  0  0  0  # atno 17394 bound_to 11000
  140.9547  134.1733  157.4700 LP  0  0  0  0  0  0  0  0  0  0  0  0  # atno 17395 bound_to 11000

$$$$
