AV-unprocessed.smi:3035|AV-procd|sdf|11581|dock3
  -GOLD-   2272016553D 1   1.00000     0.00000
 Structure written by MMmdl.
 38 39  0  0  0  0  0  0  0  0  1 V2000
  147.0738  142.0381  154.0089 C   0  0  0  0  0  0  0  0  0  0  0  0
  148.3882  141.5454  154.2016 O   0  0  0  0  0  0  0  0  0  0  0  0
  148.4097  140.1665  154.5309 C   0  0  0  0  0  0  0  0  0  0  0  0
  149.7157  139.8112  155.1756 C   0  0  0  0  0  0  0  0  0  0  0  0
  149.9051  139.3363  156.3480 N   0  0  0  0  0  0  0  0  0  0  0  0
  151.2304  139.2067  156.4222 N   0  0  0  0  0  0  0  0  0  0  0  0
  151.8760  138.6701  157.6151 C   0  0  0  0  0  0  0  0  0  0  0  0
  151.4009  139.3996  158.8805 C   0  0  0  0  0  0  0  0  0  0  0  0
  152.1021  140.6660  159.0367 N   0  0  0  0  0  0  0  0  0  0  0  0
  151.5090  141.8680  159.0005 C   0  0  0  0  0  0  0  0  0  0  0  0
  150.2984  142.0141  158.8277 O   0  0  0  0  0  0  0  0  0  0  0  0
  152.4247  143.0897  159.1848 C   0  0  0  0  0  0  0  0  0  0  0  0
  152.1872  143.7940  160.5413 C   0  0  0  0  0  0  0  0  0  0  0  0
  151.7217  145.2228  160.2309 C   0  0  0  0  0  0  0  0  0  0  0  0
  151.2332  145.1848  158.7857 C   0  0  0  0  0  0  0  0  0  0  0  0
  152.1553  144.1670  158.1165 C   0  0  0  0  0  0  0  0  0  0  0  0
  151.8612  139.6119  155.2612 C   0  0  0  0  0  0  0  0  0  0  0  0
  153.0613  139.6189  154.9925 O   0  0  0  0  0  0  0  0  0  0  0  0
  150.8664  140.0057  154.4546 O   0  0  0  0  0  0  0  0  0  0  0  0
  147.1129  143.0978  153.7567 H   0  0  0  0  0  0  0  0  0  0  0  0
  146.4751  141.9294  154.9144 H   0  0  0  0  0  0  0  0  0  0  0  0
  146.5725  141.5161  153.1929 H   0  0  0  0  0  0  0  0  0  0  0  0
  147.5850  139.9328  155.2063 H   0  0  0  0  0  0  0  0  0  0  0  0
  148.2715  139.5654  153.6309 H   0  0  0  0  0  0  0  0  0  0  0  0
  151.6604  137.6031  157.6906 H   0  0  0  0  0  0  0  0  0  0  0  0
  152.9588  138.7603  157.5139 H   0  0  0  0  0  0  0  0  0  0  0  0
  150.3271  139.5854  158.8237 H   0  0  0  0  0  0  0  0  0  0  0  0
  151.5758  138.7807  159.7623 H   0  0  0  0  0  0  0  0  0  0  0  0
  153.1005  140.6273  159.1826 H   0  0  0  0  0  0  0  0  0  0  0  0
  153.4644  142.7655  159.1124 H   0  0  0  0  0  0  0  0  0  0  0  0
  151.4307  143.2823  161.1387 H   0  0  0  0  0  0  0  0  0  0  0  0
  153.0970  143.8090  161.1422 H   0  0  0  0  0  0  0  0  0  0  0  0
  150.9531  145.5715  160.9214 H   0  0  0  0  0  0  0  0  0  0  0  0
  152.5685  145.9061  160.3087 H   0  0  0  0  0  0  0  0  0  0  0  0
  150.2016  144.8317  158.7525 H   0  0  0  0  0  0  0  0  0  0  0  0
  151.2671  146.1627  158.3047 H   0  0  0  0  0  0  0  0  0  0  0  0
  153.0949  144.6495  157.8438 H   0  0  0  0  0  0  0  0  0  0  0  0
  151.7221  143.7705  157.1968 H   0  0  0  0  0  0  0  0  0  0  0  0
  1  2  1  0  0  0  0
  1 20  1  0  0  0  0
  1 21  1  0  0  0  0
  1 22  1  0  0  0  0
  2  3  1  0  0  0  0
  3  4  1  0  0  0  0
  3 23  1  0  0  0  0
  3 24  1  0  0  0  0
  4 19  1  0  0  0  0
  4  5  2  0  0  0  0
  5  6  1  0  0  0  0
  6  7  1  0  0  0  0
  6 17  1  0  0  0  0
  7  8  1  0  0  0  0
  7 25  1  0  0  0  0
  7 26  1  0  0  0  0
  8  9  1  0  0  0  0
  8 27  1  0  0  0  0
  8 28  1  0  0  0  0
  9 10  1  0  0  0  0
  9 29  1  0  0  0  0
 10 11  2  0  0  0  0
 10 12  1  0  0  0  0
 12 16  1  0  0  0  0
 12 13  1  0  0  0  0
 12 30  1  0  0  0  0
 13 14  1  0  0  0  0
 13 31  1  0  0  0  0
 13 32  1  0  0  0  0
 14 15  1  0  0  0  0
 14 33  1  0  0  0  0
 14 34  1  0  0  0  0
 15 16  1  0  0  0  0
 15 35  1  0  0  0  0
 15 36  1  0  0  0  0
 16 37  1  0  0  0  0
 16 38  1  0  0  0  0
 17 18  2  0  0  0  0
 17 19  1  0  0  0  0
M  END
> <s_m_source_file>
AV-unprocessed.smi

> <i_m_source_file_index>
3035

> <i_lp_mmshare_version>
43012

> <i_f3d_flags>
0

> <s_epik_input>
W0NIM11PW0NIMl1jMW5uKGMoPU8pbzEpW0NIMl1bQ0gyXVtOSF1DKD1PKVtDSF0yW0NIMl1bQ0gyXVtDSDJdW0NIMl0y

> <s_epik_cmdline>
J2VwaWtfcHl0aG9uJywgJy1waCcsICc3LjAnLCAnLXRuJywgJzgnLCAnLW1hJywgJzIwMCcsICctbWV0YWxfYmluZGluZycsICctaW1hZScsICc8aW5maWxlLm1hZT4nLCAnLW9tYWUnLCAnPG91dGZpbGUubWFlPic=

> <r_lp_tautomer_probability>
1

> <r_epik_Ionization_Penalty>
6.81406e-08

> <r_epik_Ionization_Penalty_Charging>
1.21446e-09

> <r_epik_Ionization_Penalty_Neutral>
6.69261e-08

> <r_epik_State_Penalty>
-0

> <r_epik_Charging_Adjusted_Penalty>
1.21446e-09

> <i_epik_Tot_Q>
0

> <i_epik_Tot_abs_Q>
0

> <r_epik_Metal_State_Penalty>
-0

> <b_epik_Metal_Only>
0

> <s_lp_Force_Field>
OPLS_2005

> <r_lp_Energy>
26.4396

> <b_lp_Chiralities_Consistent>
1

> <s_lp_Variant>
AV-unprocessed.smi:3035-1

> <Gold.Version>
5.8.1

> <Gold.Id.Protein>
6NUR|6NUR_protein|mol2

> <Gold.PLP.Fitness>
46.7673

> <Gold.PLP.PLP>
-41.8148

> <Gold.PLP.part.hbond>
-3.9656

> <Gold.PLP.part.metal>
0.0000

> <Gold.PLP.part.buried>
-6.4323

> <Gold.PLP.part.nonpolar>
-33.0311

> <Gold.PLP.part.repulsive>
0.4226

> <Gold.PLP.ligand.clash>
0.0000

> <Gold.PLP.ligand.torsion>
0.4993

> <Gold.PLP.Chemscore.Hbond>
1.9425

> <Gold.PLP.Chemscore.CHOScore>
0.0000

> <Gold.PLP.Chemscore.Metal>
0.0000

> <Gold.Chemscore.Hbonds>
donor molecule, donor type, donor heavy atom, donor atom, acceptor molecule, acceptor atom, score
      P1  H  7989  7998       L1    19  0.93
      P1  H  7997  8010       L1    18  1.00

> <Gold.PLP.Chemscore.Internal.Correction>
0.1236

> <Gold.Rescore>
     Score         DG    S(hbond)    S(metal)    S(lipo)     H(rot)  DE(clash)    DE(int)     intcor
     15.43     -15.99       1.97        0.00      85.33       2.36       0.04       0.52       ----

> <Gold.Chemscore.Fitness>
15.4324

> <Gold.Chemscore.DG>
-15.9906

> <Gold.Chemscore.ZeroCoef>
-5.4800

> <Gold.Chemscore.Hbond>
1.9655

> <Gold.Chemscore.Metal>
0.0000

> <Gold.Chemscore.Lipo>
85.3328

> <Gold.Chemscore.Internal_Hbond>
0.0000

> <Gold.Chemscore.DEClash>
0.0414

> <Gold.Chemscore.DEInternal>
0.5169

> <Gold.Chemscore.Rot>
2.3587

> <Gold.Chemscore.Internal.Correction>
   9.000000E+99

> <Gold.Chemscore.Hbonds>
donor molecule, donor type, donor heavy atom, donor atom, acceptor molecule, acceptor atom, score
      P1  H  7989  7998       L1    19  0.23
      P1  H  7997  8010       L1    18  1.00
      P1  H  8011  8017       L1     2  0.01

> <Gold.Chemscore.Hbond.Weighted>
-6.5649

> <Gold.Chemscore.Metal.Weighted>
-0.0000

> <Gold.Chemscore.Lipo.Weighted>
-9.9839

> <Gold.Chemscore.Internal_Hbond.Weighted>
0.0000

> <Gold.Chemscore.DEClash.Weighted>
0.0414

> <Gold.Chemscore.DEInternal.Weighted>
0.5169

> <Gold.Chemscore.Rot.Weighted>
6.0382

> <Gold.Chemscore.Internal.Correction.Weighted>
   9.000000E+99

> <Gold.Protein.RotatedTorsions>
[ 6907 6896 6895 6894 ] final  -43.07 input  -60.11 | X-H torsion
[ 7974 7965 7964 7962 ] final -166.08 input  175.53 | X-H torsion
[ 8008 7997 7996 7995 ] final   98.95 input   59.86 | X-H torsion
[ 10167 10162 10161 10158 ] final   94.06 input  -65.29 | X-H torsion
[ 10718 10713 10712 10709 ] final  -89.35 input   66.30 | X-H torsion
[ 10763 10752 10751 10750 ] final  -75.59 input  -60.55 | X-H torsion
[ 11005 11000 10999 10996 ] final  107.10 input  -57.11 | X-H torsion

> <Gold.Protein.ActiveResidues>
 VAL166  LYS551  ARG553  GLY616  TRP617  ASP618  TYR619  PRO620  LYS621  CYS622 
 ASP623  PHE694  ASN695  SER759  ASP760  ASP761  ALA762  ILE779  LEU786  VAL792 
 PHE793  MET794  SER795  GLU796  ALA797  LYS798  CYS799  TRP800  GLU811  SER814 

> <Gold.Protein.RotatedAtoms>
  150.9480  134.8883  159.7653 H   0  0  0  0  0  0  0  0  0  0  0  0  # atno 6907 bound_to 6896
  152.5108  134.3847  159.9373 H   0  0  0  0  0  0  0  0  0  0  0  0  # atno 6908 bound_to 6896
  151.3864  133.3763  159.2750 H   0  0  0  0  0  0  0  0  0  0  0  0  # atno 6909 bound_to 6896
  144.7254  140.2719  143.6249 H   0  0  0  0  0  0  0  0  0  0  0  0  # atno 7974 bound_to 7965
  156.1056  140.3236  155.8001 H   0  0  0  0  0  0  0  0  0  0  0  0  # atno 8008 bound_to 7997
  155.4762  140.0550  157.2990 H   0  0  0  0  0  0  0  0  0  0  0  0  # atno 8009 bound_to 7997
  154.4725  140.2018  155.9973 H   0  0  0  0  0  0  0  0  0  0  0  0  # atno 8010 bound_to 7997
  139.8120  144.6769  150.9629 H   0  0  0  0  0  0  0  0  0  0  0  0  # atno 10167 bound_to 10162
  155.9984  130.4869  150.5158 H   0  0  0  0  0  0  0  0  0  0  0  0  # atno 10718 bound_to 10713
  154.4886  135.5826  153.6442 H   0  0  0  0  0  0  0  0  0  0  0  0  # atno 10763 bound_to 10752
  152.9858  135.6107  154.3154 H   0  0  0  0  0  0  0  0  0  0  0  0  # atno 10764 bound_to 10752
  154.3052  135.2846  155.2571 H   0  0  0  0  0  0  0  0  0  0  0  0  # atno 10765 bound_to 10752
  139.8823  134.9390  156.5768 H   0  0  0  0  0  0  0  0  0  0  0  0  # atno 11005 bound_to 11000
  145.8035  139.1974  143.2034 LP  0  0  0  0  0  0  0  0  0  0  0  0  # atno 17320 bound_to 7965
  146.0657  140.7923  142.9713 LP  0  0  0  0  0  0  0  0  0  0  0  0  # atno 17321 bound_to 7965
  140.7817  143.4176  151.0892 LP  0  0  0  0  0  0  0  0  0  0  0  0  # atno 17342 bound_to 10162
  139.7842  143.8311  152.3142 LP  0  0  0  0  0  0  0  0  0  0  0  0  # atno 17343 bound_to 10162
  157.3126  131.0666  151.1990 LP  0  0  0  0  0  0  0  0  0  0  0  0  # atno 17370 bound_to 10713
  157.2931  130.6806  149.6124 LP  0  0  0  0  0  0  0  0  0  0  0  0  # atno 17371 bound_to 10713
  140.8057  133.8469  155.8765 LP  0  0  0  0  0  0  0  0  0  0  0  0  # atno 17394 bound_to 11000
  140.9552  134.1727  157.4697 LP  0  0  0  0  0  0  0  0  0  0  0  0  # atno 17395 bound_to 11000

$$$$
