#       Name:                AV-unprocessed.smi:1304
#       Creating user name   scv26
#       Creation time:       Fri Mar 27 04:59:10 2020


#       File generated by GOLD software.
#

@<TRIPOS>MOLECULE
AV-unprocessed.smi:1304
    54    55     1
SMALL
NO_CHARGES


@<TRIPOS>ATOM
      1 ****        -0.1168  -2.3538  -0.7365 C.3            1 S1                 0.0000
      2 ****        -0.8072  -1.0062  -0.4644 C.3            1 S1                 0.0000
      3 ****        -0.4279  -0.3191   0.8893 C.3            1 S1                 0.0000
      4 ****        -1.2020   1.0253   0.9356 C.3            1 S1                 0.0000
      5 ****         1.0989   0.0149   0.8665 C.3            1 S1                 0.0000
      6 ****         1.5144   0.7161  -0.3416 N.am           1 S1                 0.0000
      7 ****         2.7814   0.9641  -0.7059 C.2            1 S1                 0.0000
      8 ****         3.7480   0.6535  -0.0114 O.2            1 S1                 0.0000
      9 ****         3.0155   1.6572  -2.0598 C.3            1 S1                 0.0000
     10 ****         1.8018   1.8217  -2.8818 N.am           1 S1                 0.0000
     11 ****         1.1225   3.0522  -2.7805 C.2            1 S1                 0.0000
     12 ****        -0.0067   3.2984  -3.4632 C.2            1 S1                 0.0000
     13 ****        -0.5239   2.2609  -4.3236 C.2            1 S1                 0.0000
     14 ****         0.1162   1.0792  -4.4261 C.2            1 S1                 0.0000
     15 ****         1.3472   0.8034  -3.6767 C.2            1 S1                 0.0000
     16 ****         1.9271  -0.2800  -3.7490 O.2            1 S1                 0.0000
     17 ****        -0.7508  -1.1977   2.0532 N.3            1 S1                 0.0000
     18 ****        -0.3618  -0.6616   3.3649 C.3            1 S1                 0.0000
     19 ****        -0.6128  -1.6630   4.5053 C.3            1 S1                 0.0000
     20 ****        -1.9797  -2.0534   4.5109 O.3            1 S1                 0.0000
     21 ****        -2.3750  -2.6446   3.2801 C.3            1 S1                 0.0000
     22 ****        -2.1472  -1.6486   2.1308 C.3            1 S1                 0.0000
     23 ****        -0.4726  -2.7818  -1.6735 H              1 S1                 0.0000
     24 ****        -0.3202  -3.0782   0.0521 H              1 S1                 0.0000
     25 ****         0.9640  -2.2435  -0.8228 H              1 S1                 0.0000
     26 ****        -0.5904  -0.3443  -1.3031 H              1 S1                 0.0000
     27 ****        -1.8854  -1.1430  -0.5349 H              1 S1                 0.0000
     28 ****        -0.9823   1.6446   0.0653 H              1 S1                 0.0000
     29 ****        -0.9429   1.6184   1.8124 H              1 S1                 0.0000
     30 ****        -2.2815   0.8797   0.9418 H              1 S1                 0.0000
     31 ****         1.3711   0.6602   1.7018 H              1 S1                 0.0000
     32 ****         1.6877  -0.8977   0.9729 H              1 S1                 0.0000
     33 ****         0.7784   1.0085  -0.9678 H              1 S1                 0.0000
     34 ****         3.4720   2.6288  -1.8660 H              1 S1                 0.0000
     35 ****         3.7723   1.0962  -2.6108 H              1 S1                 0.0000
     36 ****         1.5709   3.7712  -2.1099 H              1 S1                 0.0000
     37 ****        -0.5167   4.2460  -3.3688 H              1 S1                 0.0000
     38 ****        -1.4289   2.4325  -4.8877 H              1 S1                 0.0000
     39 ****        -0.2859   0.3143  -5.0741 H              1 S1                 0.0000
     40 ****         0.6961  -0.4086   3.3872 H              1 S1                 0.0000
     41 ****        -0.9131   0.2547   3.5762 H              1 S1                 0.0000
     42 ****         0.0243  -2.5420   4.3957 H              1 S1                 0.0000
     43 ****        -0.3696  -1.2094   5.4662 H              1 S1                 0.0000
     44 ****        -1.8133  -3.5649   3.1116 H              1 S1                 0.0000
     45 ****        -3.4283  -2.9190   3.3393 H              1 S1                 0.0000
     46 ****        -2.8134  -0.7972   2.2692 H              1 S1                 0.0000
     47 ****        -2.4513  -2.1449   1.2118 H              1 S1                 0.0000
     48 ****         3.6065   0.1956   0.8663 LP             1 S1                 0.0000
     49 ****         4.6752   0.8589  -0.3245 LP             1 S1                 0.0000
     50 ****         2.7586  -0.4385  -3.2166 LP             1 S1                 0.0000
     51 ****         1.5666  -1.0016  -4.3401 LP             1 S1                 0.0000
     52 ****        -0.1755  -1.9898   1.8495 LP             1 S1                 0.0000
     53 ****        -2.5448  -1.2450   4.6759 LP             1 S1                 0.0000
     54 ****        -2.1224  -2.7155   5.2466 LP             1 S1                 0.0000
@<TRIPOS>BOND
    1    1    2 1     
    2    1   23 1     
    3    1   24 1     
    4    1   25 1     
    5    2    3 1     
    6    2   26 1     
    7    2   27 1     
    8    3    4 1     
    9    3    5 1     
   10    3   17 1     
   11    4   28 1     
   12    4   29 1     
   13    4   30 1     
   14    5    6 1     
   15    5   31 1     
   16    5   32 1     
   17    6    7 am    
   18    6   33 1     
   19    7    8 2     
   20    7    9 1     
   21    9   10 1     
   22    9   34 1     
   23    9   35 1     
   24   10   15 am    
   25   10   11 1     
   26   11   12 2     
   27   11   36 1     
   28   12   13 1     
   29   12   37 1     
   30   13   14 2     
   31   13   38 1     
   32   14   15 1     
   33   14   39 1     
   34   15   16 2     
   35   17   22 1     
   36   17   18 1     
   37   18   19 1     
   38   18   40 1     
   39   18   41 1     
   40   19   20 1     
   41   19   42 1     
   42   19   43 1     
   43   20   21 1     
   44   21   22 1     
   45   21   44 1     
   46   21   45 1     
   47   22   46 1     
   48   22   47 1     
   49    8   48 1     
   50    8   49 1     
   51   16   50 1     
   52   16   51 1     
   53   17   52 1     
   54   20   53 1     
   55   20   54 1     
@<TRIPOS>SUBSTRUCTURE
      1 S1             1
@<TRIPOS>SET
LONE_PAIRS      STATIC     ATOMS    <user>   **** ""
7 48 49 50 51 52 53 54
DONOR_HYDROGENS      STATIC     ATOMS    <user>   **** ""
1 33
ATOM$BLUE        STATIC     ATOMS    COLORGROUP SYSTEM
7 48 49 50 51 52 53 54
ATOM$RED        STATIC     ATOMS    COLORGROUP SYSTEM
1 33
