AV-unprocessed.smi:264|AV-procd|sdf|2012|dock1
  -GOLD-   2262021213D 1   1.00000     0.00000
 Structure written by MMmdl.
 52 56  0  0  0  0  0  0  0  0  1 V2000
  151.7632  145.0643  158.7866 C   0  0  0  0  0  0  0  0  0  0  0  0
  152.4052  143.6720  158.6730 C   0  0  1  0  0  0  0  0  0  0  0  0
  153.3358  143.4571  159.7339 O   0  0  0  0  0  0  0  0  0  0  0  0
  153.0046  142.2721  160.4447 C   0  0  0  0  0  0  0  0  0  0  0  0
  152.2465  141.4223  159.4338 C   0  0  0  0  0  0  0  0  0  0  0  0
  151.4418  142.4624  158.6676 C   0  0  1  0  0  0  0  0  0  0  0  0
  150.2647  142.7503  159.4067 O   0  0  0  0  0  0  0  0  0  0  0  0
  151.0300  142.0186  157.2439 C   0  0  0  0  0  0  0  0  0  0  0  0
  150.4563  140.6822  157.1992 N   0  0  0  0  0  0  0  0  0  0  0  0
  149.8796  139.9987  158.2459 C   0  0  0  0  0  0  0  0  0  0  0  0
  149.4436  138.8032  157.9566 N   0  0  0  0  0  0  0  0  0  0  0  0
  149.7267  138.6556  156.6037 C   0  0  0  0  0  0  0  0  0  0  0  0
  149.5298  137.6170  155.6494 C   0  0  0  0  0  0  0  0  0  0  0  0
  148.9613  136.4206  155.9078 N   0  0  0  0  0  0  0  0  0  0  0  0
  147.6140  136.2970  155.3744 C   0  0  0  0  0  0  0  0  0  0  0  0
  146.9587  135.0211  155.9225 C   0  0  0  0  0  0  0  0  0  0  0  0
  147.7779  133.8860  155.6412 O   0  0  0  0  0  0  0  0  0  0  0  0
  149.1096  133.9682  156.1613 C   0  0  2  0  0  0  0  0  0  0  0  0
  149.8619  132.7208  155.7065 C   0  0  0  0  0  0  0  0  0  0  0  0
  150.7548  132.3964  156.8944 C   0  0  0  0  0  0  0  0  0  0  0  0
  149.9018  132.6617  157.9918 O   0  0  0  0  0  0  0  0  0  0  0  0
  149.1652  133.8442  157.7026 C   0  0  0  0  0  0  0  0  0  0  0  0
  149.7877  135.2531  155.6296 C   0  0  0  0  0  0  0  0  0  0  0  0
  149.9677  137.8244  154.3837 N   0  0  0  0  0  0  0  0  0  0  0  0
  150.5494  138.9829  154.0591 C   0  0  0  0  0  0  0  0  0  0  0  0
  150.7925  140.0414  154.8349 N   0  0  0  0  0  0  0  0  0  0  0  0
  150.3646  139.8297  156.1127 C   0  0  0  0  0  0  0  0  0  0  0  0
  151.0424  145.2307  157.9857 H   0  0  0  0  0  0  0  0  0  0  0  0
  152.5219  145.8441  158.7173 H   0  0  0  0  0  0  0  0  0  0  0  0
  151.2485  145.1943  159.7390 H   0  0  0  0  0  0  0  0  0  0  0  0
  153.0005  143.6484  157.7593 H   0  0  0  0  0  0  0  0  0  0  0  0
  153.8940  141.7744  160.8312 H   0  0  0  0  0  0  0  0  0  0  0  0
  152.3635  142.5298  161.2890 H   0  0  0  0  0  0  0  0  0  0  0  0
  152.9635  140.9373  158.7703 H   0  0  0  0  0  0  0  0  0  0  0  0
  151.6375  140.6439  159.8958 H   0  0  0  0  0  0  0  0  0  0  0  0
  149.5593  142.9040  158.7971 H   0  0  0  0  0  0  0  0  0  0  0  0
  150.3045  142.7182  156.8264 H   0  0  0  0  0  0  0  0  0  0  0  0
  151.8920  142.0401  156.5759 H   0  0  0  0  0  0  0  0  0  0  0  0
  149.8000  140.4151  159.2397 H   0  0  0  0  0  0  0  0  0  0  0  0
  147.0185  137.1697  155.6463 H   0  0  0  0  0  0  0  0  0  0  0  0
  147.6550  136.2593  154.2849 H   0  0  0  0  0  0  0  0  0  0  0  0
  146.7819  135.1135  156.9942 H   0  0  0  0  0  0  0  0  0  0  0  0
  145.9836  134.8737  155.4584 H   0  0  0  0  0  0  0  0  0  0  0  0
  149.1641  131.8957  155.5548 H   0  0  0  0  0  0  0  0  0  0  0  0
  150.4189  132.8555  154.7786 H   0  0  0  0  0  0  0  0  0  0  0  0
  151.1018  131.3629  156.8934 H   0  0  0  0  0  0  0  0  0  0  0  0
  151.6228  133.0567  156.9287 H   0  0  0  0  0  0  0  0  0  0  0  0
  149.6729  134.6985  158.1522 H   0  0  0  0  0  0  0  0  0  0  0  0
  148.1803  133.7666  158.1618 H   0  0  0  0  0  0  0  0  0  0  0  0
  149.9297  135.1620  154.5529 H   0  0  0  0  0  0  0  0  0  0  0  0
  150.7764  135.3797  156.0732 H   0  0  0  0  0  0  0  0  0  0  0  0
  150.8678  139.0739  153.0309 H   0  0  0  0  0  0  0  0  0  0  0  0
  1  2  1  0  0  0  0
  1 28  1  0  0  0  0
  1 29  1  0  0  0  0
  1 30  1  0  0  0  0
  2  6  1  0  0  0  0
  2  3  1  0  0  0  0
  2 31  1  0  0  0  0
  3  4  1  0  0  0  0
  4  5  1  0  0  0  0
  4 32  1  0  0  0  0
  4 33  1  0  0  0  0
  5  6  1  0  0  0  0
  5 34  1  0  0  0  0
  5 35  1  0  0  0  0
  6  7  1  0  0  0  0
  6  8  1  0  0  0  0
  7 36  1  0  0  0  0
  8  9  1  0  0  0  0
  8 37  1  0  0  0  0
  8 38  1  0  0  0  0
  9 27  1  0  0  0  0
  9 10  1  0  0  0  0
 10 11  2  0  0  0  0
 10 39  1  0  0  0  0
 11 12  1  0  0  0  0
 12 27  2  0  0  0  0
 12 13  1  0  0  0  0
 13 14  1  0  0  0  0
 13 24  2  0  0  0  0
 14 23  1  0  0  0  0
 14 15  1  0  0  0  0
 15 16  1  0  0  0  0
 15 40  1  0  0  0  0
 15 41  1  0  0  0  0
 16 17  1  0  0  0  0
 16 42  1  0  0  0  0
 16 43  1  0  0  0  0
 17 18  1  0  0  0  0
 18 22  1  0  0  0  0
 18 19  1  0  0  0  0
 18 23  1  0  0  0  0
 19 20  1  0  0  0  0
 19 44  1  0  0  0  0
 19 45  1  0  0  0  0
 20 21  1  0  0  0  0
 20 46  1  0  0  0  0
 20 47  1  0  0  0  0
 21 22  1  0  0  0  0
 22 48  1  0  0  0  0
 22 49  1  0  0  0  0
 23 50  1  0  0  0  0
 23 51  1  0  0  0  0
 24 25  1  0  0  0  0
 25 26  2  0  0  0  0
 25 52  1  0  0  0  0
 26 27  1  0  0  0  0
M  END
> <s_m_source_file>
AV-unprocessed.smi

> <i_m_source_file_index>
264

> <i_lp_mmshare_version>
43012

> <i_f3d_flags>
0

> <s_epik_input>
W0NIMl0xW0NIMl1PW0NAQEhdKFtDSDNdKVtDQEBdMShbT0hdKVtDSDJdbihbY0hdbjIpYyhjMjMpbltjSF1uYzNOKFtDSDJdNClbQ0gyXVtDSDJdT1tDQF00NVtDSDJdW0NIMl1PW0NIMl01

> <s_epik_cmdline>
J2VwaWtfcHl0aG9uJywgJy1waCcsICc3LjAnLCAnLXRuJywgJzgnLCAnLW1hJywgJzIwMCcsICctbWV0YWxfYmluZGluZycsICctaW1hZScsICc8aW5maWxlLm1hZT4nLCAnLW9tYWUnLCAnPG91dGZpbGUubWFlPic=

> <r_lp_tautomer_probability>
1

> <r_epik_Ionization_Penalty>
0.00539389

> <r_epik_Ionization_Penalty_Charging>
0

> <r_epik_Ionization_Penalty_Neutral>
0.00539389

> <r_epik_State_Penalty>
0.00375441

> <r_epik_Charging_Adjusted_Penalty>
0.00375441

> <i_epik_Tot_Q>
0

> <i_epik_Tot_abs_Q>
0

> <r_epik_Metal_State_Penalty>
-0

> <b_epik_Metal_Only>
0

> <s_lp_Force_Field>
OPLS_2005

> <r_lp_Energy>
56.7772

> <b_lp_Chiralities_Consistent>
1

> <s_lp_Variant>
AV-unprocessed.smi:264-6

> <Gold.Version>
5.8.1

> <Gold.Id.Protein>
6NUR|6NUR_protein|mol2

> <Gold.PLP.Fitness>
42.1158

> <Gold.PLP.PLP>
-35.6013

> <Gold.PLP.part.hbond>
-3.0000

> <Gold.PLP.part.metal>
0.0000

> <Gold.PLP.part.buried>
-4.9566

> <Gold.PLP.part.nonpolar>
-28.6826

> <Gold.PLP.part.repulsive>
0.5621

> <Gold.PLP.ligand.clash>
0.0000

> <Gold.PLP.ligand.torsion>
0.6444

> <Gold.PLP.Chemscore.Hbond>
1.5424

> <Gold.PLP.Chemscore.CHOScore>
1.0000

> <Gold.PLP.Chemscore.Metal>
0.0000

> <Gold.Chemscore.Hbonds>
donor molecule, donor type, donor heavy atom, donor atom, acceptor molecule, acceptor atom, score
      P1  H  6896  6907       L1    21  0.86
      P1  H  7989  7998       L1    26  0.55
      L1  C    25    52       P1  7957  0.97

> <Gold.PLP.Chemscore.Internal.Correction>
0.1761

> <Gold.Rescore>
     Score         DG    S(hbond)    S(metal)    S(lipo)     H(rot)  DE(clash)    DE(int)     intcor
      8.07     -10.70       0.14        0.00      86.76       2.11       0.04       2.59       ----

> <Gold.Chemscore.Fitness>
8.0654

> <Gold.Chemscore.DG>
-10.6961

> <Gold.Chemscore.ZeroCoef>
-5.4800

> <Gold.Chemscore.Hbond>
0.1368

> <Gold.Chemscore.Metal>
0.0000

> <Gold.Chemscore.Lipo>
86.7642

> <Gold.Chemscore.Internal_Hbond>
0.0000

> <Gold.Chemscore.DEClash>
0.0402

> <Gold.Chemscore.DEInternal>
2.5905

> <Gold.Chemscore.Rot>
2.1063

> <Gold.Chemscore.Internal.Correction>
   9.000000E+99

> <Gold.Chemscore.Hbonds>
donor molecule, donor type, donor heavy atom, donor atom, acceptor molecule, acceptor atom, score
      P1  H  6896  6907       L1    21  0.04
      P1  H  7989  7998       L1    26  0.03

> <Gold.Chemscore.Hbond.Weighted>
-0.4568

> <Gold.Chemscore.Metal.Weighted>
-0.0000

> <Gold.Chemscore.Lipo.Weighted>
-10.1514

> <Gold.Chemscore.Internal_Hbond.Weighted>
0.0000

> <Gold.Chemscore.DEClash.Weighted>
0.0402

> <Gold.Chemscore.DEInternal.Weighted>
2.5905

> <Gold.Chemscore.Rot.Weighted>
5.3921

> <Gold.Chemscore.Internal.Correction.Weighted>
   9.000000E+99

> <Gold.Protein.RotatedTorsions>
[ 6907 6896 6895 6894 ] final -157.59 input  -60.11 | X-H torsion
[ 7974 7965 7964 7962 ] final   83.40 input  175.53 | X-H torsion
[ 8008 7997 7996 7995 ] final  -49.72 input   59.86 | X-H torsion
[ 10167 10162 10161 10158 ] final -164.71 input  -65.29 | X-H torsion
[ 10718 10713 10712 10709 ] final -109.92 input   66.30 | X-H torsion
[ 10763 10752 10751 10750 ] final   20.77 input  -60.55 | X-H torsion
[ 11005 11000 10999 10996 ] final   62.75 input  -57.11 | X-H torsion

> <Gold.Protein.ActiveResidues>
 VAL166  LYS551  ARG553  GLY616  TRP617  ASP618  TYR619  PRO620  LYS621  CYS622 
 ASP623  PHE694  ASN695  SER759  ASP760  ASP761  ALA762  ILE779  LEU786  VAL792 
 PHE793  MET794  SER795  GLU796  ALA797  LYS798  CYS799  TRP800  GLU811  SER814 

> <Gold.Protein.RotatedAtoms>
  151.3052  133.4105  159.2642 H   0  0  0  0  0  0  0  0  0  0  0  0  # atno 6907 bound_to 6896
  151.0161  134.9435  159.8044 H   0  0  0  0  0  0  0  0  0  0  0  0  # atno 6908 bound_to 6896
  152.5313  134.3015  159.9133 H   0  0  0  0  0  0  0  0  0  0  0  0  # atno 6909 bound_to 6896
  145.6125  139.2371  143.2184 H   0  0  0  0  0  0  0  0  0  0  0  0  # atno 7974 bound_to 7965
  154.4049  140.1290  156.4549 H   0  0  0  0  0  0  0  0  0  0  0  0  # atno 8008 bound_to 7997
  155.7330  140.3491  155.5048 H   0  0  0  0  0  0  0  0  0  0  0  0  # atno 8009 bound_to 7997
  155.9110  140.1036  157.1270 H   0  0  0  0  0  0  0  0  0  0  0  0  # atno 8010 bound_to 7997
  139.6232  144.0584  152.1951 H   0  0  0  0  0  0  0  0  0  0  0  0  # atno 10167 bound_to 10162
  156.0563  130.5789  150.8166 H   0  0  0  0  0  0  0  0  0  0  0  0  # atno 10718 bound_to 10713
  153.1049  135.6682  153.9604 H   0  0  0  0  0  0  0  0  0  0  0  0  # atno 10763 bound_to 10752
  153.9164  135.3019  155.3449 H   0  0  0  0  0  0  0  0  0  0  0  0  # atno 10764 bound_to 10752
  154.7470  135.5052  153.9298 H   0  0  0  0  0  0  0  0  0  0  0  0  # atno 10765 bound_to 10752
  140.0071  134.6353  155.9838 H   0  0  0  0  0  0  0  0  0  0  0  0  # atno 11005 bound_to 11000
  146.1494  140.6947  142.9329 LP  0  0  0  0  0  0  0  0  0  0  0  0  # atno 17320 bound_to 7965
  144.7264  140.4538  143.6970 LP  0  0  0  0  0  0  0  0  0  0  0  0  # atno 17321 bound_to 7965
  140.0231  144.6138  150.7550 LP  0  0  0  0  0  0  0  0  0  0  0  0  # atno 17342 bound_to 10162
  140.7395  143.2792  151.3650 LP  0  0  0  0  0  0  0  0  0  0  0  0  # atno 17343 bound_to 10162
  157.5535  131.0944  150.9662 LP  0  0  0  0  0  0  0  0  0  0  0  0  # atno 17370 bound_to 10713
  156.9916  130.5565  149.5304 LP  0  0  0  0  0  0  0  0  0  0  0  0  # atno 17371 bound_to 10713
  141.1685  133.6537  156.4564 LP  0  0  0  0  0  0  0  0  0  0  0  0  # atno 17394 bound_to 11000
  140.4621  134.6831  157.5090 LP  0  0  0  0  0  0  0  0  0  0  0  0  # atno 17395 bound_to 11000

$$$$
