AV-unprocessed.smi:177|AV-procd|sdf|1444|dock4
  -GOLD-   2262019233D 1   1.00000     0.00000
 Structure written by MMmdl.
 61 65  0  0  0  0  0  0  0  0  1 V2000
  151.5756  144.3720  158.0619 C   0  0  0  0  0  0  0  0  0  0  0  0
  151.2625  143.0263  158.3887 O   0  0  0  0  0  0  0  0  0  0  0  0
  152.3797  142.2359  158.7766 C   0  0  1  0  0  0  0  0  0  0  0  0
  152.6984  142.5824  160.2414 C   0  0  0  0  0  0  0  0  0  0  0  0
  153.8435  141.7170  160.7888 C   0  0  0  0  0  0  0  0  0  0  0  0
  153.5160  140.2240  160.6408 C   0  0  2  0  0  0  0  0  0  0  0  0
  154.6112  139.4553  161.1281 O   0  0  0  0  0  0  0  0  0  0  0  0
  154.3367  138.0589  161.0911 C   0  0  0  0  0  0  0  0  0  0  0  0
  154.0847  137.6295  159.6378 C   0  0  0  0  0  0  0  0  0  0  0  0
  153.0023  138.4185  159.0557 N   0  0  0  0  0  0  0  0  0  0  0  0
  152.6465  137.9967  157.8207 C   0  0  0  0  0  0  0  0  0  0  0  0
  153.2910  138.4734  156.7230 N   0  0  0  0  0  0  0  0  0  0  0  0
  152.9039  138.0875  155.5033 C   0  0  0  0  0  0  0  0  0  0  0  0
  151.9117  137.2610  155.1641 N   0  0  0  0  0  0  0  0  0  0  0  0
  151.2617  136.7875  156.2663 C   0  0  0  0  0  0  0  0  0  0  0  0
  151.5687  137.0953  157.6202 C   0  0  0  0  0  0  0  0  0  0  0  0
  150.7004  136.4269  158.4725 N   0  0  0  0  0  0  0  0  0  0  0  0
  149.9201  135.7604  157.6657 C   0  0  0  0  0  0  0  0  0  0  0  0
  150.1699  135.9381  156.3225 N   0  0  0  0  0  0  0  0  0  0  0  0
  149.4511  135.3303  155.2114 C   0  0  0  0  0  0  0  0  0  0  0  0
  149.4570  133.7698  155.1763 C   0  0  0  0  0  0  0  0  0  0  0  0
  149.0605  133.3314  153.7375 C   0  0  0  0  0  0  0  0  0  0  0  0
  147.9483  134.0497  153.2412 O   0  0  0  0  0  0  0  0  0  0  0  0
  150.8431  133.1992  155.5772 C   0  0  0  0  0  0  0  0  0  0  0  0
  150.8302  131.6686  155.7410 C   0  0  0  0  0  0  0  0  0  0  0  0
  149.8578  131.2946  156.7094 O   0  0  0  0  0  0  0  0  0  0  0  0
  148.5344  131.6635  156.3415 C   0  0  0  0  0  0  0  0  0  0  0  0
  148.4355  133.1938  156.1921 C   0  0  0  0  0  0  0  0  0  0  0  0
  153.2426  139.8614  159.1621 C   0  0  1  0  0  0  0  0  0  0  0  0
  152.0794  140.7297  158.6224 C   0  0  0  0  0  0  0  0  0  0  0  0
  150.6549  144.9142  157.8475 H   0  0  0  0  0  0  0  0  0  0  0  0
  152.2096  144.4415  157.1783 H   0  0  0  0  0  0  0  0  0  0  0  0
  152.0725  144.8765  158.8913 H   0  0  0  0  0  0  0  0  0  0  0  0
  153.2458  142.5006  158.1670 H   0  0  0  0  0  0  0  0  0  0  0  0
  152.9597  143.6377  160.3253 H   0  0  0  0  0  0  0  0  0  0  0  0
  151.8086  142.4350  160.8549 H   0  0  0  0  0  0  0  0  0  0  0  0
  154.7671  141.9486  160.2565 H   0  0  0  0  0  0  0  0  0  0  0  0
  154.0202  141.9574  161.8375 H   0  0  0  0  0  0  0  0  0  0  0  0
  152.6338  140.0010  161.2448 H   0  0  0  0  0  0  0  0  0  0  0  0
  155.1899  137.5180  161.5005 H   0  0  0  0  0  0  0  0  0  0  0  0
  153.4777  137.8252  161.7224 H   0  0  0  0  0  0  0  0  0  0  0  0
  154.9982  137.7652  159.0571 H   0  0  0  0  0  0  0  0  0  0  0  0
  153.8327  136.5688  159.6010 H   0  0  0  0  0  0  0  0  0  0  0  0
  153.4640  138.5074  154.6811 H   0  0  0  0  0  0  0  0  0  0  0  0
  149.1253  135.1261  158.0306 H   0  0  0  0  0  0  0  0  0  0  0  0
  148.4233  135.6945  155.2431 H   0  0  0  0  0  0  0  0  0  0  0  0
  149.8790  135.7312  154.2917 H   0  0  0  0  0  0  0  0  0  0  0  0
  149.8741  133.4633  153.0269 H   0  0  0  0  0  0  0  0  0  0  0  0
  148.8143  132.2691  153.7204 H   0  0  0  0  0  0  0  0  0  0  0  0
  148.2556  134.6784  152.6059 H   0  0  0  0  0  0  0  0  0  0  0  0
  151.6073  133.4919  154.8568 H   0  0  0  0  0  0  0  0  0  0  0  0
  151.1573  133.6172  156.5324 H   0  0  0  0  0  0  0  0  0  0  0  0
  150.6395  131.1622  154.7947 H   0  0  0  0  0  0  0  0  0  0  0  0
  151.8071  131.3271  156.0836 H   0  0  0  0  0  0  0  0  0  0  0  0
  148.2359  131.1447  155.4306 H   0  0  0  0  0  0  0  0  0  0  0  0
  147.8537  131.3264  157.1234 H   0  0  0  0  0  0  0  0  0  0  0  0
  148.6081  133.6164  157.1813 H   0  0  0  0  0  0  0  0  0  0  0  0
  147.4200  133.4779  155.9141 H   0  0  0  0  0  0  0  0  0  0  0  0
  154.1373  140.0910  158.5803 H   0  0  0  0  0  0  0  0  0  0  0  0
  151.1572  140.4816  159.1500 H   0  0  0  0  0  0  0  0  0  0  0  0
  151.9054  140.5063  157.5705 H   0  0  0  0  0  0  0  0  0  0  0  0
  1  2  1  0  0  0  0
  1 31  1  0  0  0  0
  1 32  1  0  0  0  0
  1 33  1  0  0  0  0
  2  3  1  0  0  0  0
  3 30  1  0  0  0  0
  3  4  1  0  0  0  0
  3 34  1  0  0  0  0
  4  5  1  0  0  0  0
  4 35  1  0  0  0  0
  4 36  1  0  0  0  0
  5  6  1  0  0  0  0
  5 37  1  0  0  0  0
  5 38  1  0  0  0  0
  6 29  1  0  0  0  0
  6  7  1  0  0  0  0
  6 39  1  0  0  0  0
  7  8  1  0  0  0  0
  8  9  1  0  0  0  0
  8 40  1  0  0  0  0
  8 41  1  0  0  0  0
  9 10  1  0  0  0  0
  9 42  1  0  0  0  0
  9 43  1  0  0  0  0
 10 11  1  0  0  0  0
 10 29  1  0  0  0  0
 11 16  1  0  0  0  0
 11 12  2  0  0  0  0
 12 13  1  0  0  0  0
 13 14  2  0  0  0  0
 13 44  1  0  0  0  0
 14 15  1  0  0  0  0
 15 19  1  0  0  0  0
 15 16  2  0  0  0  0
 16 17  1  0  0  0  0
 17 18  2  0  0  0  0
 18 19  1  0  0  0  0
 18 45  1  0  0  0  0
 19 20  1  0  0  0  0
 20 21  1  0  0  0  0
 20 46  1  0  0  0  0
 20 47  1  0  0  0  0
 21 28  1  0  0  0  0
 21 22  1  0  0  0  0
 21 24  1  0  0  0  0
 22 23  1  0  0  0  0
 22 48  1  0  0  0  0
 22 49  1  0  0  0  0
 23 50  1  0  0  0  0
 24 25  1  0  0  0  0
 24 51  1  0  0  0  0
 24 52  1  0  0  0  0
 25 26  1  0  0  0  0
 25 53  1  0  0  0  0
 25 54  1  0  0  0  0
 26 27  1  0  0  0  0
 27 28  1  0  0  0  0
 27 55  1  0  0  0  0
 27 56  1  0  0  0  0
 28 57  1  0  0  0  0
 28 58  1  0  0  0  0
 29 30  1  0  0  0  0
 29 59  1  0  0  0  0
 30 60  1  0  0  0  0
 30 61  1  0  0  0  0
M  END
> <s_m_source_file>
AV-unprocessed.smi

> <i_m_source_file_index>
177

> <i_lp_mmshare_version>
43012

> <i_f3d_flags>
0

> <s_epik_input>
W0NIM11PW0NASF0oW0NIMl1bQ0gyXTEpW0NIMl1bQ0BIXShbQ0BASF0xMilOKFtDSDJdW0NIMl1PMiljKG5bY0hdbjMpYyhjMzQpbltjSF1uNFtDSDJdQzUoW0NIMl1bT0hdKVtDSDJdW0NIMl1PW0NIMl1bQ0gyXTU=

> <s_epik_cmdline>
J2VwaWtfcHl0aG9uJywgJy1waCcsICc3LjAnLCAnLXRuJywgJzgnLCAnLW1hJywgJzIwMCcsICctbWV0YWxfYmluZGluZycsICctaW1hZScsICc8aW5maWxlLm1hZT4nLCAnLW9tYWUnLCAnPG91dGZpbGUubWFlPic=

> <r_lp_tautomer_probability>
1

> <r_epik_Ionization_Penalty>
0.0065899

> <r_epik_Ionization_Penalty_Charging>
0

> <r_epik_Ionization_Penalty_Neutral>
0.0065899

> <r_epik_State_Penalty>
0.00470042

> <r_epik_Charging_Adjusted_Penalty>
0.00470042

> <i_epik_Tot_Q>
0

> <i_epik_Tot_abs_Q>
0

> <r_epik_Metal_State_Penalty>
-0

> <b_epik_Metal_Only>
0

> <s_lp_Force_Field>
OPLS_2005

> <r_lp_Energy>
44.4032

> <b_lp_Chiralities_Consistent>
1

> <s_lp_Variant>
AV-unprocessed.smi:177-8

> <Gold.Version>
5.8.1

> <Gold.Id.Protein>
6NUR|6NUR_protein|mol2

> <Gold.PLP.Fitness>
52.2757

> <Gold.PLP.PLP>
-43.0962

> <Gold.PLP.part.hbond>
-4.0000

> <Gold.PLP.part.metal>
0.0000

> <Gold.PLP.part.buried>
-5.9866

> <Gold.PLP.part.nonpolar>
-34.5173

> <Gold.PLP.part.repulsive>
0.1447

> <Gold.PLP.ligand.clash>
0.0000

> <Gold.PLP.ligand.torsion>
1.1297

> <Gold.PLP.Chemscore.Hbond>
3.7680

> <Gold.PLP.Chemscore.CHOScore>
0.0000

> <Gold.PLP.Chemscore.Metal>
0.0000

> <Gold.Chemscore.Hbonds>
donor molecule, donor type, donor heavy atom, donor atom, acceptor molecule, acceptor atom, score
      L1  H    23    50       P1  7948  1.00
      P1  H  6896  6909       L1    17  0.85
      P1  H  7997  8008       L1    12  0.98
      P1  H 10752 10763       L1    14  0.92

> <Gold.PLP.Chemscore.Internal.Correction>
0.1348

> <Gold.Rescore>
     Score         DG    S(hbond)    S(metal)    S(lipo)     H(rot)  DE(clash)    DE(int)     intcor
     17.33     -18.41       1.98        0.00     110.52       2.58       0.00       1.08       ----

> <Gold.Chemscore.Fitness>
17.3340

> <Gold.Chemscore.DG>
-18.4123

> <Gold.Chemscore.ZeroCoef>
-5.4800

> <Gold.Chemscore.Hbond>
1.9783

> <Gold.Chemscore.Metal>
0.0000

> <Gold.Chemscore.Lipo>
110.5228

> <Gold.Chemscore.Internal_Hbond>
0.0000

> <Gold.Chemscore.DEClash>
0.0009

> <Gold.Chemscore.DEInternal>
1.0775

> <Gold.Chemscore.Rot>
2.5806

> <Gold.Chemscore.Internal.Correction>
   9.000000E+99

> <Gold.Chemscore.Hbonds>
donor molecule, donor type, donor heavy atom, donor atom, acceptor molecule, acceptor atom, score
      L1  H    23    50       P1  7948  0.40
      P1  H  6896  6909       L1    17  0.25
      P1  H  7997  8008       L1    12  0.65
      P1  H 10752 10763       L1    14  0.11

> <Gold.Chemscore.Hbond.Weighted>
-6.6074

> <Gold.Chemscore.Metal.Weighted>
-0.0000

> <Gold.Chemscore.Lipo.Weighted>
-12.9312

> <Gold.Chemscore.Internal_Hbond.Weighted>
0.0000

> <Gold.Chemscore.DEClash.Weighted>
0.0009

> <Gold.Chemscore.DEInternal.Weighted>
1.0775

> <Gold.Chemscore.Rot.Weighted>
6.6062

> <Gold.Chemscore.Internal.Correction.Weighted>
   9.000000E+99

> <Gold.Protein.RotatedTorsions>
[ 6907 6896 6895 6894 ] final   89.76 input  -60.11 | X-H torsion
[ 7974 7965 7964 7962 ] final  114.62 input  175.53 | X-H torsion
[ 8008 7997 7996 7995 ] final  -56.14 input   59.86 | X-H torsion
[ 10167 10162 10161 10158 ] final  -47.62 input  -65.29 | X-H torsion
[ 10718 10713 10712 10709 ] final -112.14 input   66.30 | X-H torsion
[ 10763 10752 10751 10750 ] final   54.73 input  -60.55 | X-H torsion
[ 11005 11000 10999 10996 ] final  -72.76 input  -57.11 | X-H torsion

> <Gold.Protein.ActiveResidues>
 VAL166  LYS551  ARG553  GLY616  TRP617  ASP618  TYR619  PRO620  LYS621  CYS622 
 ASP623  PHE694  ASN695  SER759  ASP760  ASP761  ALA762  ILE779  LEU786  VAL792 
 PHE793  MET794  SER795  GLU796  ALA797  LYS798  CYS799  TRP800  GLU811  SER814 

> <Gold.Protein.RotatedAtoms>
  152.5439  134.1916  159.8676 H   0  0  0  0  0  0  0  0  0  0  0  0  # atno 6907 bound_to 6896
  151.1911  133.4659  159.2602 H   0  0  0  0  0  0  0  0  0  0  0  0  # atno 6908 bound_to 6896
  151.1082  135.0023  159.8537 H   0  0  0  0  0  0  0  0  0  0  0  0  # atno 6909 bound_to 6896
  145.2022  139.2947  143.4312 H   0  0  0  0  0  0  0  0  0  0  0  0  # atno 7974 bound_to 7965
  154.4219  140.1137  156.5589 H   0  0  0  0  0  0  0  0  0  0  0  0  # atno 8008 bound_to 7997
  155.6332  140.3496  155.4671 H   0  0  0  0  0  0  0  0  0  0  0  0  # atno 8009 bound_to 7997
  155.9931  140.1183  157.0609 H   0  0  0  0  0  0  0  0  0  0  0  0  # atno 8010 bound_to 7997
  140.6767  143.2776  151.3953 H   0  0  0  0  0  0  0  0  0  0  0  0  # atno 10167 bound_to 10162
  156.0688  130.5904  150.8468 H   0  0  0  0  0  0  0  0  0  0  0  0  # atno 10718 bound_to 10713
  152.9808  135.5735  154.4951 H   0  0  0  0  0  0  0  0  0  0  0  0  # atno 10763 bound_to 10752
  154.4479  135.2777  155.1803 H   0  0  0  0  0  0  0  0  0  0  0  0  # atno 10764 bound_to 10752
  154.3444  135.6222  153.5665 H   0  0  0  0  0  0  0  0  0  0  0  0  # atno 10765 bound_to 10752
  141.1613  133.6857  156.7108 H   0  0  0  0  0  0  0  0  0  0  0  0  # atno 11005 bound_to 11000
  146.3415  140.2270  142.8592 LP  0  0  0  0  0  0  0  0  0  0  0  0  # atno 17320 bound_to 7965
  144.9937  140.8570  143.5324 LP  0  0  0  0  0  0  0  0  0  0  0  0  # atno 17321 bound_to 7965
  139.6064  144.1189  152.2253 LP  0  0  0  0  0  0  0  0  0  0  0  0  # atno 17342 bound_to 10162
  140.0589  144.5872  150.7278 LP  0  0  0  0  0  0  0  0  0  0  0  0  # atno 17343 bound_to 10162
  157.5746  131.0946  150.9365 LP  0  0  0  0  0  0  0  0  0  0  0  0  # atno 17370 bound_to 10713
  156.9574  130.5442  149.5284 LP  0  0  0  0  0  0  0  0  0  0  0  0  # atno 17371 bound_to 10713
  140.2888  134.8257  157.3998 LP  0  0  0  0  0  0  0  0  0  0  0  0  # atno 17394 bound_to 11000
  140.1365  134.5027  155.8064 LP  0  0  0  0  0  0  0  0  0  0  0  0  # atno 17395 bound_to 11000

$$$$
