AV-unprocessed.smi:1637|AV-procd|sdf|6544|dock5
  -GOLD-   22720 7223D 1   1.00000     0.00000
 Structure written by MMmdl.
 38 39  0  0  0  0  0  0  0  0  1 V2000
  151.0105  130.8654  158.7952 C   0  0  0  0  0  0  0  0  0  0  0  0
  150.7080  130.7445  157.4096 O   0  0  0  0  0  0  0  0  0  0  0  0
  150.3941  131.8890  156.7055 C   0  0  0  0  0  0  0  0  0  0  0  0
  150.0861  131.7745  155.3352 C   0  0  0  0  0  0  0  0  0  0  0  0
  149.7685  132.9378  154.6082 C   0  0  0  0  0  0  0  0  0  0  0  0
  149.7763  134.1851  155.2767 C   0  0  0  0  0  0  0  0  0  0  0  0
  149.4579  135.4247  154.6599 N   0  0  0  0  0  0  0  0  0  0  0  0
  149.1756  136.6006  155.2461 C   0  0  0  0  0  0  0  0  0  0  0  0
  149.1366  136.7999  156.4600 O   0  0  0  0  0  0  0  0  0  0  0  0
  148.9147  137.5455  154.3316 N   0  0  0  0  0  0  0  0  0  0  0  0
  148.5749  138.9397  154.6165 C   0  0  2  0  0  0  0  0  0  0  0  0
  147.4937  139.4526  153.6303 C   0  0  0  0  0  0  0  0  0  0  0  0
  147.4547  140.9777  153.3982 C   0  0  0  0  0  0  0  0  0  0  0  0
  147.3473  141.8410  154.6714 C   0  0  0  0  0  0  0  0  0  0  0  0
  148.4245  141.6137  155.7586 C   0  0  0  0  0  0  0  0  0  0  0  0
  149.6799  141.0554  155.2576 N   0  0  0  0  0  0  0  0  0  0  0  0
  149.8306  139.8242  154.7394 C   0  0  0  0  0  0  0  0  0  0  0  0
  150.9268  139.4191  154.3547 O   0  0  0  0  0  0  0  0  0  0  0  0
  150.0810  134.1898  156.6535 C   0  0  0  0  0  0  0  0  0  0  0  0
  150.3885  133.0790  157.3557 N   0  0  0  0  0  0  0  0  0  0  0  0
  151.2293  129.8794  159.2043 H   0  0  0  0  0  0  0  0  0  0  0  0
  150.1680  131.2754  159.3538 H   0  0  0  0  0  0  0  0  0  0  0  0
  151.8878  131.4931  158.9580 H   0  0  0  0  0  0  0  0  0  0  0  0
  150.0901  130.8097  154.8499 H   0  0  0  0  0  0  0  0  0  0  0  0
  149.5141  132.8476  153.5634 H   0  0  0  0  0  0  0  0  0  0  0  0
  149.3711  135.3982  153.6544 H   0  0  0  0  0  0  0  0  0  0  0  0
  148.9715  137.2911  153.3561 H   0  0  0  0  0  0  0  0  0  0  0  0
  148.1317  138.9407  155.6132 H   0  0  0  0  0  0  0  0  0  0  0  0
  147.6373  138.9785  152.6583 H   0  0  0  0  0  0  0  0  0  0  0  0
  146.5152  139.1180  153.9768 H   0  0  0  0  0  0  0  0  0  0  0  0
  148.3361  141.2803  152.8311 H   0  0  0  0  0  0  0  0  0  0  0  0
  146.6096  141.2082  152.7486 H   0  0  0  0  0  0  0  0  0  0  0  0
  147.3880  142.8863  154.3631 H   0  0  0  0  0  0  0  0  0  0  0  0
  146.3619  141.7094  155.1193 H   0  0  0  0  0  0  0  0  0  0  0  0
  148.6438  142.5590  156.2554 H   0  0  0  0  0  0  0  0  0  0  0  0
  148.0328  140.9638  156.5420 H   0  0  0  0  0  0  0  0  0  0  0  0
  150.4994  141.6416  155.3253 H   0  0  0  0  0  0  0  0  0  0  0  0
  150.0849  135.1153  157.2106 H   0  0  0  0  0  0  0  0  0  0  0  0
  1  2  1  0  0  0  0
  1 21  1  0  0  0  0
  1 22  1  0  0  0  0
  1 23  1  0  0  0  0
  2  3  1  0  0  0  0
  3 20  1  0  0  0  0
  3  4  2  0  0  0  0
  4  5  1  0  0  0  0
  4 24  1  0  0  0  0
  5  6  2  0  0  0  0
  5 25  1  0  0  0  0
  6  7  1  0  0  0  0
  6 19  1  0  0  0  0
  7  8  1  0  0  0  0
  7 26  1  0  0  0  0
  8  9  2  0  0  0  0
  8 10  1  0  0  0  0
 10 11  1  0  0  0  0
 10 27  1  0  0  0  0
 11 17  1  0  0  0  0
 11 12  1  0  0  0  0
 11 28  1  0  0  0  0
 12 13  1  0  0  0  0
 12 29  1  0  0  0  0
 12 30  1  0  0  0  0
 13 14  1  0  0  0  0
 13 31  1  0  0  0  0
 13 32  1  0  0  0  0
 14 15  1  0  0  0  0
 14 33  1  0  0  0  0
 14 34  1  0  0  0  0
 15 16  1  0  0  0  0
 15 35  1  0  0  0  0
 15 36  1  0  0  0  0
 16 17  1  0  0  0  0
 16 37  1  0  0  0  0
 17 18  2  0  0  0  0
 19 20  2  0  0  0  0
 19 38  1  0  0  0  0
M  END
> <s_m_source_file>
AV-unprocessed.smi

> <i_m_source_file_index>
1637

> <i_lp_mmshare_version>
43012

> <i_f3d_flags>
0

> <s_epik_input>
W0NIM11PYzFbY0hdW2NIXWMoW2NIXW4xKVtOSF1DKD1PKVtOSF1bQ0BASF0yW0NIMl1bQ0gyXVtDSDJdW0NIMl1bTkhdQzI9Tw==

> <s_epik_cmdline>
J2VwaWtfcHl0aG9uJywgJy1waCcsICc3LjAnLCAnLXRuJywgJzgnLCAnLW1hJywgJzIwMCcsICctbWV0YWxfYmluZGluZycsICctaW1hZScsICc8aW5maWxlLm1hZT4nLCAnLW9tYWUnLCAnPG91dGZpbGUubWFlPic=

> <r_lp_tautomer_probability>
1

> <r_epik_Ionization_Penalty>
8.30847e-05

> <r_epik_Ionization_Penalty_Charging>
0

> <r_epik_Ionization_Penalty_Neutral>
8.30847e-05

> <r_epik_State_Penalty>
-0

> <r_epik_Charging_Adjusted_Penalty>
0

> <i_epik_Tot_Q>
0

> <i_epik_Tot_abs_Q>
0

> <r_epik_Metal_State_Penalty>
-0

> <b_epik_Metal_Only>
0

> <s_lp_Force_Field>
OPLS_2005

> <r_lp_Energy>
17.0101

> <b_lp_Chiralities_Consistent>
1

> <s_lp_Variant>
AV-unprocessed.smi:1637-1

> <Gold.Version>
5.8.1

> <Gold.Id.Protein>
6NUR|6NUR_protein|mol2

> <Gold.PLP.Fitness>
37.8649

> <Gold.PLP.PLP>
-26.6274

> <Gold.PLP.part.hbond>
-4.0000

> <Gold.PLP.part.metal>
0.0000

> <Gold.PLP.part.buried>
-3.6654

> <Gold.PLP.part.nonpolar>
-20.5896

> <Gold.PLP.part.repulsive>
0.3346

> <Gold.PLP.ligand.clash>
0.0000

> <Gold.PLP.ligand.torsion>
0.3829

> <Gold.PLP.Chemscore.Hbond>
3.9833

> <Gold.PLP.Chemscore.CHOScore>
0.0000

> <Gold.PLP.Chemscore.Metal>
0.0000

> <Gold.Chemscore.Hbonds>
donor molecule, donor type, donor heavy atom, donor atom, acceptor molecule, acceptor atom, score
      L1  H     7    26       P1  7948  1.00
      L1  H    10    27       P1  7948  1.00
      P1  H  6896  6907       L1    20  0.95
      P1  H  7989  7998       L1    18  1.00

> <Gold.PLP.Chemscore.Internal.Correction>
0.0535

> <Gold.Rescore>
     Score         DG    S(hbond)    S(metal)    S(lipo)     H(rot)  DE(clash)    DE(int)     intcor
     17.27     -19.09       3.44        0.00      46.62       1.31       0.03       1.79       ----

> <Gold.Chemscore.Fitness>
17.2652

> <Gold.Chemscore.DG>
-19.0855

> <Gold.Chemscore.ZeroCoef>
-5.4800

> <Gold.Chemscore.Hbond>
3.4436

> <Gold.Chemscore.Metal>
0.0000

> <Gold.Chemscore.Lipo>
46.6237

> <Gold.Chemscore.Internal_Hbond>
0.0000

> <Gold.Chemscore.DEClash>
0.0270

> <Gold.Chemscore.DEInternal>
1.7933

> <Gold.Chemscore.Rot>
1.3090

> <Gold.Chemscore.Internal.Correction>
   9.000000E+99

> <Gold.Chemscore.Hbonds>
donor molecule, donor type, donor heavy atom, donor atom, acceptor molecule, acceptor atom, score
      L1  H     7    26       P1  7948  0.24
      L1  H    10    27       P1  7948  1.00
      P1  H  6896  6907       L1    20  0.76
      P1  H  7989  7998       L1    18  0.45

> <Gold.Chemscore.Hbond.Weighted>
-11.5015

> <Gold.Chemscore.Metal.Weighted>
-0.0000

> <Gold.Chemscore.Lipo.Weighted>
-5.4550

> <Gold.Chemscore.Internal_Hbond.Weighted>
0.0000

> <Gold.Chemscore.DEClash.Weighted>
0.0270

> <Gold.Chemscore.DEInternal.Weighted>
1.7933

> <Gold.Chemscore.Rot.Weighted>
3.3509

> <Gold.Chemscore.Internal.Correction.Weighted>
   9.000000E+99

> <Gold.Protein.RotatedTorsions>
[ 6907 6896 6895 6894 ] final -153.32 input  -60.11 | X-H torsion
[ 7974 7965 7964 7962 ] final  148.73 input  175.53 | X-H torsion
[ 8008 7997 7996 7995 ] final   30.81 input   59.86 | X-H torsion
[ 10167 10162 10161 10158 ] final  103.30 input  -65.29 | X-H torsion
[ 10718 10713 10712 10709 ] final -112.76 input   66.30 | X-H torsion
[ 10763 10752 10751 10750 ] final -127.70 input  -60.55 | X-H torsion
[ 11005 11000 10999 10996 ] final -125.39 input  -57.11 | X-H torsion

> <Gold.Protein.ActiveResidues>
 VAL166  LYS551  ARG553  GLY616  TRP617  ASP618  TYR619  PRO620  LYS621  CYS622 
 ASP623  PHE694  ASN695  SER759  ASP760  ASP761  ALA762  ILE779  LEU786  VAL792 
 PHE793  MET794  SER795  GLU796  ALA797  LYS798  CYS799  TRP800  GLU811  SER814 

> <Gold.Protein.RotatedAtoms>
  151.2409  133.4400  159.2607 H   0  0  0  0  0  0  0  0  0  0  0  0  # atno 6907 bound_to 6896
  151.0706  134.9796  159.8317 H   0  0  0  0  0  0  0  0  0  0  0  0  # atno 6908 bound_to 6896
  152.5411  134.2354  159.8894 H   0  0  0  0  0  0  0  0  0  0  0  0  # atno 6909 bound_to 6896
  144.8491  139.6191  143.5982 H   0  0  0  0  0  0  0  0  0  0  0  0  # atno 7974 bound_to 7965
  155.0964  140.3225  155.4559 H   0  0  0  0  0  0  0  0  0  0  0  0  # atno 8008 bound_to 7997
  156.2729  140.2069  156.6037 H   0  0  0  0  0  0  0  0  0  0  0  0  # atno 8009 bound_to 7997
  154.6863  140.0521  157.0305 H   0  0  0  0  0  0  0  0  0  0  0  0  # atno 8010 bound_to 7997
  139.7275  144.7044  151.0774 H   0  0  0  0  0  0  0  0  0  0  0  0  # atno 10167 bound_to 10162
  156.0725  130.5937  150.8551 H   0  0  0  0  0  0  0  0  0  0  0  0  # atno 10718 bound_to 10713
  154.8753  135.3953  154.3636 H   0  0  0  0  0  0  0  0  0  0  0  0  # atno 10763 bound_to 10752
  153.4405  135.7026  153.6177 H   0  0  0  0  0  0  0  0  0  0  0  0  # atno 10764 bound_to 10752
  153.4760  135.3780  155.2386 H   0  0  0  0  0  0  0  0  0  0  0  0  # atno 10765 bound_to 10752
  140.9766  134.0732  157.3812 H   0  0  0  0  0  0  0  0  0  0  0  0  # atno 11005 bound_to 11000
  146.2770  139.6778  142.9256 LP  0  0  0  0  0  0  0  0  0  0  0  0  # atno 17320 bound_to 7965
  145.4536  141.0429  143.2791 LP  0  0  0  0  0  0  0  0  0  0  0  0  # atno 17321 bound_to 7965
  140.7765  143.5086  150.9681 LP  0  0  0  0  0  0  0  0  0  0  0  0  # atno 17342 bound_to 10162
  139.8773  143.7116  152.3160 LP  0  0  0  0  0  0  0  0  0  0  0  0  # atno 17343 bound_to 10162
  157.5803  131.0946  150.9281 LP  0  0  0  0  0  0  0  0  0  0  0  0  # atno 17370 bound_to 10713
  156.9478  130.5408  149.5281 LP  0  0  0  0  0  0  0  0  0  0  0  0  # atno 17371 bound_to 10713
  139.8933  135.0129  156.6891 LP  0  0  0  0  0  0  0  0  0  0  0  0  # atno 17394 bound_to 11000
  140.7250  133.9108  155.8172 LP  0  0  0  0  0  0  0  0  0  0  0  0  # atno 17395 bound_to 11000

$$$$
