AV-unprocessed.smi:2851|AV-procd|sdf|10971|dock3
  -GOLD-   2272015423D 1   1.00000     0.00000
 Structure written by MMmdl.
 43 44  0  0  0  0  0  0  0  0  2 V2000
  151.8239  139.9371  156.6898 C   0  0  0  0  0  0  0  0  0  0  0  0
  152.3155  140.7328  157.8648 C   0  0  0  0  0  0  0  0  0  0  0  0
  153.2979  140.2533  158.6097 N   0  0  0  0  0  0  0  0  0  0  0  0
  153.5072  141.1963  159.5506 N   0  0  0  0  0  0  0  0  0  0  0  0
  154.5446  140.9921  160.5427 C   0  0  0  0  0  0  0  0  0  0  0  0
  152.6468  142.2672  159.4076 C   0  0  0  0  0  0  0  0  0  0  0  0
  152.6821  143.4452  160.3279 C   0  0  0  0  0  0  0  0  0  0  0  0
  151.8555  142.0029  158.3208 C   0  0  0  0  0  0  0  0  0  0  0  0
  150.7595  142.8466  157.7200 C   0  0  0  0  0  0  0  0  0  0  0  0
  149.4196  142.1292  157.8809 C   0  0  0  0  0  0  0  0  0  0  0  0
  149.3797  141.0565  158.4807 O   0  0  0  0  0  0  0  0  0  0  0  0
  148.3680  142.7433  157.3082 N   0  0  0  0  0  0  0  0  0  0  0  0
  146.9427  142.3920  157.1973 C   0  0  0  0  0  0  0  0  0  0  0  0
  146.3406  142.7528  158.5787 C   0  0  0  0  0  0  0  0  0  0  0  0
  145.9334  141.8198  159.3066 O   0  0  0  0  0  0  0  0  0  0  0  0
  146.2493  143.9659  158.8763 O   0  5  0  0  0  0  0  0  0  0  0  0
  146.1374  143.1065  156.0617 C   0  0  0  0  0  0  0  0  0  0  0  0
  146.4618  142.6026  154.6405 C   0  0  0  0  0  0  0  0  0  0  0  0
  146.3224  141.0808  154.5358 C   0  0  0  0  0  0  0  0  0  0  0  0
  147.2045  140.3895  155.5807 C   0  0  0  0  0  0  0  0  0  0  0  0
  146.8444  140.8507  157.0027 C   0  0  0  0  0  0  0  0  0  0  0  0
  150.8476  139.4995  156.8980 H   0  0  0  0  0  0  0  0  0  0  0  0
  152.5063  139.1251  156.4361 H   0  0  0  0  0  0  0  0  0  0  0  0
  151.7222  140.5691  155.8074 H   0  0  0  0  0  0  0  0  0  0  0  0
  154.0883  140.7950  161.5129 H   0  0  0  0  0  0  0  0  0  0  0  0
  155.1654  141.8854  160.6149 H   0  0  0  0  0  0  0  0  0  0  0  0
  155.1777  140.1470  160.2694 H   0  0  0  0  0  0  0  0  0  0  0  0
  151.8045  144.0773  160.1961 H   0  0  0  0  0  0  0  0  0  0  0  0
  153.5649  144.0556  160.1366 H   0  0  0  0  0  0  0  0  0  0  0  0
  152.7085  143.1276  161.3702 H   0  0  0  0  0  0  0  0  0  0  0  0
  150.6983  143.8224  158.2027 H   0  0  0  0  0  0  0  0  0  0  0  0
  150.9409  143.0473  156.6634 H   0  0  0  0  0  0  0  0  0  0  0  0
  148.5979  143.6044  156.8343 H   0  0  0  0  0  0  0  0  0  0  0  0
  145.0725  142.9317  156.2257 H   0  0  0  0  0  0  0  0  0  0  0  0
  146.2514  144.1897  156.1088 H   0  0  0  0  0  0  0  0  0  0  0  0
  145.7983  143.0834  153.9214 H   0  0  0  0  0  0  0  0  0  0  0  0
  147.4732  142.8868  154.3541 H   0  0  0  0  0  0  0  0  0  0  0  0
  145.2807  140.7936  154.6832 H   0  0  0  0  0  0  0  0  0  0  0  0
  146.5990  140.7494  153.5346 H   0  0  0  0  0  0  0  0  0  0  0  0
  147.0885  139.3081  155.5039 H   0  0  0  0  0  0  0  0  0  0  0  0
  148.2547  140.6025  155.3770 H   0  0  0  0  0  0  0  0  0  0  0  0
  147.4890  140.3294  157.7127 H   0  0  0  0  0  0  0  0  0  0  0  0
  145.8284  140.5166  157.2212 H   0  0  0  0  0  0  0  0  0  0  0  0
  1  2  1  0  0  0  0
  1 22  1  0  0  0  0
  1 23  1  0  0  0  0
  1 24  1  0  0  0  0
  2  8  1  0  0  0  0
  2  3  2  0  0  0  0
  3  4  1  0  0  0  0
  4  5  1  0  0  0  0
  4  6  1  0  0  0  0
  5 25  1  0  0  0  0
  5 26  1  0  0  0  0
  5 27  1  0  0  0  0
  6  7  1  0  0  0  0
  6  8  2  0  0  0  0
  7 28  1  0  0  0  0
  7 29  1  0  0  0  0
  7 30  1  0  0  0  0
  8  9  1  0  0  0  0
  9 10  1  0  0  0  0
  9 31  1  0  0  0  0
  9 32  1  0  0  0  0
 10 11  2  0  0  0  0
 10 12  1  0  0  0  0
 12 13  1  0  0  0  0
 12 33  1  0  0  0  0
 13 21  1  0  0  0  0
 13 14  1  0  0  0  0
 13 17  1  0  0  0  0
 14 15  2  0  0  0  0
 14 16  1  0  0  0  0
 17 18  1  0  0  0  0
 17 34  1  0  0  0  0
 17 35  1  0  0  0  0
 18 19  1  0  0  0  0
 18 36  1  0  0  0  0
 18 37  1  0  0  0  0
 19 20  1  0  0  0  0
 19 38  1  0  0  0  0
 19 39  1  0  0  0  0
 20 21  1  0  0  0  0
 20 40  1  0  0  0  0
 20 41  1  0  0  0  0
 21 42  1  0  0  0  0
 21 43  1  0  0  0  0
M  CHG  1  16  -1
M  END
> <s_m_source_file>
AV-unprocessed.smi

> <i_m_source_file_index>
2851

> <i_lp_mmshare_version>
43012

> <i_f3d_flags>
0

> <s_epik_input>
W0NIM11jMW5uKFtDSDNdKWMoW0NIM10pYzFbQ0gyXUMoPU8pW05IXUMyKEMoPU8pW09IXSlbQ0gyXVtDSDJdW0NIMl1bQ0gyXVtDSDJdMg==

> <s_epik_cmdline>
J2VwaWtfcHl0aG9uJywgJy1waCcsICc3LjAnLCAnLXRuJywgJzgnLCAnLW1hJywgJzIwMCcsICctbWV0YWxfYmluZGluZycsICctaW1hZScsICc8aW5maWxlLm1hZT4nLCAnLW9tYWUnLCAnPG91dGZpbGUubWFlPic=

> <r_lp_tautomer_probability>
1

> <r_epik_Ionization_Penalty>
0.00398412

> <r_epik_Ionization_Penalty_Charging>
0.000391215

> <r_epik_Ionization_Penalty_Neutral>
0.0035929

> <r_epik_State_Penalty>
-0

> <r_epik_Charging_Adjusted_Penalty>
0.000391215

> <i_epik_Tot_Q>
-1

> <i_epik_Tot_abs_Q>
1

> <r_epik_Metal_State_Penalty>
-0

> <b_epik_Metal_Only>
0

> <s_lp_Force_Field>
OPLS_2005

> <r_lp_Energy>
3.24008

> <b_lp_Chiralities_Consistent>
1

> <s_lp_Variant>
AV-unprocessed.smi:2851-1

> <Gold.Version>
5.8.1

> <Gold.Id.Protein>
6NUR|6NUR_protein|mol2

> <Gold.PLP.Fitness>
42.8689

> <Gold.PLP.PLP>
-32.2539

> <Gold.PLP.part.hbond>
-3.3104

> <Gold.PLP.part.metal>
0.0000

> <Gold.PLP.part.buried>
-2.7850

> <Gold.PLP.part.nonpolar>
-25.6109

> <Gold.PLP.part.repulsive>
0.1881

> <Gold.PLP.ligand.clash>
0.0000

> <Gold.PLP.ligand.torsion>
0.5688

> <Gold.PLP.Chemscore.Hbond>
3.8960

> <Gold.PLP.Chemscore.CHOScore>
0.0000

> <Gold.PLP.Chemscore.Metal>
0.0000

> <Gold.Chemscore.Hbonds>
donor molecule, donor type, donor heavy atom, donor atom, acceptor molecule, acceptor atom, score
      L1  H    12    33       P1  8028  1.00
      P1  H  6934  6946       L1    15  2.00
      P1  H  7997  8010       L1     3  0.83

> <Gold.PLP.Chemscore.Internal.Correction>
0.0645

> <Gold.Rescore>
     Score         DG    S(hbond)    S(metal)    S(lipo)     H(rot)  DE(clash)    DE(int)     intcor
     12.59     -15.11       1.44        0.00      82.29       1.88       0.08       2.45       ----

> <Gold.Chemscore.Fitness>
12.5889

> <Gold.Chemscore.DG>
-15.1129

> <Gold.Chemscore.ZeroCoef>
-5.4800

> <Gold.Chemscore.Hbond>
1.4430

> <Gold.Chemscore.Metal>
0.0000

> <Gold.Chemscore.Lipo>
82.2927

> <Gold.Chemscore.Internal_Hbond>
0.0000

> <Gold.Chemscore.DEClash>
0.0757

> <Gold.Chemscore.DEInternal>
2.4483

> <Gold.Chemscore.Rot>
1.8809

> <Gold.Chemscore.Internal.Correction>
   9.000000E+99

> <Gold.Chemscore.Hbonds>
donor molecule, donor type, donor heavy atom, donor atom, acceptor molecule, acceptor atom, score
      L1  H    12    33       P1  8028  0.25
      P1  H  6934  6946       L1    15  0.96
      P1  H  7997  8010       L1     3  0.18

> <Gold.Chemscore.Hbond.Weighted>
-4.8198

> <Gold.Chemscore.Metal.Weighted>
-0.0000

> <Gold.Chemscore.Lipo.Weighted>
-9.6282

> <Gold.Chemscore.Internal_Hbond.Weighted>
0.0000

> <Gold.Chemscore.DEClash.Weighted>
0.0757

> <Gold.Chemscore.DEInternal.Weighted>
2.4483

> <Gold.Chemscore.Rot.Weighted>
4.8152

> <Gold.Chemscore.Internal.Correction.Weighted>
   9.000000E+99

> <Gold.Protein.RotatedTorsions>
[ 6907 6896 6895 6894 ] final   53.36 input  -60.11 | X-H torsion
[ 7974 7965 7964 7962 ] final  120.78 input  175.53 | X-H torsion
[ 8008 7997 7996 7995 ] final   20.69 input   59.86 | X-H torsion
[ 10167 10162 10161 10158 ] final  165.13 input  -65.29 | X-H torsion
[ 10718 10713 10712 10709 ] final  159.93 input   66.30 | X-H torsion
[ 10763 10752 10751 10750 ] final   89.28 input  -60.55 | X-H torsion
[ 11005 11000 10999 10996 ] final   -1.37 input  -57.11 | X-H torsion

> <Gold.Protein.ActiveResidues>
 VAL166  LYS551  ARG553  GLY616  TRP617  ASP618  TYR619  PRO620  LYS621  CYS622 
 ASP623  PHE694  ASN695  SER759  ASP760  ASP761  ALA762  ILE779  LEU786  VAL792 
 PHE793  MET794  SER795  GLU796  ALA797  LYS798  CYS799  TRP800  GLU811  SER814 

> <Gold.Protein.RotatedAtoms>
  152.3329  134.7236  160.0284 H   0  0  0  0  0  0  0  0  0  0  0  0  # atno 6907 bound_to 6896
  151.7647  133.3331  159.3435 H   0  0  0  0  0  0  0  0  0  0  0  0  # atno 6908 bound_to 6896
  150.7433  134.6006  159.6079 H   0  0  0  0  0  0  0  0  0  0  0  0  # atno 6909 bound_to 6896
  145.1271  139.3351  143.4684 H   0  0  0  0  0  0  0  0  0  0  0  0  # atno 7974 bound_to 7965
  154.9393  140.3051  155.5128 H   0  0  0  0  0  0  0  0  0  0  0  0  # atno 8008 bound_to 7997
  156.2997  140.2339  156.4398 H   0  0  0  0  0  0  0  0  0  0  0  0  # atno 8009 bound_to 7997
  154.8161  140.0426  157.1366 H   0  0  0  0  0  0  0  0  0  0  0  0  # atno 8010 bound_to 7997
  139.4900  144.4163  151.9239 H   0  0  0  0  0  0  0  0  0  0  0  0  # atno 10167 bound_to 10162
  157.1575  131.0579  151.2249 H   0  0  0  0  0  0  0  0  0  0  0  0  # atno 10718 bound_to 10713
  153.1855  135.4476  155.0082 H   0  0  0  0  0  0  0  0  0  0  0  0  # atno 10763 bound_to 10752
  154.8057  135.3273  154.7439 H   0  0  0  0  0  0  0  0  0  0  0  0  # atno 10764 bound_to 10752
  153.7899  135.6971  153.4928 H   0  0  0  0  0  0  0  0  0  0  0  0  # atno 10765 bound_to 10752
  140.6465  133.9442  155.8356 H   0  0  0  0  0  0  0  0  0  0  0  0  # atno 11005 bound_to 11000
  146.3517  140.1255  142.8599 LP  0  0  0  0  0  0  0  0  0  0  0  0  # atno 17320 bound_to 7965
  145.0676  140.9132  143.4901 LP  0  0  0  0  0  0  0  0  0  0  0  0  # atno 17321 bound_to 7965
  140.3606  144.2977  150.5934 LP  0  0  0  0  0  0  0  0  0  0  0  0  # atno 17342 bound_to 10162
  140.5406  143.2224  151.8091 LP  0  0  0  0  0  0  0  0  0  0  0  0  # atno 17343 bound_to 10162
  157.4164  130.7413  149.6878 LP  0  0  0  0  0  0  0  0  0  0  0  0  # atno 17370 bound_to 10713
  155.9759  130.4082  150.3813 LP  0  0  0  0  0  0  0  0  0  0  0  0  # atno 17371 bound_to 10713
  141.0568  134.0404  157.3712 LP  0  0  0  0  0  0  0  0  0  0  0  0  # atno 17394 bound_to 11000
  139.9061  135.0179  156.7491 LP  0  0  0  0  0  0  0  0  0  0  0  0  # atno 17395 bound_to 11000

$$$$
