AV-unprocessed.smi:2457|AV-procd|sdf|9704|dock4
  -GOLD-   2272013343D 1   1.00000     0.00000
 Structure written by MMmdl.
 40 41  0  0  0  0  0  0  0  0  1 V2000
  144.3659  142.5079  157.1145 C   0  0  0  0  0  0  0  0  0  0  0  0
  145.0812  142.6692  155.8106 C   0  0  0  0  0  0  0  0  0  0  0  0
  144.9763  143.7205  154.9349 C   0  0  0  0  0  0  0  0  0  0  0  0
  146.0009  143.5092  153.5423 S   0  0  0  0  0  0  0  0  0  0  0  0
  146.5466  141.9750  154.2126 C   0  0  0  0  0  0  0  0  0  0  0  0
  147.5927  141.1206  153.5610 C   0  0  2  0  0  0  0  0  0  0  0  0
  146.9850  139.8916  152.8699 C   0  0  0  0  0  0  0  0  0  0  0  0
  148.7641  140.7631  154.5034 C   0  0  0  0  0  0  0  0  0  0  0  0
  149.2614  141.9300  155.2308 N   0  0  0  0  0  0  0  0  0  0  0  0
  150.3409  141.9447  156.0262 C   0  0  0  0  0  0  0  0  0  0  0  0
  151.1121  140.9953  156.1656 O   0  0  0  0  0  0  0  0  0  0  0  0
  150.4531  143.1039  156.6888 N   0  0  0  0  0  0  0  0  0  0  0  0
  151.4485  143.3835  157.7192 C   0  0  2  0  0  0  0  0  0  0  0  0
  151.6501  142.1402  158.6120 C   0  0  0  0  0  0  0  0  0  0  0  0
  152.7339  142.3524  159.6809 C   0  0  0  0  0  0  0  0  0  0  0  0
  152.3927  143.5013  160.6407 C   0  0  0  0  0  0  0  0  0  0  0  0
  152.2626  145.0800  159.7579 S   0  0  0  0  0  0  0  0  0  0  0  0
  151.0049  144.6073  158.5388 C   0  0  0  0  0  0  0  0  0  0  0  0
  145.9720  141.6812  155.3831 N   0  0  0  0  0  0  0  0  0  0  0  0
  143.5865  143.2602  157.2371 H   0  0  0  0  0  0  0  0  0  0  0  0
  145.0550  142.6064  157.9536 H   0  0  0  0  0  0  0  0  0  0  0  0
  143.8929  141.5284  157.1868 H   0  0  0  0  0  0  0  0  0  0  0  0
  144.3643  144.6056  155.0257 H   0  0  0  0  0  0  0  0  0  0  0  0
  148.0201  141.7303  152.7637 H   0  0  0  0  0  0  0  0  0  0  0  0
  146.2303  140.1852  152.1397 H   0  0  0  0  0  0  0  0  0  0  0  0
  146.5098  139.2261  153.5915 H   0  0  0  0  0  0  0  0  0  0  0  0
  147.7491  139.3188  152.3443 H   0  0  0  0  0  0  0  0  0  0  0  0
  148.4569  139.9808  155.1997 H   0  0  0  0  0  0  0  0  0  0  0  0
  149.5895  140.3458  153.9260 H   0  0  0  0  0  0  0  0  0  0  0  0
  148.6972  142.7656  155.1848 H   0  0  0  0  0  0  0  0  0  0  0  0
  149.7700  143.8246  156.5078 H   0  0  0  0  0  0  0  0  0  0  0  0
  152.3950  143.6282  157.2330 H   0  0  0  0  0  0  0  0  0  0  0  0
  150.7089  141.8709  159.0934 H   0  0  0  0  0  0  0  0  0  0  0  0
  151.9301  141.2844  157.9962 H   0  0  0  0  0  0  0  0  0  0  0  0
  152.8585  141.4322  160.2527 H   0  0  0  0  0  0  0  0  0  0  0  0
  153.6936  142.5460  159.1999 H   0  0  0  0  0  0  0  0  0  0  0  0
  151.4513  143.3017  161.1537 H   0  0  0  0  0  0  0  0  0  0  0  0
  153.1616  143.5934  161.4080 H   0  0  0  0  0  0  0  0  0  0  0  0
  150.8278  145.4610  157.8837 H   0  0  0  0  0  0  0  0  0  0  0  0
  150.0685  144.4028  159.0590 H   0  0  0  0  0  0  0  0  0  0  0  0
  1  2  1  0  0  0  0
  1 20  1  0  0  0  0
  1 21  1  0  0  0  0
  1 22  1  0  0  0  0
  2 19  1  0  0  0  0
  2  3  2  0  0  0  0
  3  4  1  0  0  0  0
  3 23  1  0  0  0  0
  4  5  1  0  0  0  0
  5  6  1  0  0  0  0
  5 19  2  0  0  0  0
  6  7  1  0  0  0  0
  6  8  1  0  0  0  0
  6 24  1  0  0  0  0
  7 25  1  0  0  0  0
  7 26  1  0  0  0  0
  7 27  1  0  0  0  0
  8  9  1  0  0  0  0
  8 28  1  0  0  0  0
  8 29  1  0  0  0  0
  9 10  1  0  0  0  0
  9 30  1  0  0  0  0
 10 11  2  0  0  0  0
 10 12  1  0  0  0  0
 12 13  1  0  0  0  0
 12 31  1  0  0  0  0
 13 18  1  0  0  0  0
 13 14  1  0  0  0  0
 13 32  1  0  0  0  0
 14 15  1  0  0  0  0
 14 33  1  0  0  0  0
 14 34  1  0  0  0  0
 15 16  1  0  0  0  0
 15 35  1  0  0  0  0
 15 36  1  0  0  0  0
 16 17  1  0  0  0  0
 16 37  1  0  0  0  0
 16 38  1  0  0  0  0
 17 18  1  0  0  0  0
 18 39  1  0  0  0  0
 18 40  1  0  0  0  0
M  END
> <s_m_source_file>
AV-unprocessed.smi

> <i_m_source_file_index>
2457

> <i_lp_mmshare_version>
43012

> <i_f3d_flags>
0

> <s_epik_input>
W0NIM11jMVtjSF1zYyhuMSlbQ0BIXShbQ0gzXSlbQ0gyXVtOSF1DKD1PKVtOSF1bQ0BASF0yW0NIMl1bQ0gyXVtDSDJdU1tDSDJdMg==

> <s_epik_cmdline>
J2VwaWtfcHl0aG9uJywgJy1waCcsICc3LjAnLCAnLXRuJywgJzgnLCAnLW1hJywgJzIwMCcsICctbWV0YWxfYmluZGluZycsICctaW1hZScsICc8aW5maWxlLm1hZT4nLCAnLW9tYWUnLCAnPG91dGZpbGUubWFlPic=

> <r_epik_Ionization_Penalty>
0.00154805

> <r_epik_Ionization_Penalty_Charging>
0

> <r_epik_Ionization_Penalty_Neutral>
0.00154805

> <r_epik_State_Penalty>
0.00100357

> <r_epik_Charging_Adjusted_Penalty>
0.00100357

> <i_epik_Tot_Q>
0

> <i_epik_Tot_abs_Q>
0

> <r_epik_Metal_State_Penalty>
-0

> <b_epik_Metal_Only>
0

> <s_lp_Force_Field>
OPLS_2005

> <r_lp_Energy>
-7.34104

> <b_lp_Chiralities_Consistent>
1

> <s_lp_Variant>
AV-unprocessed.smi:2457-1

> <Gold.Version>
5.8.1

> <Gold.Id.Protein>
6NUR|6NUR_protein|mol2

> <Gold.PLP.Fitness>
47.3852

> <Gold.PLP.PLP>
-43.2619

> <Gold.PLP.part.hbond>
-1.8329

> <Gold.PLP.part.metal>
0.0000

> <Gold.PLP.part.buried>
-4.6823

> <Gold.PLP.part.nonpolar>
-36.2324

> <Gold.PLP.part.repulsive>
0.3794

> <Gold.PLP.ligand.clash>
0.0000

> <Gold.PLP.ligand.torsion>
0.6076

> <Gold.PLP.Chemscore.Hbond>
1.7360

> <Gold.PLP.Chemscore.CHOScore>
0.0000

> <Gold.PLP.Chemscore.Metal>
0.0000

> <Gold.Chemscore.Hbonds>
donor molecule, donor type, donor heavy atom, donor atom, acceptor molecule, acceptor atom, score
      L1  H     9    30       P1  8028  0.77
      L1  H    12    31       P1  8028  0.94

> <Gold.PLP.Chemscore.Internal.Correction>
0.1306

> <Gold.Rescore>
     Score         DG    S(hbond)    S(metal)    S(lipo)     H(rot)  DE(clash)    DE(int)     intcor
     18.39     -19.84       1.56        0.00     110.13       1.46       0.15       1.30       ----

> <Gold.Chemscore.Fitness>
18.3905

> <Gold.Chemscore.DG>
-19.8443

> <Gold.Chemscore.ZeroCoef>
-5.4800

> <Gold.Chemscore.Hbond>
1.5632

> <Gold.Chemscore.Metal>
0.0000

> <Gold.Chemscore.Lipo>
110.1263

> <Gold.Chemscore.Internal_Hbond>
0.0000

> <Gold.Chemscore.DEClash>
0.1488

> <Gold.Chemscore.DEInternal>
1.3049

> <Gold.Chemscore.Rot>
1.4616

> <Gold.Chemscore.Internal.Correction>
   9.000000E+99

> <Gold.Chemscore.Hbonds>
donor molecule, donor type, donor heavy atom, donor atom, acceptor molecule, acceptor atom, score
      L1  H     9    30       P1  8028  0.74
      L1  H    12    31       P1  8028  0.89

> <Gold.Chemscore.Hbond.Weighted>
-5.2211

> <Gold.Chemscore.Metal.Weighted>
-0.0000

> <Gold.Chemscore.Lipo.Weighted>
-12.8848

> <Gold.Chemscore.Internal_Hbond.Weighted>
0.0000

> <Gold.Chemscore.DEClash.Weighted>
0.1488

> <Gold.Chemscore.DEInternal.Weighted>
1.3049

> <Gold.Chemscore.Rot.Weighted>
3.7416

> <Gold.Chemscore.Internal.Correction.Weighted>
   9.000000E+99

> <Gold.Protein.RotatedTorsions>
[ 6907 6896 6895 6894 ] final  -58.40 input  -60.11 | X-H torsion
[ 7974 7965 7964 7962 ] final   74.70 input  175.53 | X-H torsion
[ 8008 7997 7996 7995 ] final  126.20 input   59.86 | X-H torsion
[ 10167 10162 10161 10158 ] final -138.69 input  -65.29 | X-H torsion
[ 10718 10713 10712 10709 ] final  158.00 input   66.30 | X-H torsion
[ 10763 10752 10751 10750 ] final  -90.53 input  -60.55 | X-H torsion
[ 11005 11000 10999 10996 ] final  -27.38 input  -57.11 | X-H torsion

> <Gold.Protein.ActiveResidues>
 VAL166  LYS551  ARG553  GLY616  TRP617  ASP618  TYR619  PRO620  LYS621  CYS622 
 ASP623  PHE694  ASN695  SER759  ASP760  ASP761  ALA762  ILE779  LEU786  VAL792 
 PHE793  MET794  SER795  GLU796  ALA797  LYS798  CYS799  TRP800  GLU811  SER814 

> <Gold.Protein.RotatedAtoms>
  150.8010  134.7103  159.6599 H   0  0  0  0  0  0  0  0  0  0  0  0  # atno 6907 bound_to 6896
  152.4126  134.6094  160.0031 H   0  0  0  0  0  0  0  0  0  0  0  0  # atno 6908 bound_to 6896
  151.6332  133.3293  159.3149 H   0  0  0  0  0  0  0  0  0  0  0  0  # atno 6909 bound_to 6896
  145.7249  139.2662  143.1574 H   0  0  0  0  0  0  0  0  0  0  0  0  # atno 7974 bound_to 7965
  156.2857  140.2698  156.2073 H   0  0  0  0  0  0  0  0  0  0  0  0  # atno 8008 bound_to 7997
  155.0300  140.0386  157.2488 H   0  0  0  0  0  0  0  0  0  0  0  0  # atno 8009 bound_to 7997
  154.7363  140.2716  155.6417 H   0  0  0  0  0  0  0  0  0  0  0  0  # atno 8010 bound_to 7997
  139.8453  143.7269  152.2661 H   0  0  0  0  0  0  0  0  0  0  0  0  # atno 10167 bound_to 10162
  157.1838  131.0638  151.2117 H   0  0  0  0  0  0  0  0  0  0  0  0  # atno 10718 bound_to 10713
  154.6667  135.5301  153.8086 H   0  0  0  0  0  0  0  0  0  0  0  0  # atno 10763 bound_to 10752
  153.0475  135.6519  154.0788 H   0  0  0  0  0  0  0  0  0  0  0  0  # atno 10764 bound_to 10752
  154.0692  135.2955  155.3291 H   0  0  0  0  0  0  0  0  0  0  0  0  # atno 10765 bound_to 10752
  140.9114  133.7458  156.0676 H   0  0  0  0  0  0  0  0  0  0  0  0  # atno 11005 bound_to 11000
  146.0591  140.7989  142.9743 LP  0  0  0  0  0  0  0  0  0  0  0  0  # atno 17320 bound_to 7965
  144.6907  140.3169  143.7239 LP  0  0  0  0  0  0  0  0  0  0  0  0  # atno 17321 bound_to 7965
  139.7518  144.7532  151.0494 LP  0  0  0  0  0  0  0  0  0  0  0  0  # atno 17342 bound_to 10162
  140.7794  143.4851  150.9967 LP  0  0  0  0  0  0  0  0  0  0  0  0  # atno 17343 bound_to 10162
  157.3927  130.7290  149.6709 LP  0  0  0  0  0  0  0  0  0  0  0  0  # atno 17370 bound_to 10713
  155.9721  130.4142  150.4121 LP  0  0  0  0  0  0  0  0  0  0  0  0  # atno 17371 bound_to 10713
  140.8105  134.3405  157.5413 LP  0  0  0  0  0  0  0  0  0  0  0  0  # atno 17394 bound_to 11000
  139.8758  134.9251  156.3366 LP  0  0  0  0  0  0  0  0  0  0  0  0  # atno 17395 bound_to 11000

$$$$
