AV-unprocessed.smi:2842|AV-procd|sdf|10936|dock10
  -GOLD-   2272015383D 1   1.00000     0.00000
 Structure written by MMmdl.
 35 37  0  0  0  0  0  0  0  0  1 V2000
  156.6875  140.5361  162.1870 O   0  0  0  0  0  0  0  0  0  0  0  0
  155.7221  139.8556  162.5368 C   0  0  0  0  0  0  0  0  0  0  0  0
  154.6536  139.4303  161.5180 C   0  0  0  0  0  0  0  0  0  0  0  0
  154.0056  140.5703  160.8433 N   0  0  0  0  0  0  0  0  0  0  0  0
  153.7193  141.6977  161.6385 C   0  0  0  0  0  0  0  0  0  0  0  0
  153.1519  142.7528  161.1466 N   0  0  0  0  0  0  0  0  0  0  0  0
  152.8020  142.7874  159.7917 C   0  0  0  0  0  0  0  0  0  0  0  0
  152.1098  144.0383  159.2683 C   0  0  0  0  0  0  0  0  0  0  0  0
  151.6555  145.0632  160.3217 C   0  0  0  0  0  0  0  0  0  0  0  0
  150.3967  145.2768  159.4737 C   0  0  0  0  0  0  0  0  0  0  0  0
  150.6262  143.8735  158.9011 C   0  0  0  0  0  0  0  0  0  0  0  0
  153.0493  141.7253  158.9890 C   0  0  0  0  0  0  0  0  0  0  0  0
  153.6974  140.5238  159.5136 C   0  0  0  0  0  0  0  0  0  0  0  0
  153.9464  139.5438  158.8110 O   0  0  0  0  0  0  0  0  0  0  0  0
  155.5382  139.4263  163.7936 N   0  0  0  0  0  0  0  0  0  0  0  0
  156.3975  139.7038  164.8987 C   0  0  0  0  0  0  0  0  0  0  0  0
  156.0600  139.0689  166.2303 C   0  0  0  0  0  0  0  0  0  0  0  0
  155.8379  140.5423  166.0275 C   0  0  0  0  0  0  0  0  0  0  0  0
  155.1218  138.7520  160.8024 H   0  0  0  0  0  0  0  0  0  0  0  0
  153.8942  138.8281  162.0208 H   0  0  0  0  0  0  0  0  0  0  0  0
  154.0043  141.6170  162.6887 H   0  0  0  0  0  0  0  0  0  0  0  0
  152.6775  144.5074  158.4627 H   0  0  0  0  0  0  0  0  0  0  0  0
  151.4279  144.6229  161.2943 H   0  0  0  0  0  0  0  0  0  0  0  0
  152.2986  145.9388  160.4143 H   0  0  0  0  0  0  0  0  0  0  0  0
  149.4749  145.3945  160.0440 H   0  0  0  0  0  0  0  0  0  0  0  0
  150.5163  146.0638  158.7272 H   0  0  0  0  0  0  0  0  0  0  0  0
  150.4270  143.7761  157.8337 H   0  0  0  0  0  0  0  0  0  0  0  0
  150.1194  143.0987  159.4798 H   0  0  0  0  0  0  0  0  0  0  0  0
  152.7678  141.7574  157.9466 H   0  0  0  0  0  0  0  0  0  0  0  0
  154.7196  138.8671  163.9852 H   0  0  0  0  0  0  0  0  0  0  0  0
  157.4579  139.8355  164.6876 H   0  0  0  0  0  0  0  0  0  0  0  0
  155.1797  138.4310  166.2825 H   0  0  0  0  0  0  0  0  0  0  0  0
  156.8897  138.7692  166.8673 H   0  0  0  0  0  0  0  0  0  0  0  0
  156.5199  141.2276  166.5273 H   0  0  0  0  0  0  0  0  0  0  0  0
  154.8095  140.8886  165.9434 H   0  0  0  0  0  0  0  0  0  0  0  0
  1  2  2  0  0  0  0
  2  3  1  0  0  0  0
  2 15  1  0  0  0  0
  3  4  1  0  0  0  0
  3 19  1  0  0  0  0
  3 20  1  0  0  0  0
  4 13  1  0  0  0  0
  4  5  1  0  0  0  0
  5  6  2  0  0  0  0
  5 21  1  0  0  0  0
  6  7  1  0  0  0  0
  7  8  1  0  0  0  0
  7 12  2  0  0  0  0
  8 11  1  0  0  0  0
  8  9  1  0  0  0  0
  8 22  1  0  0  0  0
  9 10  1  0  0  0  0
  9 23  1  0  0  0  0
  9 24  1  0  0  0  0
 10 11  1  0  0  0  0
 10 25  1  0  0  0  0
 10 26  1  0  0  0  0
 11 27  1  0  0  0  0
 11 28  1  0  0  0  0
 12 13  1  0  0  0  0
 12 29  1  0  0  0  0
 13 14  2  0  0  0  0
 15 16  1  0  0  0  0
 15 30  1  0  0  0  0
 16 18  1  0  0  0  0
 16 17  1  0  0  0  0
 16 31  1  0  0  0  0
 17 18  1  0  0  0  0
 17 32  1  0  0  0  0
 17 33  1  0  0  0  0
 18 34  1  0  0  0  0
 18 35  1  0  0  0  0
M  END
> <s_m_source_file>
AV-unprocessed.smi

> <i_m_source_file_index>
2842

> <i_lp_mmshare_version>
43012

> <i_f3d_flags>
0

> <s_epik_input>
W0NIMl0xW0NIMl1bQ0hdMVtOSF1DKD1PKVtDSDJdbjJbY0hdbmMoW2NIXWMyPU8pW0NIXTNbQ0gyXVtDSDJdW0NIMl0z

> <s_epik_cmdline>
J2VwaWtfcHl0aG9uJywgJy1waCcsICc3LjAnLCAnLXRuJywgJzgnLCAnLW1hJywgJzIwMCcsICctbWV0YWxfYmluZGluZycsICctaW1hZScsICc8aW5maWxlLm1hZT4nLCAnLW9tYWUnLCAnPG91dGZpbGUubWFlPic=

> <r_lp_tautomer_probability>
1

> <r_epik_Ionization_Penalty>
7.30946e-06

> <r_epik_Ionization_Penalty_Charging>
8.23701e-09

> <r_epik_Ionization_Penalty_Neutral>
7.30122e-06

> <r_epik_State_Penalty>
-0

> <r_epik_Charging_Adjusted_Penalty>
8.23701e-09

> <i_epik_Tot_Q>
0

> <i_epik_Tot_abs_Q>
0

> <r_epik_Metal_State_Penalty>
-0

> <b_epik_Metal_Only>
0

> <s_lp_Force_Field>
OPLS_2005

> <r_lp_Energy>
30.4853

> <b_lp_Chiralities_Consistent>
1

> <s_lp_Variant>
AV-unprocessed.smi:2842-1

> <Gold.Version>
5.8.1

> <Gold.Id.Protein>
6NUR|6NUR_protein|mol2

> <Gold.PLP.Fitness>
41.9431

> <Gold.PLP.PLP>
-39.5258

> <Gold.PLP.part.hbond>
-2.0000

> <Gold.PLP.part.metal>
0.0000

> <Gold.PLP.part.buried>
-5.5977

> <Gold.PLP.part.nonpolar>
-31.8011

> <Gold.PLP.part.repulsive>
0.0325

> <Gold.PLP.ligand.clash>
0.0000

> <Gold.PLP.ligand.torsion>
0.4967

> <Gold.PLP.Chemscore.Hbond>
1.0000

> <Gold.PLP.Chemscore.CHOScore>
0.0000

> <Gold.PLP.Chemscore.Metal>
0.0000

> <Gold.Chemscore.Hbonds>
donor molecule, donor type, donor heavy atom, donor atom, acceptor molecule, acceptor atom, score
      P1  H  7997  8010       L1    14  1.00

> <Gold.PLP.Chemscore.Internal.Correction>
0.4108

> <Gold.Rescore>
     Score         DG    S(hbond)    S(metal)    S(lipo)     H(rot)  DE(clash)    DE(int)     intcor
     13.33     -14.53       0.90        0.00      89.39       1.73       0.70       0.50       ----

> <Gold.Chemscore.Fitness>
13.3267

> <Gold.Chemscore.DG>
-14.5308

> <Gold.Chemscore.ZeroCoef>
-5.4800

> <Gold.Chemscore.Hbond>
0.9049

> <Gold.Chemscore.Metal>
0.0000

> <Gold.Chemscore.Lipo>
89.3886

> <Gold.Chemscore.Internal_Hbond>
0.0000

> <Gold.Chemscore.DEClash>
0.7030

> <Gold.Chemscore.DEInternal>
0.5012

> <Gold.Chemscore.Rot>
1.7305

> <Gold.Chemscore.Internal.Correction>
   9.000000E+99

> <Gold.Chemscore.Hbonds>
donor molecule, donor type, donor heavy atom, donor atom, acceptor molecule, acceptor atom, score
      P1  H  7997  8010       L1    14  0.82

> <Gold.Chemscore.Hbond.Weighted>
-3.0224

> <Gold.Chemscore.Metal.Weighted>
-0.0000

> <Gold.Chemscore.Lipo.Weighted>
-10.4585

> <Gold.Chemscore.Internal_Hbond.Weighted>
0.0000

> <Gold.Chemscore.DEClash.Weighted>
0.7030

> <Gold.Chemscore.DEInternal.Weighted>
0.5012

> <Gold.Chemscore.Rot.Weighted>
4.4300

> <Gold.Chemscore.Internal.Correction.Weighted>
   9.000000E+99

> <Gold.Protein.RotatedTorsions>
[ 6907 6896 6895 6894 ] final -108.88 input  -60.11 | X-H torsion
[ 7974 7965 7964 7962 ] final   11.72 input  175.53 | X-H torsion
[ 8008 7997 7996 7995 ] final   25.65 input   59.86 | X-H torsion
[ 10167 10162 10161 10158 ] final -101.48 input  -65.29 | X-H torsion
[ 10718 10713 10712 10709 ] final   73.78 input   66.30 | X-H torsion
[ 10763 10752 10751 10750 ] final -147.70 input  -60.55 | X-H torsion
[ 11005 11000 10999 10996 ] final -126.01 input  -57.11 | X-H torsion

> <Gold.Protein.ActiveResidues>
 VAL166  LYS551  ARG553  GLY616  TRP617  ASP618  TYR619  PRO620  LYS621  CYS622 
 ASP623  PHE694  ASN695  SER759  ASP760  ASP761  ALA762  ILE779  LEU786  VAL792 
 PHE793  MET794  SER795  GLU796  ALA797  LYS798  CYS799  TRP800  GLU811  SER814 

> <Gold.Protein.RotatedAtoms>
  150.7528  133.9611  159.3515 H   0  0  0  0  0  0  0  0  0  0  0  0  # atno 6907 bound_to 6896
  151.7537  135.0824  160.0344 H   0  0  0  0  0  0  0  0  0  0  0  0  # atno 6908 bound_to 6896
  152.3449  133.6073  159.5939 H   0  0  0  0  0  0  0  0  0  0  0  0  # atno 6909 bound_to 6896
  146.2365  139.9443  142.8479 H   0  0  0  0  0  0  0  0  0  0  0  0  # atno 7974 bound_to 7965
  155.0150  140.3141  155.4815 H   0  0  0  0  0  0  0  0  0  0  0  0  # atno 8008 bound_to 7997
  156.2902  140.2208  156.5207 H   0  0  0  0  0  0  0  0  0  0  0  0  # atno 8009 bound_to 7997
  154.7502  140.0467  157.0874 H   0  0  0  0  0  0  0  0  0  0  0  0  # atno 8010 bound_to 7997
  140.2409  143.3540  152.0803 H   0  0  0  0  0  0  0  0  0  0  0  0  # atno 10167 bound_to 10162
  157.6563  130.9645  150.1117 H   0  0  0  0  0  0  0  0  0  0  0  0  # atno 10718 bound_to 10713
  154.8272  135.3353  154.6859 H   0  0  0  0  0  0  0  0  0  0  0  0  # atno 10763 bound_to 10752
  153.7483  135.6941  153.4956 H   0  0  0  0  0  0  0  0  0  0  0  0  # atno 10764 bound_to 10752
  153.2194  135.4454  155.0423 H   0  0  0  0  0  0  0  0  0  0  0  0  # atno 10765 bound_to 10752
  140.9715  134.0798  157.3864 H   0  0  0  0  0  0  0  0  0  0  0  0  # atno 11005 bound_to 11000
  145.1922  140.9817  143.4204 LP  0  0  0  0  0  0  0  0  0  0  0  0  # atno 17320 bound_to 7965
  144.9847  139.3748  143.6244 LP  0  0  0  0  0  0  0  0  0  0  0  0  # atno 17321 bound_to 7965
  139.5078  144.6838  151.5940 LP  0  0  0  0  0  0  0  0  0  0  0  0  # atno 17342 bound_to 10162
  140.6114  143.9428  150.6456 LP  0  0  0  0  0  0  0  0  0  0  0  0  # atno 17343 bound_to 10162
  156.2012  130.3660  149.8786 LP  0  0  0  0  0  0  0  0  0  0  0  0  # atno 17370 bound_to 10713
  156.6689  130.8812  151.3559 LP  0  0  0  0  0  0  0  0  0  0  0  0  # atno 17371 bound_to 10713
  139.8914  135.0118  156.6790 LP  0  0  0  0  0  0  0  0  0  0  0  0  # atno 17394 bound_to 11000
  140.7321  133.9050  155.8218 LP  0  0  0  0  0  0  0  0  0  0  0  0  # atno 17395 bound_to 11000

$$$$
