AV-unprocessed.smi:790|AV-procd|sdf|3741|dock4
  -GOLD-   22720 1173D 1   1.00000     0.00000
 Structure written by MMmdl.
 38 40  0  0  0  0  0  0  0  0  1 V2000
  145.0752  136.9085  154.0935 O   0  0  0  0  0  0  0  0  0  0  0  0
  146.1563  136.7646  153.5231 C   0  0  0  0  0  0  0  0  0  0  0  0
  147.1225  137.6949  153.4405 N   0  0  0  0  0  0  0  0  0  0  0  0
  147.1414  139.0015  153.9994 C   0  0  0  0  0  0  0  0  0  0  0  0
  146.1069  139.5394  154.8030 C   0  0  0  0  0  0  0  0  0  0  0  0
  146.2528  140.8431  155.3152 C   0  0  0  0  0  0  0  0  0  0  0  0
  147.4278  141.5577  155.0124 C   0  0  0  0  0  0  0  0  0  0  0  0
  148.4277  141.0524  154.2596 N   0  0  0  0  0  0  0  0  0  0  0  0
  148.2814  139.8017  153.7725 C   0  0  0  0  0  0  0  0  0  0  0  0
  146.5125  135.6397  152.8865 N   0  0  0  0  0  0  0  0  0  0  0  0
  145.6818  134.4417  152.7561 C   0  0  1  0  0  0  0  0  0  0  0  0
  145.0165  134.4033  151.3631 C   0  0  2  0  0  0  0  0  0  0  0  0
  143.8659  133.3806  151.3832 C   0  0  0  0  0  0  0  0  0  0  0  0
  144.6159  132.0359  151.4340 C   0  0  0  0  0  0  0  0  0  0  0  0
  146.0963  132.4673  151.4341 C   0  0  1  0  0  0  0  0  0  0  0  0
  146.0571  133.6816  150.5152 C   0  0  0  0  0  0  0  0  0  0  0  0
  146.4519  133.0865  152.8084 C   0  0  1  0  0  0  0  0  0  0  0  0
  147.9741  133.1721  153.0642 C   0  0  0  0  0  0  0  0  0  0  0  0
  148.5670  131.8964  152.9402 O   0  0  0  0  0  0  0  0  0  0  0  0
  147.9184  137.4593  152.8658 H   0  0  0  0  0  0  0  0  0  0  0  0
  145.2183  138.9789  155.0476 H   0  0  0  0  0  0  0  0  0  0  0  0
  145.4823  141.2834  155.9310 H   0  0  0  0  0  0  0  0  0  0  0  0
  147.5708  142.5594  155.3897 H   0  0  0  0  0  0  0  0  0  0  0  0
  149.1018  139.4293  153.1765 H   0  0  0  0  0  0  0  0  0  0  0  0
  147.4194  135.6108  152.4443 H   0  0  0  0  0  0  0  0  0  0  0  0
  144.9087  134.4671  153.5267 H   0  0  0  0  0  0  0  0  0  0  0  0
  144.7131  135.3814  150.9876 H   0  0  0  0  0  0  0  0  0  0  0  0
  143.1976  133.5190  152.2338 H   0  0  0  0  0  0  0  0  0  0  0  0
  143.2675  133.4513  150.4740 H   0  0  0  0  0  0  0  0  0  0  0  0
  144.3537  131.4449  152.3122 H   0  0  0  0  0  0  0  0  0  0  0  0
  144.3871  131.4376  150.5510 H   0  0  0  0  0  0  0  0  0  0  0  0
  146.7708  131.6731  151.1131 H   0  0  0  0  0  0  0  0  0  0  0  0
  145.7085  133.4499  149.5072 H   0  0  0  0  0  0  0  0  0  0  0  0
  147.0081  134.2117  150.4485 H   0  0  0  0  0  0  0  0  0  0  0  0
  146.0262  132.4739  153.6050 H   0  0  0  0  0  0  0  0  0  0  0  0
  148.4604  133.8611  152.3736 H   0  0  0  0  0  0  0  0  0  0  0  0
  148.1729  133.5276  154.0752 H   0  0  0  0  0  0  0  0  0  0  0  0
  148.6102  131.6726  152.0231 H   0  0  0  0  0  0  0  0  0  0  0  0
  1  2  2  0  0  0  0
  2  3  1  0  0  0  0
  2 10  1  0  0  0  0
  3  4  1  0  0  0  0
  3 20  1  0  0  0  0
  4  9  1  0  0  0  0
  4  5  2  0  0  0  0
  5  6  1  0  0  0  0
  5 21  1  0  0  0  0
  6  7  2  0  0  0  0
  6 22  1  0  0  0  0
  7  8  1  0  0  0  0
  7 23  1  0  0  0  0
  8  9  2  0  0  0  0
  9 24  1  0  0  0  0
 10 11  1  0  0  0  0
 10 25  1  0  0  0  0
 11 17  1  0  0  0  0
 11 12  1  0  0  0  0
 11 26  1  0  0  0  0
 12 16  1  0  0  0  0
 12 13  1  0  0  0  0
 12 27  1  0  0  0  0
 13 14  1  0  0  0  0
 13 28  1  0  0  0  0
 13 29  1  0  0  0  0
 14 15  1  0  0  0  0
 14 30  1  0  0  0  0
 14 31  1  0  0  0  0
 15 16  1  0  0  0  0
 15 17  1  0  0  0  0
 15 32  1  0  0  0  0
 16 33  1  0  0  0  0
 16 34  1  0  0  0  0
 17 18  1  0  0  0  0
 17 35  1  0  0  0  0
 18 19  1  0  0  0  0
 18 36  1  0  0  0  0
 18 37  1  0  0  0  0
 19 38  1  0  0  0  0
M  END
> <s_m_source_file>
AV-unprocessed.smi

> <i_m_source_file_index>
790

> <i_lp_mmshare_version>
43012

> <i_f3d_flags>
0

> <s_epik_input>
W0NIMl0xW0NIMl1bQ0BASF0oW0NIMl0yKVtDQEBIXShbQ0gyXVtPSF0pW0NAQEhdKFtDQEhdMTIpW05IXUMoPU8pW05IXWMzW2NIXVtjSF1bY0hdbltjSF0z

> <s_epik_cmdline>
J2VwaWtfcHl0aG9uJywgJy1waCcsICc3LjAnLCAnLXRuJywgJzgnLCAnLW1hJywgJzIwMCcsICctbWV0YWxfYmluZGluZycsICctaW1hZScsICc8aW5maWxlLm1hZT4nLCAnLW9tYWUnLCAnPG91dGZpbGUubWFlPic=

> <r_epik_Ionization_Penalty>
0.00497582

> <r_epik_Ionization_Penalty_Charging>
0

> <r_epik_Ionization_Penalty_Neutral>
0.00497582

> <r_epik_State_Penalty>
0.00358602

> <r_epik_Charging_Adjusted_Penalty>
0.00358602

> <i_epik_Tot_Q>
0

> <i_epik_Tot_abs_Q>
0

> <r_epik_Metal_State_Penalty>
-0

> <b_epik_Metal_Only>
0

> <s_lp_Force_Field>
OPLS_2005

> <r_lp_Energy>
53.2312

> <b_lp_Chiralities_Consistent>
1

> <s_lp_Variant>
AV-unprocessed.smi:790-2

> <Gold.Version>
5.8.1

> <Gold.Id.Protein>
6NUR|6NUR_protein|mol2

> <Gold.PLP.Fitness>
40.8262

> <Gold.PLP.PLP>
-26.4606

> <Gold.PLP.part.hbond>
-3.0000

> <Gold.PLP.part.metal>
0.0000

> <Gold.PLP.part.buried>
-2.0256

> <Gold.PLP.part.nonpolar>
-21.4898

> <Gold.PLP.part.repulsive>
0.2439

> <Gold.PLP.ligand.clash>
0.0000

> <Gold.PLP.ligand.torsion>
0.3233

> <Gold.PLP.Chemscore.Hbond>
3.0000

> <Gold.PLP.Chemscore.CHOScore>
2.0000

> <Gold.PLP.Chemscore.Metal>
0.0000

> <Gold.Chemscore.Hbonds>
donor molecule, donor type, donor heavy atom, donor atom, acceptor molecule, acceptor atom, score
      L1  H     3    20       P1  7948  1.00
      L1  H    10    25       P1  7948  1.00
      L1  H    19    38       P1 10747  1.00
      L1  C     7    23       P1  8028  1.00
      L1  C     9    24       P1  7957  0.93

> <Gold.PLP.Chemscore.Internal.Correction>
0.0122

> <Gold.Rescore>
     Score         DG    S(hbond)    S(metal)    S(lipo)     H(rot)  DE(clash)    DE(int)     intcor
     16.94     -20.28       3.28        0.00      71.77       1.78       1.72       1.62       ----

> <Gold.Chemscore.Fitness>
16.9364

> <Gold.Chemscore.DG>
-20.2772

> <Gold.Chemscore.ZeroCoef>
-5.4800

> <Gold.Chemscore.Hbond>
3.2791

> <Gold.Chemscore.Metal>
0.0000

> <Gold.Chemscore.Lipo>
71.7743

> <Gold.Chemscore.Internal_Hbond>
0.0000

> <Gold.Chemscore.DEClash>
1.7233

> <Gold.Chemscore.DEInternal>
1.6175

> <Gold.Chemscore.Rot>
1.7783

> <Gold.Chemscore.Internal.Correction>
   9.000000E+99

> <Gold.Chemscore.Hbonds>
donor molecule, donor type, donor heavy atom, donor atom, acceptor molecule, acceptor atom, score
      L1  H     3    20       P1  7948  0.97
      L1  H    10    25       P1  7948  0.99
      L1  H    19    38       P1 10747  0.98

> <Gold.Chemscore.Hbond.Weighted>
-10.9521

> <Gold.Chemscore.Metal.Weighted>
-0.0000

> <Gold.Chemscore.Lipo.Weighted>
-8.3976

> <Gold.Chemscore.Internal_Hbond.Weighted>
0.0000

> <Gold.Chemscore.DEClash.Weighted>
1.7233

> <Gold.Chemscore.DEInternal.Weighted>
1.6175

> <Gold.Chemscore.Rot.Weighted>
4.5525

> <Gold.Chemscore.Internal.Correction.Weighted>
   9.000000E+99

> <Gold.Protein.RotatedTorsions>
[ 6907 6896 6895 6894 ] final   58.89 input  -60.11 | X-H torsion
[ 7974 7965 7964 7962 ] final -151.05 input  175.53 | X-H torsion
[ 8008 7997 7996 7995 ] final   54.73 input   59.86 | X-H torsion
[ 10167 10162 10161 10158 ] final  124.51 input  -65.29 | X-H torsion
[ 10718 10713 10712 10709 ] final   63.65 input   66.30 | X-H torsion
[ 10763 10752 10751 10750 ] final -102.19 input  -60.55 | X-H torsion
[ 11005 11000 10999 10996 ] final -149.74 input  -57.11 | X-H torsion

> <Gold.Protein.ActiveResidues>
 VAL166  LYS551  ARG553  GLY616  TRP617  ASP618  TYR619  PRO620  LYS621  CYS622 
 ASP623  PHE694  ASN695  SER759  ASP760  ASP761  ALA762  ILE779  LEU786  VAL792 
 PHE793  MET794  SER795  GLU796  ALA797  LYS798  CYS799  TRP800  GLU811  SER814 

> <Gold.Protein.RotatedAtoms>
  152.3865  134.6509  160.0123 H   0  0  0  0  0  0  0  0  0  0  0  0  # atno 6907 bound_to 6896
  151.6756  133.3307  159.3215 H   0  0  0  0  0  0  0  0  0  0  0  0  # atno 6908 bound_to 6896
  150.7790  134.6762  159.6463 H   0  0  0  0  0  0  0  0  0  0  0  0  # atno 6909 bound_to 6896
  144.7872  140.4850  143.5798 H   0  0  0  0  0  0  0  0  0  0  0  0  # atno 7974 bound_to 7965
  155.4895  140.3471  155.4352 H   0  0  0  0  0  0  0  0  0  0  0  0  # atno 8008 bound_to 7997
  156.0986  140.1429  156.9526 H   0  0  0  0  0  0  0  0  0  0  0  0  # atno 8009 bound_to 7997
  154.4679  140.0911  156.7047 H   0  0  0  0  0  0  0  0  0  0  0  0  # atno 8010 bound_to 7997
  139.5738  144.6953  151.3708 H   0  0  0  0  0  0  0  0  0  0  0  0  # atno 10167 bound_to 10162
  157.5985  130.9117  149.9743 H   0  0  0  0  0  0  0  0  0  0  0  0  # atno 10718 bound_to 10713
  154.7715  135.4870  153.9658 H   0  0  0  0  0  0  0  0  0  0  0  0  # atno 10763 bound_to 10752
  153.1374  135.6765  153.9089 H   0  0  0  0  0  0  0  0  0  0  0  0  # atno 10764 bound_to 10752
  153.8774  135.3136  155.3422 H   0  0  0  0  0  0  0  0  0  0  0  0  # atno 10765 bound_to 10752
  140.7476  134.3443  157.5133 H   0  0  0  0  0  0  0  0  0  0  0  0  # atno 11005 bound_to 11000
  145.5890  139.1494  143.3193 LP  0  0  0  0  0  0  0  0  0  0  0  0  # atno 17320 bound_to 7965
  146.2109  140.6017  142.9060 LP  0  0  0  0  0  0  0  0  0  0  0  0  # atno 17321 bound_to 7965
  140.7021  143.7605  150.7421 LP  0  0  0  0  0  0  0  0  0  0  0  0  # atno 17342 bound_to 10162
  140.1119  143.4691  152.2365 LP  0  0  0  0  0  0  0  0  0  0  0  0  # atno 17343 bound_to 10162
  156.1053  130.3653  150.0144 LP  0  0  0  0  0  0  0  0  0  0  0  0  # atno 17370 bound_to 10713
  156.8252  130.9373  151.3639 LP  0  0  0  0  0  0  0  0  0  0  0  0  # atno 17371 bound_to 10713
  139.8794  134.9121  156.3052 LP  0  0  0  0  0  0  0  0  0  0  0  0  # atno 17394 bound_to 11000
  140.9780  133.7285  156.0631 LP  0  0  0  0  0  0  0  0  0  0  0  0  # atno 17395 bound_to 11000

$$$$
