#       Name:                AV-unprocessed.smi:2006
#       Creating user name   scv26
#       Creation time:       Fri Mar 27 10:36:36 2020


#       File generated by GOLD software.
#

@<TRIPOS>MOLECULE
AV-unprocessed.smi:2006
    37    38     1
SMALL
NO_CHARGES


@<TRIPOS>ATOM
      1 ****        -3.8588  -1.2984   1.8006 C.3            1 S1                 0.0000
      2 ****        -3.2197  -0.6013   0.5949 C.3            1 S1                 0.0000
      3 ****        -1.6830  -0.5529   0.7012 C.3            1 S1                 0.0000
      4 ****        -1.1261   0.2018  -0.4145 N.3            1 S1                 0.0000
      5 ****         0.2755   0.1840  -0.4472 C.ar           1 S1                 0.0000
      6 ****         0.9265  -0.5104  -1.4886 C.ar           1 S1                 0.0000
      7 ****         2.3343  -0.5341  -1.5102 C.ar           1 S1                 0.0000
      8 ****         3.0415   0.1363  -0.4919 C.ar           1 S1                 0.0000
      9 ****         4.5557   0.1317  -0.4643 C.3            1 S1                 0.0000
     10 ****         5.0901  -1.0207   0.2329 N.3            1 S1                 0.0000
     11 ****         2.3009   0.8021   0.5065 C.ar           1 S1                 0.0000
     12 ****         0.9512   0.8304   0.5334 N.ar           1 S1                 0.0000
     13 ****        -1.6999   1.5370  -0.5240 C.3            1 S1                 0.0000
     14 ****        -3.2326   1.4427  -0.6036 C.3            1 S1                 0.0000
     15 ****        -3.7256   0.7305   0.5279 O.3            1 S1                 0.0000
     16 ****        -3.5105  -2.3278   1.8895 H              1 S1                 0.0000
     17 ****        -4.9447  -1.3214   1.7062 H              1 S1                 0.0000
     18 ****        -3.6160  -0.7814   2.7296 H              1 S1                 0.0000
     19 ****        -3.5083  -1.1382  -0.3106 H              1 S1                 0.0000
     20 ****        -1.3887  -0.0863   1.6425 H              1 S1                 0.0000
     21 ****        -1.2747  -1.5644   0.7010 H              1 S1                 0.0000
     22 ****         0.3597  -1.0175  -2.2559 H              1 S1                 0.0000
     23 ****         2.8600  -1.0599  -2.2936 H              1 S1                 0.0000
     24 ****         4.9399   0.1406  -1.4847 H              1 S1                 0.0000
     25 ****         4.9168   1.0400   0.0194 H              1 S1                 0.0000
     26 ****         5.6946  -1.5380  -0.3894 H              1 S1                 0.0000
     27 ****         5.6762  -0.7098   0.9945 H              1 S1                 0.0000
     28 ****         2.8031   1.3246   1.3073 H              1 S1                 0.0000
     29 ****        -1.4118   2.1373   0.3403 H              1 S1                 0.0000
     30 ****        -1.3080   2.0363  -1.4111 H              1 S1                 0.0000
     31 ****        -3.6712   2.4404  -0.6143 H              1 S1                 0.0000
     32 ****        -3.5450   0.9466  -1.5239 H              1 S1                 0.0000
     33 ****        -1.4051  -0.2789  -1.2458 LP             1 S1                 0.0000
     34 ****         4.3258  -1.5783   0.5568 LP             1 S1                 0.0000
     35 ****         0.4628   1.3160   1.2584 LP             1 S1                 0.0000
     36 ****        -3.4552   1.2189   1.3576 LP             1 S1                 0.0000
     37 ****        -4.7235   0.6926   0.4737 LP             1 S1                 0.0000
@<TRIPOS>BOND
    1    1    2 1     
    2    1   16 1     
    3    1   17 1     
    4    1   18 1     
    5    2   15 1     
    6    2    3 1     
    7    2   19 1     
    8    3    4 1     
    9    3   20 1     
   10    3   21 1     
   11    4    5 1     
   12    4   13 1     
   13    5   12 ar    
   14    5    6 ar    
   15    6    7 ar    
   16    6   22 1     
   17    7    8 ar    
   18    7   23 1     
   19    8    9 1     
   20    8   11 ar    
   21    9   10 1     
   22    9   24 1     
   23    9   25 1     
   24   10   26 1     
   25   10   27 1     
   26   11   12 ar    
   27   11   28 1     
   28   13   14 1     
   29   13   29 1     
   30   13   30 1     
   31   14   15 1     
   32   14   31 1     
   33   14   32 1     
   34    4   33 1     
   35   10   34 1     
   36   12   35 1     
   37   15   36 1     
   38   15   37 1     
@<TRIPOS>SUBSTRUCTURE
      1 S1             1
@<TRIPOS>SET
LONE_PAIRS      STATIC     ATOMS    <user>   **** ""
5 33 34 35 36 37
DONOR_HYDROGENS      STATIC     ATOMS    <user>   **** ""
2 26 27
ATOM$BLUE        STATIC     ATOMS    COLORGROUP SYSTEM
5 33 34 35 36 37
ATOM$RED        STATIC     ATOMS    COLORGROUP SYSTEM
2 26 27
