#       Name:                AV-unprocessed.smi:1825
#       Creating user name   scv26
#       Creation time:       Fri Mar 27 09:09:12 2020


#       File generated by GOLD software.
#

@<TRIPOS>MOLECULE
AV-unprocessed.smi:1825
    39    40     1
SMALL
NO_CHARGES


@<TRIPOS>ATOM
      1 ****        -0.7197   1.8916  -1.0152 O.2            1 S1                 0.0000
      2 ****        -1.2684   0.8758  -1.4489 C.2            1 S1                 0.0000
      3 ****        -0.5425  -0.2222  -1.7078 N.am           1 S1                 0.0000
      4 ****         0.9009  -0.3770  -1.5259 C.3            1 S1                 0.0000
      5 ****         1.2808  -1.1272  -0.2233 C.3            1 S1                 0.0000
      6 ****         0.9442  -2.4890  -0.4230 O.3            1 S1                 0.0000
      7 ****         2.8138  -1.0585  -0.0169 C.3            1 S1                 0.0000
      8 ****         3.2805  -1.7139   1.2955 C.3            1 S1                 0.0000
      9 ****         2.5463  -1.1212   2.5055 C.3            1 S1                 0.0000
     10 ****         1.0265  -1.2515   2.3400 C.3            1 S1                 0.0000
     11 ****         0.5429  -0.5972   1.0335 C.3            1 S1                 0.0000
     12 ****        -2.5890   0.7252  -1.6990 N.pl3          1 S1                -1.0000
     13 ****        -3.4381   1.7375  -1.4584 C.2            1 S1                 0.0000
     14 ****        -3.9082   2.5401  -2.4202 N.2            1 S1                 0.0000
     15 ****        -4.7832   3.5198  -1.9471 C.2            1 S1                 0.0000
     16 ****        -4.9910   3.4563  -0.5948 C.2            1 S1                 0.0000
     17 ****        -4.0871   2.1572   0.1296 S.3            1 S1                 0.0000
     18 ****        -1.0404  -1.0299  -2.0524 H              1 S1                 0.0000
     19 ****         1.2980  -0.9039  -2.3945 H              1 S1                 0.0000
     20 ****         1.3802   0.6031  -1.5396 H              1 S1                 0.0000
     21 ****         1.1545  -2.9656   0.3651 H              1 S1                 0.0000
     22 ****         3.3303  -1.5191  -0.8603 H              1 S1                 0.0000
     23 ****         3.1273  -0.0136  -0.0084 H              1 S1                 0.0000
     24 ****         3.1111  -2.7906   1.2543 H              1 S1                 0.0000
     25 ****         4.3558  -1.5779   1.4137 H              1 S1                 0.0000
     26 ****         2.8659  -1.6241   3.4186 H              1 S1                 0.0000
     27 ****         2.8142  -0.0699   2.6192 H              1 S1                 0.0000
     28 ****         0.7454  -2.3051   2.3507 H              1 S1                 0.0000
     29 ****         0.5212  -0.7918   3.1898 H              1 S1                 0.0000
     30 ****         0.6918   0.4809   1.1059 H              1 S1                 0.0000
     31 ****        -0.5331  -0.7494   0.9419 H              1 S1                 0.0000
     32 ****        -5.2145   4.2213  -2.6455 H              1 S1                 0.0000
     33 ****        -5.6169   4.0887   0.0163 H              1 S1                 0.0000
     34 ****         0.2676   1.8975  -0.8561 LP             1 S1                 0.0000
     35 ****        -1.2620   2.7094  -0.8226 LP             1 S1                 0.0000
     36 ****         1.4681  -2.8576  -1.1909 LP             1 S1                 0.0000
     37 ****        -0.0334  -2.5706  -0.6167 LP             1 S1                 0.0000
     38 ****        -2.9333  -0.1401  -2.0631 LP             1 S1                 0.0000
     39 ****        -3.6573   2.4473  -3.3837 LP             1 S1                 0.0000
@<TRIPOS>BOND
    1    1    2 2     
    2    2    3 am    
    3    2   12 1     
    4    3    4 1     
    5    3   18 1     
    6    4    5 1     
    7    4   19 1     
    8    4   20 1     
    9    5   11 1     
   10    5    6 1     
   11    5    7 1     
   12    6   21 1     
   13    7    8 1     
   14    7   22 1     
   15    7   23 1     
   16    8    9 1     
   17    8   24 1     
   18    8   25 1     
   19    9   10 1     
   20    9   26 1     
   21    9   27 1     
   22   10   11 1     
   23   10   28 1     
   24   10   29 1     
   25   11   30 1     
   26   11   31 1     
   27   12   13 1     
   28   13   17 1     
   29   13   14 2     
   30   14   15 1     
   31   15   16 2     
   32   15   32 1     
   33   16   17 1     
   34   16   33 1     
   35    1   34 1     
   36    1   35 1     
   37    6   36 1     
   38    6   37 1     
   39   12   38 1     
   40   14   39 1     
@<TRIPOS>SUBSTRUCTURE
      1 S1             1
@<TRIPOS>SET
LONE_PAIRS      STATIC     ATOMS    <user>   **** ""
6 34 35 36 37 38 39
DONOR_HYDROGENS      STATIC     ATOMS    <user>   **** ""
2 18 21
ATOM$BLUE        STATIC     ATOMS    COLORGROUP SYSTEM
6 34 35 36 37 38 39
ATOM$RED        STATIC     ATOMS    COLORGROUP SYSTEM
2 18 21
