AV-unprocessed.smi:1435|AV-procd|sdf|5858|dock1
  -GOLD-   22720 5533D 1   1.00000     0.00000
 Structure written by MMmdl.
 44 45  0  0  0  0  0  0  0  0  2 V2000
  150.5370  136.3777  159.5918 O   0  0  0  0  0  0  0  0  0  0  0  0
  149.8641  137.1219  158.8784 C   0  0  0  0  0  0  0  0  0  0  0  0
  148.5029  136.6598  158.3559 C   0  0  0  0  0  0  0  0  0  0  0  0
  147.8542  135.5991  159.2628 C   0  0  0  0  0  0  0  0  0  0  0  0
  147.2169  136.3379  160.8335 S   0  0  0  0  0  0  0  0  0  0  0  0
  148.3687  136.7007  161.6734 O   0  0  0  0  0  0  0  0  0  0  0  0
  146.2285  137.3713  160.4872 O   0  0  0  0  0  0  0  0  0  0  0  0
  146.3422  134.9006  161.6142 C   0  0  0  0  0  0  0  0  0  0  0  0
  146.9494  134.5331  162.9744 C   0  0  0  0  0  0  0  0  0  0  0  0
  148.0733  133.5261  162.6866 C   0  0  0  0  0  0  0  0  0  0  0  0
  147.8761  133.0502  161.2397 C   0  0  0  0  0  0  0  0  0  0  0  0
  146.5321  133.6263  160.7873 C   0  0  0  0  0  0  0  0  0  0  0  0
  150.2675  138.3439  158.4995 N   0  0  0  0  0  0  0  0  0  0  0  0
  151.5635  138.9284  158.8189 C   0  0  0  0  0  0  0  0  0  0  0  0
  151.9949  139.9472  157.7507 C   0  0  0  0  0  0  0  0  0  0  0  0
  151.5468  141.3552  158.0886 C   0  0  0  0  0  0  0  0  0  0  0  0
  152.0665  142.0244  159.2185 C   0  0  0  0  0  0  0  0  0  0  0  0
  151.6323  143.3355  159.5053 C   0  0  0  0  0  0  0  0  0  0  0  0
  150.6882  143.9474  158.6555 C   0  0  0  0  0  0  0  0  0  0  0  0
  150.2138  143.2761  157.5831 N   0  3  0  0  0  0  0  0  0  0  0  0
  150.6043  142.0197  157.2745 C   0  0  0  0  0  0  0  0  0  0  0  0
  147.8548  137.5351  158.3055 H   0  0  0  0  0  0  0  0  0  0  0  0
  148.5890  136.2837  157.3355 H   0  0  0  0  0  0  0  0  0  0  0  0
  147.0366  135.0880  158.7546 H   0  0  0  0  0  0  0  0  0  0  0  0
  148.5911  134.8419  159.5293 H   0  0  0  0  0  0  0  0  0  0  0  0
  145.2877  135.1644  161.6972 H   0  0  0  0  0  0  0  0  0  0  0  0
  147.3049  135.3982  163.5336 H   0  0  0  0  0  0  0  0  0  0  0  0
  146.1860  134.0501  163.5856 H   0  0  0  0  0  0  0  0  0  0  0  0
  149.0521  133.9941  162.7981 H   0  0  0  0  0  0  0  0  0  0  0  0
  148.0309  132.6923  163.3882 H   0  0  0  0  0  0  0  0  0  0  0  0
  148.6767  133.4437  160.6123 H   0  0  0  0  0  0  0  0  0  0  0  0
  147.9019  131.9634  161.1547 H   0  0  0  0  0  0  0  0  0  0  0  0
  145.7380  132.9191  161.0303 H   0  0  0  0  0  0  0  0  0  0  0  0
  146.4920  133.8026  159.7120 H   0  0  0  0  0  0  0  0  0  0  0  0
  149.6506  138.8872  157.9128 H   0  0  0  0  0  0  0  0  0  0  0  0
  151.4863  139.4165  159.7909 H   0  0  0  0  0  0  0  0  0  0  0  0
  152.3119  138.1408  158.9237 H   0  0  0  0  0  0  0  0  0  0  0  0
  153.0802  139.9438  157.6392 H   0  0  0  0  0  0  0  0  0  0  0  0
  151.5881  139.6659  156.7784 H   0  0  0  0  0  0  0  0  0  0  0  0
  152.7902  141.5402  159.8582 H   0  0  0  0  0  0  0  0  0  0  0  0
  152.0186  143.8637  160.3650 H   0  0  0  0  0  0  0  0  0  0  0  0
  150.3016  144.9458  158.7993 H   0  0  0  0  0  0  0  0  0  0  0  0
  150.1548  141.5879  156.3918 H   0  0  0  0  0  0  0  0  0  0  0  0
  149.5317  143.7377  156.9809 H   0  0  0  0  0  0  0  0  0  0  0  0
  1  2  2  0  0  0  0
  2  3  1  0  0  0  0
  2 13  1  0  0  0  0
  3  4  1  0  0  0  0
  3 22  1  0  0  0  0
  3 23  1  0  0  0  0
  4  5  1  0  0  0  0
  4 24  1  0  0  0  0
  4 25  1  0  0  0  0
  5  6  2  0  0  0  0
  5  7  2  0  0  0  0
  5  8  1  0  0  0  0
  8 12  1  0  0  0  0
  8  9  1  0  0  0  0
  8 26  1  0  0  0  0
  9 10  1  0  0  0  0
  9 27  1  0  0  0  0
  9 28  1  0  0  0  0
 10 11  1  0  0  0  0
 10 29  1  0  0  0  0
 10 30  1  0  0  0  0
 11 12  1  0  0  0  0
 11 31  1  0  0  0  0
 11 32  1  0  0  0  0
 12 33  1  0  0  0  0
 12 34  1  0  0  0  0
 13 14  1  0  0  0  0
 13 35  1  0  0  0  0
 14 15  1  0  0  0  0
 14 36  1  0  0  0  0
 14 37  1  0  0  0  0
 15 16  1  0  0  0  0
 15 38  1  0  0  0  0
 15 39  1  0  0  0  0
 16 21  1  0  0  0  0
 16 17  2  0  0  0  0
 17 18  1  0  0  0  0
 17 40  1  0  0  0  0
 18 19  2  0  0  0  0
 18 41  1  0  0  0  0
 19 20  1  0  0  0  0
 19 42  1  0  0  0  0
 20 21  2  0  0  0  0
 20 44  1  0  0  0  0
 21 43  1  0  0  0  0
M  CHG  1  20   1
M  END
> <s_m_source_file>
AV-unprocessed.smi

> <i_m_source_file_index>
1435

> <i_lp_mmshare_version>
43012

> <i_f3d_flags>
0

> <s_epik_input>
W0NIMl0xW0NIMl1bQ0gyXVtDSDJdW0NIXTFTKD1PKSg9TylbQ0gyXVtDSDJdQyg9TylbTkhdW0NIMl1bQ0gyXWMyW2NIXVtjSF1bY0hdbltjSF0y

> <s_epik_cmdline>
J2VwaWtfcHl0aG9uJywgJy1waCcsICc3LjAnLCAnLXRuJywgJzgnLCAnLW1hJywgJzIwMCcsICctbWV0YWxfYmluZGluZycsICctaW1hZScsICc8aW5maWxlLm1hZT4nLCAnLW9tYWUnLCAnPG91dGZpbGUubWFlPic=

> <r_epik_Ionization_Penalty>
2.2792

> <r_epik_Ionization_Penalty_Charging>
2.2792

> <r_epik_Ionization_Penalty_Neutral>
6.52611e-08

> <r_epik_State_Penalty>
2.42836

> <r_epik_Charging_Adjusted_Penalty>
4.70756

> <i_epik_Tot_Q>
1

> <i_epik_Tot_abs_Q>
1

> <r_epik_Metal_State_Penalty>
2.44099

> <b_epik_Metal_Only>
0

> <s_lp_Force_Field>
OPLS_2005

> <r_lp_Energy>
17.5712

> <b_lp_Chiralities_Consistent>
1

> <s_lp_Variant>
AV-unprocessed.smi:1435-2

> <Gold.Version>
5.8.1

> <Gold.Id.Protein>
6NUR|6NUR_protein|mol2

> <Gold.PLP.Fitness>
49.7080

> <Gold.PLP.PLP>
-36.1270

> <Gold.PLP.part.hbond>
-4.3350

> <Gold.PLP.part.metal>
0.0000

> <Gold.PLP.part.buried>
-5.6612

> <Gold.PLP.part.nonpolar>
-26.6233

> <Gold.PLP.part.repulsive>
0.1041

> <Gold.PLP.ligand.clash>
0.0000

> <Gold.PLP.ligand.torsion>
0.9806

> <Gold.PLP.Chemscore.Hbond>
5.0000

> <Gold.PLP.Chemscore.CHOScore>
0.0000

> <Gold.PLP.Chemscore.Metal>
0.0000

> <Gold.Chemscore.Hbonds>
donor molecule, donor type, donor heavy atom, donor atom, acceptor molecule, acceptor atom, score
      L1  H    20    44       P1  8028  2.00
      P1  H  6896  6907       L1     1  0.91
      P1  H  6931  6943       L1     6  1.00
      P1  H  6934  6947       L1     7  1.00

> <Gold.PLP.Chemscore.Internal.Correction>
0.5422

> <Gold.Rescore>
     Score         DG    S(hbond)    S(metal)    S(lipo)     H(rot)  DE(clash)    DE(int)     intcor
     21.19     -23.75       3.80        0.00      94.42       2.14       0.07       2.50       ----

> <Gold.Chemscore.Fitness>
21.1882

> <Gold.Chemscore.DG>
-23.7512

> <Gold.Chemscore.ZeroCoef>
-5.4800

> <Gold.Chemscore.Hbond>
3.8037

> <Gold.Chemscore.Metal>
0.0000

> <Gold.Chemscore.Lipo>
94.4198

> <Gold.Chemscore.Internal_Hbond>
0.0000

> <Gold.Chemscore.DEClash>
0.0663

> <Gold.Chemscore.DEInternal>
2.4967

> <Gold.Chemscore.Rot>
2.1408

> <Gold.Chemscore.Internal.Correction>
   9.000000E+99

> <Gold.Chemscore.Hbonds>
donor molecule, donor type, donor heavy atom, donor atom, acceptor molecule, acceptor atom, score
      L1  H    20    44       P1  8028  0.88
      P1  H  6896  6907       L1     1  0.85
      P1  H  6931  6943       L1     6  1.00
      P1  H  6934  6947       L1     7  0.39

> <Gold.Chemscore.Hbond.Weighted>
-12.7045

> <Gold.Chemscore.Metal.Weighted>
-0.0000

> <Gold.Chemscore.Lipo.Weighted>
-11.0471

> <Gold.Chemscore.Internal_Hbond.Weighted>
0.0000

> <Gold.Chemscore.DEClash.Weighted>
0.0663

> <Gold.Chemscore.DEInternal.Weighted>
2.4967

> <Gold.Chemscore.Rot.Weighted>
5.4805

> <Gold.Chemscore.Internal.Correction.Weighted>
   9.000000E+99

> <Gold.Protein.RotatedTorsions>
[ 6907 6896 6895 6894 ] final  -51.64 input  -60.11 | X-H torsion
[ 7974 7965 7964 7962 ] final  -79.03 input  175.53 | X-H torsion
[ 8008 7997 7996 7995 ] final  -69.76 input   59.86 | X-H torsion
[ 10167 10162 10161 10158 ] final -164.99 input  -65.29 | X-H torsion
[ 10718 10713 10712 10709 ] final   80.21 input   66.30 | X-H torsion
[ 10763 10752 10751 10750 ] final  -24.91 input  -60.55 | X-H torsion
[ 11005 11000 10999 10996 ] final  111.54 input  -57.11 | X-H torsion

> <Gold.Protein.ActiveResidues>
 VAL166  LYS551  ARG553  GLY616  TRP617  ASP618  TYR619  PRO620  LYS621  CYS622 
 ASP623  PHE694  ASN695  SER759  ASP760  ASP761  ALA762  ILE779  LEU786  VAL792 
 PHE793  MET794  SER795  GLU796  ALA797  LYS798  CYS799  TRP800  GLU811  SER814 

> <Gold.Protein.RotatedAtoms>
  150.8593  134.7940  159.7069 H   0  0  0  0  0  0  0  0  0  0  0  0  # atno 6907 bound_to 6896
  152.4635  134.5127  159.9768 H   0  0  0  0  0  0  0  0  0  0  0  0  # atno 6908 bound_to 6896
  151.5234  133.3424  159.2941 H   0  0  0  0  0  0  0  0  0  0  0  0  # atno 6909 bound_to 6896
  145.5786  140.9452  143.1356 H   0  0  0  0  0  0  0  0  0  0  0  0  # atno 7974 bound_to 7965
  154.4962  140.0847  156.7701 H   0  0  0  0  0  0  0  0  0  0  0  0  # atno 8008 bound_to 7997
  155.4111  140.3441  155.4245 H   0  0  0  0  0  0  0  0  0  0  0  0  # atno 8009 bound_to 7997
  156.1397  140.1525  156.8928 H   0  0  0  0  0  0  0  0  0  0  0  0  # atno 8010 bound_to 7997
  139.6213  144.0620  152.1935 H   0  0  0  0  0  0  0  0  0  0  0  0  # atno 10167 bound_to 10162
  157.6799  130.9949  150.2045 H   0  0  0  0  0  0  0  0  0  0  0  0  # atno 10718 bound_to 10713
  153.6914  135.6961  153.5089 H   0  0  0  0  0  0  0  0  0  0  0  0  # atno 10763 bound_to 10752
  153.2410  135.4306  155.0697 H   0  0  0  0  0  0  0  0  0  0  0  0  # atno 10764 bound_to 10752
  154.8371  135.3508  154.6456 H   0  0  0  0  0  0  0  0  0  0  0  0  # atno 10765 bound_to 10752
  139.8906  134.9510  156.6447 H   0  0  0  0  0  0  0  0  0  0  0  0  # atno 11005 bound_to 11000
  144.7404  139.7465  143.7313 LP  0  0  0  0  0  0  0  0  0  0  0  0  # atno 17320 bound_to 7965
  146.1732  139.4892  142.9914 LP  0  0  0  0  0  0  0  0  0  0  0  0  # atno 17321 bound_to 7965
  140.0262  144.6115  150.7525 LP  0  0  0  0  0  0  0  0  0  0  0  0  # atno 17342 bound_to 10162
  140.7383  143.2777  151.3692 LP  0  0  0  0  0  0  0  0  0  0  0  0  # atno 17343 bound_to 10162
  156.2729  130.3724  149.8013 LP  0  0  0  0  0  0  0  0  0  0  0  0  # atno 17370 bound_to 10713
  156.5724  130.8430  151.3360 LP  0  0  0  0  0  0  0  0  0  0  0  0  # atno 17371 bound_to 10713
  140.7566  133.8852  155.8387 LP  0  0  0  0  0  0  0  0  0  0  0  0  # atno 17394 bound_to 11000
  140.9956  134.1219  157.4366 LP  0  0  0  0  0  0  0  0  0  0  0  0  # atno 17395 bound_to 11000

$$$$
