#       Name:                AV-unprocessed.smi:994
#       Creating user name   scv26
#       Creation time:       Fri Mar 27 02:24:15 2020


#       File generated by GOLD software.
#

@<TRIPOS>MOLECULE
AV-unprocessed.smi:994
    44    45     1
SMALL
NO_CHARGES


@<TRIPOS>ATOM
      1 ****         0.0247   1.7344  -0.9688 O.2            1 S1                 0.0000
      2 ****        -0.3952   0.7091  -0.4310 C.2            1 S1                 0.0000
      3 ****         0.4060  -0.2715   0.0159 N.am           1 S1                 0.0000
      4 ****         1.8617  -0.3077  -0.1150 C.3            1 S1                 0.0000
      5 ****         2.4235  -1.1894   1.0263 C.3            1 S1                 0.0000
      6 ****         3.9276  -1.1796   1.1855 C.2            1 S1                 0.0000
      7 ****         4.7376  -0.6272   2.1538 C.2            1 S1                 0.0000
      8 ****         6.0795  -0.8803   1.8564 N.2            1 S1                 0.0000
      9 ****         6.0335  -1.5686   0.7219 C.2            1 S1                 0.0000
     10 ****         4.7903  -1.7776   0.2818 N.pl3          1 S1                 0.0000
     11 ****         2.2284  -0.9103  -1.4839 C.2            1 S1                 0.0000
     12 ****         2.9925  -0.2398  -2.2121 O.co2          1 S1                 0.0000
     13 ****         1.7530  -2.0313  -1.7752 O.co2          1 S1                -1.0000
     14 ****        -1.9035   0.4977  -0.2429 C.3            1 S1                 0.0000
     15 ****        -2.6344   0.5021  -1.6031 C.3            1 S1                 0.0000
     16 ****        -4.1493   0.3078  -1.4267 C.3            1 S1                 0.0000
     17 ****        -4.7406   1.3719  -0.4888 C.3            1 S1                 0.0000
     18 ****        -4.0172   1.3810   0.8671 C.3            1 S1                 0.0000
     19 ****        -2.5016   1.5728   0.6898 C.3            1 S1                 0.0000
     20 ****         4.5251  -2.2624  -0.5645 H              1 S1                 0.0000
     21 ****        -0.0268  -1.0813   0.4350 H              1 S1                 0.0000
     22 ****         2.2693   0.7015  -0.0283 H              1 S1                 0.0000
     23 ****         2.0064  -0.8437   1.9732 H              1 S1                 0.0000
     24 ****         2.0930  -2.2238   0.9190 H              1 S1                 0.0000
     25 ****         4.4599  -0.0681   3.0350 H              1 S1                 0.0000
     26 ****         6.9131  -1.9224   0.2045 H              1 S1                 0.0000
     27 ****        -2.0580  -0.4786   0.2209 H              1 S1                 0.0000
     28 ****        -2.4534   1.4430  -2.1253 H              1 S1                 0.0000
     29 ****        -2.2384  -0.2866  -2.2444 H              1 S1                 0.0000
     30 ****        -4.6448   0.3512  -2.3969 H              1 S1                 0.0000
     31 ****        -4.3454  -0.6862  -1.0230 H              1 S1                 0.0000
     32 ****        -4.6569   2.3551  -0.9536 H              1 S1                 0.0000
     33 ****        -5.8053   1.1881  -0.3418 H              1 S1                 0.0000
     34 ****        -4.4207   2.1738   1.4974 H              1 S1                 0.0000
     35 ****        -4.2082   0.4428   1.3894 H              1 S1                 0.0000
     36 ****        -2.0144   1.5361   1.6652 H              1 S1                 0.0000
     37 ****        -2.3109   2.5688   0.2872 H              1 S1                 0.0000
     38 ****         1.0082   1.8681  -1.0910 LP             1 S1                 0.0000
     39 ****        -0.6178   2.4332  -1.2833 LP             1 S1                 0.0000
     40 ****         6.8877  -0.6063   2.3777 LP             1 S1                 0.0000
     41 ****         3.2690  -0.5931  -3.1058 LP             1 S1                 0.0000
     42 ****         3.3270   0.6496  -1.9007 LP             1 S1                 0.0000
     43 ****         1.9788  -2.4579  -2.6510 LP             1 S1                 0.0000
     44 ****         1.1475  -2.5001  -1.1320 LP             1 S1                 0.0000
@<TRIPOS>BOND
    1    1    2 2     
    2    2    3 am    
    3    2   14 1     
    4    3    4 1     
    5    3   21 1     
    6    4    5 1     
    7    4   11 1     
    8    4   22 1     
    9    5   23 1     
   10    5   24 1     
   11    5    6 1     
   12    6    7 2     
   13    6   10 1     
   14    7   25 1     
   15    7    8 1     
   16    8    9 2     
   17    9   10 1     
   18    9   26 1     
   19   10   20 1     
   20   11   12 ar    
   21   11   13 ar    
   22   14   19 1     
   23   14   15 1     
   24   14   27 1     
   25   15   16 1     
   26   15   28 1     
   27   15   29 1     
   28   16   17 1     
   29   16   30 1     
   30   16   31 1     
   31   17   18 1     
   32   17   32 1     
   33   17   33 1     
   34   18   19 1     
   35   18   34 1     
   36   18   35 1     
   37   19   36 1     
   38   19   37 1     
   39    1   38 1     
   40    1   39 1     
   41    8   40 1     
   42   12   41 1     
   43   12   42 1     
   44   13   43 1     
   45   13   44 1     
@<TRIPOS>SUBSTRUCTURE
      1 S1             1
@<TRIPOS>SET
LONE_PAIRS      STATIC     ATOMS    <user>   **** ""
7 38 39 40 41 42 43 44
DONOR_HYDROGENS      STATIC     ATOMS    <user>   **** ""
2 21 20
ATOM$BLUE        STATIC     ATOMS    COLORGROUP SYSTEM
7 38 39 40 41 42 43 44
ATOM$RED        STATIC     ATOMS    COLORGROUP SYSTEM
2 21 20
