#       Name:                AV-unprocessed.smi:657
#       Creating user name   scv26
#       Creation time:       Fri Mar 27 00:16:02 2020


#       File generated by GOLD software.
#

@<TRIPOS>MOLECULE
AV-unprocessed.smi:657
    50    51     1
SMALL
NO_CHARGES


@<TRIPOS>ATOM
      1 ****        -0.6457   3.5407   1.6862 C.3            1 S1                 0.0000
      2 ****        -0.5902   3.3408   0.1561 C.3            1 S1                 0.0000
      3 ****        -1.3155   4.5282  -0.5109 C.3            1 S1                 0.0000
      4 ****        -1.1504   2.0157  -0.2818 N.4            1 S1                 1.0000
      5 ****        -1.1043   1.7957  -1.7620 C.3            1 S1                 0.0000
      6 ****        -1.8461   0.5176  -2.1875 C.3            1 S1                 0.0000
      7 ****        -1.3190  -0.7093  -1.4429 C.3            1 S1                 0.0000
      8 ****        -1.4324  -0.4624   0.0645 C.3            1 S1                 0.0000
      9 ****        -0.6866   0.8187   0.5058 C.3            1 S1                 0.0000
     10 ****         0.8410   0.5889   0.5353 C.2            1 S1                 0.0000
     11 ****         1.5708   0.9956  -0.3682 O.2            1 S1                 0.0000
     12 ****         1.3042  -0.1040   1.5868 N.am           1 S1                 0.0000
     13 ****         2.6888  -0.5255   1.7836 C.3            1 S1                 0.0000
     14 ****         3.1394  -1.6159   0.7876 C.3            1 S1                 0.0000
     15 ****         2.1069  -2.6951   0.5870 C.2            1 S1                 0.0000
     16 ****         1.5534  -3.5772   1.5586 C.2            1 S1                 0.0000
     17 ****         0.6306  -4.3811   1.0561 N.2            1 S1                 0.0000
     18 ****         0.5725  -4.0511  -0.2504 N.pl3          1 S1                 0.0000
     19 ****        -0.3564  -4.7388  -1.1209 C.3            1 S1                 0.0000
     20 ****         1.4580  -3.0436  -0.5636 C.2            1 S1                 0.0000
     21 ****        -0.3234   4.5454   1.9621 H              1 S1                 0.0000
     22 ****         0.0156   2.8572   2.2182 H              1 S1                 0.0000
     23 ****        -1.6576   3.4051   2.0695 H              1 S1                 0.0000
     24 ****         0.4567   3.3912  -0.1444 H              1 S1                 0.0000
     25 ****        -0.9911   5.4771  -0.0820 H              1 S1                 0.0000
     26 ****        -2.3958   4.4614  -0.3773 H              1 S1                 0.0000
     27 ****        -1.1061   4.5980  -1.5777 H              1 S1                 0.0000
     28 ****        -1.5819   2.6195  -2.2877 H              1 S1                 0.0000
     29 ****        -0.0738   1.7688  -2.1148 H              1 S1                 0.0000
     30 ****        -2.9132   0.6329  -1.9924 H              1 S1                 0.0000
     31 ****        -1.7446   0.3706  -3.2633 H              1 S1                 0.0000
     32 ****        -1.8883  -1.5959  -1.7233 H              1 S1                 0.0000
     33 ****        -0.2830  -0.9014  -1.7234 H              1 S1                 0.0000
     34 ****        -2.4859  -0.3741   0.3337 H              1 S1                 0.0000
     35 ****        -1.0619  -1.3335   0.6079 H              1 S1                 0.0000
     36 ****        -0.9938   0.9753   1.5397 H              1 S1                 0.0000
     37 ****         0.6393  -0.4053   2.2846 H              1 S1                 0.0000
     38 ****         3.3602   0.3335   1.7458 H              1 S1                 0.0000
     39 ****         2.7534  -0.9217   2.7974 H              1 S1                 0.0000
     40 ****         3.3719  -1.1415  -0.1664 H              1 S1                 0.0000
     41 ****         4.0813  -2.0435   1.1311 H              1 S1                 0.0000
     42 ****         1.7816  -3.6436   2.6122 H              1 S1                 0.0000
     43 ****        -0.1793  -4.4514  -2.1576 H              1 S1                 0.0000
     44 ****        -1.3787  -4.4746  -0.8491 H              1 S1                 0.0000
     45 ****        -0.2258  -5.8173  -1.0255 H              1 S1                 0.0000
     46 ****         1.5416  -2.6496  -1.5658 H              1 S1                 0.0000
     47 ****        -2.1357   2.0788  -0.0699 H              1 S1                 0.0000
     48 ****         1.1779   1.4877  -1.1451 LP             1 S1                 0.0000
     49 ****         2.5567   0.8340  -0.3256 LP             1 S1                 0.0000
     50 ****         0.0965  -5.0767   1.5366 LP             1 S1                 0.0000
@<TRIPOS>BOND
    1    1    2 1     
    2    1   21 1     
    3    1   22 1     
    4    1   23 1     
    5    2    3 1     
    6    2    4 1     
    7    2   24 1     
    8    3   25 1     
    9    3   26 1     
   10    3   27 1     
   11    4    9 1     
   12    4    5 1     
   13    4   47 1     
   14    5    6 1     
   15    5   28 1     
   16    5   29 1     
   17    6    7 1     
   18    6   30 1     
   19    6   31 1     
   20    7    8 1     
   21    7   32 1     
   22    7   33 1     
   23    8    9 1     
   24    8   34 1     
   25    8   35 1     
   26    9   10 1     
   27    9   36 1     
   28   10   11 2     
   29   10   12 am    
   30   12   13 1     
   31   12   37 1     
   32   13   14 1     
   33   13   38 1     
   34   13   39 1     
   35   14   15 1     
   36   14   40 1     
   37   14   41 1     
   38   15   20 2     
   39   15   16 1     
   40   16   17 2     
   41   16   42 1     
   42   17   18 1     
   43   18   19 1     
   44   18   20 1     
   45   19   43 1     
   46   19   44 1     
   47   19   45 1     
   48   20   46 1     
   49   11   48 1     
   50   11   49 1     
   51   17   50 1     
@<TRIPOS>SUBSTRUCTURE
      1 S1             1
@<TRIPOS>SET
LONE_PAIRS      STATIC     ATOMS    <user>   **** ""
3 48 49 50
DONOR_HYDROGENS      STATIC     ATOMS    <user>   **** ""
2 47 37
ATOM$BLUE        STATIC     ATOMS    COLORGROUP SYSTEM
3 48 49 50
ATOM$RED        STATIC     ATOMS    COLORGROUP SYSTEM
2 47 37
