#       Name:                AV-unprocessed.smi:2925
#       Creating user name   scv26
#       Creation time:       Fri Mar 27 16:11:20 2020


#       File generated by GOLD software.
#

@<TRIPOS>MOLECULE
AV-unprocessed.smi:2925
    50    51     1
SMALL
NO_CHARGES


@<TRIPOS>ATOM
      1 ****        -1.9043  -2.1518   2.8670 C.3            1 S1                 0.0000
      2 ****        -2.3934  -2.4294   1.4378 C.3            1 S1                 0.0000
      3 ****        -2.0664  -1.3000   0.4399 C.3            1 S1                 0.0000
      4 ****        -0.6155  -1.1342   0.3470 N.am           1 S1                 0.0000
      5 ****         0.0453   0.0311   0.3981 C.2            1 S1                 0.0000
      6 ****        -0.5011   1.1267   0.5334 O.2            1 S1                 0.0000
      7 ****         1.3732  -0.1548   0.2987 N.am           1 S1                 0.0000
      8 ****         2.3505   0.8517   0.3333 C.2            1 S1                 0.0000
      9 ****         3.3564   0.7634   1.2426 C.2            1 S1                 0.0000
     10 ****         3.4300  -0.3754   2.2474 C.3            1 S1                 0.0000
     11 ****         4.3721   1.7957   1.2702 C.2            1 S1                 0.0000
     12 ****         4.3061   2.8089   0.3961 C.2            1 S1                 0.0000
     13 ****         3.2844   2.8910  -0.5609 N.am           1 S1                 0.0000
     14 ****         3.3096   4.0280  -1.4847 C.3            1 S1                 0.0000
     15 ****         2.3097   1.9430  -0.6701 C.2            1 S1                 0.0000
     16 ****         1.4677   2.0032  -1.5692 O.2            1 S1                 0.0000
     17 ****        -2.6605  -1.5768  -0.9579 C.3            1 S1                 0.0000
     18 ****        -2.3702  -0.5029  -2.0096 C.3            1 S1                 0.0000
     19 ****        -3.4986  -0.7202  -2.9902 C.3            1 S1                 0.0000
     20 ****        -4.6616  -1.0438  -2.0579 C.3            1 S1                 0.0000
     21 ****        -4.0843  -1.6359  -0.8965 O.3            1 S1                 0.0000
     22 ****        -2.2095  -2.9519   3.5417 H              1 S1                 0.0000
     23 ****        -2.3192  -1.2187   3.2492 H              1 S1                 0.0000
     24 ****        -0.8174  -2.0797   2.9141 H              1 S1                 0.0000
     25 ****        -1.9660  -3.3695   1.0864 H              1 S1                 0.0000
     26 ****        -3.4727  -2.5821   1.4690 H              1 S1                 0.0000
     27 ****        -2.5196  -0.3832   0.8217 H              1 S1                 0.0000
     28 ****        -0.0735  -1.9786   0.2358 H              1 S1                 0.0000
     29 ****         1.7152  -1.1041   0.3140 H              1 S1                 0.0000
     30 ****         4.2907  -0.2646   2.9074 H              1 S1                 0.0000
     31 ****         3.5215  -1.3331   1.7344 H              1 S1                 0.0000
     32 ****         2.5328  -0.3981   2.8668 H              1 S1                 0.0000
     33 ****         5.1743   1.7587   1.9926 H              1 S1                 0.0000
     34 ****         5.0322   3.6084   0.3705 H              1 S1                 0.0000
     35 ****         2.3540   4.5545  -1.4759 H              1 S1                 0.0000
     36 ****         3.5007   3.6868  -2.5031 H              1 S1                 0.0000
     37 ****         4.0799   4.7577  -1.2331 H              1 S1                 0.0000
     38 ****        -2.3064  -2.5392  -1.3314 H              1 S1                 0.0000
     39 ****        -2.4444   0.4943  -1.5731 H              1 S1                 0.0000
     40 ****        -1.3843  -0.6051  -2.4641 H              1 S1                 0.0000
     41 ****        -3.6889   0.1444  -3.6266 H              1 S1                 0.0000
     42 ****        -3.2786  -1.5759  -3.6299 H              1 S1                 0.0000
     43 ****        -5.1768  -0.1303  -1.7591 H              1 S1                 0.0000
     44 ****        -5.3913  -1.7076  -2.5221 H              1 S1                 0.0000
     45 ****        -1.4964   1.1827   0.6126 LP             1 S1                 0.0000
     46 ****         0.0505   1.9602   0.5640 LP             1 S1                 0.0000
     47 ****         0.7675   1.2935  -1.6468 LP             1 S1                 0.0000
     48 ****         1.4851   2.7617  -2.2206 LP             1 S1                 0.0000
     49 ****        -4.3991  -1.1430  -0.0853 LP             1 S1                 0.0000
     50 ****        -4.3714  -2.5920  -0.8378 LP             1 S1                 0.0000
@<TRIPOS>BOND
    1    1    2 1     
    2    1   22 1     
    3    1   23 1     
    4    1   24 1     
    5    2    3 1     
    6    2   25 1     
    7    2   26 1     
    8    3    4 1     
    9    3   17 1     
   10    3   27 1     
   11    4    5 am    
   12    4   28 1     
   13    5    6 2     
   14    5    7 am    
   15    7    8 1     
   16    7   29 1     
   17    8   15 1     
   18    8    9 2     
   19    9   10 1     
   20    9   11 1     
   21   10   30 1     
   22   10   31 1     
   23   10   32 1     
   24   11   12 2     
   25   11   33 1     
   26   12   13 1     
   27   12   34 1     
   28   13   14 1     
   29   13   15 am    
   30   14   35 1     
   31   14   36 1     
   32   14   37 1     
   33   15   16 2     
   34   17   21 1     
   35   17   18 1     
   36   17   38 1     
   37   18   19 1     
   38   18   39 1     
   39   18   40 1     
   40   19   20 1     
   41   19   41 1     
   42   19   42 1     
   43   20   21 1     
   44   20   43 1     
   45   20   44 1     
   46    6   45 1     
   47    6   46 1     
   48   16   47 1     
   49   16   48 1     
   50   21   49 1     
   51   21   50 1     
@<TRIPOS>SUBSTRUCTURE
      1 S1             1
@<TRIPOS>SET
LONE_PAIRS      STATIC     ATOMS    <user>   **** ""
6 45 46 47 48 49 50
DONOR_HYDROGENS      STATIC     ATOMS    <user>   **** ""
2 28 29
ATOM$BLUE        STATIC     ATOMS    COLORGROUP SYSTEM
6 45 46 47 48 49 50
ATOM$RED        STATIC     ATOMS    COLORGROUP SYSTEM
2 28 29
