#       Name:                AV-unprocessed.smi:1295
#       Creating user name   scv26
#       Creation time:       Fri Mar 27 04:56:40 2020


#       File generated by GOLD software.
#

@<TRIPOS>MOLECULE
AV-unprocessed.smi:1295
    48    49     1
SMALL
NO_CHARGES


@<TRIPOS>ATOM
      1 ****        -4.2734  -0.3043  -2.3177 C.3            1 S1                 0.0000
      2 ****        -2.7608  -0.3451  -2.2982 C.2            1 S1                 0.0000
      3 ****        -2.1689   0.8952  -2.4696 N.pl3          1 S1                 0.0000
      4 ****        -0.7869   0.9600  -2.4611 C.2            1 S1                 0.0000
      5 ****        -0.2195   2.3578  -2.6361 C.3            1 S1                 0.0000
      6 ****        -0.0324  -0.1558  -2.2941 C.2            1 S1                 0.0000
      7 ****         1.4964  -0.1219  -2.2541 C.3            1 S1                 0.0000
      8 ****         2.1120   0.3303  -0.9277 C.2            1 S1                 0.0000
      9 ****         3.0942   1.0712  -0.9250 O.2            1 S1                 0.0000
     10 ****         1.5127  -0.1165   0.1861 N.am           1 S1                 0.0000
     11 ****         1.8334   0.2613   1.5605 C.3            1 S1                 0.0000
     12 ****         2.6095  -0.8731   2.2596 C.3            1 S1                 0.0000
     13 ****         1.7269  -2.1069   2.5169 C.3            1 S1                 0.0000
     14 ****         0.4620  -1.7309   3.3029 C.3            1 S1                 0.0000
     15 ****        -0.3287  -0.6208   2.5928 C.3            1 S1                 0.0000
     16 ****         0.5446   0.6258   2.3392 C.3            1 S1                 0.0000
     17 ****        -0.2633   1.7470   1.6618 C.3            1 S1                 0.0000
     18 ****        -0.7235  -1.4547  -2.1125 C.2            1 S1                 0.0000
     19 ****        -0.0966  -2.4987  -1.9390 O.2            1 S1                 0.0000
     20 ****        -2.1274  -1.4658  -2.1294 N.2            1 S1                 0.0000
     21 ****        -2.6920   1.7499  -2.5952 H              1 S1                 0.0000
     22 ****        -4.6915  -1.3115  -2.2938 H              1 S1                 0.0000
     23 ****        -4.6308   0.1903  -3.2216 H              1 S1                 0.0000
     24 ****        -4.6483   0.2415  -1.4512 H              1 S1                 0.0000
     25 ****         0.4016   2.4083  -3.5304 H              1 S1                 0.0000
     26 ****         0.3913   2.6317  -1.7755 H              1 S1                 0.0000
     27 ****        -1.0098   3.1031  -2.7350 H              1 S1                 0.0000
     28 ****         1.8465   0.5484  -3.0395 H              1 S1                 0.0000
     29 ****         1.9154  -1.0947  -2.5127 H              1 S1                 0.0000
     30 ****         0.7236  -0.7358   0.0702 H              1 S1                 0.0000
     31 ****         2.4729   1.1456   1.5484 H              1 S1                 0.0000
     32 ****         3.4817  -1.1541   1.6678 H              1 S1                 0.0000
     33 ****         2.9955  -0.5077   3.2119 H              1 S1                 0.0000
     34 ****         1.4456  -2.5654   1.5680 H              1 S1                 0.0000
     35 ****         2.2939  -2.8597   3.0650 H              1 S1                 0.0000
     36 ****        -0.1688  -2.6106   3.4339 H              1 S1                 0.0000
     37 ****         0.7397  -1.3981   4.3037 H              1 S1                 0.0000
     38 ****        -0.7209  -1.0002   1.6479 H              1 S1                 0.0000
     39 ****        -1.1958  -0.3506   3.1965 H              1 S1                 0.0000
     40 ****         0.8564   1.0064   3.3130 H              1 S1                 0.0000
     41 ****        -0.6817   1.4246   0.7076 H              1 S1                 0.0000
     42 ****         0.3602   2.6213   1.4732 H              1 S1                 0.0000
     43 ****        -1.0938   2.0649   2.2926 H              1 S1                 0.0000
     44 ****         3.4910   1.3785  -1.7899 LP             1 S1                 0.0000
     45 ****         3.4956   1.3661  -0.0579 LP             1 S1                 0.0000
     46 ****         0.9030  -2.4841  -1.9180 LP             1 S1                 0.0000
     47 ****        -0.5866  -3.3622  -1.8190 LP             1 S1                 0.0000
     48 ****        -2.6308  -2.3221  -2.0134 LP             1 S1                 0.0000
@<TRIPOS>BOND
    1    1   22 1     
    2    1   23 1     
    3    1   24 1     
    4    1    2 1     
    5    2    3 1     
    6    2   20 2     
    7    3    4 1     
    8    3   21 1     
    9    4    6 2     
   10    4    5 1     
   11    5   25 1     
   12    5   26 1     
   13    5   27 1     
   14    6   18 1     
   15    6    7 1     
   16    7    8 1     
   17    7   28 1     
   18    7   29 1     
   19    8    9 2     
   20    8   10 am    
   21   10   11 1     
   22   10   30 1     
   23   11   16 1     
   24   11   12 1     
   25   11   31 1     
   26   12   13 1     
   27   12   32 1     
   28   12   33 1     
   29   13   14 1     
   30   13   34 1     
   31   13   35 1     
   32   14   15 1     
   33   14   36 1     
   34   14   37 1     
   35   15   16 1     
   36   15   38 1     
   37   15   39 1     
   38   16   17 1     
   39   16   40 1     
   40   17   41 1     
   41   17   42 1     
   42   17   43 1     
   43   18   19 2     
   44   18   20 1     
   45    9   44 1     
   46    9   45 1     
   47   19   46 1     
   48   19   47 1     
   49   20   48 1     
@<TRIPOS>SUBSTRUCTURE
      1 S1             1
@<TRIPOS>SET
LONE_PAIRS      STATIC     ATOMS    <user>   **** ""
5 44 45 46 47 48
DONOR_HYDROGENS      STATIC     ATOMS    <user>   **** ""
2 21 30
ATOM$BLUE        STATIC     ATOMS    COLORGROUP SYSTEM
5 44 45 46 47 48
ATOM$RED        STATIC     ATOMS    COLORGROUP SYSTEM
2 21 30
