AV-unprocessed.smi:47|AV-procd|sdf|441|dock1
  -GOLD-   2262016313D 1   1.00000     0.00000
 Structure written by MMmdl.
 32 34  0  0  0  0  0  0  0  0  2 V2000
  145.7931  140.0263  154.0473 O   0  0  0  0  0  0  0  0  0  0  0  0
  147.0103  140.6524  153.7020 C   0  0  1  0  0  0  0  0  0  0  0  0
  147.0252  142.1372  154.0839 C   0  0  0  0  0  0  0  0  0  0  0  0
  148.4331  142.4716  154.3807 N   0  3  0  0  0  0  0  0  0  0  0  0
  149.2130  141.2158  154.3984 C   0  0  1  0  0  0  0  0  0  0  0  0
  150.1287  141.3294  155.5806 C   0  0  0  0  0  0  0  0  0  0  0  0
  151.0126  140.4092  155.9747 N   0  0  0  0  0  0  0  0  0  0  0  0
  151.6314  140.9501  157.0858 N   0  0  0  0  0  0  0  0  0  0  0  0
  151.0806  142.1570  157.2798 C   0  0  0  0  0  0  0  0  0  0  0  0
  151.4590  143.0696  158.3611 C   0  0  0  0  0  0  0  0  0  0  0  0
  151.1650  144.4501  158.2700 C   0  0  0  0  0  0  0  0  0  0  0  0
  151.5319  145.3288  159.3078 C   0  0  0  0  0  0  0  0  0  0  0  0
  152.1979  144.8376  160.4460 C   0  0  0  0  0  0  0  0  0  0  0  0
  152.4966  143.4660  160.5457 C   0  0  0  0  0  0  0  0  0  0  0  0
  152.1294  142.5862  159.5090 C   0  0  0  0  0  0  0  0  0  0  0  0
  150.1390  142.4220  156.3562 N   0  0  0  0  0  0  0  0  0  0  0  0
  148.1917  140.0790  154.4785 C   0  0  0  0  0  0  0  0  0  0  0  0
  147.1863  140.5435  152.6309 H   0  0  0  0  0  0  0  0  0  0  0  0
  149.7878  141.1493  153.4734 H   0  0  0  0  0  0  0  0  0  0  0  0
  149.5771  143.2564  156.2681 H   0  0  0  0  0  0  0  0  0  0  0  0
  145.1703  140.1647  153.3495 H   0  0  0  0  0  0  0  0  0  0  0  0
  146.6166  142.7737  153.2988 H   0  0  0  0  0  0  0  0  0  0  0  0
  146.4451  142.3087  154.9919 H   0  0  0  0  0  0  0  0  0  0  0  0
  148.8076  143.0984  153.6832 H   0  0  0  0  0  0  0  0  0  0  0  0
  150.6544  144.8499  157.4064 H   0  0  0  0  0  0  0  0  0  0  0  0
  151.3019  146.3813  159.2306 H   0  0  0  0  0  0  0  0  0  0  0  0
  152.4795  145.5120  161.2416 H   0  0  0  0  0  0  0  0  0  0  0  0
  153.0088  143.0877  161.4180 H   0  0  0  0  0  0  0  0  0  0  0  0
  152.3704  141.5377  159.6055 H   0  0  0  0  0  0  0  0  0  0  0  0
  147.8974  139.9116  155.5167 H   0  0  0  0  0  0  0  0  0  0  0  0
  148.5653  139.1356  154.0790 H   0  0  0  0  0  0  0  0  0  0  0  0
  148.4804  142.9066  155.2916 H   0  0  0  0  0  0  0  0  0  0  0  0
  1  2  1  0  0  0  0
  1 21  1  0  0  0  0
  2 18  1  0  0  0  0
  2 17  1  0  0  0  0
  2  3  1  0  0  0  0
  3  4  1  0  0  0  0
  3 22  1  0  0  0  0
  3 23  1  0  0  0  0
  4  5  1  0  0  0  0
  4 24  1  0  0  0  0
  4 32  1  0  0  0  0
  5 19  1  0  0  0  0
  5 17  1  0  0  0  0
  5  6  1  0  0  0  0
  6  7  2  0  0  0  0
  6 16  1  0  0  0  0
  7  8  1  0  0  0  0
  8  9  2  0  0  0  0
  9 16  1  0  0  0  0
  9 10  1  0  0  0  0
 10 15  1  0  0  0  0
 10 11  2  0  0  0  0
 11 12  1  0  0  0  0
 11 25  1  0  0  0  0
 12 13  2  0  0  0  0
 12 26  1  0  0  0  0
 13 14  1  0  0  0  0
 13 27  1  0  0  0  0
 14 15  2  0  0  0  0
 14 28  1  0  0  0  0
 15 29  1  0  0  0  0
 16 20  1  0  0  0  0
 17 30  1  0  0  0  0
 17 31  1  0  0  0  0
M  CHG  1   4   1
M  END
> <s_m_source_file>
AV-unprocessed.smi

> <i_m_source_file_index>
47

> <i_lp_mmshare_version>
43012

> <i_f3d_flags>
0

> <s_epik_input>
W09IXVtDQEhdMVtDSDJdW05IXVtDQEBIXShbQ0gyXTEpYzJuW25IXWMobjIpLWMzW2NIXVtjSF1bY0hdW2NIXVtjSF0z

> <s_epik_cmdline>
J2VwaWtfcHl0aG9uJywgJy1waCcsICc3LjAnLCAnLXRuJywgJzgnLCAnLW1hJywgJzIwMCcsICctbWV0YWxfYmluZGluZycsICctaW1hZScsICc8aW5maWxlLm1hZT4nLCAnLW9tYWUnLCAnPG91dGZpbGUubWFlPic=

> <r_lp_tautomer_probability>
0.0517155

> <r_epik_Ionization_Penalty>
2.45729

> <r_epik_Ionization_Penalty_Charging>
0.0688988

> <r_epik_Ionization_Penalty_Neutral>
2.3884

> <r_epik_State_Penalty>
2.69236

> <r_epik_Charging_Adjusted_Penalty>
2.76126

> <i_epik_Tot_Q>
1

> <i_epik_Tot_abs_Q>
1

> <r_epik_Metal_State_Penalty>
3.18974

> <b_epik_Metal_Only>
0

> <s_lp_Force_Field>
OPLS_2005

> <r_lp_Energy>
28.8935

> <b_lp_Chiralities_Consistent>
1

> <s_lp_Variant>
AV-unprocessed.smi:47-19

> <Gold.Version>
5.8.1

> <Gold.Id.Protein>
6NUR|6NUR_protein|mol2

> <Gold.PLP.Fitness>
49.4391

> <Gold.PLP.PLP>
-40.6225

> <Gold.PLP.part.hbond>
-3.0000

> <Gold.PLP.part.metal>
0.0000

> <Gold.PLP.part.buried>
-6.7595

> <Gold.PLP.part.nonpolar>
-32.3144

> <Gold.PLP.part.repulsive>
1.7084

> <Gold.PLP.ligand.clash>
0.0000

> <Gold.PLP.ligand.torsion>
0.1818

> <Gold.PLP.Chemscore.Hbond>
3.0560

> <Gold.PLP.Chemscore.CHOScore>
0.0000

> <Gold.PLP.Chemscore.Metal>
0.0000

> <Gold.Chemscore.Hbonds>
donor molecule, donor type, donor heavy atom, donor atom, acceptor molecule, acceptor atom, score
      L1  H     1    21       P1 10175  1.00
      L1  H     4    32       P1  8028  1.02
      L1  H    16    20       P1  8028  1.00

> <Gold.PLP.Chemscore.Internal.Correction>
0.0122

> <Gold.Rescore>
     Score         DG    S(hbond)    S(metal)    S(lipo)     H(rot)  DE(clash)    DE(int)     intcor
     20.80     -21.19       2.51        0.00      95.37       1.50       0.26       0.13       ----

> <Gold.Chemscore.Fitness>
20.7969

> <Gold.Chemscore.DG>
-21.1866

> <Gold.Chemscore.ZeroCoef>
-5.4800

> <Gold.Chemscore.Hbond>
2.5088

> <Gold.Chemscore.Metal>
0.0000

> <Gold.Chemscore.Lipo>
95.3705

> <Gold.Chemscore.Internal_Hbond>
0.0000

> <Gold.Chemscore.DEClash>
0.2616

> <Gold.Chemscore.DEInternal>
0.1282

> <Gold.Chemscore.Rot>
1.4966

> <Gold.Chemscore.Internal.Correction>
   9.000000E+99

> <Gold.Chemscore.Hbonds>
donor molecule, donor type, donor heavy atom, donor atom, acceptor molecule, acceptor atom, score
      L1  H     1    21       P1 10175  1.00
      L1  H     4    32       P1  8028  0.52
      L1  H    16    20       P1  8028  1.00

> <Gold.Chemscore.Hbond.Weighted>
-8.3794

> <Gold.Chemscore.Metal.Weighted>
-0.0000

> <Gold.Chemscore.Lipo.Weighted>
-11.1583

> <Gold.Chemscore.Internal_Hbond.Weighted>
0.0000

> <Gold.Chemscore.DEClash.Weighted>
0.2616

> <Gold.Chemscore.DEInternal.Weighted>
0.1282

> <Gold.Chemscore.Rot.Weighted>
3.8312

> <Gold.Chemscore.Internal.Correction.Weighted>
   9.000000E+99

> <Gold.Protein.RotatedTorsions>
[ 6907 6896 6895 6894 ] final  -22.33 input  -60.11 | X-H torsion
[ 7974 7965 7964 7962 ] final   49.52 input  175.53 | X-H torsion
[ 8008 7997 7996 7995 ] final -167.69 input   59.86 | X-H torsion
[ 10167 10162 10161 10158 ] final   20.89 input  -65.29 | X-H torsion
[ 10718 10713 10712 10709 ] final  -32.85 input   66.30 | X-H torsion
[ 10763 10752 10751 10750 ] final  147.23 input  -60.55 | X-H torsion
[ 11005 11000 10999 10996 ] final   43.24 input  -57.11 | X-H torsion

> <Gold.Protein.ActiveResidues>
 VAL166  LYS551  ARG553  GLY616  TRP617  ASP618  TYR619  PRO620  LYS621  CYS622 
 ASP623  PHE694  ASN695  SER759  ASP760  ASP761  ALA762  ILE779  LEU786  VAL792 
 PHE793  MET794  SER795  GLU796  ALA797  LYS798  CYS799  TRP800  GLU811  SER814 

> <Gold.Protein.RotatedAtoms>
  151.2202  135.0515  159.8946 H   0  0  0  0  0  0  0  0  0  0  0  0  # atno 6907 bound_to 6896
  152.5416  134.0649  159.8178 H   0  0  0  0  0  0  0  0  0  0  0  0  # atno 6908 bound_to 6896
  151.0814  133.5339  159.2652 H   0  0  0  0  0  0  0  0  0  0  0  0  # atno 6909 bound_to 6896
  146.0100  139.4533  142.9962 H   0  0  0  0  0  0  0  0  0  0  0  0  # atno 7974 bound_to 7965
  155.8812  140.1009  157.1484 H   0  0  0  0  0  0  0  0  0  0  0  0  # atno 8008 bound_to 7997
  154.4005  140.1328  156.4262 H   0  0  0  0  0  0  0  0  0  0  0  0  # atno 8009 bound_to 7997
  155.7641  140.3462  155.5215 H   0  0  0  0  0  0  0  0  0  0  0  0  # atno 8010 bound_to 7997
  140.5469  143.9578  150.6553 H   0  0  0  0  0  0  0  0  0  0  0  0  # atno 10167 bound_to 10162
  156.3698  130.4337  149.7555 H   0  0  0  0  0  0  0  0  0  0  0  0  # atno 10718 bound_to 10713
  154.0349  135.2894  155.3363 H   0  0  0  0  0  0  0  0  0  0  0  0  # atno 10763 bound_to 10752
  154.6965  135.5205  153.8469 H   0  0  0  0  0  0  0  0  0  0  0  0  # atno 10764 bound_to 10752
  153.0624  135.6618  154.0559 H   0  0  0  0  0  0  0  0  0  0  0  0  # atno 10765 bound_to 10752
  140.1663  134.4278  155.8285 H   0  0  0  0  0  0  0  0  0  0  0  0  # atno 11005 bound_to 11000
  145.7356  141.0027  143.1328 LP  0  0  0  0  0  0  0  0  0  0  0  0  # atno 17320 bound_to 7965
  144.6950  139.9037  143.7460 LP  0  0  0  0  0  0  0  0  0  0  0  0  # atno 17321 bound_to 7965
  140.2994  143.3271  152.0987 LP  0  0  0  0  0  0  0  0  0  0  0  0  # atno 17342 bound_to 10162
  139.5011  144.6706  151.6251 LP  0  0  0  0  0  0  0  0  0  0  0  0  # atno 17343 bound_to 10162
  156.4686  130.7986  151.3004 LP  0  0  0  0  0  0  0  0  0  0  0  0  # atno 17370 bound_to 10713
  157.7482  131.0043  150.3070 LP  0  0  0  0  0  0  0  0  0  0  0  0  # atno 17371 bound_to 10713
  141.2214  133.6936  156.7684 LP  0  0  0  0  0  0  0  0  0  0  0  0  # atno 17394 bound_to 11000
  140.2430  134.8599  157.3592 LP  0  0  0  0  0  0  0  0  0  0  0  0  # atno 17395 bound_to 11000

$$$$
