AV-unprocessed.smi:1667|AV-procd|sdf|6680|dock10
  -GOLD-   22720 7393D 1   1.00000     0.00000
 Structure written by MMmdl.
 46 48  0  0  0  0  0  0  0  0  2 V2000
  152.2959  136.6087  158.3068 C   0  0  0  0  0  0  0  0  0  0  0  0
  152.0427  136.6561  156.8043 C   0  0  0  0  0  0  0  0  0  0  0  0
  151.8547  135.6157  156.1771 O   0  0  0  0  0  0  0  0  0  0  0  0
  152.0348  137.8732  156.2395 N   0  0  0  0  0  0  0  0  0  0  0  0
  151.8577  138.1477  154.8144 C   0  0  2  0  0  0  0  0  0  0  0  0
  153.1184  138.8398  154.2772 C   0  0  0  0  0  0  0  0  0  0  0  0
  150.6387  138.9748  154.5125 C   0  0  0  0  0  0  0  0  0  0  0  0
  149.5666  138.5864  153.7622 N   0  3  0  0  0  0  0  0  0  0  0  0
  148.6157  139.6051  153.7261 C   0  0  0  0  0  0  0  0  0  0  0  0
  147.3782  139.6741  153.0940 C   0  0  0  0  0  0  0  0  0  0  0  0
  146.6441  140.8655  153.2695 C   0  0  0  0  0  0  0  0  0  0  0  0
  147.1444  141.9277  154.0503 C   0  0  0  0  0  0  0  0  0  0  0  0
  148.4011  141.8453  154.6856 C   0  0  0  0  0  0  0  0  0  0  0  0
  149.1234  140.6663  154.5016 C   0  0  0  0  0  0  0  0  0  0  0  0
  150.3746  140.2384  154.9604 N   0  0  0  0  0  0  0  0  0  0  0  0
  151.1624  141.1355  155.8220 C   0  0  0  0  0  0  0  0  0  0  0  0
  150.3520  141.7288  156.9933 C   0  0  1  0  0  0  0  0  0  0  0  0
  149.5953  140.6845  157.5682 O   0  0  0  0  0  0  0  0  0  0  0  0
  151.2238  142.4325  158.0228 C   0  0  0  0  0  0  0  0  0  0  0  0
  152.1333  141.6997  158.8170 C   0  0  0  0  0  0  0  0  0  0  0  0
  152.9277  142.3573  159.7763 C   0  0  0  0  0  0  0  0  0  0  0  0
  152.8130  143.7496  159.9512 C   0  0  0  0  0  0  0  0  0  0  0  0
  151.9096  144.4857  159.1604 C   0  0  0  0  0  0  0  0  0  0  0  0
  151.8032  145.8257  159.3228 F   0  0  0  0  0  0  0  0  0  0  0  0
  151.1204  143.8294  158.1962 C   0  0  0  0  0  0  0  0  0  0  0  0
  151.7524  137.1886  154.3064 H   0  0  0  0  0  0  0  0  0  0  0  0
  151.6753  137.3395  158.8262 H   0  0  0  0  0  0  0  0  0  0  0  0
  153.3422  136.8283  158.5204 H   0  0  0  0  0  0  0  0  0  0  0  0
  152.0649  135.6206  158.7069 H   0  0  0  0  0  0  0  0  0  0  0  0
  152.1982  138.6704  156.8373 H   0  0  0  0  0  0  0  0  0  0  0  0
  153.0535  139.0053  153.2017 H   0  0  0  0  0  0  0  0  0  0  0  0
  154.0073  138.2355  154.4610 H   0  0  0  0  0  0  0  0  0  0  0  0
  153.2711  139.8100  154.7515 H   0  0  0  0  0  0  0  0  0  0  0  0
  146.9912  138.8598  152.4991 H   0  0  0  0  0  0  0  0  0  0  0  0
  145.6769  140.9653  152.7984 H   0  0  0  0  0  0  0  0  0  0  0  0
  146.5520  142.8237  154.1654 H   0  0  0  0  0  0  0  0  0  0  0  0
  148.7739  142.6641  155.2833 H   0  0  0  0  0  0  0  0  0  0  0  0
  152.0165  140.5675  156.1943 H   0  0  0  0  0  0  0  0  0  0  0  0
  151.5749  141.9319  155.2026 H   0  0  0  0  0  0  0  0  0  0  0  0
  149.6286  142.4471  156.6072 H   0  0  0  0  0  0  0  0  0  0  0  0
  150.1913  140.0322  157.9040 H   0  0  0  0  0  0  0  0  0  0  0  0
  152.2249  140.6306  158.6916 H   0  0  0  0  0  0  0  0  0  0  0  0
  153.6233  141.7933  160.3801 H   0  0  0  0  0  0  0  0  0  0  0  0
  153.4214  144.2538  160.6876 H   0  0  0  0  0  0  0  0  0  0  0  0
  150.4328  144.4031  157.5924 H   0  0  0  0  0  0  0  0  0  0  0  0
  149.4984  137.6866  153.3047 H   0  0  0  0  0  0  0  0  0  0  0  0
  1  2  1  0  0  0  0
  1 27  1  0  0  0  0
  1 28  1  0  0  0  0
  1 29  1  0  0  0  0
  2  3  2  0  0  0  0
  2  4  1  0  0  0  0
  4  5  1  0  0  0  0
  4 30  1  0  0  0  0
  5 26  1  0  0  0  0
  5  6  1  0  0  0  0
  5  7  1  0  0  0  0
  6 31  1  0  0  0  0
  6 32  1  0  0  0  0
  6 33  1  0  0  0  0
  7 15  1  0  0  0  0
  7  8  2  0  0  0  0
  8  9  1  0  0  0  0
  8 46  1  0  0  0  0
  9 14  2  0  0  0  0
  9 10  1  0  0  0  0
 10 11  2  0  0  0  0
 10 34  1  0  0  0  0
 11 12  1  0  0  0  0
 11 35  1  0  0  0  0
 12 13  2  0  0  0  0
 12 36  1  0  0  0  0
 13 14  1  0  0  0  0
 13 37  1  0  0  0  0
 14 15  1  0  0  0  0
 15 16  1  0  0  0  0
 16 17  1  0  0  0  0
 16 38  1  0  0  0  0
 16 39  1  0  0  0  0
 17 18  1  0  0  0  0
 17 19  1  0  0  0  0
 17 40  1  0  0  0  0
 18 41  1  0  0  0  0
 19 25  1  0  0  0  0
 19 20  2  0  0  0  0
 20 21  1  0  0  0  0
 20 42  1  0  0  0  0
 21 22  2  0  0  0  0
 21 43  1  0  0  0  0
 22 23  1  0  0  0  0
 22 44  1  0  0  0  0
 23 24  1  0  0  0  0
 23 25  2  0  0  0  0
 25 45  1  0  0  0  0
M  CHG  1   8   1
M  END
> <s_m_source_file>
AV-unprocessed.smi

> <i_m_source_file_index>
1667

> <i_lp_mmshare_version>
43012

> <i_f3d_flags>
0

> <s_epik_input>
W0NIM11DKD1PKVtOSF1bQ0BASF0oW0NIM10pYyhuMSluKGMoYzEyKVtjSF1bY0hdW2NIXVtjSF0yKVtDSDJdW0NASF0oW09IXSljM1tjSF1bY0hdW2NIXWMoRilbY0hdMw==

> <s_epik_cmdline>
J2VwaWtfcHl0aG9uJywgJy1waCcsICc3LjAnLCAnLXRuJywgJzgnLCAnLW1hJywgJzIwMCcsICctbWV0YWxfYmluZGluZycsICctaW1hZScsICc8aW5maWxlLm1hZT4nLCAnLW9tYWUnLCAnPG91dGZpbGUubWFlPic=

> <r_epik_Ionization_Penalty>
0.950383

> <r_epik_Ionization_Penalty_Charging>
0.950379

> <r_epik_Ionization_Penalty_Neutral>
3.60962e-06

> <r_epik_State_Penalty>
0.994584

> <r_epik_Charging_Adjusted_Penalty>
1.94496

> <i_epik_Tot_Q>
1

> <i_epik_Tot_abs_Q>
1

> <r_epik_Metal_State_Penalty>
1.10485

> <b_epik_Metal_Only>
0

> <s_lp_Force_Field>
OPLS_2005

> <r_lp_Energy>
10.8153

> <b_lp_Chiralities_Consistent>
1

> <s_lp_Variant>
AV-unprocessed.smi:1667-8

> <Gold.Version>
5.8.1

> <Gold.Id.Protein>
6NUR|6NUR_protein|mol2

> <Gold.PLP.Fitness>
59.9606

> <Gold.PLP.PLP>
-51.5126

> <Gold.PLP.part.hbond>
-3.0000

> <Gold.PLP.part.metal>
0.0000

> <Gold.PLP.part.buried>
5.3517

> <Gold.PLP.part.nonpolar>
-53.6828

> <Gold.PLP.part.repulsive>
0.1687

> <Gold.PLP.ligand.clash>
0.0000

> <Gold.PLP.ligand.torsion>
0.2719

> <Gold.PLP.Chemscore.Hbond>
2.9825

> <Gold.PLP.Chemscore.CHOScore>
0.0000

> <Gold.PLP.Chemscore.Metal>
0.0000

> <Gold.Chemscore.Hbonds>
donor molecule, donor type, donor heavy atom, donor atom, acceptor molecule, acceptor atom, score
      L1  H     8    46       P1  7948  1.72
      P1  H 10752 10765       L1     3  1.00

> <Gold.PLP.Chemscore.Internal.Correction>
0.0442

> <Gold.Rescore>
     Score         DG    S(hbond)    S(metal)    S(lipo)     H(rot)  DE(clash)    DE(int)     intcor
     17.19     -19.78       1.34        0.00     139.48       2.53       2.42       0.17       ----

> <Gold.Chemscore.Fitness>
17.1875

> <Gold.Chemscore.DG>
-19.7834

> <Gold.Chemscore.ZeroCoef>
-5.4800

> <Gold.Chemscore.Hbond>
1.3384

> <Gold.Chemscore.Metal>
0.0000

> <Gold.Chemscore.Lipo>
139.4760

> <Gold.Chemscore.Internal_Hbond>
0.0000

> <Gold.Chemscore.DEClash>
2.4231

> <Gold.Chemscore.DEInternal>
0.1728

> <Gold.Chemscore.Rot>
2.5335

> <Gold.Chemscore.Internal.Correction>
   9.000000E+99

> <Gold.Chemscore.Hbonds>
donor molecule, donor type, donor heavy atom, donor atom, acceptor molecule, acceptor atom, score
      L1  H     8    46       P1  7948  0.76
      P1  H 10752 10765       L1     3  0.70

> <Gold.Chemscore.Hbond.Weighted>
-4.4704

> <Gold.Chemscore.Metal.Weighted>
-0.0000

> <Gold.Chemscore.Lipo.Weighted>
-16.3187

> <Gold.Chemscore.Internal_Hbond.Weighted>
0.0000

> <Gold.Chemscore.DEClash.Weighted>
2.4231

> <Gold.Chemscore.DEInternal.Weighted>
0.1728

> <Gold.Chemscore.Rot.Weighted>
6.4856

> <Gold.Chemscore.Internal.Correction.Weighted>
   9.000000E+99

> <Gold.Protein.RotatedTorsions>
[ 6907 6896 6895 6894 ] final -178.37 input  -60.11 | X-H torsion
[ 7974 7965 7964 7962 ] final   71.86 input  175.53 | X-H torsion
[ 8008 7997 7996 7995 ] final  101.44 input   59.86 | X-H torsion
[ 10167 10162 10161 10158 ] final  -97.73 input  -65.29 | X-H torsion
[ 10718 10713 10712 10709 ] final  -49.55 input   66.30 | X-H torsion
[ 10763 10752 10751 10750 ] final -161.12 input  -60.55 | X-H torsion
[ 11005 11000 10999 10996 ] final -157.32 input  -57.11 | X-H torsion

> <Gold.Protein.ActiveResidues>
 VAL166  LYS551  ARG553  GLY616  TRP617  ASP618  TYR619  PRO620  LYS621  CYS622 
 ASP623  PHE694  ASN695  SER759  ASP760  ASP761  ALA762  ILE779  LEU786  VAL792 
 PHE793  MET794  SER795  GLU796  ALA797  LYS798  CYS799  TRP800  GLU811  SER814 

> <Gold.Protein.RotatedAtoms>
  151.6361  133.3329  159.3119 H   0  0  0  0  0  0  0  0  0  0  0  0  # atno 6907 bound_to 6896
  150.8032  134.7143  159.6631 H   0  0  0  0  0  0  0  0  0  0  0  0  # atno 6908 bound_to 6896
  152.4125  134.6103  160.0075 H   0  0  0  0  0  0  0  0  0  0  0  0  # atno 6909 bound_to 6896
  145.7606  139.2799  143.1378 H   0  0  0  0  0  0  0  0  0  0  0  0  # atno 7974 bound_to 7965
  156.1300  140.3197  155.8334 H   0  0  0  0  0  0  0  0  0  0  0  0  # atno 8008 bound_to 7997
  155.4350  140.0521  157.3032 H   0  0  0  0  0  0  0  0  0  0  0  0  # atno 8009 bound_to 7997
  154.4892  140.2085  155.9600 H   0  0  0  0  0  0  0  0  0  0  0  0  # atno 8010 bound_to 7997
  140.2804  143.3286  152.0447 H   0  0  0  0  0  0  0  0  0  0  0  0  # atno 10167 bound_to 10162
  156.1883  130.4152  149.9408 H   0  0  0  0  0  0  0  0  0  0  0  0  # atno 10718 bound_to 10713
  154.7331  135.3051  154.8857 H   0  0  0  0  0  0  0  0  0  0  0  0  # atno 10763 bound_to 10752
  153.9694  135.6743  153.4751 H   0  0  0  0  0  0  0  0  0  0  0  0  # atno 10764 bound_to 10752
  153.0937  135.4946  154.8660 H   0  0  0  0  0  0  0  0  0  0  0  0  # atno 10765 bound_to 10752
  140.6659  134.4299  157.5233 H   0  0  0  0  0  0  0  0  0  0  0  0  # atno 11005 bound_to 11000
  146.0268  140.8296  142.9896 LP  0  0  0  0  0  0  0  0  0  0  0  0  # atno 17320 bound_to 7965
  144.6831  140.2709  143.7306 LP  0  0  0  0  0  0  0  0  0  0  0  0  # atno 17321 bound_to 7965
  139.4964  144.6595  151.6496 LP  0  0  0  0  0  0  0  0  0  0  0  0  # atno 17342 bound_to 10162
  140.5816  143.9935  150.6272 LP  0  0  0  0  0  0  0  0  0  0  0  0  # atno 17343 bound_to 10162
  156.7157  130.8987  151.3613 LP  0  0  0  0  0  0  0  0  0  0  0  0  # atno 17370 bound_to 10713
  157.6913  130.9236  150.0521 LP  0  0  0  0  0  0  0  0  0  0  0  0  # atno 17371 bound_to 10713
  139.8997  134.8584  156.1947 LP  0  0  0  0  0  0  0  0  0  0  0  0  # atno 17394 bound_to 11000
  141.0430  133.6928  156.1631 LP  0  0  0  0  0  0  0  0  0  0  0  0  # atno 17395 bound_to 11000

$$$$
