AV-unprocessed.smi:1158|AV-procd|sdf|4913|dock3
  -GOLD-   22720 3493D 1   1.00000     0.00000
 Structure written by MMmdl.
 43 44  0  0  0  0  0  0  0  0  2 V2000
  153.5723  140.6217  160.7043 C   0  0  0  0  0  0  0  0  0  0  0  0
  152.5989  140.8174  159.6844 O   0  0  0  0  0  0  0  0  0  0  0  0
  152.3154  142.1088  159.2817 C   0  0  0  0  0  0  0  0  0  0  0  0
  152.7768  143.1362  160.0379 N   0  0  0  0  0  0  0  0  0  0  0  0
  152.4957  144.3967  159.6493 C   0  0  0  0  0  0  0  0  0  0  0  0
  151.7406  144.6985  158.5014 C   0  0  0  0  0  0  0  0  0  0  0  0
  151.2621  143.6347  157.7143 C   0  0  0  0  0  0  0  0  0  0  0  0
  151.5613  142.3055  158.1009 C   0  0  0  0  0  0  0  0  0  0  0  0
  151.1182  141.1539  157.3931 N   0  0  0  0  0  0  0  0  0  0  0  0
  150.8313  141.0232  156.0872 C   0  0  0  0  0  0  0  0  0  0  0  0
  150.8908  141.9203  155.2473 O   0  0  0  0  0  0  0  0  0  0  0  0
  150.4753  139.7635  155.7984 N   0  0  0  0  0  0  0  0  0  0  0  0
  150.1235  139.2627  154.4701 C   0  0  2  0  0  0  0  0  0  0  0  0
  148.6895  138.7016  154.4256 C   0  0  0  0  0  0  0  0  0  0  0  0
  148.5594  137.3970  155.2308 C   0  0  0  0  0  0  0  0  0  0  0  0
  149.5282  136.3699  154.7651 N   0  3  2  0  0  0  0  0  0  0  0  0
  149.3220  135.0683  155.4535 C   0  0  0  0  0  0  0  0  0  0  0  0
  149.6724  133.8500  154.5809 C   0  0  0  0  0  0  0  0  0  0  0  0
  149.8798  132.7571  155.3138 F   0  0  0  0  0  0  0  0  0  0  0  0
  148.6687  133.6056  153.7394 F   0  0  0  0  0  0  0  0  0  0  0  0
  150.9284  136.8674  154.8394 C   0  0  0  0  0  0  0  0  0  0  0  0
  151.1107  138.1681  154.0340 C   0  0  0  0  0  0  0  0  0  0  0  0
  153.6730  139.5555  160.9064 H   0  0  0  0  0  0  0  0  0  0  0  0
  153.2784  141.1080  161.6357 H   0  0  0  0  0  0  0  0  0  0  0  0
  154.5509  140.9943  160.3986 H   0  0  0  0  0  0  0  0  0  0  0  0
  152.8789  145.1880  160.2764 H   0  0  0  0  0  0  0  0  0  0  0  0
  151.5289  145.7228  158.2330 H   0  0  0  0  0  0  0  0  0  0  0  0
  150.6667  143.8614  156.8439 H   0  0  0  0  0  0  0  0  0  0  0  0
  151.0867  140.3057  157.9396 H   0  0  0  0  0  0  0  0  0  0  0  0
  150.4687  139.0933  156.5532 H   0  0  0  0  0  0  0  0  0  0  0  0
  150.2019  140.0929  153.7658 H   0  0  0  0  0  0  0  0  0  0  0  0
  147.9746  139.4398  154.7910 H   0  0  0  0  0  0  0  0  0  0  0  0
  148.4147  138.5078  153.3880 H   0  0  0  0  0  0  0  0  0  0  0  0
  148.7144  137.5905  156.2935 H   0  0  0  0  0  0  0  0  0  0  0  0
  147.5419  137.0188  155.1257 H   0  0  0  0  0  0  0  0  0  0  0  0
  149.8680  135.0432  156.3978 H   0  0  0  0  0  0  0  0  0  0  0  0
  148.2650  134.9864  155.7111 H   0  0  0  0  0  0  0  0  0  0  0  0
  150.5610  134.0235  153.9731 H   0  0  0  0  0  0  0  0  0  0  0  0
  151.2060  137.0241  155.8829 H   0  0  0  0  0  0  0  0  0  0  0  0
  151.6158  136.1250  154.4392 H   0  0  0  0  0  0  0  0  0  0  0  0
  150.9621  137.9540  152.9747 H   0  0  0  0  0  0  0  0  0  0  0  0
  152.1369  138.5258  154.1279 H   0  0  0  0  0  0  0  0  0  0  0  0
  149.3237  136.2136  153.7882 H   0  0  0  0  0  0  0  0  0  0  0  0
  1  2  1  0  0  0  0
  1 23  1  0  0  0  0
  1 24  1  0  0  0  0
  1 25  1  0  0  0  0
  2  3  1  0  0  0  0
  3  8  1  0  0  0  0
  3  4  2  0  0  0  0
  4  5  1  0  0  0  0
  5  6  2  0  0  0  0
  5 26  1  0  0  0  0
  6  7  1  0  0  0  0
  6 27  1  0  0  0  0
  7  8  2  0  0  0  0
  7 28  1  0  0  0  0
  8  9  1  0  0  0  0
  9 10  1  0  0  0  0
  9 29  1  0  0  0  0
 10 11  2  0  0  0  0
 10 12  1  0  0  0  0
 12 13  1  0  0  0  0
 12 30  1  0  0  0  0
 13 22  1  0  0  0  0
 13 14  1  0  0  0  0
 13 31  1  0  0  0  0
 14 15  1  0  0  0  0
 14 32  1  0  0  0  0
 14 33  1  0  0  0  0
 15 16  1  0  0  0  0
 15 34  1  0  0  0  0
 15 35  1  0  0  0  0
 16 17  1  0  0  0  0
 16 21  1  0  0  0  0
 16 43  1  0  0  0  0
 17 18  1  0  0  0  0
 17 36  1  0  0  0  0
 17 37  1  0  0  0  0
 18 19  1  0  0  0  0
 18 20  1  0  0  0  0
 18 38  1  0  0  0  0
 21 22  1  0  0  0  0
 21 39  1  0  0  0  0
 21 40  1  0  0  0  0
 22 41  1  0  0  0  0
 22 42  1  0  0  0  0
M  CHG  1  16   1
M  END
> <s_m_source_file>
AV-unprocessed.smi

> <i_m_source_file_index>
1158

> <i_lp_mmshare_version>
43012

> <i_f3d_flags>
0

> <s_epik_input>
W0NIM11PYzFuW2NIXVtjSF1bY0hdYzFbTkhdQyg9TylbTkhdW0NIXTJbQ0gyXVtDSDJdTihbQ0gyXVtDSF0oRilGKVtDSDJdW0NIMl0y

> <s_epik_cmdline>
J2VwaWtfcHl0aG9uJywgJy1waCcsICc3LjAnLCAnLXRuJywgJzgnLCAnLW1hJywgJzIwMCcsICctbWV0YWxfYmluZGluZycsICctaW1hZScsICc8aW5maWxlLm1hZT4nLCAnLW9tYWUnLCAnPG91dGZpbGUubWFlPic=

> <r_lp_tautomer_probability>
1

> <r_epik_Ionization_Penalty>
0.802109

> <r_epik_Ionization_Penalty_Charging>
0.802031

> <r_epik_Ionization_Penalty_Neutral>
7.83352e-05

> <r_epik_State_Penalty>
0.833408

> <r_epik_Charging_Adjusted_Penalty>
1.63544

> <i_epik_Tot_Q>
1

> <i_epik_Tot_abs_Q>
1

> <r_epik_Metal_State_Penalty>
0.833416

> <b_epik_Metal_Only>
0

> <s_lp_Force_Field>
OPLS_2005

> <r_lp_Energy>
20.396

> <b_lp_Chiralities_Consistent>
1

> <s_lp_Variant>
AV-unprocessed.smi:1158-3

> <Gold.Version>
5.8.1

> <Gold.Id.Protein>
6NUR|6NUR_protein|mol2

> <Gold.PLP.Fitness>
45.1511

> <Gold.PLP.PLP>
-40.2765

> <Gold.PLP.part.hbond>
-2.0000

> <Gold.PLP.part.metal>
0.0000

> <Gold.PLP.part.buried>
-2.3114

> <Gold.PLP.part.nonpolar>
-36.0881

> <Gold.PLP.part.repulsive>
0.2930

> <Gold.PLP.ligand.clash>
0.0000

> <Gold.PLP.ligand.torsion>
0.8107

> <Gold.PLP.Chemscore.Hbond>
2.1565

> <Gold.PLP.Chemscore.CHOScore>
0.0000

> <Gold.PLP.Chemscore.Metal>
0.0000

> <Gold.Chemscore.Hbonds>
donor molecule, donor type, donor heavy atom, donor atom, acceptor molecule, acceptor atom, score
      L1  H    16    43       P1  7948  2.00
      P1  H  7989  7998       L1    11  0.16

> <Gold.PLP.Chemscore.Internal.Correction>
0.0264

> <Gold.Rescore>
     Score         DG    S(hbond)    S(metal)    S(lipo)     H(rot)  DE(clash)    DE(int)     intcor
     12.62     -15.83       1.02        0.00      93.70       1.58       1.59       1.62       ----

> <Gold.Chemscore.Fitness>
12.6200

> <Gold.Chemscore.DG>
-15.8296

> <Gold.Chemscore.ZeroCoef>
-5.4800

> <Gold.Chemscore.Hbond>
1.0249

> <Gold.Chemscore.Metal>
0.0000

> <Gold.Chemscore.Lipo>
93.7043

> <Gold.Chemscore.Internal_Hbond>
0.0000

> <Gold.Chemscore.DEClash>
1.5858

> <Gold.Chemscore.DEInternal>
1.6238

> <Gold.Chemscore.Rot>
1.5770

> <Gold.Chemscore.Internal.Correction>
   9.000000E+99

> <Gold.Chemscore.Hbonds>
donor molecule, donor type, donor heavy atom, donor atom, acceptor molecule, acceptor atom, score
      L1  H    16    43       P1  7948  0.85
      P1  H  7989  7998       L1    11  0.07

> <Gold.Chemscore.Hbond.Weighted>
-3.4233

> <Gold.Chemscore.Metal.Weighted>
-0.0000

> <Gold.Chemscore.Lipo.Weighted>
-10.9634

> <Gold.Chemscore.Internal_Hbond.Weighted>
0.0000

> <Gold.Chemscore.DEClash.Weighted>
1.5858

> <Gold.Chemscore.DEInternal.Weighted>
1.6238

> <Gold.Chemscore.Rot.Weighted>
4.0371

> <Gold.Chemscore.Internal.Correction.Weighted>
   9.000000E+99

> <Gold.Protein.RotatedTorsions>
[ 6907 6896 6895 6894 ] final  134.40 input  -60.11 | X-H torsion
[ 7974 7965 7964 7962 ] final   29.16 input  175.53 | X-H torsion
[ 8008 7997 7996 7995 ] final   76.56 input   59.86 | X-H torsion
[ 10167 10162 10161 10158 ] final  -98.72 input  -65.29 | X-H torsion
[ 10718 10713 10712 10709 ] final  178.02 input   66.30 | X-H torsion
[ 10763 10752 10751 10750 ] final  -55.67 input  -60.55 | X-H torsion
[ 11005 11000 10999 10996 ] final  135.82 input  -57.11 | X-H torsion

> <Gold.Protein.ActiveResidues>
 VAL166  LYS551  ARG553  GLY616  TRP617  ASP618  TYR619  PRO620  LYS621  CYS622 
 ASP623  PHE694  ASN695  SER759  ASP760  ASP761  ALA762  ILE779  LEU786  VAL792 
 PHE793  MET794  SER795  GLU796  ALA797  LYS798  CYS799  TRP800  GLU811  SER814 

> <Gold.Protein.RotatedAtoms>
  152.3117  133.5760  159.5685 H   0  0  0  0  0  0  0  0  0  0  0  0  # atno 6907 bound_to 6896
  150.7326  134.0142  159.3688 H   0  0  0  0  0  0  0  0  0  0  0  0  # atno 6908 bound_to 6896
  151.8034  135.0702  160.0454 H   0  0  0  0  0  0  0  0  0  0  0  0  # atno 6909 bound_to 6896
  146.1688  139.6959  142.8982 H   0  0  0  0  0  0  0  0  0  0  0  0  # atno 7974 bound_to 7965
  155.8290  140.3467  155.5561 H   0  0  0  0  0  0  0  0  0  0  0  0  # atno 8008 bound_to 7997
  155.8262  140.0920  157.1840 H   0  0  0  0  0  0  0  0  0  0  0  0  # atno 8009 bound_to 7997
  154.4004  140.1421  156.3546 H   0  0  0  0  0  0  0  0  0  0  0  0  # atno 8010 bound_to 7997
  140.2700  143.3350  152.0544 H   0  0  0  0  0  0  0  0  0  0  0  0  # atno 10167 bound_to 10162
  156.8967  130.9865  151.3041 H   0  0  0  0  0  0  0  0  0  0  0  0  # atno 10718 bound_to 10713
  154.1944  135.6421  153.5069 H   0  0  0  0  0  0  0  0  0  0  0  0  # atno 10763 bound_to 10752
  153.0027  135.5436  154.6381 H   0  0  0  0  0  0  0  0  0  0  0  0  # atno 10764 bound_to 10752
  154.5778  135.2922  155.0736 H   0  0  0  0  0  0  0  0  0  0  0  0  # atno 10765 bound_to 10752
  140.0005  134.9480  157.0061 H   0  0  0  0  0  0  0  0  0  0  0  0  # atno 11005 bound_to 11000
  145.4397  141.0421  143.2864 LP  0  0  0  0  0  0  0  0  0  0  0  0  # atno 17320 bound_to 7965
  144.8131  139.5925  143.7020 LP  0  0  0  0  0  0  0  0  0  0  0  0  # atno 17321 bound_to 7965
  139.4992  144.6663  151.6349 LP  0  0  0  0  0  0  0  0  0  0  0  0  # atno 17342 bound_to 10162
  140.5897  143.9801  150.6317 LP  0  0  0  0  0  0  0  0  0  0  0  0  # atno 17343 bound_to 10162
  157.6051  130.8541  149.8862 LP  0  0  0  0  0  0  0  0  0  0  0  0  # atno 17370 bound_to 10713
  156.0602  130.3701  150.0999 LP  0  0  0  0  0  0  0  0  0  0  0  0  # atno 17371 bound_to 10713
  140.4737  134.1360  155.7206 LP  0  0  0  0  0  0  0  0  0  0  0  0  # atno 17394 bound_to 11000
  141.1638  133.8742  157.1773 LP  0  0  0  0  0  0  0  0  0  0  0  0  # atno 17395 bound_to 11000

$$$$
