AV-unprocessed.smi:1318|AV-procd|sdf|5457|dock4
  -GOLD-   22720 5 23D 1   1.00000     0.00000
 Structure written by MMmdl.
 28 29  0  0  0  0  0  0  0  0  1 V2000
  153.1642  142.8205  161.3861 C   0  0  0  0  0  0  0  0  0  0  0  0
  152.5315  143.4511  160.1935 C   0  0  0  0  0  0  0  0  0  0  0  0
  152.5766  142.9167  158.9707 N   0  0  0  0  0  0  0  0  0  0  0  0
  151.9111  143.6944  158.0176 C   0  0  0  0  0  0  0  0  0  0  0  0
  151.8640  143.2476  156.5881 C   0  0  0  0  0  0  0  0  0  0  0  0
  151.0860  141.9322  156.4163 C   0  0  0  0  0  0  0  0  0  0  0  0
  149.9086  142.1081  155.5735 N   0  0  0  0  0  0  0  0  0  0  0  0
  149.4331  141.1968  154.7111 C   0  0  0  0  0  0  0  0  0  0  0  0
  149.9577  140.0952  154.5418 O   0  0  0  0  0  0  0  0  0  0  0  0
  148.2096  141.6382  153.9767 C   0  0  0  0  0  0  0  0  0  0  0  0
  147.0145  142.0727  154.8008 C   0  0  0  0  0  0  0  0  0  0  0  0
  146.9802  140.7567  154.0652 C   0  0  0  0  0  0  0  0  0  0  0  0
  151.3574  144.8358  158.5422 C   0  0  0  0  0  0  0  0  0  0  0  0
  151.6520  144.9741  160.2538 S   0  0  0  0  0  0  0  0  0  0  0  0
  152.7746  141.8124  161.5282 H   0  0  0  0  0  0  0  0  0  0  0  0
  152.9536  143.4057  162.2814 H   0  0  0  0  0  0  0  0  0  0  0  0
  154.2444  142.7644  161.2507 H   0  0  0  0  0  0  0  0  0  0  0  0
  151.4101  144.0275  155.9752 H   0  0  0  0  0  0  0  0  0  0  0  0
  152.8777  143.1208  156.2059 H   0  0  0  0  0  0  0  0  0  0  0  0
  151.7253  141.1831  155.9483 H   0  0  0  0  0  0  0  0  0  0  0  0
  150.7943  141.5283  157.3872 H   0  0  0  0  0  0  0  0  0  0  0  0
  149.4202  142.9886  155.6500 H   0  0  0  0  0  0  0  0  0  0  0  0
  148.3691  142.1609  153.0347 H   0  0  0  0  0  0  0  0  0  0  0  0
  147.0902  142.0381  155.8862 H   0  0  0  0  0  0  0  0  0  0  0  0
  146.4170  142.8931  154.4085 H   0  0  0  0  0  0  0  0  0  0  0  0
  146.3597  140.6855  153.1744 H   0  0  0  0  0  0  0  0  0  0  0  0
  147.0329  139.8478  154.6623 H   0  0  0  0  0  0  0  0  0  0  0  0
  150.7966  145.6015  158.0273 H   0  0  0  0  0  0  0  0  0  0  0  0
  1  2  1  0  0  0  0
  1 15  1  0  0  0  0
  1 16  1  0  0  0  0
  1 17  1  0  0  0  0
  2 14  1  0  0  0  0
  2  3  2  0  0  0  0
  3  4  1  0  0  0  0
  4  5  1  0  0  0  0
  4 13  2  0  0  0  0
  5  6  1  0  0  0  0
  5 18  1  0  0  0  0
  5 19  1  0  0  0  0
  6  7  1  0  0  0  0
  6 20  1  0  0  0  0
  6 21  1  0  0  0  0
  7  8  1  0  0  0  0
  7 22  1  0  0  0  0
  8  9  2  0  0  0  0
  8 10  1  0  0  0  0
 10 12  1  0  0  0  0
 10 11  1  0  0  0  0
 10 23  1  0  0  0  0
 11 12  1  0  0  0  0
 11 24  1  0  0  0  0
 11 25  1  0  0  0  0
 12 26  1  0  0  0  0
 12 27  1  0  0  0  0
 13 14  1  0  0  0  0
 13 28  1  0  0  0  0
M  END
> <s_m_source_file>
AV-unprocessed.smi

> <i_m_source_file_index>
1318

> <i_lp_mmshare_version>
43012

> <i_f3d_flags>
0

> <s_epik_input>
W0NIM11jMW5jKFtjSF1zMSlbQ0gyXVtDSDJdW05IXUMoPU8pW0NIXTJbQ0gyXVtDSDJdMg==

> <s_epik_cmdline>
J2VwaWtfcHl0aG9uJywgJy1waCcsICc3LjAnLCAnLXRuJywgJzgnLCAnLW1hJywgJzIwMCcsICctbWV0YWxfYmluZGluZycsICctaW1hZScsICc8aW5maWxlLm1hZT4nLCAnLW9tYWUnLCAnPG91dGZpbGUubWFlPic=

> <r_epik_Ionization_Penalty>
0.00109668

> <r_epik_Ionization_Penalty_Charging>
0

> <r_epik_Ionization_Penalty_Neutral>
0.00109668

> <r_epik_State_Penalty>
0.000719322

> <r_epik_Charging_Adjusted_Penalty>
0.000719322

> <i_epik_Tot_Q>
0

> <i_epik_Tot_abs_Q>
0

> <r_epik_Metal_State_Penalty>
-0

> <b_epik_Metal_Only>
0

> <s_lp_Force_Field>
OPLS_2005

> <r_lp_Energy>
0.582663

> <b_lp_Chiralities_Consistent>
1

> <s_lp_Variant>
AV-unprocessed.smi:1318-1

> <Gold.Version>
5.8.1

> <Gold.Id.Protein>
6NUR|6NUR_protein|mol2

> <Gold.PLP.Fitness>
42.4228

> <Gold.PLP.PLP>
-34.5775

> <Gold.PLP.part.hbond>
-2.0000

> <Gold.PLP.part.metal>
0.0000

> <Gold.PLP.part.buried>
-3.0515

> <Gold.PLP.part.nonpolar>
-28.5456

> <Gold.PLP.part.repulsive>
0.2691

> <Gold.PLP.ligand.clash>
0.0000

> <Gold.PLP.ligand.torsion>
0.6000

> <Gold.PLP.Chemscore.Hbond>
1.9920

> <Gold.PLP.Chemscore.CHOScore>
0.9992

> <Gold.PLP.Chemscore.Metal>
0.0000

> <Gold.Chemscore.Hbonds>
donor molecule, donor type, donor heavy atom, donor atom, acceptor molecule, acceptor atom, score
      L1  H     7    22       P1  8028  1.00
      P1  H  7989  7998       L1     9  0.56

> <Gold.PLP.Chemscore.Internal.Correction>
0.0716

> <Gold.Rescore>
     Score         DG    S(hbond)    S(metal)    S(lipo)     H(rot)  DE(clash)    DE(int)     intcor
     17.22     -18.39       1.65        0.00      96.02       1.49       0.58       0.59       ----

> <Gold.Chemscore.Fitness>
17.2223

> <Gold.Chemscore.DG>
-18.3910

> <Gold.Chemscore.ZeroCoef>
-5.4800

> <Gold.Chemscore.Hbond>
1.6455

> <Gold.Chemscore.Metal>
0.0000

> <Gold.Chemscore.Lipo>
96.0175

> <Gold.Chemscore.Internal_Hbond>
0.0000

> <Gold.Chemscore.DEClash>
0.5752

> <Gold.Chemscore.DEInternal>
0.5935

> <Gold.Chemscore.Rot>
1.4919

> <Gold.Chemscore.Internal.Correction>
   9.000000E+99

> <Gold.Chemscore.Hbonds>
donor molecule, donor type, donor heavy atom, donor atom, acceptor molecule, acceptor atom, score
      L1  H     7    22       P1  8028  1.00
      P1  H  7989  7998       L1     9  0.06

> <Gold.Chemscore.Hbond.Weighted>
-5.4961

> <Gold.Chemscore.Metal.Weighted>
-0.0000

> <Gold.Chemscore.Lipo.Weighted>
-11.2341

> <Gold.Chemscore.Internal_Hbond.Weighted>
0.0000

> <Gold.Chemscore.DEClash.Weighted>
0.5752

> <Gold.Chemscore.DEInternal.Weighted>
0.5935

> <Gold.Chemscore.Rot.Weighted>
3.8192

> <Gold.Chemscore.Internal.Correction.Weighted>
   9.000000E+99

> <Gold.Protein.RotatedTorsions>
[ 6907 6896 6895 6894 ] final   32.12 input  -60.11 | X-H torsion
[ 7974 7965 7964 7962 ] final   48.72 input  175.53 | X-H torsion
[ 8008 7997 7996 7995 ] final -174.26 input   59.86 | X-H torsion
[ 10167 10162 10161 10158 ] final  -78.20 input  -65.29 | X-H torsion
[ 10718 10713 10712 10709 ] final  -97.42 input   66.30 | X-H torsion
[ 10763 10752 10751 10750 ] final   -3.12 input  -60.55 | X-H torsion
[ 11005 11000 10999 10996 ] final   66.41 input  -57.11 | X-H torsion

> <Gold.Protein.ActiveResidues>
 VAL166  LYS551  ARG553  GLY616  TRP617  ASP618  TYR619  PRO620  LYS621  CYS622 
 ASP623  PHE694  ASN695  SER759  ASP760  ASP761  ALA762  ILE779  LEU786  VAL792 
 PHE793  MET794  SER795  GLU796  ALA797  LYS798  CYS799  TRP800  GLU811  SER814 

> <Gold.Protein.RotatedAtoms>
  152.0700  134.9539  160.0574 H   0  0  0  0  0  0  0  0  0  0  0  0  # atno 6907 bound_to 6896
  152.0869  133.4176  159.4534 H   0  0  0  0  0  0  0  0  0  0  0  0  # atno 6908 bound_to 6896
  150.6836  134.2837  159.4681 H   0  0  0  0  0  0  0  0  0  0  0  0  # atno 6909 bound_to 6896
  146.0177  139.4615  142.9916 H   0  0  0  0  0  0  0  0  0  0  0  0  # atno 7974 bound_to 7965
  155.9679  140.1157  157.0838 H   0  0  0  0  0  0  0  0  0  0  0  0  # atno 8008 bound_to 7997
  154.4148  140.1169  156.5334 H   0  0  0  0  0  0  0  0  0  0  0  0  # atno 8009 bound_to 7997
  155.6635  140.3473  155.4794 H   0  0  0  0  0  0  0  0  0  0  0  0  # atno 8010 bound_to 7997
  140.4703  143.2428  151.8215 H   0  0  0  0  0  0  0  0  0  0  0  0  # atno 10167 bound_to 10162
  156.0083  130.5193  150.6372 H   0  0  0  0  0  0  0  0  0  0  0  0  # atno 10718 bound_to 10713
  153.3670  135.6993  153.6667 H   0  0  0  0  0  0  0  0  0  0  0  0  # atno 10763 bound_to 10752
  153.5332  135.3588  155.2686 H   0  0  0  0  0  0  0  0  0  0  0  0  # atno 10764 bound_to 10752
  154.8676  135.4186  154.2940 H   0  0  0  0  0  0  0  0  0  0  0  0  # atno 10765 bound_to 10752
  139.9834  134.6707  156.0221 H   0  0  0  0  0  0  0  0  0  0  0  0  # atno 11005 bound_to 11000
  145.7243  141.0064  143.1386 LP  0  0  0  0  0  0  0  0  0  0  0  0  # atno 17320 bound_to 7965
  144.6977  139.8907  143.7453 LP  0  0  0  0  0  0  0  0  0  0  0  0  # atno 17321 bound_to 7965
  139.4817  144.4900  151.9197 LP  0  0  0  0  0  0  0  0  0  0  0  0  # atno 17342 bound_to 10162
  140.3985  144.2523  150.5894 LP  0  0  0  0  0  0  0  0  0  0  0  0  # atno 17343 bound_to 10162
  157.4158  131.0830  151.1177 LP  0  0  0  0  0  0  0  0  0  0  0  0  # atno 17370 bound_to 10713
  157.1795  130.6303  149.5667 LP  0  0  0  0  0  0  0  0  0  0  0  0  # atno 17371 bound_to 10713
  141.1502  133.6549  156.3991 LP  0  0  0  0  0  0  0  0  0  0  0  0  # atno 17394 bound_to 11000
  140.5051  134.6448  157.5263 LP  0  0  0  0  0  0  0  0  0  0  0  0  # atno 17395 bound_to 11000

$$$$
