AV-unprocessed.smi:221|AV-procd|sdf|1700|dock1
  -GOLD-   2262020153D 1   1.00000     0.00000
 Structure written by MMmdl.
 50 53  0  0  0  0  0  0  0  0  1 V2000
  149.5980  139.0880  153.9476 N   0  0  0  0  0  0  0  0  0  0  0  0
  149.5957  140.2864  154.5403 C   0  0  0  0  0  0  0  0  0  0  0  0
  149.5679  141.3258  153.8851 O   0  0  0  0  0  0  0  0  0  0  0  0
  149.6209  140.3566  156.0785 C   0  0  2  0  0  0  0  0  0  0  0  0
  150.0476  141.7457  156.5785 C   0  0  0  0  0  0  0  0  0  0  0  0
  150.5784  141.4516  157.9739 C   0  0  2  0  0  0  0  0  0  0  0  0
  151.3897  142.4066  158.4275 F   0  0  0  0  0  0  0  0  0  0  0  0
  151.2894  140.1148  157.7848 C   0  0  0  0  0  0  0  0  0  0  0  0
  150.5716  139.4302  156.7124 N   0  0  0  0  0  0  0  0  0  0  0  0
  150.0886  138.2102  157.0412 C   0  0  0  0  0  0  0  0  0  0  0  0
  149.3916  138.0406  158.1959 N   0  0  0  0  0  0  0  0  0  0  0  0
  148.9204  136.8316  158.5180 C   0  0  0  0  0  0  0  0  0  0  0  0
  149.0342  135.6839  157.8450 N   0  0  0  0  0  0  0  0  0  0  0  0
  149.7388  135.8551  156.6896 C   0  0  0  0  0  0  0  0  0  0  0  0
  150.3000  137.0739  156.2182 C   0  0  0  0  0  0  0  0  0  0  0  0
  150.9531  136.8647  155.0101 N   0  0  0  0  0  0  0  0  0  0  0  0
  150.7836  135.5914  154.7770 C   0  0  0  0  0  0  0  0  0  0  0  0
  150.0592  134.9112  155.7306 N   0  0  0  0  0  0  0  0  0  0  0  0
  149.7200  133.4995  155.7273 C   0  0  0  0  0  0  0  0  0  0  0  0
  150.9494  132.5552  155.6460 C   0  0  1  0  0  0  0  0  0  0  0  0
  151.9042  132.7246  156.8556 C   0  0  0  0  0  0  0  0  0  0  0  0
  151.3358  132.2353  158.0530 O   0  0  0  0  0  0  0  0  0  0  0  0
  150.4897  131.0806  155.5030 C   0  0  1  0  0  0  0  0  0  0  0  0
  149.6637  130.7844  154.2618 C   0  0  0  0  0  0  0  0  0  0  0  0
  149.7730  129.2689  154.1542 C   0  0  0  0  0  0  0  0  0  0  0  0
  151.0779  128.9520  154.6215 O   0  0  0  0  0  0  0  0  0  0  0  0
  151.6256  130.0631  155.3252 C   0  0  0  0  0  0  0  0  0  0  0  0
  148.6074  140.1606  156.4330 H   0  0  0  0  0  0  0  0  0  0  0  0
  149.7530  141.3488  158.6797 H   0  0  0  0  0  0  0  0  0  0  0  0
  149.5787  139.0262  152.9402 H   0  0  0  0  0  0  0  0  0  0  0  0
  149.6162  138.2487  154.5095 H   0  0  0  0  0  0  0  0  0  0  0  0
  150.8471  142.1550  155.9576 H   0  0  0  0  0  0  0  0  0  0  0  0
  149.2265  142.4632  156.5865 H   0  0  0  0  0  0  0  0  0  0  0  0
  152.3147  140.2733  157.4477 H   0  0  0  0  0  0  0  0  0  0  0  0
  151.3380  139.5507  158.7182 H   0  0  0  0  0  0  0  0  0  0  0  0
  148.3732  136.7759  159.4475 H   0  0  0  0  0  0  0  0  0  0  0  0
  151.1788  135.1117  153.8934 H   0  0  0  0  0  0  0  0  0  0  0  0
  149.1396  133.2814  156.6247 H   0  0  0  0  0  0  0  0  0  0  0  0
  149.0513  133.3365  154.8823 H   0  0  0  0  0  0  0  0  0  0  0  0
  151.5081  132.8043  154.7423 H   0  0  0  0  0  0  0  0  0  0  0  0
  152.8560  132.2257  156.6710 H   0  0  0  0  0  0  0  0  0  0  0  0
  152.1324  133.7739  157.0362 H   0  0  0  0  0  0  0  0  0  0  0  0
  150.4255  132.0363  157.8948 H   0  0  0  0  0  0  0  0  0  0  0  0
  149.9040  130.7972  156.3793 H   0  0  0  0  0  0  0  0  0  0  0  0
  148.6284  131.1170  154.3407 H   0  0  0  0  0  0  0  0  0  0  0  0
  150.1090  131.2554  153.3842 H   0  0  0  0  0  0  0  0  0  0  0  0
  149.0430  128.7879  154.8066 H   0  0  0  0  0  0  0  0  0  0  0  0
  149.6112  128.9071  153.1385 H   0  0  0  0  0  0  0  0  0  0  0  0
  152.4320  130.4825  154.7220 H   0  0  0  0  0  0  0  0  0  0  0  0
  152.0495  129.7414  156.2767 H   0  0  0  0  0  0  0  0  0  0  0  0
  1  2  1  0  0  0  0
  1 30  1  0  0  0  0
  1 31  1  0  0  0  0
  2  3  2  0  0  0  0
  2  4  1  0  0  0  0
  4 28  1  0  0  0  0
  4  9  1  0  0  0  0
  4  5  1  0  0  0  0
  5  6  1  0  0  0  0
  5 32  1  0  0  0  0
  5 33  1  0  0  0  0
  6 29  1  0  0  0  0
  6  7  1  0  0  0  0
  6  8  1  0  0  0  0
  8  9  1  0  0  0  0
  8 34  1  0  0  0  0
  8 35  1  0  0  0  0
  9 10  1  0  0  0  0
 10 15  1  0  0  0  0
 10 11  2  0  0  0  0
 11 12  1  0  0  0  0
 12 13  2  0  0  0  0
 12 36  1  0  0  0  0
 13 14  1  0  0  0  0
 14 18  1  0  0  0  0
 14 15  2  0  0  0  0
 15 16  1  0  0  0  0
 16 17  2  0  0  0  0
 17 18  1  0  0  0  0
 17 37  1  0  0  0  0
 18 19  1  0  0  0  0
 19 20  1  0  0  0  0
 19 38  1  0  0  0  0
 19 39  1  0  0  0  0
 20 21  1  0  0  0  0
 20 23  1  0  0  0  0
 20 40  1  0  0  0  0
 21 22  1  0  0  0  0
 21 41  1  0  0  0  0
 21 42  1  0  0  0  0
 22 43  1  0  0  0  0
 23 27  1  0  0  0  0
 23 24  1  0  0  0  0
 23 44  1  0  0  0  0
 24 25  1  0  0  0  0
 24 45  1  0  0  0  0
 24 46  1  0  0  0  0
 25 26  1  0  0  0  0
 25 47  1  0  0  0  0
 25 48  1  0  0  0  0
 26 27  1  0  0  0  0
 27 49  1  0  0  0  0
 27 50  1  0  0  0  0
M  END
> <s_m_source_file>
AV-unprocessed.smi

> <i_m_source_file_index>
221

> <i_lp_mmshare_version>
43012

> <i_f3d_flags>
0

> <s_epik_input>
W05IMl1DKD1PKVtDQEBIXTFbQ0gyXVtDQEBIXShGKVtDSDJdTjFjKG5bY0hdbjIpYyhjMjMpbltjSF1uM1tDSDJdW0NASF0oW0NIMl1bT0hdKVtDQEBIXTRbQ0gyXVtDSDJdT1tDSDJdNA==

> <s_epik_cmdline>
J2VwaWtfcHl0aG9uJywgJy1waCcsICc3LjAnLCAnLXRuJywgJzgnLCAnLW1hJywgJzIwMCcsICctbWV0YWxfYmluZGluZycsICctaW1hZScsICc8aW5maWxlLm1hZT4nLCAnLW9tYWUnLCAnPG91dGZpbGUubWFlPic=

> <r_lp_tautomer_probability>
1

> <r_epik_Ionization_Penalty>
0.000818822

> <r_epik_Ionization_Penalty_Charging>
0

> <r_epik_Ionization_Penalty_Neutral>
0.000818822

> <r_epik_State_Penalty>
0.000440551

> <r_epik_Charging_Adjusted_Penalty>
0.000440551

> <i_epik_Tot_Q>
0

> <i_epik_Tot_abs_Q>
0

> <r_epik_Metal_State_Penalty>
-0

> <b_epik_Metal_Only>
0

> <s_lp_Force_Field>
OPLS_2005

> <r_lp_Energy>
51.3471

> <b_lp_Chiralities_Consistent>
1

> <s_lp_Variant>
AV-unprocessed.smi:221-15

> <Gold.Version>
5.8.1

> <Gold.Id.Protein>
6NUR|6NUR_protein|mol2

> <Gold.PLP.Fitness>
43.0684

> <Gold.PLP.PLP>
-35.0492

> <Gold.PLP.part.hbond>
-4.0000

> <Gold.PLP.part.metal>
0.0000

> <Gold.PLP.part.buried>
-4.8333

> <Gold.PLP.part.nonpolar>
-25.9441

> <Gold.PLP.part.repulsive>
0.9085

> <Gold.PLP.ligand.clash>
0.0000

> <Gold.PLP.ligand.torsion>
0.9355

> <Gold.PLP.Chemscore.Hbond>
2.3671

> <Gold.PLP.Chemscore.CHOScore>
0.8259

> <Gold.PLP.Chemscore.Metal>
0.0000

> <Gold.Chemscore.Hbonds>
donor molecule, donor type, donor heavy atom, donor atom, acceptor molecule, acceptor atom, score
      L1  H     1    30       P1  7957  0.94
      P1  H  6896  6908       L1    22  0.56
      P1  H  7989  7998       L1     3  0.06
      P1  H  8011  8017       L1     3  0.78
      L1  C    17    37       P1  7949  0.92

> <Gold.PLP.Chemscore.Internal.Correction>
0.3114

> <Gold.Rescore>
     Score         DG    S(hbond)    S(metal)    S(lipo)     H(rot)  DE(clash)    DE(int)     intcor
      7.87      -9.96       2.12        0.00      59.09       3.72       0.07       2.03       ----

> <Gold.Chemscore.Fitness>
7.8652

> <Gold.Chemscore.DG>
-9.9642

> <Gold.Chemscore.ZeroCoef>
-5.4800

> <Gold.Chemscore.Hbond>
2.1240

> <Gold.Chemscore.Metal>
0.0000

> <Gold.Chemscore.Lipo>
59.0927

> <Gold.Chemscore.Internal_Hbond>
0.0000

> <Gold.Chemscore.DEClash>
0.0659

> <Gold.Chemscore.DEInternal>
2.0331

> <Gold.Chemscore.Rot>
3.7202

> <Gold.Chemscore.Internal.Correction>
   9.000000E+99

> <Gold.Chemscore.Hbonds>
donor molecule, donor type, donor heavy atom, donor atom, acceptor molecule, acceptor atom, score
      L1  H     1    30       P1  7957  0.83
      P1  H  6896  6908       L1    22  0.28
      P1  H  8011  8017       L1     3  0.77

> <Gold.Chemscore.Hbond.Weighted>
-7.0941

> <Gold.Chemscore.Metal.Weighted>
-0.0000

> <Gold.Chemscore.Lipo.Weighted>
-6.9138

> <Gold.Chemscore.Internal_Hbond.Weighted>
0.0000

> <Gold.Chemscore.DEClash.Weighted>
0.0659

> <Gold.Chemscore.DEInternal.Weighted>
2.0331

> <Gold.Chemscore.Rot.Weighted>
9.5237

> <Gold.Chemscore.Internal.Correction.Weighted>
   9.000000E+99

> <Gold.Protein.RotatedTorsions>
[ 6907 6896 6895 6894 ] final   35.70 input  -60.11 | X-H torsion
[ 7974 7965 7964 7962 ] final  -77.19 input  175.53 | X-H torsion
[ 8008 7997 7996 7995 ] final  159.02 input   59.86 | X-H torsion
[ 10167 10162 10161 10158 ] final   32.44 input  -65.29 | X-H torsion
[ 10718 10713 10712 10709 ] final -101.70 input   66.30 | X-H torsion
[ 10763 10752 10751 10750 ] final  -90.26 input  -60.55 | X-H torsion
[ 11005 11000 10999 10996 ] final -137.39 input  -57.11 | X-H torsion

> <Gold.Protein.ActiveResidues>
 VAL166  LYS551  ARG553  GLY616  TRP617  ASP618  TYR619  PRO620  LYS621  CYS622 
 ASP623  PHE694  ASN695  SER759  ASP760  ASP761  ALA762  ILE779  LEU786  VAL792 
 PHE793  MET794  SER795  GLU796  ALA797  LYS798  CYS799  TRP800  GLU811  SER814 

> <Gold.Protein.RotatedAtoms>
  152.1197  134.9215  160.0563 H   0  0  0  0  0  0  0  0  0  0  0  0  # atno 6907 bound_to 6896
  152.0360  133.3952  159.4325 H   0  0  0  0  0  0  0  0  0  0  0  0  # atno 6908 bound_to 6896
  150.6848  134.3388  159.4903 H   0  0  0  0  0  0  0  0  0  0  0  0  # atno 6909 bound_to 6896
  145.6029  140.9404  143.1231 H   0  0  0  0  0  0  0  0  0  0  0  0  # atno 7974 bound_to 7965
  156.2266  140.1842  156.7348 H   0  0  0  0  0  0  0  0  0  0  0  0  # atno 8008 bound_to 7997
  154.5951  140.0644  156.9320 H   0  0  0  0  0  0  0  0  0  0  0  0  # atno 8009 bound_to 7997
  155.2270  140.3312  155.4310 H   0  0  0  0  0  0  0  0  0  0  0  0  # atno 8010 bound_to 7997
  140.4498  144.1065  150.6189 H   0  0  0  0  0  0  0  0  0  0  0  0  # atno 10167 bound_to 10162
  156.0203  130.5386  150.7001 H   0  0  0  0  0  0  0  0  0  0  0  0  # atno 10718 bound_to 10713
  154.6639  135.5311  153.8053 H   0  0  0  0  0  0  0  0  0  0  0  0  # atno 10763 bound_to 10752
  153.0459  135.6512  154.0828 H   0  0  0  0  0  0  0  0  0  0  0  0  # atno 10764 bound_to 10752
  154.0734  135.2952  155.3284 H   0  0  0  0  0  0  0  0  0  0  0  0  # atno 10765 bound_to 10752
  140.8715  134.2045  157.4648 H   0  0  0  0  0  0  0  0  0  0  0  0  # atno 11005 bound_to 11000
  144.7302  139.7749  143.7350 LP  0  0  0  0  0  0  0  0  0  0  0  0  # atno 17320 bound_to 7965
  146.1562  139.4661  143.0017 LP  0  0  0  0  0  0  0  0  0  0  0  0  # atno 17321 bound_to 7965
  140.4221  143.2607  151.9703 LP  0  0  0  0  0  0  0  0  0  0  0  0  # atno 17342 bound_to 10162
  139.4796  144.5822  151.7914 LP  0  0  0  0  0  0  0  0  0  0  0  0  # atno 17343 bound_to 10162
  157.4663  131.0888  151.0691 LP  0  0  0  0  0  0  0  0  0  0  0  0  # atno 17370 bound_to 10713
  157.1164  130.6043  149.5494 LP  0  0  0  0  0  0  0  0  0  0  0  0  # atno 17371 bound_to 10713
  139.8712  134.9776  156.4966 LP  0  0  0  0  0  0  0  0  0  0  0  0  # atno 17394 bound_to 11000
  140.8567  133.8090  155.9224 LP  0  0  0  0  0  0  0  0  0  0  0  0  # atno 17395 bound_to 11000

$$$$
