#       Name:                AV-unprocessed.smi:1702
#       Creating user name   scv26
#       Creation time:       Fri Mar 27 08:03:11 2020


#       File generated by GOLD software.
#

@<TRIPOS>MOLECULE
AV-unprocessed.smi:1702
    47    49     1
SMALL
NO_CHARGES


@<TRIPOS>ATOM
      1 ****        -4.2728   3.1783  -0.3683 C.3            1 S1                 0.0000
      2 ****        -2.8132   3.6131  -0.5882 C.3            1 S1                 0.0000
      3 ****        -2.2957   3.2734  -1.9975 C.3            1 S1                 0.0000
      4 ****        -2.0176   1.7692  -2.1697 C.3            1 S1                 0.0000
      5 ****        -1.0743   1.2707  -1.1352 N.4            1 S1                 1.0000
      6 ****        -0.6938  -0.1474  -1.3677 C.3            1 S1                 0.0000
      7 ****         0.6395  -0.5423  -0.6983 C.3            1 S1                 0.0000
      8 ****         1.6965   0.1853  -1.2959 O.3            1 S1                 0.0000
      9 ****         0.9209  -2.0502  -0.8571 C.3            1 S1                 0.0000
     10 ****         2.1944  -2.4653  -0.2530 N.pl3          1 S1                 0.0000
     11 ****         3.4082  -2.6789  -0.8307 C.2            1 S1                 0.0000
     12 ****         4.2715  -3.0540   0.1539 N.pl3          1 S1                 1.0000
     13 ****         3.5997  -3.0817   1.3781 C.ar           1 S1                 0.0000
     14 ****         4.0455  -3.3994   2.6570 C.ar           1 S1                 0.0000
     15 ****         3.0956  -3.3269   3.6973 C.ar           1 S1                 0.0000
     16 ****         3.4767  -3.6251   4.9618 F              1 S1                 0.0000
     17 ****         1.7591  -2.9497   3.4459 C.ar           1 S1                 0.0000
     18 ****         0.8790  -2.8908   4.4731 F              1 S1                 0.0000
     19 ****         1.3183  -2.6308   2.1444 C.ar           1 S1                 0.0000
     20 ****         2.2644  -2.7049   1.1233 C.ar           1 S1                 0.0000
     21 ****        -1.5854   1.5285   0.2383 C.3            1 S1                 0.0000
     22 ****        -1.8524   3.0280   0.4624 C.3            1 S1                 0.0000
     23 ****        -4.4001   2.0997  -0.4564 H              1 S1                 0.0000
     24 ****        -4.9337   3.6481  -1.0972 H              1 S1                 0.0000
     25 ****        -4.6218   3.4706   0.6225 H              1 S1                 0.0000
     26 ****        -2.7960   4.6988  -0.4833 H              1 S1                 0.0000
     27 ****        -3.0060   3.6117  -2.7529 H              1 S1                 0.0000
     28 ****        -1.3736   3.8264  -2.1824 H              1 S1                 0.0000
     29 ****        -2.9466   1.1991  -2.1242 H              1 S1                 0.0000
     30 ****        -1.5960   1.6011  -3.1616 H              1 S1                 0.0000
     31 ****        -1.5015  -0.7919  -1.0163 H              1 S1                 0.0000
     32 ****        -0.6060  -0.3331  -2.4397 H              1 S1                 0.0000
     33 ****         0.6224  -0.3048   0.3644 H              1 S1                 0.0000
     34 ****         1.6033   1.1001  -1.0784 H              1 S1                 0.0000
     35 ****         0.1209  -2.6463  -0.4160 H              1 S1                 0.0000
     36 ****         0.9592  -2.3195  -1.9137 H              1 S1                 0.0000
     37 ****         3.6444  -2.5689  -1.8797 H              1 S1                 0.0000
     38 ****         5.0673  -3.6887   2.8539 H              1 S1                 0.0000
     39 ****         0.2930  -2.3450   1.9635 H              1 S1                 0.0000
     40 ****        -2.4955   0.9509   0.4062 H              1 S1                 0.0000
     41 ****        -0.8650   1.1922   0.9825 H              1 S1                 0.0000
     42 ****        -0.9045   3.5661   0.4186 H              1 S1                 0.0000
     43 ****        -2.2456   3.1926   1.4663 H              1 S1                 0.0000
     44 ****        -0.2312   1.8154  -1.2458 H              1 S1                 0.0000
     45 ****         5.2469  -3.2753  -0.0022 H              1 S1                 0.0000
     46 ****         1.6618   0.0719  -2.2889 LP             1 S1                 0.0000
     47 ****         2.5725  -0.1531  -0.9522 LP             1 S1                 0.0000
@<TRIPOS>BOND
    1    1    2 1     
    2    1   23 1     
    3    1   24 1     
    4    1   25 1     
    5    2   22 1     
    6    2    3 1     
    7    2   26 1     
    8    3    4 1     
    9    3   27 1     
   10    3   28 1     
   11    4    5 1     
   12    4   29 1     
   13    4   30 1     
   14    5    6 1     
   15    5   21 1     
   16    5   44 1     
   17    6    7 1     
   18    6   31 1     
   19    6   32 1     
   20    7    8 1     
   21    7    9 1     
   22    7   33 1     
   23    8   34 1     
   24    9   10 1     
   25    9   35 1     
   26    9   36 1     
   27   10   20 1     
   28   10   11 1     
   29   11   12 2     
   30   11   37 1     
   31   12   13 1     
   32   12   45 1     
   33   13   20 ar    
   34   13   14 ar    
   35   14   15 ar    
   36   14   38 1     
   37   15   16 1     
   38   15   17 ar    
   39   17   18 1     
   40   17   19 ar    
   41   19   20 ar    
   42   19   39 1     
   43   21   22 1     
   44   21   40 1     
   45   21   41 1     
   46   22   42 1     
   47   22   43 1     
   48    8   46 1     
   49    8   47 1     
@<TRIPOS>SUBSTRUCTURE
      1 S1             1
@<TRIPOS>SET
LONE_PAIRS      STATIC     ATOMS    <user>   **** ""
2 46 47
DONOR_HYDROGENS      STATIC     ATOMS    <user>   **** ""
3 44 34 45
ATOM$BLUE        STATIC     ATOMS    COLORGROUP SYSTEM
2 46 47
ATOM$RED        STATIC     ATOMS    COLORGROUP SYSTEM
3 44 34 45
