AV-unprocessed.smi:1760|AV-procd|sdf|7089|dock3
  -GOLD-   22720 8303D 1   1.00000     0.00000
 Structure written by MMmdl.
 44 46  0  0  0  0  0  0  0  0  2 V2000
  149.7751  134.4613  155.9238 O   0  0  0  0  0  0  0  0  0  0  0  0
  149.5684  134.9446  154.8112 C   0  0  0  0  0  0  0  0  0  0  0  0
  148.9272  134.3362  153.7963 N   0  0  0  0  0  0  0  0  0  0  0  0
  148.3979  133.0361  153.7335 C   0  0  0  0  0  0  0  0  0  0  0  0
  149.1068  131.8989  153.9578 C   0  0  0  0  0  0  0  0  0  0  0  0
  148.5017  130.5812  153.8616 C   0  0  0  0  0  0  0  0  0  0  0  0
  149.2842  129.3200  154.1926 C   0  0  0  0  0  0  0  0  0  0  0  0
  148.7952  128.7183  155.2777 F   0  0  0  0  0  0  0  0  0  0  0  0
  149.2120  128.4630  153.1750 F   0  0  0  0  0  0  0  0  0  0  0  0
  150.5698  129.5972  154.4114 F   0  0  0  0  0  0  0  0  0  0  0  0
  147.1942  130.5426  153.5460 C   0  0  0  0  0  0  0  0  0  0  0  0
  146.4634  131.7056  153.2929 N   0  0  0  0  0  0  0  0  0  0  0  0
  146.9757  132.9549  153.3614 C   0  0  0  0  0  0  0  0  0  0  0  0
  146.2662  133.9318  153.1227 O   0  0  0  0  0  0  0  0  0  0  0  0
  149.9468  136.1829  154.4619 N   0  0  0  0  0  0  0  0  0  0  0  0
  150.6385  137.1400  155.3221 C   0  0  2  0  0  0  0  0  0  0  0  0
  149.6500  137.7479  156.3311 C   0  0  0  0  0  0  0  0  0  0  0  0
  150.3230  138.8421  157.1761 C   0  0  0  0  0  0  0  0  0  0  0  0
  150.9085  139.8970  156.3119 N   0  3  1  0  0  0  0  0  0  0  0  0
  151.4575  141.0210  157.1007 C   0  0  0  0  0  0  0  0  0  0  0  0
  152.0625  140.5963  158.4184 C   0  0  0  0  0  0  0  0  0  0  0  0
  150.7138  141.2808  158.3899 C   0  0  0  0  0  0  0  0  0  0  0  0
  151.9027  139.3390  155.3616 C   0  0  0  0  0  0  0  0  0  0  0  0
  151.2683  138.2564  154.4720 C   0  0  0  0  0  0  0  0  0  0  0  0
  145.4906  131.5918  153.0470 H   0  0  0  0  0  0  0  0  0  0  0  0
  148.7648  134.8928  152.9695 H   0  0  0  0  0  0  0  0  0  0  0  0
  150.1574  131.9379  154.1944 H   0  0  0  0  0  0  0  0  0  0  0  0
  146.6141  129.6347  153.4688 H   0  0  0  0  0  0  0  0  0  0  0  0
  149.7296  136.4911  153.5252 H   0  0  0  0  0  0  0  0  0  0  0  0
  151.4365  136.6471  155.8807 H   0  0  0  0  0  0  0  0  0  0  0  0
  148.7942  138.1731  155.8042 H   0  0  0  0  0  0  0  0  0  0  0  0
  149.2552  136.9687  156.9844 H   0  0  0  0  0  0  0  0  0  0  0  0
  149.5883  139.2855  157.8495 H   0  0  0  0  0  0  0  0  0  0  0  0
  151.1039  138.4073  157.8020 H   0  0  0  0  0  0  0  0  0  0  0  0
  151.8874  141.8457  156.5349 H   0  0  0  0  0  0  0  0  0  0  0  0
  152.0815  139.5349  158.6595 H   0  0  0  0  0  0  0  0  0  0  0  0
  152.9064  141.1725  158.7923 H   0  0  0  0  0  0  0  0  0  0  0  0
  150.6690  142.3084  158.7446 H   0  0  0  0  0  0  0  0  0  0  0  0
  149.8376  140.6741  158.6116 H   0  0  0  0  0  0  0  0  0  0  0  0
  152.2997  140.1382  154.7345 H   0  0  0  0  0  0  0  0  0  0  0  0
  152.7458  138.9242  155.9165 H   0  0  0  0  0  0  0  0  0  0  0  0
  152.0237  137.8383  153.8052 H   0  0  0  0  0  0  0  0  0  0  0  0
  150.5096  138.7119  153.8337 H   0  0  0  0  0  0  0  0  0  0  0  0
  150.1533  140.2742  155.7575 H   0  0  0  0  0  0  0  0  0  0  0  0
  1  2  2  0  0  0  0
  2  3  1  0  0  0  0
  2 15  1  0  0  0  0
  3  4  1  0  0  0  0
  3 26  1  0  0  0  0
  4 13  1  0  0  0  0
  4  5  2  0  0  0  0
  5  6  1  0  0  0  0
  5 27  1  0  0  0  0
  6  7  1  0  0  0  0
  6 11  2  0  0  0  0
  7  8  1  0  0  0  0
  7  9  1  0  0  0  0
  7 10  1  0  0  0  0
 11 12  1  0  0  0  0
 11 28  1  0  0  0  0
 12 25  1  0  0  0  0
 12 13  1  0  0  0  0
 13 14  2  0  0  0  0
 15 16  1  0  0  0  0
 15 29  1  0  0  0  0
 16 24  1  0  0  0  0
 16 17  1  0  0  0  0
 16 30  1  0  0  0  0
 17 18  1  0  0  0  0
 17 31  1  0  0  0  0
 17 32  1  0  0  0  0
 18 19  1  0  0  0  0
 18 33  1  0  0  0  0
 18 34  1  0  0  0  0
 19 20  1  0  0  0  0
 19 23  1  0  0  0  0
 19 44  1  0  0  0  0
 20 22  1  0  0  0  0
 20 21  1  0  0  0  0
 20 35  1  0  0  0  0
 21 22  1  0  0  0  0
 21 36  1  0  0  0  0
 21 37  1  0  0  0  0
 22 38  1  0  0  0  0
 22 39  1  0  0  0  0
 23 24  1  0  0  0  0
 23 40  1  0  0  0  0
 23 41  1  0  0  0  0
 24 42  1  0  0  0  0
 24 43  1  0  0  0  0
M  CHG  1  19   1
M  END
> <s_m_source_file>
AV-unprocessed.smi

> <i_m_source_file_index>
1760

> <i_lp_mmshare_version>
43012

> <i_f3d_flags>
0

> <s_epik_input>
W0NIMl0xW0NIMl1bQ0hdMU4oW0NIMl1bQ0gyXTIpW0NIMl1bQ0gyXVtDSF0yW05IXUMoPU8pW05IXWMzW2NIXWMoQyhGKShGKUYpW2NIXVtuSF1jMz1P

> <s_epik_cmdline>
J2VwaWtfcHl0aG9uJywgJy1waCcsICc3LjAnLCAnLXRuJywgJzgnLCAnLW1hJywgJzIwMCcsICctbWV0YWxfYmluZGluZycsICctaW1hZScsICc8aW5maWxlLm1hZT4nLCAnLW9tYWUnLCAnPG91dGZpbGUubWFlPic=

> <r_lp_tautomer_probability>
0.999

> <r_epik_Ionization_Penalty>
0.131122

> <r_epik_Ionization_Penalty_Charging>
0.131104

> <r_epik_Ionization_Penalty_Neutral>
1.84439e-05

> <r_epik_State_Penalty>
0.116042

> <r_epik_Charging_Adjusted_Penalty>
0.247146

> <i_epik_Tot_Q>
1

> <i_epik_Tot_abs_Q>
1

> <r_epik_Metal_State_Penalty>
0.492282

> <b_epik_Metal_Only>
0

> <s_lp_Force_Field>
OPLS_2005

> <r_lp_Energy>
37.3321

> <b_lp_Chiralities_Consistent>
1

> <s_lp_Variant>
AV-unprocessed.smi:1760-1

> <Gold.Version>
5.8.1

> <Gold.Id.Protein>
6NUR|6NUR_protein|mol2

> <Gold.PLP.Fitness>
39.2707

> <Gold.PLP.PLP>
-34.8379

> <Gold.PLP.part.hbond>
-2.4294

> <Gold.PLP.part.metal>
0.0000

> <Gold.PLP.part.buried>
-4.0403

> <Gold.PLP.part.nonpolar>
-28.7685

> <Gold.PLP.part.repulsive>
0.2546

> <Gold.PLP.ligand.clash>
0.0000

> <Gold.PLP.ligand.torsion>
1.4324

> <Gold.PLP.Chemscore.Hbond>
2.0000

> <Gold.PLP.Chemscore.CHOScore>
0.0000

> <Gold.PLP.Chemscore.Metal>
0.0000

> <Gold.Chemscore.Hbonds>
donor molecule, donor type, donor heavy atom, donor atom, acceptor molecule, acceptor atom, score
      L1  H     3    26       P1  7948  1.00
      L1  H    15    29       P1  7948  1.00

> <Gold.PLP.Chemscore.Internal.Correction>
1.2977

> <Gold.Rescore>
     Score         DG    S(hbond)    S(metal)    S(lipo)     H(rot)  DE(clash)    DE(int)     intcor
     14.11     -15.40       1.58        0.00      67.80       1.29       0.02       1.27       ----

> <Gold.Chemscore.Fitness>
14.1112

> <Gold.Chemscore.DG>
-15.4028

> <Gold.Chemscore.ZeroCoef>
-5.4800

> <Gold.Chemscore.Hbond>
1.5827

> <Gold.Chemscore.Metal>
0.0000

> <Gold.Chemscore.Lipo>
67.8002

> <Gold.Chemscore.Internal_Hbond>
0.0000

> <Gold.Chemscore.DEClash>
0.0202

> <Gold.Chemscore.DEInternal>
1.2714

> <Gold.Chemscore.Rot>
1.2875

> <Gold.Chemscore.Internal.Correction>
   9.000000E+99

> <Gold.Chemscore.Hbonds>
donor molecule, donor type, donor heavy atom, donor atom, acceptor molecule, acceptor atom, score
      L1  H     3    26       P1  7948  0.25
      L1  H    15    29       P1  7948  0.38

> <Gold.Chemscore.Hbond.Weighted>
-5.2862

> <Gold.Chemscore.Metal.Weighted>
-0.0000

> <Gold.Chemscore.Lipo.Weighted>
-7.9326

> <Gold.Chemscore.Internal_Hbond.Weighted>
0.0000

> <Gold.Chemscore.DEClash.Weighted>
0.0202

> <Gold.Chemscore.DEInternal.Weighted>
1.2714

> <Gold.Chemscore.Rot.Weighted>
3.2960

> <Gold.Chemscore.Internal.Correction.Weighted>
   9.000000E+99

> <Gold.Protein.RotatedTorsions>
[ 6907 6896 6895 6894 ] final  -33.38 input  -60.11 | X-H torsion
[ 7974 7965 7964 7962 ] final -159.49 input  175.53 | X-H torsion
[ 8008 7997 7996 7995 ] final -141.69 input   59.86 | X-H torsion
[ 10167 10162 10161 10158 ] final  -78.61 input  -65.29 | X-H torsion
[ 10718 10713 10712 10709 ] final  152.68 input   66.30 | X-H torsion
[ 10763 10752 10751 10750 ] final   71.53 input  -60.55 | X-H torsion
[ 11005 11000 10999 10996 ] final  120.05 input  -57.11 | X-H torsion

> <Gold.Protein.ActiveResidues>
 VAL166  LYS551  ARG553  GLY616  TRP617  ASP618  TYR619  PRO620  LYS621  CYS622 
 ASP623  PHE694  ASN695  SER759  ASP760  ASP761  ALA762  ILE779  LEU786  VAL792 
 PHE793  MET794  SER795  GLU796  ALA797  LYS798  CYS799  TRP800  GLU811  SER814 

> <Gold.Protein.RotatedAtoms>
  151.0664  134.9770  159.8286 H   0  0  0  0  0  0  0  0  0  0  0  0  # atno 6907 bound_to 6896
  152.5402  134.2353  159.8851 H   0  0  0  0  0  0  0  0  0  0  0  0  # atno 6908 bound_to 6896
  151.2376  133.4373  159.2639 H   0  0  0  0  0  0  0  0  0  0  0  0  # atno 6909 bound_to 6896
  144.7463  140.3677  143.6082 H   0  0  0  0  0  0  0  0  0  0  0  0  # atno 7974 bound_to 7965
  155.4820  140.0561  157.2966 H   0  0  0  0  0  0  0  0  0  0  0  0  # atno 8008 bound_to 7997
  154.4657  140.2017  156.0078 H   0  0  0  0  0  0  0  0  0  0  0  0  # atno 8009 bound_to 7997
  156.0969  140.3225  155.7894 H   0  0  0  0  0  0  0  0  0  0  0  0  # atno 8010 bound_to 7997
  140.4667  143.2438  151.8267 H   0  0  0  0  0  0  0  0  0  0  0  0  # atno 10167 bound_to 10162
  157.2546  131.0786  151.1707 H   0  0  0  0  0  0  0  0  0  0  0  0  # atno 10718 bound_to 10713
  153.0404  135.5133  154.7606 H   0  0  0  0  0  0  0  0  0  0  0  0  # atno 10763 bound_to 10752
  154.6548  135.2930  154.9943 H   0  0  0  0  0  0  0  0  0  0  0  0  # atno 10764 bound_to 10752
  154.0814  135.6663  153.4891 H   0  0  0  0  0  0  0  0  0  0  0  0  # atno 10765 bound_to 10752
  139.9170  134.9632  156.7748 H   0  0  0  0  0  0  0  0  0  0  0  0  # atno 11005 bound_to 11000
  145.7110  139.1685  143.2539 LP  0  0  0  0  0  0  0  0  0  0  0  0  # atno 17320 bound_to 7965
  146.1347  140.7139  142.9395 LP  0  0  0  0  0  0  0  0  0  0  0  0  # atno 17321 bound_to 7965
  139.4813  144.4942  151.9146 LP  0  0  0  0  0  0  0  0  0  0  0  0  # atno 17342 bound_to 10162
  140.4027  144.2472  150.5892 LP  0  0  0  0  0  0  0  0  0  0  0  0  # atno 17343 bound_to 10162
  157.3241  130.6952  149.6286 LP  0  0  0  0  0  0  0  0  0  0  0  0  # atno 17370 bound_to 10713
  155.9665  130.4326  150.4973 LP  0  0  0  0  0  0  0  0  0  0  0  0  # atno 17371 bound_to 10713
  140.6592  133.9661  155.7795 LP  0  0  0  0  0  0  0  0  0  0  0  0  # atno 17394 bound_to 11000
  141.0655  134.0283  157.3599 LP  0  0  0  0  0  0  0  0  0  0  0  0  # atno 17395 bound_to 11000

$$$$
