#       Name:                AV-unprocessed.smi:178
#       Creating user name   scv26
#       Creation time:       Thu Mar 26 19:23:49 2020


#       File generated by GOLD software.
#

@<TRIPOS>MOLECULE
AV-unprocessed.smi:178
    60    62     1
SMALL
NO_CHARGES


@<TRIPOS>ATOM
      1 ****        -5.0952  -3.1587   1.8170 C.3            1 S1                 0.0000
      2 ****        -4.7880  -1.9316   2.4549 O.3            1 S1                 0.0000
      3 ****        -3.8221  -1.1772   1.7438 C.3            1 S1                 0.0000
      4 ****        -3.5550   0.1265   2.5119 C.3            1 S1                 0.0000
      5 ****        -2.6138   1.0103   1.8196 N.pl3          1 S1                 0.0000
      6 ****        -3.1455   2.1539   1.0823 C.3            1 S1                 0.0000
      7 ****        -3.7494   1.7547  -0.2707 C.3            1 S1                 0.0000
      8 ****        -4.1747   2.9198  -1.0595 C.1            1 S1                 0.0000
      9 ****        -4.5095   3.8369  -1.6803 N.1            1 S1                 0.0000
     10 ****        -1.2921   0.6750   1.7490 C.ar           1 S1                 0.0000
     11 ****        -0.7949  -0.1565   2.7041 N.ar           1 S1                 0.0000
     12 ****         0.4901  -0.5177   2.7020 C.ar           1 S1                 0.0000
     13 ****         1.4503  -0.1706   1.8462 N.ar           1 S1                 0.0000
     14 ****         0.9690   0.6566   0.8761 C.ar           1 S1                 0.0000
     15 ****        -0.3725   1.1261   0.7500 C.ar           1 S1                 0.0000
     16 ****        -0.4660   1.9401  -0.3754 N.2            1 S1                 0.0000
     17 ****         0.7396   1.9596  -0.8715 C.2            1 S1                 0.0000
     18 ****         1.6649   1.2114  -0.1837 N.pl3          1 S1                 0.0000
     19 ****         3.0735   1.0553  -0.5125 C.3            1 S1                 0.0000
     20 ****         3.3457  -0.0708  -1.5377 C.3            1 S1                 0.0000
     21 ****         2.6870   0.2552  -2.7517 O.3            1 S1                 0.0000
     22 ****         2.8772  -1.4465  -1.0877 C.3            1 S1                 0.0000
     23 ****         3.7550  -2.3797  -1.9118 C.3            1 S1                 0.0000
     24 ****         5.0126  -1.7213  -1.9868 O.3            1 S1                 0.0000
     25 ****         4.8512  -0.3182  -1.7818 C.3            1 S1                 0.0000
     26 ****         5.5052   0.4793  -2.9217 C.3            1 S1                 0.0000
     27 ****        -5.8437  -3.6967   2.3985 H              1 S1                 0.0000
     28 ****        -4.2114  -3.7930   1.7366 H              1 S1                 0.0000
     29 ****        -5.5002  -2.9937   0.8178 H              1 S1                 0.0000
     30 ****        -2.9029  -1.7554   1.6400 H              1 S1                 0.0000
     31 ****        -4.1885  -0.9615   0.7398 H              1 S1                 0.0000
     32 ****        -4.4989   0.6556   2.6457 H              1 S1                 0.0000
     33 ****        -3.1998  -0.0927   3.5193 H              1 S1                 0.0000
     34 ****        -3.9184   2.6260   1.6895 H              1 S1                 0.0000
     35 ****        -2.3817   2.9206   0.9586 H              1 S1                 0.0000
     36 ****        -3.0332   1.1924  -0.8692 H              1 S1                 0.0000
     37 ****        -4.6227   1.1189  -0.1286 H              1 S1                 0.0000
     38 ****         0.7914  -1.1783   3.5015 H              1 S1                 0.0000
     39 ****         0.9878   2.5191  -1.7619 H              1 S1                 0.0000
     40 ****         3.4444   2.0081  -0.8926 H              1 S1                 0.0000
     41 ****         3.6187   0.8645   0.4127 H              1 S1                 0.0000
     42 ****         2.8779  -0.4206  -3.3845 H              1 S1                 0.0000
     43 ****         3.0990  -1.5915  -0.0296 H              1 S1                 0.0000
     44 ****         1.8097  -1.6188  -1.2329 H              1 S1                 0.0000
     45 ****         3.8480  -3.3714  -1.4688 H              1 S1                 0.0000
     46 ****         3.3545  -2.4932  -2.9200 H              1 S1                 0.0000
     47 ****         5.3930  -0.0979  -0.8610 H              1 S1                 0.0000
     48 ****         5.3764   1.5517  -2.7742 H              1 S1                 0.0000
     49 ****         5.0828   0.2177  -3.8921 H              1 S1                 0.0000
     50 ****         6.5755   0.2770  -2.9674 H              1 S1                 0.0000
     51 ****        -4.4335  -2.1256   3.3696 LP             1 S1                 0.0000
     52 ****        -5.6257  -1.3906   2.5299 LP             1 S1                 0.0000
     53 ****        -4.7989   4.6296  -2.2169 LP             1 S1                 0.0000
     54 ****        -1.4020  -0.5027   3.4193 LP             1 S1                 0.0000
     55 ****         2.4002  -0.4770   1.9077 LP             1 S1                 0.0000
     56 ****        -1.2781   2.4067  -0.7258 LP             1 S1                 0.0000
     57 ****         3.0168   1.1370  -3.0890 LP             1 S1                 0.0000
     58 ****         1.7002   0.3052  -2.5979 LP             1 S1                 0.0000
     59 ****         5.4139  -1.8787  -2.8892 LP             1 S1                 0.0000
     60 ****         5.6201  -2.0896  -1.2831 LP             1 S1                 0.0000
@<TRIPOS>BOND
    1    1    2 1     
    2    1   27 1     
    3    1   28 1     
    4    1   29 1     
    5    2    3 1     
    6    3    4 1     
    7    3   30 1     
    8    3   31 1     
    9    4    5 1     
   10    4   32 1     
   11    4   33 1     
   12    5    6 1     
   13    5   10 1     
   14    6    7 1     
   15    6   34 1     
   16    6   35 1     
   17    7    8 1     
   18    7   36 1     
   19    7   37 1     
   20    8    9 3     
   21   10   15 ar    
   22   10   11 ar    
   23   11   12 ar    
   24   12   13 ar    
   25   12   38 1     
   26   13   14 ar    
   27   14   18 1     
   28   14   15 ar    
   29   15   16 1     
   30   16   17 2     
   31   17   18 1     
   32   17   39 1     
   33   18   19 1     
   34   19   20 1     
   35   19   40 1     
   36   19   41 1     
   37   20   25 1     
   38   20   21 1     
   39   20   22 1     
   40   21   42 1     
   41   22   23 1     
   42   22   43 1     
   43   22   44 1     
   44   23   24 1     
   45   23   45 1     
   46   23   46 1     
   47   24   25 1     
   48   25   26 1     
   49   25   47 1     
   50   26   48 1     
   51   26   49 1     
   52   26   50 1     
   53    2   51 1     
   54    2   52 1     
   55    9   53 1     
   56   11   54 1     
   57   13   55 1     
   58   16   56 1     
   59   21   57 1     
   60   21   58 1     
   61   24   59 1     
   62   24   60 1     
@<TRIPOS>SUBSTRUCTURE
      1 S1             1
@<TRIPOS>SET
LONE_PAIRS      STATIC     ATOMS    <user>   **** ""
10 51 52 53 54 55 56 57 58 59 60
DONOR_HYDROGENS      STATIC     ATOMS    <user>   **** ""
1 42
ATOM$BLUE        STATIC     ATOMS    COLORGROUP SYSTEM
10 51 52 53 54 55 56 57 58 59 60
ATOM$RED        STATIC     ATOMS    COLORGROUP SYSTEM
1 42
