AV-unprocessed.smi:902|AV-procd|sdf|4094|dock1
  -GOLD-   22720 1583D 1   1.00000     0.00000
 Structure written by MMmdl.
 42 44  0  0  0  0  0  0  0  0  1 V2000
  151.4604  137.9725  154.0487 C   0  0  0  0  0  0  0  0  0  0  0  0
  150.6161  139.0346  154.5598 N   0  0  0  0  0  0  0  0  0  0  0  0
  151.1457  140.0040  155.3357 N   0  0  0  0  0  0  0  0  0  0  0  0
  150.1308  140.8110  155.6306 C   0  0  0  0  0  0  0  0  0  0  0  0
  150.3627  142.0213  156.4945 C   0  0  0  0  0  0  0  0  0  0  0  0
  151.6187  142.1216  157.3720 C   0  0  0  0  0  0  0  0  0  0  0  0
  150.7708  142.8363  158.4293 C   0  0  0  0  0  0  0  0  0  0  0  0
  149.5247  142.2452  157.7614 C   0  0  0  0  0  0  0  0  0  0  0  0
  148.9035  140.3816  155.0464 C   0  0  0  0  0  0  0  0  0  0  0  0
  149.2685  139.2473  154.3747 C   0  0  0  0  0  0  0  0  0  0  0  0
  148.5011  138.4131  153.6244 N   0  0  0  0  0  0  0  0  0  0  0  0
  147.1608  138.3384  153.5541 C   0  0  0  0  0  0  0  0  0  0  0  0
  146.3713  139.0318  154.1960 O   0  0  0  0  0  0  0  0  0  0  0  0
  146.7768  137.3969  152.6807 N   0  0  0  0  0  0  0  0  0  0  0  0
  145.3934  137.0884  152.3360 C   0  0  0  0  0  0  0  0  0  0  0  0
  145.0546  135.6140  152.1209 C   0  0  0  0  0  0  0  0  0  0  0  0
  144.4720  135.3420  150.7371 C   0  0  0  0  0  0  0  0  0  0  0  0
  145.2313  135.9621  149.7199 O   0  0  0  0  0  0  0  0  0  0  0  0
  146.0134  134.5893  152.6958 C   0  0  0  0  0  0  0  0  0  0  0  0
  144.6402  134.7472  153.2926 C   0  0  0  0  0  0  0  0  0  0  0  0
  150.9871  137.0069  154.2288 H   0  0  0  0  0  0  0  0  0  0  0  0
  152.4328  137.9844  154.5427 H   0  0  0  0  0  0  0  0  0  0  0  0
  151.6044  138.1058  152.9766 H   0  0  0  0  0  0  0  0  0  0  0  0
  150.3009  142.9186  155.8756 H   0  0  0  0  0  0  0  0  0  0  0  0
  151.9817  141.1510  157.7141 H   0  0  0  0  0  0  0  0  0  0  0  0
  152.4227  142.7235  156.9475 H   0  0  0  0  0  0  0  0  0  0  0  0
  150.9409  142.5008  159.4527 H   0  0  0  0  0  0  0  0  0  0  0  0
  150.8184  143.9231  158.3451 H   0  0  0  0  0  0  0  0  0  0  0  0
  148.6963  142.9436  157.6413 H   0  0  0  0  0  0  0  0  0  0  0  0
  149.2011  141.3150  158.2312 H   0  0  0  0  0  0  0  0  0  0  0  0
  147.9313  140.8450  155.1196 H   0  0  0  0  0  0  0  0  0  0  0  0
  149.0124  137.7702  153.0380 H   0  0  0  0  0  0  0  0  0  0  0  0
  147.4928  136.8749  152.1972 H   0  0  0  0  0  0  0  0  0  0  0  0
  144.7641  137.4676  153.1415 H   0  0  0  0  0  0  0  0  0  0  0  0
  145.1099  137.6577  151.4490 H   0  0  0  0  0  0  0  0  0  0  0  0
  144.4200  134.2677  150.5572 H   0  0  0  0  0  0  0  0  0  0  0  0
  143.4535  135.7274  150.6818 H   0  0  0  0  0  0  0  0  0  0  0  0
  144.9400  136.8567  149.6296 H   0  0  0  0  0  0  0  0  0  0  0  0
  146.2062  133.6853  152.1213 H   0  0  0  0  0  0  0  0  0  0  0  0
  146.8557  134.9514  153.2822 H   0  0  0  0  0  0  0  0  0  0  0  0
  144.5700  135.2160  154.2719 H   0  0  0  0  0  0  0  0  0  0  0  0
  143.9158  133.9572  153.1040 H   0  0  0  0  0  0  0  0  0  0  0  0
  1  2  1  0  0  0  0
  1 21  1  0  0  0  0
  1 22  1  0  0  0  0
  1 23  1  0  0  0  0
  2 10  1  0  0  0  0
  2  3  1  0  0  0  0
  3  4  2  0  0  0  0
  4  5  1  0  0  0  0
  4  9  1  0  0  0  0
  5  8  1  0  0  0  0
  5  6  1  0  0  0  0
  5 24  1  0  0  0  0
  6  7  1  0  0  0  0
  6 25  1  0  0  0  0
  6 26  1  0  0  0  0
  7  8  1  0  0  0  0
  7 27  1  0  0  0  0
  7 28  1  0  0  0  0
  8 29  1  0  0  0  0
  8 30  1  0  0  0  0
  9 10  2  0  0  0  0
  9 31  1  0  0  0  0
 10 11  1  0  0  0  0
 11 12  1  0  0  0  0
 11 32  1  0  0  0  0
 12 13  2  0  0  0  0
 12 14  1  0  0  0  0
 14 15  1  0  0  0  0
 14 33  1  0  0  0  0
 15 16  1  0  0  0  0
 15 34  1  0  0  0  0
 15 35  1  0  0  0  0
 16 20  1  0  0  0  0
 16 17  1  0  0  0  0
 16 19  1  0  0  0  0
 17 18  1  0  0  0  0
 17 36  1  0  0  0  0
 17 37  1  0  0  0  0
 18 38  1  0  0  0  0
 19 20  1  0  0  0  0
 19 39  1  0  0  0  0
 19 40  1  0  0  0  0
 20 41  1  0  0  0  0
 20 42  1  0  0  0  0
M  END
> <s_m_source_file>
AV-unprocessed.smi

> <i_m_source_file_index>
902

> <i_lp_mmshare_version>
43012

> <i_f3d_flags>
0

> <s_epik_input>
W0NIMl0xW0NIMl1bQ0gyXVtDSF0xYyhubjJbQ0gzXSlbY0hdYzJbTkhdQyg9TylbTkhdW0NIMl1DMyhbQ0gyXVtPSF0pW0NIMl1bQ0gyXTM=

> <s_epik_cmdline>
J2VwaWtfcHl0aG9uJywgJy1waCcsICc3LjAnLCAnLXRuJywgJzgnLCAnLW1hJywgJzIwMCcsICctbWV0YWxfYmluZGluZycsICctaW1hZScsICc8aW5maWxlLm1hZT4nLCAnLW9tYWUnLCAnPG91dGZpbGUubWFlPic=

> <r_lp_tautomer_probability>
1

> <r_epik_Ionization_Penalty>
9.68756e-05

> <r_epik_Ionization_Penalty_Charging>
0

> <r_epik_Ionization_Penalty_Neutral>
9.68756e-05

> <r_epik_State_Penalty>
-0

> <r_epik_Charging_Adjusted_Penalty>
0

> <i_epik_Tot_Q>
0

> <i_epik_Tot_abs_Q>
0

> <r_epik_Metal_State_Penalty>
-0

> <b_epik_Metal_Only>
0

> <s_lp_Force_Field>
OPLS_2005

> <r_lp_Energy>
26.4992

> <b_lp_Chiralities_Consistent>
1

> <s_lp_Variant>
AV-unprocessed.smi:902-1

> <Gold.Version>
5.8.1

> <Gold.Id.Protein>
6NUR|6NUR_protein|mol2

> <Gold.PLP.Fitness>
41.6644

> <Gold.PLP.PLP>
-34.2926

> <Gold.PLP.part.hbond>
-5.4221

> <Gold.PLP.part.metal>
0.0000

> <Gold.PLP.part.buried>
-4.5623

> <Gold.PLP.part.nonpolar>
-25.1627

> <Gold.PLP.part.repulsive>
0.2446

> <Gold.PLP.ligand.clash>
0.0000

> <Gold.PLP.ligand.torsion>
1.6484

> <Gold.PLP.Chemscore.Hbond>
3.1060

> <Gold.PLP.Chemscore.CHOScore>
0.0000

> <Gold.PLP.Chemscore.Metal>
0.0000

> <Gold.Chemscore.Hbonds>
donor molecule, donor type, donor heavy atom, donor atom, acceptor molecule, acceptor atom, score
      L1  H    11    32       P1  7948  0.98
      L1  H    14    33       P1  7948  1.00
      L1  H    18    38       P1 10171  1.00
      P1  H  7989  7998       L1     3  0.15

> <Gold.PLP.Chemscore.Internal.Correction>
1.3506

> <Gold.Rescore>
     Score         DG    S(hbond)    S(metal)    S(lipo)     H(rot)  DE(clash)    DE(int)     intcor
     14.97     -17.90       2.95        0.00      71.42       2.26       0.33       2.60       ----

> <Gold.Chemscore.Fitness>
14.9681

> <Gold.Chemscore.DG>
-17.9015

> <Gold.Chemscore.ZeroCoef>
-5.4800

> <Gold.Chemscore.Hbond>
2.9512

> <Gold.Chemscore.Metal>
0.0000

> <Gold.Chemscore.Lipo>
71.4232

> <Gold.Chemscore.Internal_Hbond>
0.0000

> <Gold.Chemscore.DEClash>
0.3296

> <Gold.Chemscore.DEInternal>
2.6038

> <Gold.Chemscore.Rot>
2.2626

> <Gold.Chemscore.Internal.Correction>
   9.000000E+99

> <Gold.Chemscore.Hbonds>
donor molecule, donor type, donor heavy atom, donor atom, acceptor molecule, acceptor atom, score
      L1  H    11    32       P1  7948  0.93
      L1  H    14    33       P1  7948  0.99
      L1  H    18    38       P1 10171  0.94

> <Gold.Chemscore.Hbond.Weighted>
-9.8572

> <Gold.Chemscore.Metal.Weighted>
-0.0000

> <Gold.Chemscore.Lipo.Weighted>
-8.3565

> <Gold.Chemscore.Internal_Hbond.Weighted>
0.0000

> <Gold.Chemscore.DEClash.Weighted>
0.3296

> <Gold.Chemscore.DEInternal.Weighted>
2.6038

> <Gold.Chemscore.Rot.Weighted>
5.7922

> <Gold.Chemscore.Internal.Correction.Weighted>
   9.000000E+99

> <Gold.Protein.RotatedTorsions>
[ 6907 6896 6895 6894 ] final   19.42 input  -60.11 | X-H torsion
[ 7974 7965 7964 7962 ] final  150.18 input  175.53 | X-H torsion
[ 8008 7997 7996 7995 ] final -159.82 input   59.86 | X-H torsion
[ 10167 10162 10161 10158 ] final  -99.38 input  -65.29 | X-H torsion
[ 10718 10713 10712 10709 ] final   -3.23 input   66.30 | X-H torsion
[ 10763 10752 10751 10750 ] final -148.17 input  -60.55 | X-H torsion
[ 11005 11000 10999 10996 ] final  -92.43 input  -57.11 | X-H torsion

> <Gold.Protein.ActiveResidues>
 VAL166  LYS551  ARG553  GLY616  TRP617  ASP618  TYR619  PRO620  LYS621  CYS622 
 ASP623  PHE694  ASN695  SER759  ASP760  ASP761  ALA762  ILE779  LEU786  VAL792 
 PHE793  MET794  SER795  GLU796  ALA797  LYS798  CYS799  TRP800  GLU811  SER814 

> <Gold.Protein.RotatedAtoms>
  151.8805  135.0455  160.0488 H   0  0  0  0  0  0  0  0  0  0  0  0  # atno 6907 bound_to 6896
  152.2516  133.5215  159.5337 H   0  0  0  0  0  0  0  0  0  0  0  0  # atno 6908 bound_to 6896
  150.7086  134.0868  159.3960 H   0  0  0  0  0  0  0  0  0  0  0  0  # atno 6909 bound_to 6896
  144.8383  139.6375  143.6028 H   0  0  0  0  0  0  0  0  0  0  0  0  # atno 7974 bound_to 7965
  155.7683  140.0848  157.2121 H   0  0  0  0  0  0  0  0  0  0  0  0  # atno 8008 bound_to 7997
  154.3998  140.1530  156.2969 H   0  0  0  0  0  0  0  0  0  0  0  0  # atno 8009 bound_to 7997
  155.8772  140.3422  155.5865 H   0  0  0  0  0  0  0  0  0  0  0  0  # atno 8010 bound_to 7997
  140.2631  143.3394  152.0607 H   0  0  0  0  0  0  0  0  0  0  0  0  # atno 10167 bound_to 10162
  156.7792  130.5325  149.5754 H   0  0  0  0  0  0  0  0  0  0  0  0  # atno 10718 bound_to 10713
  154.8247  135.3341  154.6932 H   0  0  0  0  0  0  0  0  0  0  0  0  # atno 10763 bound_to 10752
  153.7560  135.6936  153.4940 H   0  0  0  0  0  0  0  0  0  0  0  0  # atno 10764 bound_to 10752
  153.2143  135.4471  155.0366 H   0  0  0  0  0  0  0  0  0  0  0  0  # atno 10765 bound_to 10752
  141.1522  133.7821  157.0019 H   0  0  0  0  0  0  0  0  0  0  0  0  # atno 11005 bound_to 11000
  146.2679  139.6564  142.9316 LP  0  0  0  0  0  0  0  0  0  0  0  0  # atno 17320 bound_to 7965
  145.4748  141.0437  143.2679 LP  0  0  0  0  0  0  0  0  0  0  0  0  # atno 17321 bound_to 7965
  139.5011  144.6706  151.6252 LP  0  0  0  0  0  0  0  0  0  0  0  0  # atno 17342 bound_to 10162
  140.5950  143.9712  150.6349 LP  0  0  0  0  0  0  0  0  0  0  0  0  # atno 17343 bound_to 10162
  156.1229  130.6123  151.0220 LP  0  0  0  0  0  0  0  0  0  0  0  0  # atno 17370 bound_to 10713
  157.6654  131.0872  150.7740 LP  0  0  0  0  0  0  0  0  0  0  0  0  # atno 17371 bound_to 10713
  140.0934  134.9579  157.1812 LP  0  0  0  0  0  0  0  0  0  0  0  0  # atno 17394 bound_to 11000
  140.3415  134.2699  155.7211 LP  0  0  0  0  0  0  0  0  0  0  0  0  # atno 17395 bound_to 11000

$$$$
