AV-unprocessed.smi:662|AV-procd|sdf|3243|dock8
  -GOLD-   22720 0193D 1   1.00000     0.00000
 Structure written by MMmdl.
 34 35  0  0  0  0  0  0  0  0  2 V2000
  151.0056  140.1754  154.9648 O   0  0  0  0  0  0  0  0  0  0  0  0
  150.0091  140.7843  155.3528 C   0  0  0  0  0  0  0  0  0  0  0  0
  149.7407  140.9760  156.6564 N   0  0  0  0  0  0  0  0  0  0  0  0
  150.5763  140.5087  157.7572 C   0  0  0  0  0  0  0  0  0  0  0  0
  152.0661  140.7778  157.4923 C   0  0  0  0  0  0  0  0  0  0  0  0
  152.8598  140.8635  158.7522 C   0  0  0  0  0  0  0  0  0  0  0  0
  153.9009  140.0715  159.0199 N   0  0  0  0  0  0  0  0  0  0  0  0
  154.4611  140.3188  160.2780 C   0  0  0  0  0  0  0  0  0  0  0  0
  155.6486  139.5217  160.7352 C   0  0  0  0  0  0  0  0  0  0  0  0
  156.7189  139.7562  159.9758 F   0  0  0  0  0  0  0  0  0  0  0  0
  155.9747  139.8231  161.9917 F   0  0  0  0  0  0  0  0  0  0  0  0
  155.3986  138.2137  160.6829 F   0  0  0  0  0  0  0  0  0  0  0  0
  153.8102  141.3123  160.9687 C   0  0  0  0  0  0  0  0  0  0  0  0
  152.4728  141.9684  160.0650 S   0  0  0  0  0  0  0  0  0  0  0  0
  149.0222  141.3424  154.3125 C   0  0  2  0  0  0  0  0  0  0  0  0
  147.8333  142.0425  154.9844 C   0  0  0  0  0  0  0  0  0  0  0  0
  146.7481  141.9824  153.9205 C   0  0  0  0  0  0  0  0  0  0  0  0
  147.0051  140.6500  153.2150 C   0  0  0  0  0  0  0  0  0  0  0  0
  148.4272  140.3103  153.4325 N   0  3  0  0  0  0  0  0  0  0  0  0
  148.8987  141.4716  156.9088 H   0  0  0  0  0  0  0  0  0  0  0  0
  150.2619  141.0247  158.6649 H   0  0  0  0  0  0  0  0  0  0  0  0
  150.4053  139.4447  157.9316 H   0  0  0  0  0  0  0  0  0  0  0  0
  152.4913  139.9902  156.8686 H   0  0  0  0  0  0  0  0  0  0  0  0
  152.1874  141.7112  156.9418 H   0  0  0  0  0  0  0  0  0  0  0  0
  154.0342  141.6940  161.9538 H   0  0  0  0  0  0  0  0  0  0  0  0
  149.5495  142.0537  153.6752 H   0  0  0  0  0  0  0  0  0  0  0  0
  147.5051  141.4946  155.8698 H   0  0  0  0  0  0  0  0  0  0  0  0
  148.0622  143.0645  155.2887 H   0  0  0  0  0  0  0  0  0  0  0  0
  145.7412  142.0584  154.3320 H   0  0  0  0  0  0  0  0  0  0  0  0
  146.8845  142.8040  153.2158 H   0  0  0  0  0  0  0  0  0  0  0  0
  146.3938  139.8616  153.6551 H   0  0  0  0  0  0  0  0  0  0  0  0
  146.7703  140.7010  152.1513 H   0  0  0  0  0  0  0  0  0  0  0  0
  148.9293  140.2734  152.5567 H   0  0  0  0  0  0  0  0  0  0  0  0
  148.4740  139.4152  153.8972 H   0  0  0  0  0  0  0  0  0  0  0  0
  1  2  2  0  0  0  0
  2  3  1  0  0  0  0
  2 15  1  0  0  0  0
  3  4  1  0  0  0  0
  3 20  1  0  0  0  0
  4  5  1  0  0  0  0
  4 21  1  0  0  0  0
  4 22  1  0  0  0  0
  5  6  1  0  0  0  0
  5 23  1  0  0  0  0
  5 24  1  0  0  0  0
  6 14  1  0  0  0  0
  6  7  2  0  0  0  0
  7  8  1  0  0  0  0
  8  9  1  0  0  0  0
  8 13  2  0  0  0  0
  9 10  1  0  0  0  0
  9 11  1  0  0  0  0
  9 12  1  0  0  0  0
 13 14  1  0  0  0  0
 13 25  1  0  0  0  0
 15 19  1  0  0  0  0
 15 16  1  0  0  0  0
 15 26  1  0  0  0  0
 16 17  1  0  0  0  0
 16 27  1  0  0  0  0
 16 28  1  0  0  0  0
 17 18  1  0  0  0  0
 17 29  1  0  0  0  0
 17 30  1  0  0  0  0
 18 19  1  0  0  0  0
 18 31  1  0  0  0  0
 18 32  1  0  0  0  0
 19 33  1  0  0  0  0
 19 34  1  0  0  0  0
M  CHG  1  19   1
M  END
> <s_m_source_file>
AV-unprocessed.smi

> <i_m_source_file_index>
662

> <i_lp_mmshare_version>
43012

> <i_f3d_flags>
0

> <s_epik_input>
W05IXTFbQ0gyXVtDSDJdW0NIMl1bQ0BIXTFDKD1PKVtOSF1bQ0gyXVtDSDJdYzJuYyhDKEYpKEYpRilbY0hdczI=

> <s_epik_cmdline>
J2VwaWtfcHl0aG9uJywgJy1waCcsICc3LjAnLCAnLXRuJywgJzgnLCAnLW1hJywgJzIwMCcsICctbWV0YWxfYmluZGluZycsICctaW1hZScsICc8aW5maWxlLm1hZT4nLCAnLW9tYWUnLCAnPG91dGZpbGUubWFlPic=

> <r_epik_Ionization_Penalty>
0.0382401

> <r_epik_Ionization_Penalty_Charging>
0.0382382

> <r_epik_Ionization_Penalty_Neutral>
1.85239e-06

> <r_epik_State_Penalty>
0.0320549

> <r_epik_Charging_Adjusted_Penalty>
0.0702931

> <i_epik_Tot_Q>
1

> <i_epik_Tot_abs_Q>
1

> <r_epik_Metal_State_Penalty>
0.0320549

> <b_epik_Metal_Only>
0

> <s_lp_Force_Field>
OPLS_2005

> <r_lp_Energy>
7.29414

> <b_lp_Chiralities_Consistent>
1

> <s_lp_Variant>
AV-unprocessed.smi:662-1

> <Gold.Version>
5.8.1

> <Gold.Id.Protein>
6NUR|6NUR_protein|mol2

> <Gold.PLP.Fitness>
43.9981

> <Gold.PLP.PLP>
-35.6561

> <Gold.PLP.part.hbond>
-3.0000

> <Gold.PLP.part.metal>
0.0000

> <Gold.PLP.part.buried>
-1.4314

> <Gold.PLP.part.nonpolar>
-29.7058

> <Gold.PLP.part.repulsive>
0.2106

> <Gold.PLP.ligand.clash>
0.0000

> <Gold.PLP.ligand.torsion>
0.3150

> <Gold.PLP.Chemscore.Hbond>
2.9833

> <Gold.PLP.Chemscore.CHOScore>
0.0000

> <Gold.PLP.Chemscore.Metal>
0.0000

> <Gold.Chemscore.Hbonds>
donor molecule, donor type, donor heavy atom, donor atom, acceptor molecule, acceptor atom, score
      L1  H    19    33       P1  7957  1.00
      P1  H  7989  7998       L1     1  1.00
      P1  H  7997  8008       L1     7  1.00

> <Gold.PLP.Chemscore.Internal.Correction>
0.0221

> <Gold.Rescore>
     Score         DG    S(hbond)    S(metal)    S(lipo)     H(rot)  DE(clash)    DE(int)     intcor
     17.07     -18.61       2.82        0.00      74.83       1.97       0.01       1.53       ----

> <Gold.Chemscore.Fitness>
17.0679

> <Gold.Chemscore.DG>
-18.6102

> <Gold.Chemscore.ZeroCoef>
-5.4800

> <Gold.Chemscore.Hbond>
2.8196

> <Gold.Chemscore.Metal>
0.0000

> <Gold.Chemscore.Lipo>
74.8299

> <Gold.Chemscore.Internal_Hbond>
0.0000

> <Gold.Chemscore.DEClash>
0.0133

> <Gold.Chemscore.DEInternal>
1.5290

> <Gold.Chemscore.Rot>
1.9697

> <Gold.Chemscore.Internal.Correction>
   9.000000E+99

> <Gold.Chemscore.Hbonds>
donor molecule, donor type, donor heavy atom, donor atom, acceptor molecule, acceptor atom, score
      L1  H    19    33       P1  7957  0.97
      P1  H  7989  7998       L1     1  0.78
      P1  H  7997  8008       L1     7  0.31

> <Gold.Chemscore.Hbond.Weighted>
-9.4175

> <Gold.Chemscore.Metal.Weighted>
-0.0000

> <Gold.Chemscore.Lipo.Weighted>
-8.7551

> <Gold.Chemscore.Internal_Hbond.Weighted>
0.0000

> <Gold.Chemscore.DEClash.Weighted>
0.0133

> <Gold.Chemscore.DEInternal.Weighted>
1.5290

> <Gold.Chemscore.Rot.Weighted>
5.0424

> <Gold.Chemscore.Internal.Correction.Weighted>
   9.000000E+99

> <Gold.Protein.RotatedTorsions>
[ 6907 6896 6895 6894 ] final -121.02 input  -60.11 | X-H torsion
[ 7974 7965 7964 7962 ] final  136.33 input  175.53 | X-H torsion
[ 8008 7997 7996 7995 ] final -106.72 input   59.86 | X-H torsion
[ 10167 10162 10161 10158 ] final  -53.87 input  -65.29 | X-H torsion
[ 10718 10713 10712 10709 ] final   91.38 input   66.30 | X-H torsion
[ 10763 10752 10751 10750 ] final -170.72 input  -60.55 | X-H torsion
[ 11005 11000 10999 10996 ] final -175.24 input  -57.11 | X-H torsion

> <Gold.Protein.ActiveResidues>
 VAL166  LYS551  ARG553  GLY616  TRP617  ASP618  TYR619  PRO620  LYS621  CYS622 
 ASP623  PHE694  ASN695  SER759  ASP760  ASP761  ALA762  ILE779  LEU786  VAL792 
 PHE793  MET794  SER795  GLU796  ALA797  LYS798  CYS799  TRP800  GLU811  SER814 

> <Gold.Protein.RotatedAtoms>
  150.8445  133.7883  159.3047 H   0  0  0  0  0  0  0  0  0  0  0  0  # atno 6907 bound_to 6896
  151.5574  135.1064  159.9974 H   0  0  0  0  0  0  0  0  0  0  0  0  # atno 6908 bound_to 6896
  152.4502  133.7572  159.6783 H   0  0  0  0  0  0  0  0  0  0  0  0  # atno 6909 bound_to 6896
  144.9575  139.4748  143.5496 H   0  0  0  0  0  0  0  0  0  0  0  0  # atno 7974 bound_to 7965
  154.9187  140.0408  157.1986 H   0  0  0  0  0  0  0  0  0  0  0  0  # atno 8008 bound_to 7997
  154.8276  140.2894  155.5723 H   0  0  0  0  0  0  0  0  0  0  0  0  # atno 8009 bound_to 7997
  156.2984  140.2507  156.3195 H   0  0  0  0  0  0  0  0  0  0  0  0  # atno 8010 bound_to 7997
  140.6461  143.2536  151.4855 H   0  0  0  0  0  0  0  0  0  0  0  0  # atno 10167 bound_to 10162
  157.6960  131.0405  150.3721 H   0  0  0  0  0  0  0  0  0  0  0  0  # atno 10718 bound_to 10713
  154.6384  135.2895  155.0133 H   0  0  0  0  0  0  0  0  0  0  0  0  # atno 10763 bound_to 10752
  154.1268  135.6539  153.4918 H   0  0  0  0  0  0  0  0  0  0  0  0  # atno 10764 bound_to 10752
  153.0314  135.5301  154.7241 H   0  0  0  0  0  0  0  0  0  0  0  0  # atno 10765 bound_to 10752
  140.4655  134.6215  157.4860 H   0  0  0  0  0  0  0  0  0  0  0  0  # atno 11005 bound_to 11000
  146.3342  139.8702  142.8841 LP  0  0  0  0  0  0  0  0  0  0  0  0  # atno 17320 bound_to 7965
  145.2750  141.0121  143.3750 LP  0  0  0  0  0  0  0  0  0  0  0  0  # atno 17321 bound_to 7965
  139.5672  144.2014  152.1782 LP  0  0  0  0  0  0  0  0  0  0  0  0  # atno 17342 bound_to 10162
  140.1299  144.5297  150.6809 LP  0  0  0  0  0  0  0  0  0  0  0  0  # atno 17343 bound_to 10162
  156.4145  130.3940  149.6868 LP  0  0  0  0  0  0  0  0  0  0  0  0  # atno 17370 bound_to 10713
  156.4141  130.7736  151.2751 LP  0  0  0  0  0  0  0  0  0  0  0  0  # atno 17371 bound_to 10713
  139.9918  134.6973  155.9676 LP  0  0  0  0  0  0  0  0  0  0  0  0  # atno 17394 bound_to 11000
  141.1601  133.6539  156.4292 LP  0  0  0  0  0  0  0  0  0  0  0  0  # atno 17395 bound_to 11000

$$$$
