AV-unprocessed.smi:249|AV-procd|sdf|1917|dock4
  -GOLD-   2262021 13D 1   1.00000     0.00000
 Structure written by MMmdl.
 64 67  0  0  0  0  0  0  0  0  2 V2000
  145.9658  134.5511  151.6274 C   0  0  0  0  0  0  0  0  0  0  0  0
  145.3800  135.9720  151.5760 C   0  0  0  0  0  0  0  0  0  0  0  0
  146.3014  137.0151  152.1134 N   0  3  1  0  0  0  0  0  0  0  0  0
  146.1127  138.3265  151.4272 C   0  0  0  0  0  0  0  0  0  0  0  0
  147.1430  139.3706  151.8783 C   0  0  0  0  0  0  0  0  0  0  0  0
  147.0736  139.5698  153.3987 C   0  0  2  0  0  0  0  0  0  0  0  0
  148.0183  140.5866  153.8808 N   0  0  0  0  0  0  0  0  0  0  0  0
  147.5797  141.9678  154.0700 C   0  0  0  0  0  0  0  0  0  0  0  0
  149.1465  140.2066  154.5444 C   0  0  0  0  0  0  0  0  0  0  0  0
  150.0392  139.3854  153.9280 N   0  0  0  0  0  0  0  0  0  0  0  0
  151.1480  138.9869  154.5572 C   0  0  0  0  0  0  0  0  0  0  0  0
  151.5617  139.2889  155.7880 N   0  0  0  0  0  0  0  0  0  0  0  0
  150.6825  140.1218  156.4128 C   0  0  0  0  0  0  0  0  0  0  0  0
  149.4622  140.6219  155.8731 C   0  0  0  0  0  0  0  0  0  0  0  0
  148.8432  141.4453  156.8080 N   0  0  0  0  0  0  0  0  0  0  0  0
  149.6420  141.4239  157.8392 C   0  0  0  0  0  0  0  0  0  0  0  0
  150.7817  140.6699  157.6798 N   0  0  0  0  0  0  0  0  0  0  0  0
  151.8343  140.4702  158.6606 C   0  0  0  0  0  0  0  0  0  0  0  0
  152.7334  141.7120  158.9202 C   0  0  2  0  0  0  0  0  0  0  0  0
  153.8963  141.3080  159.8590 C   0  0  0  0  0  0  0  0  0  0  0  0
  154.7324  140.3403  159.2585 O   0  0  0  0  0  0  0  0  0  0  0  0
  151.9439  142.9322  159.4835 C   0  0  2  0  0  0  0  0  0  0  0  0
  151.4230  143.9263  158.4430 C   0  0  0  0  0  0  0  0  0  0  0  0
  151.5264  145.3007  159.1099 C   0  0  0  0  0  0  0  0  0  0  0  0
  151.9687  145.0453  160.4328 O   0  0  0  0  0  0  0  0  0  0  0  0
  152.7480  143.8646  160.3953 C   0  0  0  0  0  0  0  0  0  0  0  0
  147.2755  138.2122  154.0886 C   0  0  0  0  0  0  0  0  0  0  0  0
  146.2492  137.1638  153.6057 C   0  0  2  0  0  0  0  0  0  0  0  0
  146.5039  135.8429  154.3618 C   0  0  0  0  0  0  0  0  0  0  0  0
  145.1995  133.8167  151.3781 H   0  0  0  0  0  0  0  0  0  0  0  0
  146.3373  134.3117  152.6243 H   0  0  0  0  0  0  0  0  0  0  0  0
  146.7783  134.4088  150.9156 H   0  0  0  0  0  0  0  0  0  0  0  0
  145.0838  136.2250  150.5569 H   0  0  0  0  0  0  0  0  0  0  0  0
  144.4661  135.9326  152.1641 H   0  0  0  0  0  0  0  0  0  0  0  0
  146.2091  138.2164  150.3486 H   0  0  0  0  0  0  0  0  0  0  0  0
  145.1025  138.6934  151.6163 H   0  0  0  0  0  0  0  0  0  0  0  0
  148.1402  139.0494  151.5762 H   0  0  0  0  0  0  0  0  0  0  0  0
  146.9540  140.3135  151.3644 H   0  0  0  0  0  0  0  0  0  0  0  0
  146.0623  139.8881  153.6557 H   0  0  0  0  0  0  0  0  0  0  0  0
  148.0312  142.6117  153.3151 H   0  0  0  0  0  0  0  0  0  0  0  0
  147.8595  142.3421  155.0556 H   0  0  0  0  0  0  0  0  0  0  0  0
  146.4982  142.0650  153.9847 H   0  0  0  0  0  0  0  0  0  0  0  0
  151.7971  138.3326  153.9941 H   0  0  0  0  0  0  0  0  0  0  0  0
  149.4270  141.9734  158.7442 H   0  0  0  0  0  0  0  0  0  0  0  0
  151.3779  140.1426  159.5955 H   0  0  0  0  0  0  0  0  0  0  0  0
  152.4336  139.6305  158.3072 H   0  0  0  0  0  0  0  0  0  0  0  0
  153.1836  142.0197  157.9755 H   0  0  0  0  0  0  0  0  0  0  0  0
  154.5351  142.1582  160.0944 H   0  0  0  0  0  0  0  0  0  0  0  0
  153.5154  140.9209  160.8047 H   0  0  0  0  0  0  0  0  0  0  0  0
  155.5694  140.3516  159.6976 H   0  0  0  0  0  0  0  0  0  0  0  0
  151.0938  142.5671  160.0624 H   0  0  0  0  0  0  0  0  0  0  0  0
  152.0294  143.9171  157.5369 H   0  0  0  0  0  0  0  0  0  0  0  0
  150.3941  143.7057  158.1602 H   0  0  0  0  0  0  0  0  0  0  0  0
  152.2606  145.9227  158.5959 H   0  0  0  0  0  0  0  0  0  0  0  0
  150.5750  145.8332  159.1187 H   0  0  0  0  0  0  0  0  0  0  0  0
  152.8834  143.4635  161.4001 H   0  0  0  0  0  0  0  0  0  0  0  0
  153.7299  144.0869  159.9735 H   0  0  0  0  0  0  0  0  0  0  0  0
  148.2825  137.8356  153.9051 H   0  0  0  0  0  0  0  0  0  0  0  0
  147.1892  138.3438  155.1681 H   0  0  0  0  0  0  0  0  0  0  0  0
  145.2513  137.5166  153.8723 H   0  0  0  0  0  0  0  0  0  0  0  0
  146.6232  136.0234  155.4307 H   0  0  0  0  0  0  0  0  0  0  0  0
  147.4108  135.3498  154.0104 H   0  0  0  0  0  0  0  0  0  0  0  0
  145.6737  135.1438  154.2688 H   0  0  0  0  0  0  0  0  0  0  0  0
  147.2378  136.7058  151.8949 H   0  0  0  0  0  0  0  0  0  0  0  0
  1  2  1  0  0  0  0
  1 30  1  0  0  0  0
  1 31  1  0  0  0  0
  1 32  1  0  0  0  0
  2  3  1  0  0  0  0
  2 33  1  0  0  0  0
  2 34  1  0  0  0  0
  3 28  1  0  0  0  0
  3  4  1  0  0  0  0
  3 64  1  0  0  0  0
  4  5  1  0  0  0  0
  4 35  1  0  0  0  0
  4 36  1  0  0  0  0
  5  6  1  0  0  0  0
  5 37  1  0  0  0  0
  5 38  1  0  0  0  0
  6  7  1  0  0  0  0
  6 27  1  0  0  0  0
  6 39  1  0  0  0  0
  7  8  1  0  0  0  0
  7  9  1  0  0  0  0
  8 40  1  0  0  0  0
  8 41  1  0  0  0  0
  8 42  1  0  0  0  0
  9 14  1  0  0  0  0
  9 10  2  0  0  0  0
 10 11  1  0  0  0  0
 11 12  2  0  0  0  0
 11 43  1  0  0  0  0
 12 13  1  0  0  0  0
 13 17  1  0  0  0  0
 13 14  2  0  0  0  0
 14 15  1  0  0  0  0
 15 16  2  0  0  0  0
 16 17  1  0  0  0  0
 16 44  1  0  0  0  0
 17 18  1  0  0  0  0
 18 19  1  0  0  0  0
 18 45  1  0  0  0  0
 18 46  1  0  0  0  0
 19 20  1  0  0  0  0
 19 22  1  0  0  0  0
 19 47  1  0  0  0  0
 20 21  1  0  0  0  0
 20 48  1  0  0  0  0
 20 49  1  0  0  0  0
 21 50  1  0  0  0  0
 22 26  1  0  0  0  0
 22 23  1  0  0  0  0
 22 51  1  0  0  0  0
 23 24  1  0  0  0  0
 23 52  1  0  0  0  0
 23 53  1  0  0  0  0
 24 25  1  0  0  0  0
 24 54  1  0  0  0  0
 24 55  1  0  0  0  0
 25 26  1  0  0  0  0
 26 56  1  0  0  0  0
 26 57  1  0  0  0  0
 27 28  1  0  0  0  0
 27 58  1  0  0  0  0
 27 59  1  0  0  0  0
 28 29  1  0  0  0  0
 28 60  1  0  0  0  0
 29 61  1  0  0  0  0
 29 62  1  0  0  0  0
 29 63  1  0  0  0  0
M  CHG  1   3   1
M  END
> <s_m_source_file>
AV-unprocessed.smi

> <i_m_source_file_index>
249

> <i_lp_mmshare_version>
43012

> <i_f3d_flags>
0

> <s_epik_input>
W0NIM11bQ0gyXU4xW0NIMl1bQ0gyXVtDQEhdKFtDSDJdW0NASF0xW0NIM10pTihbQ0gzXSljKG5bY0hdbjIpYyhjMjMpbltjSF1uM1tDSDJdW0NASF0oW0NIMl1bT0hdKVtDQEBIXTRbQ0gyXVtDSDJdT1tDSDJdNA==

> <s_epik_cmdline>
J2VwaWtfcHl0aG9uJywgJy1waCcsICc3LjAnLCAnLXRuJywgJzgnLCAnLW1hJywgJzIwMCcsICctbWV0YWxfYmluZGluZycsICctaW1hZScsICc8aW5maWxlLm1hZT4nLCAnLW9tYWUnLCAnPG91dGZpbGUubWFlPic=

> <r_lp_tautomer_probability>
1

> <r_epik_Ionization_Penalty>
0.00294688

> <r_epik_Ionization_Penalty_Charging>
0.00169971

> <r_epik_Ionization_Penalty_Neutral>
0.00124717

> <r_epik_State_Penalty>
-0

> <r_epik_Charging_Adjusted_Penalty>
0.00169971

> <i_epik_Tot_Q>
1

> <i_epik_Tot_abs_Q>
1

> <r_epik_Metal_State_Penalty>
-0

> <b_epik_Metal_Only>
0

> <s_lp_Force_Field>
OPLS_2005

> <r_lp_Energy>
53.9477

> <b_lp_Chiralities_Consistent>
1

> <s_lp_Variant>
AV-unprocessed.smi:249-20

> <Gold.Version>
5.8.1

> <Gold.Id.Protein>
6NUR|6NUR_protein|mol2

> <Gold.PLP.Fitness>
55.7738

> <Gold.PLP.PLP>
-51.8373

> <Gold.PLP.part.hbond>
-2.8548

> <Gold.PLP.part.metal>
0.0000

> <Gold.PLP.part.buried>
-0.1871

> <Gold.PLP.part.nonpolar>
-51.0930

> <Gold.PLP.part.repulsive>
2.0576

> <Gold.PLP.ligand.clash>
0.0000

> <Gold.PLP.ligand.torsion>
2.7108

> <Gold.PLP.Chemscore.Hbond>
2.8580

> <Gold.PLP.Chemscore.CHOScore>
0.0000

> <Gold.PLP.Chemscore.Metal>
0.0000

> <Gold.Chemscore.Hbonds>
donor molecule, donor type, donor heavy atom, donor atom, acceptor molecule, acceptor atom, score
      L1  H     3    64       P1  7948  2.00
      P1  H  7997  8008       L1    21  0.85

> <Gold.PLP.Chemscore.Internal.Correction>
0.7840

> <Gold.Rescore>
     Score         DG    S(hbond)    S(metal)    S(lipo)     H(rot)  DE(clash)    DE(int)     intcor
     10.77     -17.18       1.22        0.00     123.15       2.65       1.85       4.56       ----

> <Gold.Chemscore.Fitness>
10.7744

> <Gold.Chemscore.DG>
-17.1831

> <Gold.Chemscore.ZeroCoef>
-5.4800

> <Gold.Chemscore.Hbond>
1.2225

> <Gold.Chemscore.Metal>
0.0000

> <Gold.Chemscore.Lipo>
123.1453

> <Gold.Chemscore.Internal_Hbond>
0.0000

> <Gold.Chemscore.DEClash>
1.8458

> <Gold.Chemscore.DEInternal>
4.5630

> <Gold.Chemscore.Rot>
2.6515

> <Gold.Chemscore.Internal.Correction>
   9.000000E+99

> <Gold.Chemscore.Hbonds>
donor molecule, donor type, donor heavy atom, donor atom, acceptor molecule, acceptor atom, score
      L1  H     3    64       P1  7948  1.00
      P1  H  7997  8008       L1    21  0.46

> <Gold.Chemscore.Hbond.Weighted>
-4.0831

> <Gold.Chemscore.Metal.Weighted>
-0.0000

> <Gold.Chemscore.Lipo.Weighted>
-14.4080

> <Gold.Chemscore.Internal_Hbond.Weighted>
0.0000

> <Gold.Chemscore.DEClash.Weighted>
1.8458

> <Gold.Chemscore.DEInternal.Weighted>
4.5630

> <Gold.Chemscore.Rot.Weighted>
6.7880

> <Gold.Chemscore.Internal.Correction.Weighted>
   9.000000E+99

> <Gold.Protein.RotatedTorsions>
[ 6907 6896 6895 6894 ] final  -24.81 input  -60.11 | X-H torsion
[ 7974 7965 7964 7962 ] final  145.68 input  175.53 | X-H torsion
[ 8008 7997 7996 7995 ] final -121.93 input   59.86 | X-H torsion
[ 10167 10162 10161 10158 ] final  -56.56 input  -65.29 | X-H torsion
[ 10718 10713 10712 10709 ] final  151.17 input   66.30 | X-H torsion
[ 10763 10752 10751 10750 ] final -145.34 input  -60.55 | X-H torsion
[ 11005 11000 10999 10996 ] final -119.89 input  -57.11 | X-H torsion

> <Gold.Protein.ActiveResidues>
 VAL166  LYS551  ARG553  GLY616  TRP617  ASP618  TYR619  PRO620  LYS621  CYS622 
 ASP623  PHE694  ASN695  SER759  ASP760  ASP761  ALA762  ILE779  LEU786  VAL792 
 PHE793  MET794  SER795  GLU796  ALA797  LYS798  CYS799  TRP800  GLU811  SER814 

> <Gold.Protein.RotatedAtoms>
  151.1842  135.0374  159.8804 H   0  0  0  0  0  0  0  0  0  0  0  0  # atno 6907 bound_to 6896
  152.5443  134.1029  159.8335 H   0  0  0  0  0  0  0  0  0  0  0  0  # atno 6908 bound_to 6896
  151.1150  133.5098  159.2636 H   0  0  0  0  0  0  0  0  0  0  0  0  # atno 6909 bound_to 6896
  144.8732  139.5813  143.5877 H   0  0  0  0  0  0  0  0  0  0  0  0  # atno 7974 bound_to 7965
  155.1560  140.0405  157.2832 H   0  0  0  0  0  0  0  0  0  0  0  0  # atno 8008 bound_to 7997
  154.6370  140.2538  155.7339 H   0  0  0  0  0  0  0  0  0  0  0  0  # atno 8009 bound_to 7997
  156.2513  140.2863  156.0747 H   0  0  0  0  0  0  0  0  0  0  0  0  # atno 8010 bound_to 7997
  140.6310  143.2459  151.5241 H   0  0  0  0  0  0  0  0  0  0  0  0  # atno 10167 bound_to 10162
  157.2741  131.0823  151.1578 H   0  0  0  0  0  0  0  0  0  0  0  0  # atno 10718 bound_to 10713
  154.8388  135.3416  154.6489 H   0  0  0  0  0  0  0  0  0  0  0  0  # atno 10763 bound_to 10752
  153.7101  135.6964  153.5044 H   0  0  0  0  0  0  0  0  0  0  0  0  # atno 10764 bound_to 10752
  153.2458  135.4369  155.0699 H   0  0  0  0  0  0  0  0  0  0  0  0  # atno 10765 bound_to 10752
  141.0183  134.0162  157.3318 H   0  0  0  0  0  0  0  0  0  0  0  0  # atno 11005 bound_to 11000
  146.2945  139.7236  142.9137 LP  0  0  0  0  0  0  0  0  0  0  0  0  # atno 17320 bound_to 7965
  145.4091  141.0394  143.3027 LP  0  0  0  0  0  0  0  0  0  0  0  0  # atno 17321 bound_to 7965
  139.5524  144.2361  152.1554 LP  0  0  0  0  0  0  0  0  0  0  0  0  # atno 17342 bound_to 10162
  140.1605  144.5030  150.6635 LP  0  0  0  0  0  0  0  0  0  0  0  0  # atno 17343 bound_to 10162
  157.3038  130.6856  149.6178 LP  0  0  0  0  0  0  0  0  0  0  0  0  # atno 17370 bound_to 10713
  155.9663  130.4384  150.5215 LP  0  0  0  0  0  0  0  0  0  0  0  0  # atno 17371 bound_to 10713
  139.9130  135.0193  156.7770 LP  0  0  0  0  0  0  0  0  0  0  0  0  # atno 17394 bound_to 11000
  140.6616  133.9640  155.7808 LP  0  0  0  0  0  0  0  0  0  0  0  0  # atno 17395 bound_to 11000

$$$$
