AV-unprocessed.smi:3320|AV-procd|sdf|12768|dock6
  -GOLD-   2272019113D 1   1.00000     0.00000
 Structure written by MMmdl.
 37 38  0  0  0  0  0  0  0  0  1 V2000
  153.5469  141.0313  160.7722 C   0  0  0  0  0  0  0  0  0  0  0  0
  153.3353  142.5519  160.7490 C   0  0  0  0  0  0  0  0  0  0  0  0
  152.7292  143.0948  162.0511 C   0  0  0  0  0  0  0  0  0  0  0  0
  152.5680  142.9951  159.5430 C   0  0  0  0  0  0  0  0  0  0  0  0
  151.8898  142.1618  158.7480 N   0  0  0  0  0  0  0  0  0  0  0  0
  151.2581  142.8185  157.6877 C   0  0  0  0  0  0  0  0  0  0  0  0
  150.4612  142.0316  156.6924 C   0  0  0  0  0  0  0  0  0  0  0  0
  150.4198  140.5342  157.0391 C   0  0  0  0  0  0  0  0  0  0  0  0
  149.4542  139.8162  156.2151 N   0  0  0  0  0  0  0  0  0  0  0  0
  149.4960  139.7326  154.8770 C   0  0  0  0  0  0  0  0  0  0  0  0
  150.3748  140.2625  154.1957 O   0  0  0  0  0  0  0  0  0  0  0  0
  148.3712  138.9239  154.2173 C   0  0  0  0  0  0  0  0  0  0  0  0
  147.3686  139.7623  153.4041 C   0  0  0  0  0  0  0  0  0  0  0  0
  146.2359  138.9552  154.0454 C   0  0  0  0  0  0  0  0  0  0  0  0
  147.2099  138.5608  155.1597 C   0  0  0  0  0  0  0  0  0  0  0  0
  151.4663  144.1750  157.6912 C   0  0  0  0  0  0  0  0  0  0  0  0
  152.4664  144.6753  159.0270 S   0  0  0  0  0  0  0  0  0  0  0  0
  154.0532  140.6916  159.8682 H   0  0  0  0  0  0  0  0  0  0  0  0
  152.5972  140.4998  160.8420 H   0  0  0  0  0  0  0  0  0  0  0  0
  154.1573  140.7327  161.6248 H   0  0  0  0  0  0  0  0  0  0  0  0
  154.3267  142.9985  160.6623 H   0  0  0  0  0  0  0  0  0  0  0  0
  152.6680  144.1834  162.0311 H   0  0  0  0  0  0  0  0  0  0  0  0
  153.3348  142.8140  162.9132 H   0  0  0  0  0  0  0  0  0  0  0  0
  151.7229  142.7070  162.2122 H   0  0  0  0  0  0  0  0  0  0  0  0
  149.4459  142.4270  156.6415 H   0  0  0  0  0  0  0  0  0  0  0  0
  150.8814  142.1610  155.6943 H   0  0  0  0  0  0  0  0  0  0  0  0
  151.4015  140.0892  156.8748 H   0  0  0  0  0  0  0  0  0  0  0  0
  150.1878  140.3912  158.0960 H   0  0  0  0  0  0  0  0  0  0  0  0
  148.6975  139.3524  156.6966 H   0  0  0  0  0  0  0  0  0  0  0  0
  148.7280  138.0577  153.6563 H   0  0  0  0  0  0  0  0  0  0  0  0
  147.3383  140.8189  153.6763 H   0  0  0  0  0  0  0  0  0  0  0  0
  147.4474  139.6338  152.3242 H   0  0  0  0  0  0  0  0  0  0  0  0
  145.3835  139.5498  154.3755 H   0  0  0  0  0  0  0  0  0  0  0  0
  145.9263  138.1049  153.4358 H   0  0  0  0  0  0  0  0  0  0  0  0
  147.1667  137.5060  155.4331 H   0  0  0  0  0  0  0  0  0  0  0  0
  147.1267  139.2027  156.0388 H   0  0  0  0  0  0  0  0  0  0  0  0
  151.0950  144.9078  156.9903 H   0  0  0  0  0  0  0  0  0  0  0  0
  1  2  1  0  0  0  0
  1 18  1  0  0  0  0
  1 19  1  0  0  0  0
  1 20  1  0  0  0  0
  2  3  1  0  0  0  0
  2  4  1  0  0  0  0
  2 21  1  0  0  0  0
  3 22  1  0  0  0  0
  3 23  1  0  0  0  0
  3 24  1  0  0  0  0
  4 17  1  0  0  0  0
  4  5  2  0  0  0  0
  5  6  1  0  0  0  0
  6  7  1  0  0  0  0
  6 16  2  0  0  0  0
  7  8  1  0  0  0  0
  7 25  1  0  0  0  0
  7 26  1  0  0  0  0
  8  9  1  0  0  0  0
  8 27  1  0  0  0  0
  8 28  1  0  0  0  0
  9 10  1  0  0  0  0
  9 29  1  0  0  0  0
 10 11  2  0  0  0  0
 10 12  1  0  0  0  0
 12 15  1  0  0  0  0
 12 13  1  0  0  0  0
 12 30  1  0  0  0  0
 13 14  1  0  0  0  0
 13 31  1  0  0  0  0
 13 32  1  0  0  0  0
 14 15  1  0  0  0  0
 14 33  1  0  0  0  0
 14 34  1  0  0  0  0
 15 35  1  0  0  0  0
 15 36  1  0  0  0  0
 16 17  1  0  0  0  0
 16 37  1  0  0  0  0
M  END
> <s_m_source_file>
AV-unprocessed.smi

> <i_m_source_file_index>
3320

> <i_lp_mmshare_version>
43012

> <i_f3d_flags>
0

> <s_epik_input>
W0NIM11bQ0hdKFtDSDNdKWMxbmMoW2NIXXMxKVtDSDJdW0NIMl1bTkhdQyg9TylbQ0hdMltDSDJdW0NIMl1bQ0gyXTI=

> <s_epik_cmdline>
J2VwaWtfcHl0aG9uJywgJy1waCcsICc3LjAnLCAnLXRuJywgJzgnLCAnLW1hJywgJzIwMCcsICctbWV0YWxfYmluZGluZycsICctaW1hZScsICc8aW5maWxlLm1hZT4nLCAnLW9tYWUnLCAnPG91dGZpbGUubWFlPic=

> <r_epik_Ionization_Penalty>
0.000842111

> <r_epik_Ionization_Penalty_Charging>
0

> <r_epik_Ionization_Penalty_Neutral>
0.000842111

> <r_epik_State_Penalty>
0.000542609

> <r_epik_Charging_Adjusted_Penalty>
0.000542609

> <i_epik_Tot_Q>
0

> <i_epik_Tot_abs_Q>
0

> <r_epik_Metal_State_Penalty>
-0

> <b_epik_Metal_Only>
0

> <s_lp_Force_Field>
OPLS_2005

> <r_lp_Energy>
-0.445202

> <b_lp_Chiralities_Consistent>
1

> <s_lp_Variant>
AV-unprocessed.smi:3320-1

> <Gold.Version>
5.8.1

> <Gold.Id.Protein>
6NUR|6NUR_protein|mol2

> <Gold.PLP.Fitness>
43.9967

> <Gold.PLP.PLP>
-38.4183

> <Gold.PLP.part.hbond>
-0.8007

> <Gold.PLP.part.metal>
0.0000

> <Gold.PLP.part.buried>
-4.5063

> <Gold.PLP.part.nonpolar>
-33.8842

> <Gold.PLP.part.repulsive>
0.2972

> <Gold.PLP.ligand.clash>
0.0000

> <Gold.PLP.ligand.torsion>
0.4377

> <Gold.PLP.Chemscore.Hbond>
1.0000

> <Gold.PLP.Chemscore.CHOScore>
0.9875

> <Gold.PLP.Chemscore.Metal>
0.0000

> <Gold.Chemscore.Hbonds>
donor molecule, donor type, donor heavy atom, donor atom, acceptor molecule, acceptor atom, score
      P1  H  7989  7998       L1    11  1.00
      L1  C    16    37       P1  8028  0.91

> <Gold.PLP.Chemscore.Internal.Correction>
0.4914

> <Gold.Rescore>
     Score         DG    S(hbond)    S(metal)    S(lipo)     H(rot)  DE(clash)    DE(int)     intcor
     17.36     -17.73       0.98        0.00     109.20       1.49       0.09       0.27       ----

> <Gold.Chemscore.Fitness>
17.3616

> <Gold.Chemscore.DG>
-17.7263

> <Gold.Chemscore.ZeroCoef>
-5.4800

> <Gold.Chemscore.Hbond>
0.9809

> <Gold.Chemscore.Metal>
0.0000

> <Gold.Chemscore.Lipo>
109.2030

> <Gold.Chemscore.Internal_Hbond>
0.0000

> <Gold.Chemscore.DEClash>
0.0914

> <Gold.Chemscore.DEInternal>
0.2733

> <Gold.Chemscore.Rot>
1.4870

> <Gold.Chemscore.Internal.Correction>
   9.000000E+99

> <Gold.Chemscore.Hbonds>
donor molecule, donor type, donor heavy atom, donor atom, acceptor molecule, acceptor atom, score
      P1  H  7989  7998       L1    11  0.91

> <Gold.Chemscore.Hbond.Weighted>
-3.2762

> <Gold.Chemscore.Metal.Weighted>
-0.0000

> <Gold.Chemscore.Lipo.Weighted>
-12.7768

> <Gold.Chemscore.Internal_Hbond.Weighted>
0.0000

> <Gold.Chemscore.DEClash.Weighted>
0.0914

> <Gold.Chemscore.DEInternal.Weighted>
0.2733

> <Gold.Chemscore.Rot.Weighted>
3.8067

> <Gold.Chemscore.Internal.Correction.Weighted>
   9.000000E+99

> <Gold.Protein.RotatedTorsions>
[ 6907 6896 6895 6894 ] final  -88.02 input  -60.11 | X-H torsion
[ 7974 7965 7964 7962 ] final   83.84 input  175.53 | X-H torsion
[ 8008 7997 7996 7995 ] final  142.32 input   59.86 | X-H torsion
[ 10167 10162 10161 10158 ] final -122.31 input  -65.29 | X-H torsion
[ 10718 10713 10712 10709 ] final  -80.78 input   66.30 | X-H torsion
[ 10763 10752 10751 10750 ] final  118.35 input  -60.55 | X-H torsion
[ 11005 11000 10999 10996 ] final  116.96 input  -57.11 | X-H torsion

> <Gold.Protein.ActiveResidues>
 VAL166  LYS551  ARG553  GLY616  TRP617  ASP618  TYR619  PRO620  LYS621  CYS622 
 ASP623  PHE694  ASN695  SER759  ASP760  ASP761  ALA762  ILE779  LEU786  VAL792 
 PHE793  MET794  SER795  GLU796  ALA797  LYS798  CYS799  TRP800  GLU811  SER814 

> <Gold.Protein.RotatedAtoms>
  150.6867  134.2806  159.4625 H   0  0  0  0  0  0  0  0  0  0  0  0  # atno 6907 bound_to 6896
  152.0721  134.9524  160.0583 H   0  0  0  0  0  0  0  0  0  0  0  0  # atno 6908 bound_to 6896
  152.0910  133.4166  159.4581 H   0  0  0  0  0  0  0  0  0  0  0  0  # atno 6909 bound_to 6896
  145.6066  139.2361  143.2216 H   0  0  0  0  0  0  0  0  0  0  0  0  # atno 7974 bound_to 7965
  156.2951  140.2292  156.4709 H   0  0  0  0  0  0  0  0  0  0  0  0  # atno 8008 bound_to 7997
  154.7936  140.0452  157.1240 H   0  0  0  0  0  0  0  0  0  0  0  0  # atno 8009 bound_to 7997
  154.9616  140.3055  155.5031 H   0  0  0  0  0  0  0  0  0  0  0  0  # atno 8010 bound_to 7997
  140.0157  143.5396  152.2243 H   0  0  0  0  0  0  0  0  0  0  0  0  # atno 10167 bound_to 10162
  156.0063  130.4584  150.3852 H   0  0  0  0  0  0  0  0  0  0  0  0  # atno 10718 bound_to 10713
  153.5663  135.3511  155.2820 H   0  0  0  0  0  0  0  0  0  0  0  0  # atno 10763 bound_to 10752
  154.8688  135.4148  154.2774 H   0  0  0  0  0  0  0  0  0  0  0  0  # atno 10764 bound_to 10752
  153.3531  135.7056  153.6842 H   0  0  0  0  0  0  0  0  0  0  0  0  # atno 10765 bound_to 10752
  139.9058  134.9604  156.7278 H   0  0  0  0  0  0  0  0  0  0  0  0  # atno 11005 bound_to 11000
  146.1536  140.6890  142.9310 LP  0  0  0  0  0  0  0  0  0  0  0  0  # atno 17320 bound_to 7965
  144.7287  140.4606  143.6954 LP  0  0  0  0  0  0  0  0  0  0  0  0  # atno 17321 bound_to 7965
  139.6174  144.7622  151.2815 LP  0  0  0  0  0  0  0  0  0  0  0  0  # atno 17342 bound_to 10162
  140.7363  143.6711  150.8081 LP  0  0  0  0  0  0  0  0  0  0  0  0  # atno 17343 bound_to 10162
  157.1930  131.0420  151.2690 LP  0  0  0  0  0  0  0  0  0  0  0  0  # atno 17370 bound_to 10713
  157.4044  130.7351  149.6791 LP  0  0  0  0  0  0  0  0  0  0  0  0  # atno 17371 bound_to 10713
  140.6949  133.9357  155.7989 LP  0  0  0  0  0  0  0  0  0  0  0  0  # atno 17394 bound_to 11000
  141.0414  134.0616  157.3897 LP  0  0  0  0  0  0  0  0  0  0  0  0  # atno 17395 bound_to 11000

$$$$
