AV-unprocessed.smi:636|AV-procd|sdf|3140|dock2
  -GOLD-   22720 0 63D 1   1.00000     0.00000
 Structure written by MMmdl.
 39 41  0  0  0  0  0  0  0  0  1 V2000
  153.0610  142.6295  162.6360 O   0  0  0  0  0  0  0  0  0  0  0  0
  154.0430  141.8916  162.5680 C   0  0  0  0  0  0  0  0  0  0  0  0
  154.4041  141.2554  161.2142 C   0  0  0  0  0  0  0  0  0  0  0  0
  153.4686  141.5608  160.1161 N   0  0  0  0  0  0  0  0  0  0  0  0
  153.1987  142.9205  159.8710 C   0  0  0  0  0  0  0  0  0  0  0  0
  152.3645  143.3376  158.9011 C   0  0  0  0  0  0  0  0  0  0  0  0
  152.0385  144.8098  158.7046 C   0  0  0  0  0  0  0  0  0  0  0  0
  150.7243  145.0000  158.8091 F   0  0  0  0  0  0  0  0  0  0  0  0
  152.6418  145.5613  159.6255 F   0  0  0  0  0  0  0  0  0  0  0  0
  152.4251  145.2323  157.5004 F   0  0  0  0  0  0  0  0  0  0  0  0
  151.7185  142.3034  158.1184 C   0  0  0  0  0  0  0  0  0  0  0  0
  151.9502  140.9944  158.3439 C   0  0  0  0  0  0  0  0  0  0  0  0
  151.1519  139.8035  157.3804 Cl  0  0  0  0  0  0  0  0  0  0  0  0
  152.8735  140.5599  159.3999 C   0  0  0  0  0  0  0  0  0  0  0  0
  153.0957  139.3717  159.6360 O   0  0  0  0  0  0  0  0  0  0  0  0
  154.8201  141.6107  163.6283 N   0  0  0  0  0  0  0  0  0  0  0  0
  154.6401  142.1154  164.9840 C   0  0  0  0  0  0  0  0  0  0  0  0
  154.8389  143.6194  165.0757 C   0  0  0  0  0  0  0  0  0  0  0  0
  156.1723  144.2149  165.4628 C   0  0  0  0  0  0  0  0  0  0  0  0
  154.9973  144.3134  166.4080 C   0  0  0  0  0  0  0  0  0  0  0  0
  155.5556  141.4024  165.9619 C   0  0  0  0  0  0  0  0  0  0  0  0
  155.2307  140.0158  166.4631 C   0  0  0  0  0  0  0  0  0  0  0  0
  155.1628  141.1969  167.4056 C   0  0  0  0  0  0  0  0  0  0  0  0
  155.4093  141.5841  160.9464 H   0  0  0  0  0  0  0  0  0  0  0  0
  154.4930  140.1764  161.3521 H   0  0  0  0  0  0  0  0  0  0  0  0
  153.7060  143.6048  160.5357 H   0  0  0  0  0  0  0  0  0  0  0  0
  151.0355  142.5859  157.3308 H   0  0  0  0  0  0  0  0  0  0  0  0
  155.6046  140.9926  163.4818 H   0  0  0  0  0  0  0  0  0  0  0  0
  153.6158  141.8983  165.2939 H   0  0  0  0  0  0  0  0  0  0  0  0
  154.2846  144.1732  164.3200 H   0  0  0  0  0  0  0  0  0  0  0  0
  156.9762  143.5355  165.7379 H   0  0  0  0  0  0  0  0  0  0  0  0
  156.4837  145.1229  164.9504 H   0  0  0  0  0  0  0  0  0  0  0  0
  154.5237  145.2858  166.5256 H   0  0  0  0  0  0  0  0  0  0  0  0
  155.0245  143.6970  167.3044 H   0  0  0  0  0  0  0  0  0  0  0  0
  156.6116  141.6018  165.7879 H   0  0  0  0  0  0  0  0  0  0  0  0
  154.2889  139.5705  166.1486 H   0  0  0  0  0  0  0  0  0  0  0  0
  156.0580  139.3200  166.5854 H   0  0  0  0  0  0  0  0  0  0  0  0
  155.9452  141.2887  168.1560 H   0  0  0  0  0  0  0  0  0  0  0  0
  154.1748  141.5275  167.7191 H   0  0  0  0  0  0  0  0  0  0  0  0
  1  2  2  0  0  0  0
  2  3  1  0  0  0  0
  2 16  1  0  0  0  0
  3  4  1  0  0  0  0
  3 24  1  0  0  0  0
  3 25  1  0  0  0  0
  4 14  1  0  0  0  0
  4  5  1  0  0  0  0
  5  6  2  0  0  0  0
  5 26  1  0  0  0  0
  6  7  1  0  0  0  0
  6 11  1  0  0  0  0
  7  8  1  0  0  0  0
  7  9  1  0  0  0  0
  7 10  1  0  0  0  0
 11 12  2  0  0  0  0
 11 27  1  0  0  0  0
 12 13  1  0  0  0  0
 12 14  1  0  0  0  0
 14 15  2  0  0  0  0
 16 17  1  0  0  0  0
 16 28  1  0  0  0  0
 17 18  1  0  0  0  0
 17 21  1  0  0  0  0
 17 29  1  0  0  0  0
 18 20  1  0  0  0  0
 18 19  1  0  0  0  0
 18 30  1  0  0  0  0
 19 20  1  0  0  0  0
 19 31  1  0  0  0  0
 19 32  1  0  0  0  0
 20 33  1  0  0  0  0
 20 34  1  0  0  0  0
 21 23  1  0  0  0  0
 21 22  1  0  0  0  0
 21 35  1  0  0  0  0
 22 23  1  0  0  0  0
 22 36  1  0  0  0  0
 22 37  1  0  0  0  0
 23 38  1  0  0  0  0
 23 39  1  0  0  0  0
M  END
> <s_m_source_file>
AV-unprocessed.smi

> <i_m_source_file_index>
636

> <i_lp_mmshare_version>
43012

> <i_f3d_flags>
0

> <s_epik_input>
W0NIMl0xW0NIMl1bQ0hdMVtDSF0oW0NIXTJbQ0gyXVtDSDJdMilbTkhdQyg9TylbQ0gyXW4zW2NIXWMoQyhGKShGKUYpW2NIXWMoQ2wpYzM9Tw==

> <s_epik_cmdline>
J2VwaWtfcHl0aG9uJywgJy1waCcsICc3LjAnLCAnLXRuJywgJzgnLCAnLW1hJywgJzIwMCcsICctbWV0YWxfYmluZGluZycsICctaW1hZScsICc8aW5maWxlLm1hZT4nLCAnLW9tYWUnLCAnPG91dGZpbGUubWFlPic=

> <r_lp_tautomer_probability>
1

> <r_epik_Ionization_Penalty>
2.07964e-08

> <r_epik_Ionization_Penalty_Charging>
3.83819e-10

> <r_epik_Ionization_Penalty_Neutral>
2.04126e-08

> <r_epik_State_Penalty>
-0

> <r_epik_Charging_Adjusted_Penalty>
3.83819e-10

> <i_epik_Tot_Q>
0

> <i_epik_Tot_abs_Q>
0

> <r_epik_Metal_State_Penalty>
-0

> <b_epik_Metal_Only>
0

> <s_lp_Force_Field>
OPLS_2005

> <r_lp_Energy>
34.6708

> <b_lp_Chiralities_Consistent>
1

> <s_lp_Variant>
AV-unprocessed.smi:636-1

> <Gold.Version>
5.8.1

> <Gold.Id.Protein>
6NUR|6NUR_protein|mol2

> <Gold.PLP.Fitness>
51.5669

> <Gold.PLP.PLP>
-53.2196

> <Gold.PLP.part.hbond>
-1.0000

> <Gold.PLP.part.metal>
0.0000

> <Gold.PLP.part.buried>
-1.4858

> <Gold.PLP.part.nonpolar>
-50.1263

> <Gold.PLP.part.repulsive>
0.0942

> <Gold.PLP.ligand.clash>
1.4418

> <Gold.PLP.ligand.torsion>
1.2436

> <Gold.PLP.Chemscore.Hbond>
0.0000

> <Gold.PLP.Chemscore.CHOScore>
0.0000

> <Gold.PLP.Chemscore.Metal>
0.0000

> <Gold.PLP.Chemscore.Internal.Correction>
2.2761

> <Gold.Rescore>
     Score         DG    S(hbond)    S(metal)    S(lipo)     H(rot)  DE(clash)    DE(int)     intcor
      9.55     -14.57       0.00        0.00     119.21       1.90       2.33       2.69       ----

> <Gold.Chemscore.Fitness>
9.5457

> <Gold.Chemscore.DG>
-14.5685

> <Gold.Chemscore.ZeroCoef>
-5.4800

> <Gold.Chemscore.Hbond>
0.0000

> <Gold.Chemscore.Metal>
0.0000

> <Gold.Chemscore.Lipo>
119.2052

> <Gold.Chemscore.Internal_Hbond>
0.0000

> <Gold.Chemscore.DEClash>
2.3293

> <Gold.Chemscore.DEInternal>
2.6935

> <Gold.Chemscore.Rot>
1.8979

> <Gold.Chemscore.Internal.Correction>
   9.000000E+99

> <Gold.Chemscore.Hbond.Weighted>
-0.0000

> <Gold.Chemscore.Metal.Weighted>
-0.0000

> <Gold.Chemscore.Lipo.Weighted>
-13.9470

> <Gold.Chemscore.Internal_Hbond.Weighted>
0.0000

> <Gold.Chemscore.DEClash.Weighted>
2.3293

> <Gold.Chemscore.DEInternal.Weighted>
2.6935

> <Gold.Chemscore.Rot.Weighted>
4.8586

> <Gold.Chemscore.Internal.Correction.Weighted>
   9.000000E+99

> <Gold.Protein.RotatedTorsions>
[ 6907 6896 6895 6894 ] final  174.89 input  -60.11 | X-H torsion
[ 7974 7965 7964 7962 ] final  110.16 input  175.53 | X-H torsion
[ 8008 7997 7996 7995 ] final  -75.49 input   59.86 | X-H torsion
[ 10167 10162 10161 10158 ] final   23.80 input  -65.29 | X-H torsion
[ 10718 10713 10712 10709 ] final -148.36 input   66.30 | X-H torsion
[ 10763 10752 10751 10750 ] final  -94.71 input  -60.55 | X-H torsion
[ 11005 11000 10999 10996 ] final  -81.99 input  -57.11 | X-H torsion

> <Gold.Protein.ActiveResidues>
 VAL166  LYS551  ARG553  GLY616  TRP617  ASP618  TYR619  PRO620  LYS621  CYS622 
 ASP623  PHE694  ASN695  SER759  ASP760  ASP761  ALA762  ILE779  LEU786  VAL792 
 PHE793  MET794  SER795  GLU796  ALA797  LYS798  CYS799  TRP800  GLU811  SER814 

> <Gold.Protein.RotatedAtoms>
  151.7451  133.3324  159.3375 H   0  0  0  0  0  0  0  0  0  0  0  0  # atno 6907 bound_to 6896
  150.7558  134.6243  159.6162 H   0  0  0  0  0  0  0  0  0  0  0  0  # atno 6908 bound_to 6896
  152.3505  134.7013  160.0289 H   0  0  0  0  0  0  0  0  0  0  0  0  # atno 6909 bound_to 6896
  145.2585  139.2711  143.4029 H   0  0  0  0  0  0  0  0  0  0  0  0  # atno 7974 bound_to 7965
  154.5421  140.0743  156.8527 H   0  0  0  0  0  0  0  0  0  0  0  0  # atno 8008 bound_to 7997
  155.3160  140.3393  155.4224 H   0  0  0  0  0  0  0  0  0  0  0  0  # atno 8009 bound_to 7997
  156.1884  140.1677  156.8126 H   0  0  0  0  0  0  0  0  0  0  0  0  # atno 8010 bound_to 7997
  140.5239  143.9955  150.6431 H   0  0  0  0  0  0  0  0  0  0  0  0  # atno 10167 bound_to 10162
  156.4193  130.8020  151.2242 H   0  0  0  0  0  0  0  0  0  0  0  0  # atno 10718 bound_to 10713
  154.7080  135.5147  153.8624 H   0  0  0  0  0  0  0  0  0  0  0  0  # atno 10763 bound_to 10752
  153.0757  135.6615  154.0160 H   0  0  0  0  0  0  0  0  0  0  0  0  # atno 10764 bound_to 10752
  154.0007  135.3011  155.3382 H   0  0  0  0  0  0  0  0  0  0  0  0  # atno 10765 bound_to 10752
  141.1665  133.7223  156.8504 H   0  0  0  0  0  0  0  0  0  0  0  0  # atno 11005 bound_to 11000
  146.3282  140.2996  142.8620 LP  0  0  0  0  0  0  0  0  0  0  0  0  # atno 17320 bound_to 7965
  144.9439  140.8108  143.5613 LP  0  0  0  0  0  0  0  0  0  0  0  0  # atno 17321 bound_to 7965
  140.3312  143.3076  152.0685 LP  0  0  0  0  0  0  0  0  0  0  0  0  # atno 17342 bound_to 10162
  139.4932  144.6508  151.6680 LP  0  0  0  0  0  0  0  0  0  0  0  0  # atno 17343 bound_to 10162
  157.7508  131.0233  150.3829 LP  0  0  0  0  0  0  0  0  0  0  0  0  # atno 17370 bound_to 10713
  156.4143  130.3940  149.6869 LP  0  0  0  0  0  0  0  0  0  0  0  0  # atno 17371 bound_to 10713
  140.1919  134.8959  157.3070 LP  0  0  0  0  0  0  0  0  0  0  0  0  # atno 17394 bound_to 11000
  140.2280  134.3943  155.7534 LP  0  0  0  0  0  0  0  0  0  0  0  0  # atno 17395 bound_to 11000

$$$$
