AV-unprocessed.smi:1798|AV-procd|sdf|7260|dock5
  -GOLD-   22720 8513D 1   1.00000     0.00000
 Structure written by MMmdl.
 40 41  0  0  0  0  0  0  0  0  3 V2000
  143.6813  134.8448  162.4091 C   0  0  0  0  0  0  0  0  0  0  0  0
  145.1656  135.2011  162.5743 C   0  0  2  0  0  0  0  0  0  0  0  0
  145.4616  136.6288  162.0765 C   0  0  0  0  0  0  0  0  0  0  0  0
  146.9495  136.9900  162.2358 C   0  0  0  0  0  0  0  0  0  0  0  0
  147.8762  135.9706  161.5456 C   0  0  2  0  0  0  0  0  0  0  0  0
  147.7655  136.0899  160.0927 N   0  0  0  0  0  0  0  0  0  0  0  0
  148.7538  136.4546  159.2623 C   0  0  0  0  0  0  0  0  0  0  0  0
  149.8923  136.7267  159.6462 O   0  0  0  0  0  0  0  0  0  0  0  0
  148.3928  136.4951  157.7705 C   0  0  0  0  0  0  0  0  0  0  0  0
  148.9465  137.6645  157.0672 N   0  0  0  0  0  0  0  0  0  0  0  0
  150.0950  137.4528  156.2791 C   0  0  0  0  0  0  0  0  0  0  0  0
  150.6891  138.4510  155.5964 C   0  0  0  0  0  0  0  0  0  0  0  0
  151.8702  138.2161  154.7950 N   0  3  0  0  0  0  0  0  0  0  0  0
  152.2113  137.0584  154.5756 O   0  0  0  0  0  0  0  0  0  0  0  0
  152.4958  139.1783  154.3596 O   0  5  0  0  0  0  0  0  0  0  0  0
  150.1051  139.7748  155.6936 C   0  0  0  0  0  0  0  0  0  0  0  0
  149.0092  139.9847  156.4491 C   0  0  0  0  0  0  0  0  0  0  0  0
  148.3667  138.8972  157.1944 C   0  0  0  0  0  0  0  0  0  0  0  0
  147.3685  139.0837  157.8903 O   0  0  0  0  0  0  0  0  0  0  0  0
  147.5612  134.5361  162.0203 C   0  0  0  0  0  0  0  0  0  0  0  0
  146.0725  134.1823  161.8581 C   0  0  0  0  0  0  0  0  0  0  0  0
  143.3831  134.8618  161.3604 H   0  0  0  0  0  0  0  0  0  0  0  0
  143.0465  135.5491  162.9477 H   0  0  0  0  0  0  0  0  0  0  0  0
  143.4711  133.8484  162.7985 H   0  0  0  0  0  0  0  0  0  0  0  0
  145.3952  135.1633  163.6403 H   0  0  0  0  0  0  0  0  0  0  0  0
  145.1708  136.7228  161.0296 H   0  0  0  0  0  0  0  0  0  0  0  0
  144.8536  137.3476  162.6273 H   0  0  0  0  0  0  0  0  0  0  0  0
  147.1350  137.9925  161.8480 H   0  0  0  0  0  0  0  0  0  0  0  0
  147.1920  137.0285  163.2985 H   0  0  0  0  0  0  0  0  0  0  0  0
  148.9031  136.2123  161.8258 H   0  0  0  0  0  0  0  0  0  0  0  0
  146.8644  135.8779  159.6892 H   0  0  0  0  0  0  0  0  0  0  0  0
  148.7451  135.5707  157.3106 H   0  0  0  0  0  0  0  0  0  0  0  0
  147.3067  136.4702  157.6623 H   0  0  0  0  0  0  0  0  0  0  0  0
  150.4556  136.4342  156.2779 H   0  0  0  0  0  0  0  0  0  0  0  0
  150.5425  140.6075  155.1627 H   0  0  0  0  0  0  0  0  0  0  0  0
  148.5912  140.9789  156.5086 H   0  0  0  0  0  0  0  0  0  0  0  0
  148.1773  133.8114  161.4867 H   0  0  0  0  0  0  0  0  0  0  0  0
  147.8338  134.4429  163.0725 H   0  0  0  0  0  0  0  0  0  0  0  0
  145.8929  133.1821  162.2536 H   0  0  0  0  0  0  0  0  0  0  0  0
  145.8189  134.1419  160.7978 H   0  0  0  0  0  0  0  0  0  0  0  0
  1  2  1  0  0  0  0
  1 22  1  0  0  0  0
  1 23  1  0  0  0  0
  1 24  1  0  0  0  0
  2 21  1  0  0  0  0
  2  3  1  0  0  0  0
  2 25  1  0  0  0  0
  3  4  1  0  0  0  0
  3 26  1  0  0  0  0
  3 27  1  0  0  0  0
  4  5  1  0  0  0  0
  4 28  1  0  0  0  0
  4 29  1  0  0  0  0
  5  6  1  0  0  0  0
  5 20  1  0  0  0  0
  5 30  1  0  0  0  0
  6  7  1  0  0  0  0
  6 31  1  0  0  0  0
  7  8  2  0  0  0  0
  7  9  1  0  0  0  0
  9 10  1  0  0  0  0
  9 32  1  0  0  0  0
  9 33  1  0  0  0  0
 10 18  1  0  0  0  0
 10 11  1  0  0  0  0
 11 12  2  0  0  0  0
 11 34  1  0  0  0  0
 12 13  1  0  0  0  0
 12 16  1  0  0  0  0
 13 14  2  0  0  0  0
 13 15  1  0  0  0  0
 16 17  2  0  0  0  0
 16 35  1  0  0  0  0
 17 18  1  0  0  0  0
 17 36  1  0  0  0  0
 18 19  2  0  0  0  0
 20 21  1  0  0  0  0
 20 37  1  0  0  0  0
 20 38  1  0  0  0  0
 21 39  1  0  0  0  0
 21 40  1  0  0  0  0
M  CHG  1  13   1
M  CHG  1  15  -1
M  END
> <s_m_source_file>
AV-unprocessed.smi

> <i_m_source_file_index>
1798

> <i_lp_mmshare_version>
43012

> <i_f3d_flags>
0

> <s_epik_input>
W0NIM11bQ0BASF0xW0NIMl1bQ0gyXVtDQEhdKFtDSDJdW0NIMl0xKVtOSF1DKD1PKVtDSDJdbjJbY0hdYyhbTitdKD1PKVtPLV0pW2NIXVtjSF1jMj1P

> <s_epik_cmdline>
J2VwaWtfcHl0aG9uJywgJy1waCcsICc3LjAnLCAnLXRuJywgJzgnLCAnLW1hJywgJzIwMCcsICctbWV0YWxfYmluZGluZycsICctaW1hZScsICc8aW5maWxlLm1hZT4nLCAnLW9tYWUnLCAnPG91dGZpbGUubWFlPic=

> <r_lp_tautomer_probability>
1

> <r_epik_Ionization_Penalty>
1.91292e-08

> <r_epik_Ionization_Penalty_Charging>
8.23013e-11

> <r_epik_Ionization_Penalty_Neutral>
1.90469e-08

> <r_epik_State_Penalty>
-0

> <r_epik_Charging_Adjusted_Penalty>
8.23013e-11

> <i_epik_Tot_Q>
0

> <i_epik_Tot_abs_Q>
2

> <r_epik_Metal_State_Penalty>
-0

> <b_epik_Metal_Only>
0

> <s_lp_Force_Field>
OPLS_2005

> <r_lp_Energy>
19.5482

> <b_lp_Chiralities_Consistent>
1

> <s_lp_Variant>
AV-unprocessed.smi:1798-2

> <Gold.Version>
5.8.1

> <Gold.Id.Protein>
6NUR|6NUR_protein|mol2

> <Gold.PLP.Fitness>
42.5454

> <Gold.PLP.PLP>
-34.5622

> <Gold.PLP.part.hbond>
-5.3617

> <Gold.PLP.part.metal>
0.0000

> <Gold.PLP.part.buried>
-6.5720

> <Gold.PLP.part.nonpolar>
-23.2104

> <Gold.PLP.part.repulsive>
0.2579

> <Gold.PLP.ligand.clash>
0.0000

> <Gold.PLP.ligand.torsion>
0.5421

> <Gold.PLP.Chemscore.Hbond>
3.0184

> <Gold.PLP.Chemscore.CHOScore>
0.0000

> <Gold.PLP.Chemscore.Metal>
0.0000

> <Gold.Chemscore.Hbonds>
donor molecule, donor type, donor heavy atom, donor atom, acceptor molecule, acceptor atom, score
      P1  H  6896  6909       L1     8  0.96
      P1  H  7989  7998       L1    15  0.57
      P1  H 10752 10765       L1    14  0.83

> <Gold.PLP.Chemscore.Internal.Correction>
0.0122

> <Gold.Rescore>
     Score         DG    S(hbond)    S(metal)    S(lipo)     H(rot)  DE(clash)    DE(int)     intcor
     18.84     -19.44       2.80        0.00      73.26       1.55       0.06       0.54       ----

> <Gold.Chemscore.Fitness>
18.8422

> <Gold.Chemscore.DG>
-19.4415

> <Gold.Chemscore.ZeroCoef>
-5.4800

> <Gold.Chemscore.Hbond>
2.8021

> <Gold.Chemscore.Metal>
0.0000

> <Gold.Chemscore.Lipo>
73.2611

> <Gold.Chemscore.Internal_Hbond>
0.0000

> <Gold.Chemscore.DEClash>
0.0553

> <Gold.Chemscore.DEInternal>
0.5440

> <Gold.Chemscore.Rot>
1.5505

> <Gold.Chemscore.Internal.Correction>
   9.000000E+99

> <Gold.Chemscore.Hbonds>
donor molecule, donor type, donor heavy atom, donor atom, acceptor molecule, acceptor atom, score
      P1  H  6896  6909       L1     8  0.72
      P1  H  7989  7998       L1    15  0.54
      P1  H 10752 10765       L1    14  0.82

> <Gold.Chemscore.Hbond.Weighted>
-9.3591

> <Gold.Chemscore.Metal.Weighted>
-0.0000

> <Gold.Chemscore.Lipo.Weighted>
-8.5715

> <Gold.Chemscore.Internal_Hbond.Weighted>
0.0000

> <Gold.Chemscore.DEClash.Weighted>
0.0553

> <Gold.Chemscore.DEInternal.Weighted>
0.5440

> <Gold.Chemscore.Rot.Weighted>
3.9692

> <Gold.Chemscore.Internal.Correction.Weighted>
   9.000000E+99

> <Gold.Protein.RotatedTorsions>
[ 6907 6896 6895 6894 ] final   87.05 input  -60.11 | X-H torsion
[ 7974 7965 7964 7962 ] final  -64.91 input  175.53 | X-H torsion
[ 8008 7997 7996 7995 ] final  -17.33 input   59.86 | X-H torsion
[ 10167 10162 10161 10158 ] final -159.90 input  -65.29 | X-H torsion
[ 10718 10713 10712 10709 ] final  -90.23 input   66.30 | X-H torsion
[ 10763 10752 10751 10750 ] final  175.43 input  -60.55 | X-H torsion
[ 11005 11000 10999 10996 ] final   -9.62 input  -57.11 | X-H torsion

> <Gold.Protein.ActiveResidues>
 VAL166  LYS551  ARG553  GLY616  TRP617  ASP618  TYR619  PRO620  LYS621  CYS622 
 ASP623  PHE694  ASN695  SER759  ASP760  ASP761  ALA762  ILE779  LEU786  VAL792 
 PHE793  MET794  SER795  GLU796  ALA797  LYS798  CYS799  TRP800  GLU811  SER814 

> <Gold.Protein.RotatedAtoms>
  152.5405  134.2336  159.8834 H   0  0  0  0  0  0  0  0  0  0  0  0  # atno 6907 bound_to 6896
  151.2306  133.4445  159.2611 H   0  0  0  0  0  0  0  0  0  0  0  0  # atno 6908 bound_to 6896
  151.0719  134.9817  159.8369 H   0  0  0  0  0  0  0  0  0  0  0  0  # atno 6909 bound_to 6896
  145.7608  140.8862  143.0431 H   0  0  0  0  0  0  0  0  0  0  0  0  # atno 7974 bound_to 7965
  154.4987  140.2145  155.9393 H   0  0  0  0  0  0  0  0  0  0  0  0  # atno 8008 bound_to 7997
  156.1404  140.3180  155.8454 H   0  0  0  0  0  0  0  0  0  0  0  0  # atno 8009 bound_to 7997
  155.4130  140.0492  157.3021 H   0  0  0  0  0  0  0  0  0  0  0  0  # atno 8010 bound_to 7997
  139.6580  143.9964  152.2206 H   0  0  0  0  0  0  0  0  0  0  0  0  # atno 10167 bound_to 10162
  155.9987  130.4902  150.5291 H   0  0  0  0  0  0  0  0  0  0  0  0  # atno 10718 bound_to 10713
  154.4675  135.2770  155.1667 H   0  0  0  0  0  0  0  0  0  0  0  0  # atno 10763 bound_to 10752
  154.3430  135.6166  153.5609 H   0  0  0  0  0  0  0  0  0  0  0  0  # atno 10764 bound_to 10752
  152.9861  135.5793  154.5049 H   0  0  0  0  0  0  0  0  0  0  0  0  # atno 10765 bound_to 10752
  140.7361  133.8709  155.8931 H   0  0  0  0  0  0  0  0  0  0  0  0  # atno 11005 bound_to 11000
  144.6831  139.9720  143.7482 LP  0  0  0  0  0  0  0  0  0  0  0  0  # atno 17320 bound_to 7965
  146.0266  139.3297  143.0781 LP  0  0  0  0  0  0  0  0  0  0  0  0  # atno 17321 bound_to 7965
  139.9696  144.6503  150.8002 LP  0  0  0  0  0  0  0  0  0  0  0  0  # atno 17342 bound_to 10162
  140.7567  143.3072  151.2933 LP  0  0  0  0  0  0  0  0  0  0  0  0  # atno 17343 bound_to 10162
  157.3243  131.0687  151.1909 LP  0  0  0  0  0  0  0  0  0  0  0  0  # atno 17370 bound_to 10713
  157.2811  130.6750  149.6066 LP  0  0  0  0  0  0  0  0  0  0  0  0  # atno 17371 bound_to 10713
  140.9878  134.1319  157.4436 LP  0  0  0  0  0  0  0  0  0  0  0  0  # atno 17394 bound_to 11000
  139.8816  135.0031  156.6166 LP  0  0  0  0  0  0  0  0  0  0  0  0  # atno 17395 bound_to 11000

$$$$
