AV-unprocessed.smi:606|AV-procd|sdf|3041|dock5
  -GOLD-   2262023563D 1   1.00000     0.00000
 Structure written by MMmdl.
 36 37  0  0  0  0  0  0  0  0  1 V2000
  149.2618  124.0232  150.7197 C   0  0  0  0  0  0  0  0  0  0  0  0
  148.6967  125.3344  151.1468 C   0  0  0  0  0  0  0  0  0  0  0  0
  148.6454  126.5640  150.5526 C   0  0  0  0  0  0  0  0  0  0  0  0
  147.9638  127.3559  151.5150 C   0  0  0  0  0  0  0  0  0  0  0  0
  147.7031  128.7295  151.2756 N   0  0  0  0  0  0  0  0  0  0  0  0
  146.6976  129.4703  151.7724 C   0  0  0  0  0  0  0  0  0  0  0  0
  145.8154  129.0539  152.5242 O   0  0  0  0  0  0  0  0  0  0  0  0
  146.7668  130.7391  151.3415 N   0  0  0  0  0  0  0  0  0  0  0  0
  145.8325  131.8060  151.6955 C   0  0  0  0  0  0  0  0  0  0  0  0
  144.9993  132.2030  150.4561 C   0  0  0  0  0  0  0  0  0  0  0  0
  143.7721  133.0627  150.8030 C   0  0  0  0  0  0  0  0  0  0  0  0
  144.0202  134.5797  150.8755 C   0  0  0  0  0  0  0  0  0  0  0  0
  145.3343  135.0331  151.5357 C   0  0  0  0  0  0  0  0  0  0  0  0
  145.7984  134.1887  152.7332 C   0  0  0  0  0  0  0  0  0  0  0  0
  146.6344  132.9674  152.3125 C   0  0  0  0  0  0  0  0  0  0  0  0
  147.6315  126.6718  152.5991 N   0  0  0  0  0  0  0  0  0  0  0  0
  148.0995  125.3729  152.3687 O   0  0  0  0  0  0  0  0  0  0  0  0
  149.5610  124.0503  149.6717 H   0  0  0  0  0  0  0  0  0  0  0  0
  148.5271  123.2269  150.8405 H   0  0  0  0  0  0  0  0  0  0  0  0
  150.1386  123.7686  151.3152 H   0  0  0  0  0  0  0  0  0  0  0  0
  149.0331  126.8472  149.5854 H   0  0  0  0  0  0  0  0  0  0  0  0
  148.3531  129.1985  150.6625 H   0  0  0  0  0  0  0  0  0  0  0  0
  147.5236  130.9890  150.7219 H   0  0  0  0  0  0  0  0  0  0  0  0
  145.1566  131.4275  152.4648 H   0  0  0  0  0  0  0  0  0  0  0  0
  145.6190  132.6943  149.7050 H   0  0  0  0  0  0  0  0  0  0  0  0
  144.6300  131.2914  149.9840 H   0  0  0  0  0  0  0  0  0  0  0  0
  142.9982  132.8888  150.0545 H   0  0  0  0  0  0  0  0  0  0  0  0
  143.3402  132.7161  151.7427 H   0  0  0  0  0  0  0  0  0  0  0  0
  143.9859  134.9961  149.8682 H   0  0  0  0  0  0  0  0  0  0  0  0
  143.1814  135.0324  151.4054 H   0  0  0  0  0  0  0  0  0  0  0  0
  146.1263  135.0643  150.7867 H   0  0  0  0  0  0  0  0  0  0  0  0
  145.2066  136.0669  151.8587 H   0  0  0  0  0  0  0  0  0  0  0  0
  146.4299  134.8186  153.3606 H   0  0  0  0  0  0  0  0  0  0  0  0
  144.9557  133.8954  153.3603 H   0  0  0  0  0  0  0  0  0  0  0  0
  147.1525  132.5925  153.1963 H   0  0  0  0  0  0  0  0  0  0  0  0
  147.4203  133.2847  151.6254 H   0  0  0  0  0  0  0  0  0  0  0  0
  1  2  1  0  0  0  0
  1 18  1  0  0  0  0
  1 19  1  0  0  0  0
  1 20  1  0  0  0  0
  2 17  1  0  0  0  0
  2  3  2  0  0  0  0
  3  4  1  0  0  0  0
  3 21  1  0  0  0  0
  4  5  1  0  0  0  0
  4 16  2  0  0  0  0
  5  6  1  0  0  0  0
  5 22  1  0  0  0  0
  6  7  2  0  0  0  0
  6  8  1  0  0  0  0
  8  9  1  0  0  0  0
  8 23  1  0  0  0  0
  9 15  1  0  0  0  0
  9 10  1  0  0  0  0
  9 24  1  0  0  0  0
 10 11  1  0  0  0  0
 10 25  1  0  0  0  0
 10 26  1  0  0  0  0
 11 12  1  0  0  0  0
 11 27  1  0  0  0  0
 11 28  1  0  0  0  0
 12 13  1  0  0  0  0
 12 29  1  0  0  0  0
 12 30  1  0  0  0  0
 13 14  1  0  0  0  0
 13 31  1  0  0  0  0
 13 32  1  0  0  0  0
 14 15  1  0  0  0  0
 14 33  1  0  0  0  0
 14 34  1  0  0  0  0
 15 35  1  0  0  0  0
 15 36  1  0  0  0  0
 16 17  1  0  0  0  0
M  END
> <s_m_source_file>
AV-unprocessed.smi

> <i_m_source_file_index>
606

> <i_lp_mmshare_version>
43012

> <i_f3d_flags>
0

> <s_epik_input>
W0NIM11jMVtjSF1jKG5vMSlbTkhdQyg9TylbTkhdW0NIXTJbQ0gyXVtDSDJdW0NIMl1bQ0gyXVtDSDJdW0NIMl0y

> <s_epik_cmdline>
J2VwaWtfcHl0aG9uJywgJy1waCcsICc3LjAnLCAnLXRuJywgJzgnLCAnLW1hJywgJzIwMCcsICctbWV0YWxfYmluZGluZycsICctaW1hZScsICc8aW5maWxlLm1hZT4nLCAnLW9tYWUnLCAnPG91dGZpbGUubWFlPic=

> <r_lp_tautomer_probability>
1

> <r_epik_Ionization_Penalty>
2.39396e-05

> <r_epik_Ionization_Penalty_Charging>
0

> <r_epik_Ionization_Penalty_Neutral>
2.39396e-05

> <r_epik_State_Penalty>
-0

> <r_epik_Charging_Adjusted_Penalty>
0

> <i_epik_Tot_Q>
0

> <i_epik_Tot_abs_Q>
0

> <r_epik_Metal_State_Penalty>
-0

> <b_epik_Metal_Only>
0

> <s_lp_Force_Field>
OPLS_2005

> <r_lp_Energy>
12.5841

> <b_lp_Chiralities_Consistent>
1

> <s_lp_Variant>
AV-unprocessed.smi:606-1

> <Gold.Version>
5.8.1

> <Gold.Id.Protein>
6NUR|6NUR_protein|mol2

> <Gold.PLP.Fitness>
39.3318

> <Gold.PLP.PLP>
-34.9368

> <Gold.PLP.part.hbond>
-3.2982

> <Gold.PLP.part.metal>
0.0000

> <Gold.PLP.part.buried>
-5.4212

> <Gold.PLP.part.nonpolar>
-26.7727

> <Gold.PLP.part.repulsive>
0.3283

> <Gold.PLP.ligand.clash>
0.0000

> <Gold.PLP.ligand.torsion>
0.2035

> <Gold.PLP.Chemscore.Hbond>
1.5961

> <Gold.PLP.Chemscore.CHOScore>
0.0000

> <Gold.PLP.Chemscore.Metal>
0.0000

> <Gold.Chemscore.Hbonds>
donor molecule, donor type, donor heavy atom, donor atom, acceptor molecule, acceptor atom, score
      L1  H     5    22       P1 10747  0.56
      L1  H     8    23       P1 10747  0.98

> <Gold.PLP.Chemscore.Internal.Correction>
0.0138

> <Gold.Rescore>
     Score         DG    S(hbond)    S(metal)    S(lipo)     H(rot)  DE(clash)    DE(int)     intcor
     12.78     -14.34       1.33        0.00      59.71       1.00       0.30       1.25       ----

> <Gold.Chemscore.Fitness>
12.7834

> <Gold.Chemscore.DG>
-14.3372

> <Gold.Chemscore.ZeroCoef>
-5.4800

> <Gold.Chemscore.Hbond>
1.3265

> <Gold.Chemscore.Metal>
0.0000

> <Gold.Chemscore.Lipo>
59.7149

> <Gold.Chemscore.Internal_Hbond>
0.0000

> <Gold.Chemscore.DEClash>
0.2989

> <Gold.Chemscore.DEInternal>
1.2549

> <Gold.Chemscore.Rot>
1.0000

> <Gold.Chemscore.Internal.Correction>
   9.000000E+99

> <Gold.Chemscore.Hbonds>
donor molecule, donor type, donor heavy atom, donor atom, acceptor molecule, acceptor atom, score
      L1  H     5    22       P1 10747  0.05
      L1  H     8    23       P1 10747  0.88

> <Gold.Chemscore.Hbond.Weighted>
-4.4305

> <Gold.Chemscore.Metal.Weighted>
-0.0000

> <Gold.Chemscore.Lipo.Weighted>
-6.9866

> <Gold.Chemscore.Internal_Hbond.Weighted>
0.0000

> <Gold.Chemscore.DEClash.Weighted>
0.2989

> <Gold.Chemscore.DEInternal.Weighted>
1.2549

> <Gold.Chemscore.Rot.Weighted>
2.5600

> <Gold.Chemscore.Internal.Correction.Weighted>
   9.000000E+99

> <Gold.Protein.RotatedTorsions>
[ 6907 6896 6895 6894 ] final   10.06 input  -60.11 | X-H torsion
[ 7974 7965 7964 7962 ] final  123.67 input  175.53 | X-H torsion
[ 8008 7997 7996 7995 ] final   84.49 input   59.86 | X-H torsion
[ 10167 10162 10161 10158 ] final  140.29 input  -65.29 | X-H torsion
[ 10718 10713 10712 10709 ] final  128.29 input   66.30 | X-H torsion
[ 10763 10752 10751 10750 ] final -105.90 input  -60.55 | X-H torsion
[ 11005 11000 10999 10996 ] final  -80.55 input  -57.11 | X-H torsion

> <Gold.Protein.ActiveResidues>
 VAL166  LYS551  ARG553  GLY616  TRP617  ASP618  TYR619  PRO620  LYS621  CYS622 
 ASP623  PHE694  ASN695  SER759  ASP760  ASP761  ALA762  ILE779  LEU786  VAL792 
 PHE793  MET794  SER795  GLU796  ALA797  LYS798  CYS799  TRP800  GLU811  SER814 

> <Gold.Protein.RotatedAtoms>
  151.7322  135.0872  160.0301 H   0  0  0  0  0  0  0  0  0  0  0  0  # atno 6907 bound_to 6896
  152.3534  133.6202  159.5969 H   0  0  0  0  0  0  0  0  0  0  0  0  # atno 6908 bound_to 6896
  150.7555  133.9455  159.3511 H   0  0  0  0  0  0  0  0  0  0  0  0  # atno 6909 bound_to 6896
  145.0933  139.3571  143.4849 H   0  0  0  0  0  0  0  0  0  0  0  0  # atno 7974 bound_to 7965
  155.9377  140.3410  155.6301 H   0  0  0  0  0  0  0  0  0  0  0  0  # atno 8008 bound_to 7997
  155.7078  140.0768  157.2402 H   0  0  0  0  0  0  0  0  0  0  0  0  # atno 8009 bound_to 7997
  154.4097  140.1628  156.2250 H   0  0  0  0  0  0  0  0  0  0  0  0  # atno 8010 bound_to 7997
  139.5053  144.6243  151.5975 H   0  0  0  0  0  0  0  0  0  0  0  0  # atno 10167 bound_to 10162
  157.5257  131.1098  150.9086 H   0  0  0  0  0  0  0  0  0  0  0  0  # atno 10718 bound_to 10713
  154.7977  135.4732  154.0201 H   0  0  0  0  0  0  0  0  0  0  0  0  # atno 10763 bound_to 10752
  153.1730  135.6828  153.8588 H   0  0  0  0  0  0  0  0  0  0  0  0  # atno 10764 bound_to 10752
  153.8164  135.3210  155.3383 H   0  0  0  0  0  0  0  0  0  0  0  0  # atno 10765 bound_to 10752
  141.1668  133.7155  156.8290 H   0  0  0  0  0  0  0  0  0  0  0  0  # atno 11005 bound_to 11000
  146.3531  140.0777  142.8619 LP  0  0  0  0  0  0  0  0  0  0  0  0  # atno 17320 bound_to 7965
  145.1040  140.9364  143.4695 LP  0  0  0  0  0  0  0  0  0  0  0  0  # atno 17321 bound_to 7965
  140.5955  143.9703  150.6352 LP  0  0  0  0  0  0  0  0  0  0  0  0  # atno 17342 bound_to 10162
  140.2898  143.3332  152.1073 LP  0  0  0  0  0  0  0  0  0  0  0  0  # atno 17343 bound_to 10162
  156.9682  130.5481  149.5289 LP  0  0  0  0  0  0  0  0  0  0  0  0  # atno 17370 bound_to 10713
  156.0385  130.5470  150.8714 LP  0  0  0  0  0  0  0  0  0  0  0  0  # atno 17371 bound_to 10713
  140.2065  134.8859  157.3227 LP  0  0  0  0  0  0  0  0  0  0  0  0  # atno 17394 bound_to 11000
  140.2132  134.4113  155.7602 LP  0  0  0  0  0  0  0  0  0  0  0  0  # atno 17395 bound_to 11000

$$$$
