#       Name:                AV-unprocessed.smi:1180
#       Creating user name   scv26
#       Creation time:       Fri Mar 27 03:55:46 2020


#       File generated by GOLD software.
#

@<TRIPOS>MOLECULE
AV-unprocessed.smi:1180
    45    46     1
SMALL
NO_CHARGES


@<TRIPOS>ATOM
      1 ****        -5.9286  -0.6443  -1.8564 C.3            1 S1                 0.0000
      2 ****        -4.4224  -0.5004  -1.8077 C.2            1 S1                 0.0000
      3 ****        -3.8873   0.5922  -2.2007 N.2            1 S1                 0.0000
      4 ****        -2.4895   0.7309  -2.1628 C.2            1 S1                 0.0000
      5 ****        -1.9418   2.0595  -2.6533 C.3            1 S1                 0.0000
      6 ****        -1.6922  -0.2801  -1.7128 C.2            1 S1                 0.0000
      7 ****        -0.1672  -0.1847  -1.6545 C.3            1 S1                 0.0000
      8 ****         0.4283   0.4649  -0.4024 C.2            1 S1                 0.0000
      9 ****        -0.2930   1.0238   0.4246 O.2            1 S1                 0.0000
     10 ****         1.7615   0.3836  -0.2787 N.am           1 S1                 0.0000
     11 ****         2.5358   0.9258   0.8324 C.3            1 S1                 0.0000
     12 ****         2.4970   0.0082   2.0697 C.3            1 S1                 0.0000
     13 ****         3.3232   0.5200   3.2447 C.3            1 S1                 0.0000
     14 ****         3.9827  -0.7354   3.8252 C.3            1 S1                 0.0000
     15 ****         3.3700  -1.8275   3.1549 O.3            1 S1                 0.0000
     16 ****         3.0616  -1.3937   1.8417 C.3            1 S1                 0.0000
     17 ****        -2.3486  -1.5200  -1.2617 C.2            1 S1                 0.0000
     18 ****        -1.6761  -2.4564  -0.8315 O.2            1 S1                 0.0000
     19 ****        -3.7089  -1.5803  -1.3377 N.pl3          1 S1                -1.0000
     20 ****        -6.4117   0.3280  -1.9617 H              1 S1                 0.0000
     21 ****        -6.2994  -1.1096  -0.9424 H              1 S1                 0.0000
     22 ****        -6.2181  -1.2662  -2.7037 H              1 S1                 0.0000
     23 ****        -1.3602   1.9183  -3.5644 H              1 S1                 0.0000
     24 ****        -1.3009   2.5147  -1.8981 H              1 S1                 0.0000
     25 ****        -2.7470   2.7611  -2.8741 H              1 S1                 0.0000
     26 ****         0.2761  -1.1731  -1.7833 H              1 S1                 0.0000
     27 ****         0.1801   0.3862  -2.5155 H              1 S1                 0.0000
     28 ****         2.2754  -0.0947  -1.0043 H              1 S1                 0.0000
     29 ****         3.5644   1.0535   0.4941 H              1 S1                 0.0000
     30 ****         2.1707   1.9217   1.0888 H              1 S1                 0.0000
     31 ****         1.4652  -0.0977   2.4093 H              1 S1                 0.0000
     32 ****         4.0857   1.2338   2.9307 H              1 S1                 0.0000
     33 ****         2.6866   1.0166   3.9778 H              1 S1                 0.0000
     34 ****         5.0525  -0.7387   3.6112 H              1 S1                 0.0000
     35 ****         3.8525  -0.8157   4.9046 H              1 S1                 0.0000
     36 ****         2.3494  -2.0614   1.3558 H              1 S1                 0.0000
     37 ****         3.9732  -1.3645   1.2423 H              1 S1                 0.0000
     38 ****        -4.4592   1.3425  -2.5326 LP             1 S1                 0.0000
     39 ****        -1.2823   1.0579   0.2832 LP             1 S1                 0.0000
     40 ****         0.1107   1.4436   1.2375 LP             1 S1                 0.0000
     41 ****         2.5335  -2.0966   3.6321 LP             1 S1                 0.0000
     42 ****         3.9986  -2.6044   3.1203 LP             1 S1                 0.0000
     43 ****        -0.6802  -2.3777  -0.7870 LP             1 S1                 0.0000
     44 ****        -2.1255  -3.2960  -0.5264 LP             1 S1                 0.0000
     45 ****        -4.1888  -2.4097  -1.0518 LP             1 S1                 0.0000
@<TRIPOS>BOND
    1    1    2 1     
    2    1   20 1     
    3    1   21 1     
    4    1   22 1     
    5    2   19 1     
    6    2    3 2     
    7    3    4 1     
    8    4    5 1     
    9    4    6 2     
   10    5   23 1     
   11    5   24 1     
   12    5   25 1     
   13    6    7 1     
   14    6   17 1     
   15    7    8 1     
   16    7   26 1     
   17    7   27 1     
   18    8    9 2     
   19    8   10 am    
   20   10   11 1     
   21   10   28 1     
   22   11   12 1     
   23   11   29 1     
   24   11   30 1     
   25   12   16 1     
   26   12   13 1     
   27   12   31 1     
   28   13   14 1     
   29   13   32 1     
   30   13   33 1     
   31   14   15 1     
   32   14   34 1     
   33   14   35 1     
   34   15   16 1     
   35   16   36 1     
   36   16   37 1     
   37   17   18 2     
   38   17   19 1     
   39    3   38 1     
   40    9   39 1     
   41    9   40 1     
   42   15   41 1     
   43   15   42 1     
   44   18   43 1     
   45   18   44 1     
   46   19   45 1     
@<TRIPOS>SUBSTRUCTURE
      1 S1             1
@<TRIPOS>SET
LONE_PAIRS      STATIC     ATOMS    <user>   **** ""
8 38 39 40 41 42 43 44 45
DONOR_HYDROGENS      STATIC     ATOMS    <user>   **** ""
1 28
ATOM$BLUE        STATIC     ATOMS    COLORGROUP SYSTEM
8 38 39 40 41 42 43 44 45
ATOM$RED        STATIC     ATOMS    COLORGROUP SYSTEM
1 28
