AV-unprocessed.smi:3282|AV-procd|sdf|12561|dock5
  -GOLD-   2272018483D 1   1.00000     0.00000
 Structure written by MMmdl.
 34 35  0  0  0  0  0  0  0  0  1 V2000
  146.0806  131.8013  149.0022 C   0  0  0  0  0  0  0  0  0  0  0  0
  145.6549  131.9213  150.4744 C   0  0  0  0  0  0  0  0  0  0  0  0
  144.4218  132.8143  150.6922 C   0  0  0  0  0  0  0  0  0  0  0  0
  143.3325  132.4819  150.2225 O   0  0  0  0  0  0  0  0  0  0  0  0
  144.5763  133.9520  151.4011 N   0  0  0  0  0  0  0  0  0  0  0  0
  143.5247  134.9239  151.6933 C   0  0  0  0  0  0  0  0  0  0  0  0
  144.2255  136.1216  152.3349 C   0  0  0  0  0  0  0  0  0  0  0  0
  145.5222  135.5509  152.9085 C   0  0  2  0  0  0  0  0  0  0  0  0
  146.6082  136.5256  152.9201 N   0  0  0  0  0  0  0  0  0  0  0  0
  146.5618  137.7148  153.5375 C   0  0  0  0  0  0  0  0  0  0  0  0
  145.5794  138.1185  154.1606 O   0  0  0  0  0  0  0  0  0  0  0  0
  147.7126  138.3908  153.3835 N   0  0  0  0  0  0  0  0  0  0  0  0
  148.0410  139.6663  153.9081 C   0  0  0  0  0  0  0  0  0  0  0  0
  147.1889  140.6527  154.1915 N   0  0  0  0  0  0  0  0  0  0  0  0
  147.9884  141.6766  154.6785 C   0  0  0  0  0  0  0  0  0  0  0  0
  149.2906  141.2470  154.6616 C   0  0  0  0  0  0  0  0  0  0  0  0
  149.3394  139.9686  154.1739 O   0  0  0  0  0  0  0  0  0  0  0  0
  145.8463  134.3661  151.9924 C   0  0  0  0  0  0  0  0  0  0  0  0
  146.9606  131.1651  148.9071 H   0  0  0  0  0  0  0  0  0  0  0  0
  146.3316  132.7749  148.5792 H   0  0  0  0  0  0  0  0  0  0  0  0
  145.2905  131.3613  148.3928 H   0  0  0  0  0  0  0  0  0  0  0  0
  145.4415  130.9268  150.8671 H   0  0  0  0  0  0  0  0  0  0  0  0
  146.4897  132.3201  151.0516 H   0  0  0  0  0  0  0  0  0  0  0  0
  142.9787  135.2248  150.7982 H   0  0  0  0  0  0  0  0  0  0  0  0
  142.8150  134.4816  152.3938 H   0  0  0  0  0  0  0  0  0  0  0  0
  144.4489  136.8591  151.5623 H   0  0  0  0  0  0  0  0  0  0  0  0
  143.6117  136.6120  153.0911 H   0  0  0  0  0  0  0  0  0  0  0  0
  145.3364  135.1741  153.9162 H   0  0  0  0  0  0  0  0  0  0  0  0
  147.4539  136.2720  152.4306 H   0  0  0  0  0  0  0  0  0  0  0  0
  148.4353  137.9427  152.8399 H   0  0  0  0  0  0  0  0  0  0  0  0
  147.5727  142.6211  154.9971 H   0  0  0  0  0  0  0  0  0  0  0  0
  150.2318  141.6953  154.9438 H   0  0  0  0  0  0  0  0  0  0  0  0
  146.3205  133.5564  152.5495 H   0  0  0  0  0  0  0  0  0  0  0  0
  146.5212  134.6596  151.1863 H   0  0  0  0  0  0  0  0  0  0  0  0
  1  2  1  0  0  0  0
  1 19  1  0  0  0  0
  1 20  1  0  0  0  0
  1 21  1  0  0  0  0
  2  3  1  0  0  0  0
  2 22  1  0  0  0  0
  2 23  1  0  0  0  0
  3  4  2  0  0  0  0
  3  5  1  0  0  0  0
  5 18  1  0  0  0  0
  5  6  1  0  0  0  0
  6  7  1  0  0  0  0
  6 24  1  0  0  0  0
  6 25  1  0  0  0  0
  7  8  1  0  0  0  0
  7 26  1  0  0  0  0
  7 27  1  0  0  0  0
  8  9  1  0  0  0  0
  8 18  1  0  0  0  0
  8 28  1  0  0  0  0
  9 10  1  0  0  0  0
  9 29  1  0  0  0  0
 10 11  2  0  0  0  0
 10 12  1  0  0  0  0
 12 13  1  0  0  0  0
 12 30  1  0  0  0  0
 13 17  1  0  0  0  0
 13 14  2  0  0  0  0
 14 15  1  0  0  0  0
 15 16  2  0  0  0  0
 15 31  1  0  0  0  0
 16 17  1  0  0  0  0
 16 32  1  0  0  0  0
 18 33  1  0  0  0  0
 18 34  1  0  0  0  0
M  END
> <s_m_source_file>
AV-unprocessed.smi

> <i_m_source_file_index>
3282

> <i_lp_mmshare_version>
43012

> <i_f3d_flags>
0

> <s_epik_input>
W0NIM11bQ0gyXUMoPU8pTjFbQ0gyXVtDSDJdW0NASF0oW0NIMl0xKVtOSF1DKD1PKVtOSF1jMm5bY0hdW2NIXW8y

> <s_epik_cmdline>
J2VwaWtfcHl0aG9uJywgJy1waCcsICc3LjAnLCAnLXRuJywgJzgnLCAnLW1hJywgJzIwMCcsICctbWV0YWxfYmluZGluZycsICctaW1hZScsICc8aW5maWxlLm1hZT4nLCAnLW9tYWUnLCAnPG91dGZpbGUubWFlPic=

> <r_lp_tautomer_probability>
0.785861

> <r_epik_Ionization_Penalty>
4.35681e-05

> <r_epik_Ionization_Penalty_Charging>
0

> <r_epik_Ionization_Penalty_Neutral>
4.35681e-05

> <r_epik_State_Penalty>
0.0212547

> <r_epik_Charging_Adjusted_Penalty>
0.0212547

> <i_epik_Tot_Q>
0

> <i_epik_Tot_abs_Q>
0

> <r_epik_Metal_State_Penalty>
0.00779955

> <b_epik_Metal_Only>
0

> <s_lp_Force_Field>
OPLS_2005

> <r_lp_Energy>
25.4049

> <b_lp_Chiralities_Consistent>
1

> <s_lp_Variant>
AV-unprocessed.smi:3282-2

> <Gold.Version>
5.8.1

> <Gold.Id.Protein>
6NUR|6NUR_protein|mol2

> <Gold.PLP.Fitness>
36.8056

> <Gold.PLP.PLP>
-28.6655

> <Gold.PLP.part.hbond>
-2.0781

> <Gold.PLP.part.metal>
0.0000

> <Gold.PLP.part.buried>
-4.8385

> <Gold.PLP.part.nonpolar>
-23.1181

> <Gold.PLP.part.repulsive>
1.7835

> <Gold.PLP.ligand.clash>
0.0000

> <Gold.PLP.ligand.torsion>
0.2105

> <Gold.PLP.Chemscore.Hbond>
1.9120

> <Gold.PLP.Chemscore.CHOScore>
0.9392

> <Gold.PLP.Chemscore.Metal>
0.0000

> <Gold.Chemscore.Hbonds>
donor molecule, donor type, donor heavy atom, donor atom, acceptor molecule, acceptor atom, score
      L1  H     9    29       P1  7948  1.00
      L1  H    12    30       P1  7948  0.91
      L1  C    15    31       P1  8028  0.95

> <Gold.PLP.Chemscore.Internal.Correction>
0.0077

> <Gold.Rescore>
     Score         DG    S(hbond)    S(metal)    S(lipo)     H(rot)  DE(clash)    DE(int)     intcor
     15.02     -16.61       2.49        0.00      52.88       1.32       0.34       1.25       ----

> <Gold.Chemscore.Fitness>
15.0224

> <Gold.Chemscore.DG>
-16.6056

> <Gold.Chemscore.ZeroCoef>
-5.4800

> <Gold.Chemscore.Hbond>
2.4901

> <Gold.Chemscore.Metal>
0.0000

> <Gold.Chemscore.Lipo>
52.8847

> <Gold.Chemscore.Internal_Hbond>
0.0000

> <Gold.Chemscore.DEClash>
0.3367

> <Gold.Chemscore.DEInternal>
1.2465

> <Gold.Chemscore.Rot>
1.3199

> <Gold.Chemscore.Internal.Correction>
   9.000000E+99

> <Gold.Chemscore.Hbonds>
donor molecule, donor type, donor heavy atom, donor atom, acceptor molecule, acceptor atom, score
      L1  H     9    29       P1  7948  0.98
      L1  H    12    30       P1  7948  0.85

> <Gold.Chemscore.Hbond.Weighted>
-8.3170

> <Gold.Chemscore.Metal.Weighted>
-0.0000

> <Gold.Chemscore.Lipo.Weighted>
-6.1875

> <Gold.Chemscore.Internal_Hbond.Weighted>
0.0000

> <Gold.Chemscore.DEClash.Weighted>
0.3367

> <Gold.Chemscore.DEInternal.Weighted>
1.2465

> <Gold.Chemscore.Rot.Weighted>
3.3789

> <Gold.Chemscore.Internal.Correction.Weighted>
   9.000000E+99

> <Gold.Protein.RotatedTorsions>
[ 6907 6896 6895 6894 ] final  -75.50 input  -60.11 | X-H torsion
[ 7974 7965 7964 7962 ] final   23.47 input  175.53 | X-H torsion
[ 8008 7997 7996 7995 ] final   76.10 input   59.86 | X-H torsion
[ 10167 10162 10161 10158 ] final   23.96 input  -65.29 | X-H torsion
[ 10718 10713 10712 10709 ] final  -33.41 input   66.30 | X-H torsion
[ 10763 10752 10751 10750 ] final  -87.33 input  -60.55 | X-H torsion
[ 11005 11000 10999 10996 ] final   93.30 input  -57.11 | X-H torsion

> <Gold.Protein.ActiveResidues>
 VAL166  LYS551  ARG553  GLY616  TRP617  ASP618  TYR619  PRO620  LYS621  CYS622 
 ASP623  PHE694  ASN695  SER759  ASP760  ASP761  ALA762  ILE779  LEU786  VAL792 
 PHE793  MET794  SER795  GLU796  ALA797  LYS798  CYS799  TRP800  GLU811  SER814 

> <Gold.Protein.RotatedAtoms>
  150.7057  134.4712  159.5425 H   0  0  0  0  0  0  0  0  0  0  0  0  # atno 6907 bound_to 6896
  152.2368  134.8265  160.0475 H   0  0  0  0  0  0  0  0  0  0  0  0  # atno 6908 bound_to 6896
  151.9062  133.3515  159.3884 H   0  0  0  0  0  0  0  0  0  0  0  0  # atno 6909 bound_to 6896
  146.1982  139.7739  142.8781 H   0  0  0  0  0  0  0  0  0  0  0  0  # atno 7974 bound_to 7965
  155.8224  140.3469  155.5522 H   0  0  0  0  0  0  0  0  0  0  0  0  # atno 8008 bound_to 7997
  155.8328  140.0929  157.1802 H   0  0  0  0  0  0  0  0  0  0  0  0  # atno 8009 bound_to 7997
  154.4004  140.1409  156.3622 H   0  0  0  0  0  0  0  0  0  0  0  0  # atno 8010 bound_to 7997
  140.5227  143.9976  150.6424 H   0  0  0  0  0  0  0  0  0  0  0  0  # atno 10167 bound_to 10162
  156.3629  130.4327  149.7608 H   0  0  0  0  0  0  0  0  0  0  0  0  # atno 10718 bound_to 10713
  154.6324  135.5417  153.7696 H   0  0  0  0  0  0  0  0  0  0  0  0  # atno 10763 bound_to 10752
  153.0291  135.6439  154.1281 H   0  0  0  0  0  0  0  0  0  0  0  0  # atno 10764 bound_to 10752
  154.1210  135.2920  155.3188 H   0  0  0  0  0  0  0  0  0  0  0  0  # atno 10765 bound_to 10752
  139.8812  134.8782  156.3698 H   0  0  0  0  0  0  0  0  0  0  0  0  # atno 11005 bound_to 11000
  145.3572  141.0319  143.3305 LP  0  0  0  0  0  0  0  0  0  0  0  0  # atno 17320 bound_to 7965
  144.8626  139.5154  143.6805 LP  0  0  0  0  0  0  0  0  0  0  0  0  # atno 17321 bound_to 7965
  140.3329  143.3066  152.0668 LP  0  0  0  0  0  0  0  0  0  0  0  0  # atno 17342 bound_to 10162
  139.4928  144.6496  151.6703 LP  0  0  0  0  0  0  0  0  0  0  0  0  # atno 17343 bound_to 10162
  156.4765  130.8021  151.3037 LP  0  0  0  0  0  0  0  0  0  0  0  0  # atno 17370 bound_to 10713
  157.7475  131.0019  150.2981 LP  0  0  0  0  0  0  0  0  0  0  0  0  # atno 17371 bound_to 10713
  140.9472  133.7475  156.0224 LP  0  0  0  0  0  0  0  0  0  0  0  0  # atno 17394 bound_to 11000
  140.8149  134.3356  157.5400 LP  0  0  0  0  0  0  0  0  0  0  0  0  # atno 17395 bound_to 11000

$$$$
