AV-unprocessed.smi:2525|AV-procd|sdf|9927|dock9
  -GOLD-   2272013563D 1   1.00000     0.00000
 Structure written by MMmdl.
 44 45  0  0  0  0  0  0  0  0  1 V2000
  152.5724  138.7313  155.0338 C   0  0  0  0  0  0  0  0  0  0  0  0
  152.1365  140.0163  155.7519 C   0  0  0  0  0  0  0  0  0  0  0  0
  151.0818  139.8351  156.8663 C   0  0  0  0  0  0  0  0  0  0  0  0
  151.7436  139.0269  158.0267 C   0  0  0  0  0  0  0  0  0  0  0  0
  150.7962  138.1719  158.8858 C   0  0  0  0  0  0  0  0  0  0  0  0
  150.3575  141.1552  157.2636 C   0  0  2  0  0  0  0  0  0  0  0  0
  150.8393  141.7835  158.4873 N   0  0  0  0  0  0  0  0  0  0  0  0
  151.4313  142.9856  158.5418 C   0  0  0  0  0  0  0  0  0  0  0  0
  151.5318  143.7383  157.5734 O   0  0  0  0  0  0  0  0  0  0  0  0
  152.0277  143.3867  159.8909 C   0  0  0  0  0  0  0  0  0  0  0  0
  152.9462  142.3675  160.3684 N   0  0  0  0  0  0  0  0  0  0  0  0
  153.4825  142.2170  161.6309 C   0  0  0  0  0  0  0  0  0  0  0  0
  154.2923  141.1248  161.5039 C   0  0  0  0  0  0  0  0  0  0  0  0
  154.2167  140.6628  160.1913 N   0  0  0  0  0  0  0  0  0  0  0  0
  153.4037  141.4156  159.5194 N   0  0  0  0  0  0  0  0  0  0  0  0
  149.0725  140.3457  157.4689 C   0  0  1  0  0  0  0  0  0  0  0  0
  147.7177  141.0087  157.2558 C   0  0  0  0  0  0  0  0  0  0  0  0
  149.6595  139.3819  156.4189 C   0  0  1  0  0  0  0  0  0  0  0  0
  149.3713  139.7853  155.0831 O   0  0  0  0  0  0  0  0  0  0  0  0
  149.7172  138.8078  154.1166 C   0  0  0  0  0  0  0  0  0  0  0  0
  153.1809  138.9709  154.1618 H   0  0  0  0  0  0  0  0  0  0  0  0
  151.7153  138.1533  154.6880 H   0  0  0  0  0  0  0  0  0  0  0  0
  153.1795  138.0979  155.6789 H   0  0  0  0  0  0  0  0  0  0  0  0
  153.0207  140.5203  156.1437 H   0  0  0  0  0  0  0  0  0  0  0  0
  151.7507  140.6978  154.9932 H   0  0  0  0  0  0  0  0  0  0  0  0
  152.5313  138.3812  157.6369 H   0  0  0  0  0  0  0  0  0  0  0  0
  152.2607  139.6860  158.7230 H   0  0  0  0  0  0  0  0  0  0  0  0
  151.3684  137.5203  159.5466 H   0  0  0  0  0  0  0  0  0  0  0  0
  150.1402  137.5401  158.2904 H   0  0  0  0  0  0  0  0  0  0  0  0
  150.1691  138.7945  159.5236 H   0  0  0  0  0  0  0  0  0  0  0  0
  150.2582  141.8551  156.4300 H   0  0  0  0  0  0  0  0  0  0  0  0
  150.7934  141.2348  159.3338 H   0  0  0  0  0  0  0  0  0  0  0  0
  152.5678  144.3299  159.7981 H   0  0  0  0  0  0  0  0  0  0  0  0
  151.2316  143.5388  160.6214 H   0  0  0  0  0  0  0  0  0  0  0  0
  153.2569  142.8705  162.4605 H   0  0  0  0  0  0  0  0  0  0  0  0
  154.9181  140.6394  162.2383 H   0  0  0  0  0  0  0  0  0  0  0  0
  149.0933  139.8523  158.4433 H   0  0  0  0  0  0  0  0  0  0  0  0
  147.6678  141.5209  156.2948 H   0  0  0  0  0  0  0  0  0  0  0  0
  147.5180  141.7485  158.0309 H   0  0  0  0  0  0  0  0  0  0  0  0
  146.9109  140.2765  157.2846 H   0  0  0  0  0  0  0  0  0  0  0  0
  149.4374  138.3303  156.5980 H   0  0  0  0  0  0  0  0  0  0  0  0
  149.4289  139.1568  153.1252 H   0  0  0  0  0  0  0  0  0  0  0  0
  149.2096  137.8611  154.3015 H   0  0  0  0  0  0  0  0  0  0  0  0
  150.7935  138.6308  154.1099 H   0  0  0  0  0  0  0  0  0  0  0  0
  1  2  1  0  0  0  0
  1 21  1  0  0  0  0
  1 22  1  0  0  0  0
  1 23  1  0  0  0  0
  2  3  1  0  0  0  0
  2 24  1  0  0  0  0
  2 25  1  0  0  0  0
  3 18  1  0  0  0  0
  3  4  1  0  0  0  0
  3  6  1  0  0  0  0
  4  5  1  0  0  0  0
  4 26  1  0  0  0  0
  4 27  1  0  0  0  0
  5 28  1  0  0  0  0
  5 29  1  0  0  0  0
  5 30  1  0  0  0  0
  6  7  1  0  0  0  0
  6 16  1  0  0  0  0
  6 31  1  0  0  0  0
  7  8  1  0  0  0  0
  7 32  1  0  0  0  0
  8  9  2  0  0  0  0
  8 10  1  0  0  0  0
 10 11  1  0  0  0  0
 10 33  1  0  0  0  0
 10 34  1  0  0  0  0
 11 15  1  0  0  0  0
 11 12  1  0  0  0  0
 12 13  2  0  0  0  0
 12 35  1  0  0  0  0
 13 14  1  0  0  0  0
 13 36  1  0  0  0  0
 14 15  2  0  0  0  0
 16 17  1  0  0  0  0
 16 18  1  0  0  0  0
 16 37  1  0  0  0  0
 17 38  1  0  0  0  0
 17 39  1  0  0  0  0
 17 40  1  0  0  0  0
 18 19  1  0  0  0  0
 18 41  1  0  0  0  0
 19 20  1  0  0  0  0
 20 42  1  0  0  0  0
 20 43  1  0  0  0  0
 20 44  1  0  0  0  0
M  END
> <s_m_source_file>
AV-unprocessed.smi

> <i_m_source_file_index>
2525

> <i_lp_mmshare_version>
43012

> <i_f3d_flags>
0

> <s_epik_input>
W0NIM11PW0NAQEhdMVtDQEhdKFtDSDNdKVtDQEBIXShDMShbQ0gyXVtDSDNdKVtDSDJdW0NIM10pW05IXUMoPU8pW0NIMl1uMltjSF1bY0hdbm4y

> <s_epik_cmdline>
J2VwaWtfcHl0aG9uJywgJy1waCcsICc3LjAnLCAnLXRuJywgJzgnLCAnLW1hJywgJzIwMCcsICctbWV0YWxfYmluZGluZycsICctaW1hZScsICc8aW5maWxlLm1hZT4nLCAnLW9tYWUnLCAnPG91dGZpbGUubWFlPic=

> <r_lp_tautomer_probability>
1

> <r_epik_Ionization_Penalty>
1.18045e-06

> <r_epik_Ionization_Penalty_Charging>
0

> <r_epik_Ionization_Penalty_Neutral>
1.18045e-06

> <r_epik_State_Penalty>
-0

> <r_epik_Charging_Adjusted_Penalty>
0

> <i_epik_Tot_Q>
0

> <i_epik_Tot_abs_Q>
0

> <r_epik_Metal_State_Penalty>
-0

> <b_epik_Metal_Only>
0

> <s_lp_Force_Field>
OPLS_2005

> <r_lp_Energy>
28.7766

> <b_lp_Chiralities_Consistent>
1

> <s_lp_Variant>
AV-unprocessed.smi:2525-2

> <Gold.Version>
5.8.1

> <Gold.Id.Protein>
6NUR|6NUR_protein|mol2

> <Gold.PLP.Fitness>
32.8993

> <Gold.PLP.PLP>
-34.7340

> <Gold.PLP.part.hbond>
0.0000

> <Gold.PLP.part.metal>
0.0000

> <Gold.PLP.part.buried>
-4.9467

> <Gold.PLP.part.nonpolar>
-29.6006

> <Gold.PLP.part.repulsive>
0.2987

> <Gold.PLP.ligand.clash>
0.0046

> <Gold.PLP.ligand.torsion>
1.2605

> <Gold.PLP.Chemscore.Hbond>
0.0000

> <Gold.PLP.Chemscore.CHOScore>
0.0000

> <Gold.PLP.Chemscore.Metal>
0.0000

> <Gold.PLP.Chemscore.Internal.Correction>
0.6908

> <Gold.Rescore>
     Score         DG    S(hbond)    S(metal)    S(lipo)     H(rot)  DE(clash)    DE(int)     intcor
      7.62      -9.97       0.00        0.00      81.73       1.98       0.08       2.27       ----

> <Gold.Chemscore.Fitness>
7.6197

> <Gold.Chemscore.DG>
-9.9691

> <Gold.Chemscore.ZeroCoef>
-5.4800

> <Gold.Chemscore.Hbond>
0.0000

> <Gold.Chemscore.Metal>
0.0000

> <Gold.Chemscore.Lipo>
81.7278

> <Gold.Chemscore.Internal_Hbond>
0.0000

> <Gold.Chemscore.DEClash>
0.0820

> <Gold.Chemscore.DEInternal>
2.2674

> <Gold.Chemscore.Rot>
1.9817

> <Gold.Chemscore.Internal.Correction>
   9.000000E+99

> <Gold.Chemscore.Hbond.Weighted>
-0.0000

> <Gold.Chemscore.Metal.Weighted>
-0.0000

> <Gold.Chemscore.Lipo.Weighted>
-9.5622

> <Gold.Chemscore.Internal_Hbond.Weighted>
0.0000

> <Gold.Chemscore.DEClash.Weighted>
0.0820

> <Gold.Chemscore.DEInternal.Weighted>
2.2674

> <Gold.Chemscore.Rot.Weighted>
5.0731

> <Gold.Chemscore.Internal.Correction.Weighted>
   9.000000E+99

> <Gold.Protein.RotatedTorsions>
[ 6907 6896 6895 6894 ] final -168.50 input  -60.11 | X-H torsion
[ 7974 7965 7964 7962 ] final  171.73 input  175.53 | X-H torsion
[ 8008 7997 7996 7995 ] final   16.47 input   59.86 | X-H torsion
[ 10167 10162 10161 10158 ] final   98.51 input  -65.29 | X-H torsion
[ 10718 10713 10712 10709 ] final -150.14 input   66.30 | X-H torsion
[ 10763 10752 10751 10750 ] final  -92.41 input  -60.55 | X-H torsion
[ 11005 11000 10999 10996 ] final   78.43 input  -57.11 | X-H torsion

> <Gold.Protein.ActiveResidues>
 VAL166  LYS551  ARG553  GLY616  TRP617  ASP618  TYR619  PRO620  LYS621  CYS622 
 ASP623  PHE694  ASN695  SER759  ASP760  ASP761  ALA762  ILE779  LEU786  VAL792 
 PHE793  MET794  SER795  GLU796  ALA797  LYS798  CYS799  TRP800  GLU811  SER814 

> <Gold.Protein.RotatedAtoms>
  151.4765  133.3556  159.2831 H   0  0  0  0  0  0  0  0  0  0  0  0  # atno 6907 bound_to 6896
  150.8926  134.8333  159.7315 H   0  0  0  0  0  0  0  0  0  0  0  0  # atno 6908 bound_to 6896
  152.4832  134.4676  159.9677 H   0  0  0  0  0  0  0  0  0  0  0  0  # atno 6909 bound_to 6896
  144.7287  139.9393  143.6428 H   0  0  0  0  0  0  0  0  0  0  0  0  # atno 7974 bound_to 7965
  154.8775  140.2968  155.5445 H   0  0  0  0  0  0  0  0  0  0  0  0  # atno 8008 bound_to 7997
  156.3022  140.2448  156.3706 H   0  0  0  0  0  0  0  0  0  0  0  0  # atno 8009 bound_to 7997
  154.8752  140.0400  157.1738 H   0  0  0  0  0  0  0  0  0  0  0  0  # atno 8010 bound_to 7997
  139.7702  144.6925  151.0167 H   0  0  0  0  0  0  0  0  0  0  0  0  # atno 10167 bound_to 10162
  156.4423  130.8127  151.2357 H   0  0  0  0  0  0  0  0  0  0  0  0  # atno 10718 bound_to 10713
  154.6858  135.5232  153.8324 H   0  0  0  0  0  0  0  0  0  0  0  0  # atno 10763 bound_to 10752
  153.0596  135.6563  154.0503 H   0  0  0  0  0  0  0  0  0  0  0  0  # atno 10764 bound_to 10752
  154.0384  135.2979  155.3338 H   0  0  0  0  0  0  0  0  0  0  0  0  # atno 10765 bound_to 10752
  139.9213  134.7763  156.1649 H   0  0  0  0  0  0  0  0  0  0  0  0  # atno 11005 bound_to 11000
  146.0797  139.3785  143.0472 LP  0  0  0  0  0  0  0  0  0  0  0  0  # atno 17320 bound_to 7965
  145.7857  140.9837  143.1075 LP  0  0  0  0  0  0  0  0  0  0  0  0  # atno 17321 bound_to 7965
  140.7813  143.4597  151.0295 LP  0  0  0  0  0  0  0  0  0  0  0  0  # atno 17342 bound_to 10162
  139.8281  143.7728  152.3179 LP  0  0  0  0  0  0  0  0  0  0  0  0  # atno 17343 bound_to 10162
  157.7506  131.0164  150.3544 LP  0  0  0  0  0  0  0  0  0  0  0  0  # atno 17370 bound_to 10713
  156.3905  130.3897  149.7034 LP  0  0  0  0  0  0  0  0  0  0  0  0  # atno 17371 bound_to 10713
  141.0735  133.6786  156.2189 LP  0  0  0  0  0  0  0  0  0  0  0  0  # atno 17394 bound_to 11000
  140.6467  134.5110  157.5574 LP  0  0  0  0  0  0  0  0  0  0  0  0  # atno 17395 bound_to 11000

$$$$
