#       Name:                AV-unprocessed.smi:1701
#       Creating user name   scv26
#       Creation time:       Fri Mar 27 08:02:14 2020


#       File generated by GOLD software.
#

@<TRIPOS>MOLECULE
AV-unprocessed.smi:1701
    57    59     1
SMALL
NO_CHARGES


@<TRIPOS>ATOM
      1 ****        -6.5769  -1.3780  -0.6439 C.3            1 S1                 0.0000
      2 ****        -6.4399  -0.8289   0.7840 C.3            1 S1                 0.0000
      3 ****        -5.6779   0.4189   0.8396 N.pl3          1 S1                 0.0000
      4 ****        -6.3693   1.6402   0.4188 C.3            1 S1                 0.0000
      5 ****        -6.0658   2.8412   1.3284 C.3            1 S1                 0.0000
      6 ****        -4.2801   0.3184   0.6366 C.ar           1 S1                 0.0000
      7 ****        -3.5000  -0.7293   1.1845 C.ar           1 S1                 0.0000
      8 ****        -2.1131  -0.7784   0.9368 C.ar           1 S1                 0.0000
      9 ****        -1.5089   0.2101   0.1342 C.ar           1 S1                 0.0000
     10 ****        -0.1053   0.1321  -0.0718 N.am           1 S1                 0.0000
     11 ****         0.6408   0.6204  -1.0936 C.2            1 S1                 0.0000
     12 ****         0.0759   1.1844  -2.0288 O.2            1 S1                 0.0000
     13 ****         1.9987   0.4549  -1.0832 N.pl3          1 S1                -1.0000
     14 ****         2.8491  -0.1904  -0.0668 C.3            1 S1                 0.0000
     15 ****         2.9810  -1.6950  -0.3714 C.3            1 S1                 0.0000
     16 ****         4.2576  -1.8451  -1.2174 C.3            1 S1                 0.0000
     17 ****         4.8294  -0.4871  -1.3307 N.4            1 S1                 1.0000
     18 ****         6.2922  -0.3940  -1.5710 C.3            1 S1                 0.0000
     19 ****         7.1162  -0.5856  -0.2869 C.3            1 S1                 0.0000
     20 ****         6.6384   0.3721   0.8100 C.3            1 S1                 0.0000
     21 ****         5.1487   0.1333   1.0828 C.3            1 S1                 0.0000
     22 ****         4.2982   0.3178  -0.2059 C.3            1 S1                 0.0000
     23 ****        -2.3235   1.2472  -0.3760 C.ar           1 S1                 0.0000
     24 ****        -3.6479   1.2558  -0.1124 N.pl3          1 S1                 1.0000
     25 ****        -7.1762  -2.2888  -0.6497 H              1 S1                 0.0000
     26 ****        -5.6043  -1.6212  -1.0726 H              1 S1                 0.0000
     27 ****        -7.0642  -0.6584  -1.3024 H              1 S1                 0.0000
     28 ****        -7.4348  -0.6414   1.1887 H              1 S1                 0.0000
     29 ****        -6.0085  -1.5851   1.4374 H              1 S1                 0.0000
     30 ****        -6.1154   1.8750  -0.6156 H              1 S1                 0.0000
     31 ****        -7.4454   1.4636   0.4248 H              1 S1                 0.0000
     32 ****        -6.6245   3.7190   1.0033 H              1 S1                 0.0000
     33 ****        -5.0090   3.1069   1.3234 H              1 S1                 0.0000
     34 ****        -6.3522   2.6322   2.3596 H              1 S1                 0.0000
     35 ****        -3.9394  -1.4934   1.8069 H              1 S1                 0.0000
     36 ****        -1.5194  -1.5756   1.3599 H              1 S1                 0.0000
     37 ****         0.4029  -0.4075   0.6134 H              1 S1                 0.0000
     38 ****         2.4752  -0.0264   0.9447 H              1 S1                 0.0000
     39 ****         3.0998  -2.2476   0.5612 H              1 S1                 0.0000
     40 ****         2.1044  -2.1086  -0.8723 H              1 S1                 0.0000
     41 ****         4.9555  -2.5266  -0.7287 H              1 S1                 0.0000
     42 ****         4.0453  -2.2415  -2.2109 H              1 S1                 0.0000
     43 ****         6.5882  -1.1148  -2.3338 H              1 S1                 0.0000
     44 ****         6.4978   0.5947  -1.9826 H              1 S1                 0.0000
     45 ****         7.0344  -1.6159   0.0613 H              1 S1                 0.0000
     46 ****         8.1726  -0.4151  -0.4961 H              1 S1                 0.0000
     47 ****         7.2167   0.2185   1.7216 H              1 S1                 0.0000
     48 ****         6.8025   1.4058   0.5032 H              1 S1                 0.0000
     49 ****         5.0425  -0.8715   1.4988 H              1 S1                 0.0000
     50 ****         4.8103   0.8205   1.8604 H              1 S1                 0.0000
     51 ****         4.3218   1.3739  -0.4813 H              1 S1                 0.0000
     52 ****        -1.9716   2.0756  -0.9724 H              1 S1                 0.0000
     53 ****         4.3809  -0.0987  -2.1487 H              1 S1                 0.0000
     54 ****        -4.2051   2.0170  -0.5000 H              1 S1                 0.0000
     55 ****        -0.9197   1.2777  -2.0285 LP             1 S1                 0.0000
     56 ****         0.6121   1.5498  -2.7896 LP             1 S1                 0.0000
     57 ****         2.4825   0.8236  -1.8769 LP             1 S1                 0.0000
@<TRIPOS>BOND
    1    1    2 1     
    2    1   25 1     
    3    1   26 1     
    4    1   27 1     
    5    2    3 1     
    6    2   28 1     
    7    2   29 1     
    8    3    4 1     
    9    3    6 1     
   10    4    5 1     
   11    4   30 1     
   12    4   31 1     
   13    5   32 1     
   14    5   33 1     
   15    5   34 1     
   16    6   24 ar    
   17    6    7 ar    
   18    7    8 ar    
   19    7   35 1     
   20    8    9 ar    
   21    8   36 1     
   22    9   10 1     
   23    9   23 ar    
   24   10   11 am    
   25   10   37 1     
   26   11   12 2     
   27   11   13 1     
   28   13   14 1     
   29   14   22 1     
   30   14   15 1     
   31   14   38 1     
   32   15   16 1     
   33   15   39 1     
   34   15   40 1     
   35   16   17 1     
   36   16   41 1     
   37   16   42 1     
   38   17   22 1     
   39   17   18 1     
   40   17   53 1     
   41   18   19 1     
   42   18   43 1     
   43   18   44 1     
   44   19   20 1     
   45   19   45 1     
   46   19   46 1     
   47   20   21 1     
   48   20   47 1     
   49   20   48 1     
   50   21   22 1     
   51   21   49 1     
   52   21   50 1     
   53   22   51 1     
   54   23   24 ar    
   55   23   52 1     
   56   24   54 1     
   57   12   55 1     
   58   12   56 1     
   59   13   57 1     
@<TRIPOS>SUBSTRUCTURE
      1 S1             1
@<TRIPOS>SET
LONE_PAIRS      STATIC     ATOMS    <user>   **** ""
3 55 56 57
DONOR_HYDROGENS      STATIC     ATOMS    <user>   **** ""
3 37 53 54
ATOM$BLUE        STATIC     ATOMS    COLORGROUP SYSTEM
3 55 56 57
ATOM$RED        STATIC     ATOMS    COLORGROUP SYSTEM
3 37 53 54
