AV-unprocessed.smi:160|AV-procd|sdf|1349|dock8
  -GOLD-   2262019 53D 1   1.00000     0.00000
 Structure written by MMmdl.
 29 30  0  0  0  0  0  0  0  0  1 V2000
  153.5664  141.6214  159.6751 N   0  0  0  0  0  0  0  0  0  0  0  0
  153.5537  140.2941  159.8374 C   0  0  0  0  0  0  0  0  0  0  0  0
  153.9871  139.7504  160.8520 O   0  0  0  0  0  0  0  0  0  0  0  0
  152.9808  139.4920  158.7019 C   0  0  0  0  0  0  0  0  0  0  0  0
  152.5463  138.2111  158.8900 N   0  0  0  0  0  0  0  0  0  0  0  0
  152.1579  137.9395  157.6508 C   0  0  0  0  0  0  0  0  0  0  0  0
  152.3153  138.9504  156.7899 N   0  0  0  0  0  0  0  0  0  0  0  0
  152.0345  138.9919  155.3147 C   0  0  2  0  0  0  0  0  0  0  0  0
  151.1028  139.9973  155.0752 O   0  0  0  0  0  0  0  0  0  0  0  0
  149.7882  139.4715  155.2065 C   0  0  1  0  0  0  0  0  0  0  0  0
  148.8021  140.3376  154.4077 C   0  0  0  0  0  0  0  0  0  0  0  0
  149.4641  140.9567  153.3254 O   0  0  0  0  0  0  0  0  0  0  0  0
  149.9189  138.0372  154.6627 C   0  0  2  0  0  0  0  0  0  0  0  0
  149.1295  137.1572  155.4380 O   0  0  0  0  0  0  0  0  0  0  0  0
  151.4038  137.6851  154.8069 C   0  0  1  0  0  0  0  0  0  0  0  0
  151.9515  137.3090  153.5593 O   0  0  0  0  0  0  0  0  0  0  0  0
  152.8735  139.9862  157.4677 N   0  0  0  0  0  0  0  0  0  0  0  0
  153.0020  139.2249  154.8677 H   0  0  0  0  0  0  0  0  0  0  0  0
  149.5115  139.4542  156.2621 H   0  0  0  0  0  0  0  0  0  0  0  0
  149.6047  137.9875  153.6188 H   0  0  0  0  0  0  0  0  0  0  0  0
  151.5893  136.8701  155.5084 H   0  0  0  0  0  0  0  0  0  0  0  0
  153.9404  142.2143  160.4013 H   0  0  0  0  0  0  0  0  0  0  0  0
  153.2022  142.0224  158.8228 H   0  0  0  0  0  0  0  0  0  0  0  0
  151.7514  136.9811  157.3627 H   0  0  0  0  0  0  0  0  0  0  0  0
  147.9559  139.7497  154.0508 H   0  0  0  0  0  0  0  0  0  0  0  0
  148.4024  141.1302  155.0411 H   0  0  0  0  0  0  0  0  0  0  0  0
  149.6742  140.2955  152.6837 H   0  0  0  0  0  0  0  0  0  0  0  0
  149.6161  136.9263  156.2146 H   0  0  0  0  0  0  0  0  0  0  0  0
  151.2430  137.1767  152.9481 H   0  0  0  0  0  0  0  0  0  0  0  0
  1  2  1  0  0  0  0
  1 22  1  0  0  0  0
  1 23  1  0  0  0  0
  2  3  2  0  0  0  0
  2  4  1  0  0  0  0
  4 17  2  0  0  0  0
  4  5  1  0  0  0  0
  5  6  2  0  0  0  0
  6  7  1  0  0  0  0
  6 24  1  0  0  0  0
  7  8  1  0  0  0  0
  7 17  1  0  0  0  0
  8 18  1  0  0  0  0
  8 15  1  0  0  0  0
  8  9  1  0  0  0  0
  9 10  1  0  0  0  0
 10 19  1  0  0  0  0
 10 11  1  0  0  0  0
 10 13  1  0  0  0  0
 11 12  1  0  0  0  0
 11 25  1  0  0  0  0
 11 26  1  0  0  0  0
 12 27  1  0  0  0  0
 13 20  1  0  0  0  0
 13 14  1  0  0  0  0
 13 15  1  0  0  0  0
 14 28  1  0  0  0  0
 15 21  1  0  0  0  0
 15 16  1  0  0  0  0
 16 29  1  0  0  0  0
M  END
> <s_m_source_file>
AV-unprocessed.smi

> <i_m_source_file_index>
160

> <i_lp_mmshare_version>
43012

> <i_f3d_flags>
0

> <s_epik_input>
W05IMl1DKD1PKWMxbltjSF1uKG4xKVtDQEBIXTJPW0NASF0oW0NIMl1bT0hdKVtDQEBIXShbT0hdKVtDQEhdMltPSF0=

> <s_epik_cmdline>
J2VwaWtfcHl0aG9uJywgJy1waCcsICc3LjAnLCAnLXRuJywgJzgnLCAnLW1hJywgJzIwMCcsICctbWV0YWxfYmluZGluZycsICctaW1hZScsICc8aW5maWxlLm1hZT4nLCAnLW9tYWUnLCAnPG91dGZpbGUubWFlPic=

> <r_lp_tautomer_probability>
1

> <r_epik_Ionization_Penalty>
1.06932e-05

> <r_epik_Ionization_Penalty_Charging>
0

> <r_epik_Ionization_Penalty_Neutral>
1.06932e-05

> <r_epik_State_Penalty>
-0

> <r_epik_Charging_Adjusted_Penalty>
0

> <i_epik_Tot_Q>
0

> <i_epik_Tot_abs_Q>
0

> <r_epik_Metal_State_Penalty>
0.0142097

> <b_epik_Metal_Only>
0

> <s_epik_Chemistry_Notes>
This compound contains an acetal/aminal-like group ( X-CH(R)-Y where X, Y are N, S, or O) that may be acid/base labile, releasing an aldehyde.

> <s_lp_Force_Field>
OPLS_2005

> <r_lp_Energy>
33.3091

> <b_lp_Chiralities_Consistent>
1

> <s_lp_Variant>
AV-unprocessed.smi:160-7

> <Gold.Version>
5.8.1

> <Gold.Id.Protein>
6NUR|6NUR_protein|mol2

> <Gold.PLP.Fitness>
40.6419

> <Gold.PLP.PLP>
-25.6757

> <Gold.PLP.part.hbond>
-6.3475

> <Gold.PLP.part.metal>
0.0000

> <Gold.PLP.part.buried>
-4.2783

> <Gold.PLP.part.nonpolar>
-15.4565

> <Gold.PLP.part.repulsive>
0.1075

> <Gold.PLP.ligand.clash>
0.0000

> <Gold.PLP.ligand.torsion>
0.5614

> <Gold.PLP.Chemscore.Hbond>
5.3520

> <Gold.PLP.Chemscore.CHOScore>
0.0000

> <Gold.PLP.Chemscore.Metal>
0.0000

> <Gold.Chemscore.Hbonds>
donor molecule, donor type, donor heavy atom, donor atom, acceptor molecule, acceptor atom, score
      L1  H    12    27       P1  7957  0.82
      L1  H    16    29       P1  7949  0.56
      P1  H  7989  7998       L1     9  1.00
      P1  H  7997  8009       L1    17  0.95
      P1  H  8011  8017       L1    12  0.90
      P1  H 10752 10763       L1    16  0.99

> <Gold.PLP.Chemscore.Internal.Correction>
0.0330

> <Gold.Rescore>
     Score         DG    S(hbond)    S(metal)    S(lipo)     H(rot)  DE(clash)    DE(int)     intcor
     11.12     -11.85       4.13        0.00      25.33       4.06       0.04       0.69       ----

> <Gold.Chemscore.Fitness>
11.1191

> <Gold.Chemscore.DG>
-11.8463

> <Gold.Chemscore.ZeroCoef>
-5.4800

> <Gold.Chemscore.Hbond>
4.1306

> <Gold.Chemscore.Metal>
0.0000

> <Gold.Chemscore.Lipo>
25.3304

> <Gold.Chemscore.Internal_Hbond>
0.0000

> <Gold.Chemscore.DEClash>
0.0402

> <Gold.Chemscore.DEInternal>
0.6870

> <Gold.Chemscore.Rot>
4.0600

> <Gold.Chemscore.Internal.Correction>
   9.000000E+99

> <Gold.Chemscore.Hbonds>
donor molecule, donor type, donor heavy atom, donor atom, acceptor molecule, acceptor atom, score
      L1  H    12    27       P1  7957  0.77
      L1  H    16    29       P1  7949  0.37
      P1  H  7989  7998       L1     9  0.59
      P1  H  7997  8009       L1    17  0.18
      P1  H  8011  8017       L1    12  0.18
      P1  H 10752 10763       L1    16  0.64

> <Gold.Chemscore.Hbond.Weighted>
-13.7963

> <Gold.Chemscore.Metal.Weighted>
-0.0000

> <Gold.Chemscore.Lipo.Weighted>
-2.9637

> <Gold.Chemscore.Internal_Hbond.Weighted>
0.0000

> <Gold.Chemscore.DEClash.Weighted>
0.0402

> <Gold.Chemscore.DEInternal.Weighted>
0.6870

> <Gold.Chemscore.Rot.Weighted>
10.3936

> <Gold.Chemscore.Internal.Correction.Weighted>
   9.000000E+99

> <Gold.Protein.RotatedTorsions>
[ 6907 6896 6895 6894 ] final -142.81 input  -60.11 | X-H torsion
[ 7974 7965 7964 7962 ] final   -3.91 input  175.53 | X-H torsion
[ 8008 7997 7996 7995 ] final -177.13 input   59.86 | X-H torsion
[ 10167 10162 10161 10158 ] final  -69.18 input  -65.29 | X-H torsion
[ 10718 10713 10712 10709 ] final  129.50 input   66.30 | X-H torsion
[ 10763 10752 10751 10750 ] final    7.23 input  -60.55 | X-H torsion
[ 11005 11000 10999 10996 ] final  -98.43 input  -57.11 | X-H torsion

> <Gold.Protein.ActiveResidues>
 VAL166  LYS551  ARG553  GLY616  TRP617  ASP618  TYR619  PRO620  LYS621  CYS622 
 ASP623  PHE694  ASN695  SER759  ASP760  ASP761  ALA762  ILE779  LEU786  VAL792 
 PHE793  MET794  SER795  GLU796  ALA797  LYS798  CYS799  TRP800  GLU811  SER814 

> <Gold.Protein.RotatedAtoms>
  151.0920  133.5308  159.2614 H   0  0  0  0  0  0  0  0  0  0  0  0  # atno 6907 bound_to 6896
  151.2172  135.0504  159.8945 H   0  0  0  0  0  0  0  0  0  0  0  0  # atno 6908 bound_to 6896
  152.5435  134.0728  159.8255 H   0  0  0  0  0  0  0  0  0  0  0  0  # atno 6909 bound_to 6896
  146.2381  140.1793  142.8332 H   0  0  0  0  0  0  0  0  0  0  0  0  # atno 7974 bound_to 7965
  156.0032  140.1225  157.0526 H   0  0  0  0  0  0  0  0  0  0  0  0  # atno 8008 bound_to 7997
  154.4250  140.1102  156.5795 H   0  0  0  0  0  0  0  0  0  0  0  0  # atno 8009 bound_to 7997
  155.6183  140.3472  155.4646 H   0  0  0  0  0  0  0  0  0  0  0  0  # atno 8010 bound_to 7997
  140.5450  143.2313  151.7018 H   0  0  0  0  0  0  0  0  0  0  0  0  # atno 10167 bound_to 10162
  157.5148  131.1097  150.9240 H   0  0  0  0  0  0  0  0  0  0  0  0  # atno 10718 bound_to 10713
  153.2387  135.6901  153.7808 H   0  0  0  0  0  0  0  0  0  0  0  0  # atno 10763 bound_to 10752
  153.6945  135.3307  155.3211 H   0  0  0  0  0  0  0  0  0  0  0  0  # atno 10764 bound_to 10752
  154.8346  135.4553  154.1300 H   0  0  0  0  0  0  0  0  0  0  0  0  # atno 10765 bound_to 10752
  141.1345  133.8245  157.0839 H   0  0  0  0  0  0  0  0  0  0  0  0  # atno 11005 bound_to 11000
  144.9948  140.8579  143.5318 LP  0  0  0  0  0  0  0  0  0  0  0  0  # atno 17320 bound_to 7965
  145.1804  139.2355  143.5295 LP  0  0  0  0  0  0  0  0  0  0  0  0  # atno 17321 bound_to 7965
  139.5004  144.3908  152.0281 LP  0  0  0  0  0  0  0  0  0  0  0  0  # atno 17342 bound_to 10162
  140.3020  144.3635  150.6057 LP  0  0  0  0  0  0  0  0  0  0  0  0  # atno 17343 bound_to 10162
  156.9869  130.5548  149.5300 LP  0  0  0  0  0  0  0  0  0  0  0  0  # atno 17370 bound_to 10713
  156.0313  130.5404  150.8541 LP  0  0  0  0  0  0  0  0  0  0  0  0  # atno 17371 bound_to 10713
  140.0434  134.9842  157.1005 LP  0  0  0  0  0  0  0  0  0  0  0  0  # atno 17394 bound_to 11000
  140.4099  134.1992  155.7163 LP  0  0  0  0  0  0  0  0  0  0  0  0  # atno 17395 bound_to 11000

$$$$
