#       Name:                AV-unprocessed.smi:1198
#       Creating user name   scv26
#       Creation time:       Fri Mar 27 04:02:37 2020


#       File generated by GOLD software.
#

@<TRIPOS>MOLECULE
AV-unprocessed.smi:1198
    45    46     1
SMALL
NO_CHARGES


@<TRIPOS>ATOM
      1 ****        -7.0135   3.1479   0.6100 C.3            1 S1                 0.0000
      2 ****        -6.4652   1.8365   0.6834 O.3            1 S1                 0.0000
      3 ****        -5.0922   1.7002   0.7034 C.ar           1 S1                 0.0000
      4 ****        -4.5449   0.4038   0.7734 C.ar           1 S1                 0.0000
      5 ****        -3.1449   0.2548   0.7931 C.ar           1 S1                 0.0000
      6 ****        -2.3330   1.4135   0.7496 C.ar           1 S1                 0.0000
      7 ****        -0.9119   1.3970   0.7406 N.am           1 S1                 0.0000
      8 ****        -0.0821   0.4173   1.1378 C.2            1 S1                 0.0000
      9 ****        -0.4282  -0.6483   1.6470 O.2            1 S1                 0.0000
     10 ****         1.1986   0.7507   0.9237 N.am           1 S1                 0.0000
     11 ****         2.3512  -0.0789   1.2605 C.3            1 S1                 0.0000
     12 ****         2.5105  -1.2822   0.3099 C.3            1 S1                 0.0000
     13 ****         3.7560  -2.1243   0.5788 C.3            1 S1                 0.0000
     14 ****         4.0038  -2.8654  -0.7410 C.3            1 S1                 0.0000
     15 ****         3.2686  -2.1224  -1.7914 N.4            1 S1                 1.0000
     16 ****         4.0528  -1.8499  -3.0138 C.3            1 S1                 0.0000
     17 ****         2.6813  -0.9196  -1.1663 C.3            1 S1                 0.0000
     18 ****        -2.9797   2.6642   0.6686 C.ar           1 S1                 0.0000
     19 ****        -4.3208   2.8141   0.6497 N.ar           1 S1                 0.0000
     20 ****        -8.1015   3.0842   0.6031 H              1 S1                 0.0000
     21 ****        -6.7066   3.6585  -0.3039 H              1 S1                 0.0000
     22 ****        -6.7230   3.7501   1.4719 H              1 S1                 0.0000
     23 ****        -5.1884  -0.4630   0.8064 H              1 S1                 0.0000
     24 ****        -2.7280  -0.7396   0.8260 H              1 S1                 0.0000
     25 ****        -0.4733   2.2514   0.4291 H              1 S1                 0.0000
     26 ****         1.3915   1.6519   0.5112 H              1 S1                 0.0000
     27 ****         3.2400   0.5513   1.2184 H              1 S1                 0.0000
     28 ****         2.2657  -0.4219   2.2928 H              1 S1                 0.0000
     29 ****         1.6405  -1.9346   0.4033 H              1 S1                 0.0000
     30 ****         4.6058  -1.4753   0.7958 H              1 S1                 0.0000
     31 ****         3.6320  -2.8018   1.4242 H              1 S1                 0.0000
     32 ****         5.0719  -2.9382  -0.9514 H              1 S1                 0.0000
     33 ****         3.6065  -3.8798  -0.6967 H              1 S1                 0.0000
     34 ****         4.9219  -1.2290  -2.7925 H              1 S1                 0.0000
     35 ****         3.4392  -1.3325  -3.7519 H              1 S1                 0.0000
     36 ****         4.4011  -2.7828  -3.4582 H              1 S1                 0.0000
     37 ****         1.7402  -0.6434  -1.6430 H              1 S1                 0.0000
     38 ****         3.3694  -0.0780  -1.2643 H              1 S1                 0.0000
     39 ****        -2.4035   3.5767   0.6197 H              1 S1                 0.0000
     40 ****         2.4927  -2.7121  -2.0577 H              1 S1                 0.0000
     41 ****        -6.8011   1.3305  -0.1110 LP             1 S1                 0.0000
     42 ****        -6.8165   1.4154   1.5197 LP             1 S1                 0.0000
     43 ****        -1.3985  -0.8401   1.7948 LP             1 S1                 0.0000
     44 ****         0.2608  -1.3225   1.9130 LP             1 S1                 0.0000
     45 ****        -4.7348   3.7228   0.5975 LP             1 S1                 0.0000
@<TRIPOS>BOND
    1    1    2 1     
    2    1   20 1     
    3    1   21 1     
    4    1   22 1     
    5    2    3 1     
    6    3   19 ar    
    7    3    4 ar    
    8    4    5 ar    
    9    4   23 1     
   10    5    6 ar    
   11    5   24 1     
   12    6    7 1     
   13    6   18 ar    
   14    7    8 am    
   15    7   25 1     
   16    8    9 2     
   17    8   10 am    
   18   10   11 1     
   19   10   26 1     
   20   11   12 1     
   21   11   27 1     
   22   11   28 1     
   23   12   17 1     
   24   12   13 1     
   25   12   29 1     
   26   13   14 1     
   27   13   30 1     
   28   13   31 1     
   29   14   15 1     
   30   14   32 1     
   31   14   33 1     
   32   15   16 1     
   33   15   17 1     
   34   15   40 1     
   35   16   34 1     
   36   16   35 1     
   37   16   36 1     
   38   17   37 1     
   39   17   38 1     
   40   18   19 ar    
   41   18   39 1     
   42    2   41 1     
   43    2   42 1     
   44    9   43 1     
   45    9   44 1     
   46   19   45 1     
@<TRIPOS>SUBSTRUCTURE
      1 S1             1
@<TRIPOS>SET
LONE_PAIRS      STATIC     ATOMS    <user>   **** ""
5 41 42 43 44 45
DONOR_HYDROGENS      STATIC     ATOMS    <user>   **** ""
3 25 26 40
ATOM$BLUE        STATIC     ATOMS    COLORGROUP SYSTEM
5 41 42 43 44 45
ATOM$RED        STATIC     ATOMS    COLORGROUP SYSTEM
3 25 26 40
