AV-unprocessed.smi:618|AV-procd|sdf|3079|dock1
  -GOLD-   22720 0 03D 1   1.00000     0.00000
 Structure written by MMmdl.
 41 43  0  0  0  0  0  0  0  0  2 V2000
  146.6319  137.6243  155.6194 O   0  0  0  0  0  0  0  0  0  0  0  0
  147.3391  137.1856  154.7135 C   0  0  0  0  0  0  0  0  0  0  0  0
  146.9398  136.2290  153.8640 N   0  0  0  0  0  0  0  0  0  0  0  0
  145.6396  135.5641  153.8943 C   0  0  0  0  0  0  0  0  0  0  0  0
  145.4302  134.5827  152.7225 C   0  0  1  0  0  0  0  0  0  0  0  0
  145.6062  135.2276  151.3304 C   0  0  0  0  0  0  0  0  0  0  0  0
  145.4896  134.2310  150.2408 N   0  3  2  0  0  0  0  0  0  0  0  0
  144.1190  133.8513  149.8349 C   0  0  0  0  0  0  0  0  0  0  0  0
  144.2077  132.4050  149.3224 C   0  0  0  0  0  0  0  0  0  0  0  0
  145.6884  132.0227  149.4250 C   0  0  0  0  0  0  0  0  0  0  0  0
  146.2570  132.9889  150.4654 C   0  0  2  0  0  0  0  0  0  0  0  0
  146.0765  132.4663  151.9084 C   0  0  0  0  0  0  0  0  0  0  0  0
  146.3429  133.4985  152.8470 O   0  0  0  0  0  0  0  0  0  0  0  0
  148.5886  137.5917  154.4302 N   0  0  0  0  0  0  0  0  0  0  0  0
  149.3838  138.5671  155.0918 C   0  0  0  0  0  0  0  0  0  0  0  0
  149.2643  138.9088  156.4612 C   0  0  0  0  0  0  0  0  0  0  0  0
  150.1276  139.8842  156.9962 C   0  0  0  0  0  0  0  0  0  0  0  0
  151.0815  140.4779  156.1472 C   0  0  0  0  0  0  0  0  0  0  0  0
  151.2145  140.1545  154.8439 N   0  0  0  0  0  0  0  0  0  0  0  0
  150.3836  139.2185  154.3380 C   0  0  0  0  0  0  0  0  0  0  0  0
  147.5821  135.9384  153.1414 H   0  0  0  0  0  0  0  0  0  0  0  0
  145.4944  135.0526  154.8473 H   0  0  0  0  0  0  0  0  0  0  0  0
  144.8772  136.3421  153.8505 H   0  0  0  0  0  0  0  0  0  0  0  0
  144.4162  134.1898  152.8139 H   0  0  0  0  0  0  0  0  0  0  0  0
  144.8889  136.0348  151.1774 H   0  0  0  0  0  0  0  0  0  0  0  0
  146.5988  135.6715  151.2501 H   0  0  0  0  0  0  0  0  0  0  0  0
  143.4299  133.9055  150.6786 H   0  0  0  0  0  0  0  0  0  0  0  0
  143.7565  134.5349  149.0668 H   0  0  0  0  0  0  0  0  0  0  0  0
  143.6051  131.7512  149.9545 H   0  0  0  0  0  0  0  0  0  0  0  0
  143.8365  132.3065  148.3018 H   0  0  0  0  0  0  0  0  0  0  0  0
  145.8394  130.9738  149.6835 H   0  0  0  0  0  0  0  0  0  0  0  0
  146.1742  132.1973  148.4640 H   0  0  0  0  0  0  0  0  0  0  0  0
  147.3155  133.1811  150.2852 H   0  0  0  0  0  0  0  0  0  0  0  0
  145.0701  132.0767  152.0708 H   0  0  0  0  0  0  0  0  0  0  0  0
  146.7626  131.6393  152.0928 H   0  0  0  0  0  0  0  0  0  0  0  0
  149.0109  137.1799  153.6109 H   0  0  0  0  0  0  0  0  0  0  0  0
  148.5447  138.4406  157.1137 H   0  0  0  0  0  0  0  0  0  0  0  0
  150.0622  140.1686  158.0360 H   0  0  0  0  0  0  0  0  0  0  0  0
  151.7592  141.2283  156.5265 H   0  0  0  0  0  0  0  0  0  0  0  0
  150.5213  138.9834  153.2925 H   0  0  0  0  0  0  0  0  0  0  0  0
  145.8934  134.6555  149.4178 H   0  0  0  0  0  0  0  0  0  0  0  0
  1  2  2  0  0  0  0
  2  3  1  0  0  0  0
  2 14  1  0  0  0  0
  3  4  1  0  0  0  0
  3 21  1  0  0  0  0
  4  5  1  0  0  0  0
  4 22  1  0  0  0  0
  4 23  1  0  0  0  0
  5 13  1  0  0  0  0
  5  6  1  0  0  0  0
  5 24  1  0  0  0  0
  6  7  1  0  0  0  0
  6 25  1  0  0  0  0
  6 26  1  0  0  0  0
  7 11  1  0  0  0  0
  7  8  1  0  0  0  0
  7 41  1  0  0  0  0
  8  9  1  0  0  0  0
  8 27  1  0  0  0  0
  8 28  1  0  0  0  0
  9 10  1  0  0  0  0
  9 29  1  0  0  0  0
  9 30  1  0  0  0  0
 10 11  1  0  0  0  0
 10 31  1  0  0  0  0
 10 32  1  0  0  0  0
 11 12  1  0  0  0  0
 11 33  1  0  0  0  0
 12 13  1  0  0  0  0
 12 34  1  0  0  0  0
 12 35  1  0  0  0  0
 14 15  1  0  0  0  0
 14 36  1  0  0  0  0
 15 20  1  0  0  0  0
 15 16  2  0  0  0  0
 16 17  1  0  0  0  0
 16 37  1  0  0  0  0
 17 18  2  0  0  0  0
 17 38  1  0  0  0  0
 18 19  1  0  0  0  0
 18 39  1  0  0  0  0
 19 20  2  0  0  0  0
 20 40  1  0  0  0  0
M  CHG  1   7   1
M  END
> <s_m_source_file>
AV-unprocessed.smi

> <i_m_source_file_index>
618

> <i_lp_mmshare_version>
43012

> <i_f3d_flags>
0

> <s_epik_input>
W2NIXTFuW2NIXVtjSF1bY0hdYzFbTkhdQyg9TylbTkhdW0NIMl1bQ0BIXShbQ0gyXTIpT1tDSDJdW0NAQEhdKE4yMylbQ0gyXVtDSDJdW0NIMl0z

> <s_epik_cmdline>
J2VwaWtfcHl0aG9uJywgJy1waCcsICc3LjAnLCAnLXRuJywgJzgnLCAnLW1hJywgJzIwMCcsICctbWV0YWxfYmluZGluZycsICctaW1hZScsICc8aW5maWxlLm1hZT4nLCAnLW9tYWUnLCAnPG91dGZpbGUubWFlPic=

> <r_epik_Ionization_Penalty>
0.111044

> <r_epik_Ionization_Penalty_Charging>
0.10673

> <r_epik_Ionization_Penalty_Neutral>
0.00431361

> <r_epik_State_Penalty>
0.0978747

> <r_epik_Charging_Adjusted_Penalty>
0.204605

> <i_epik_Tot_Q>
1

> <i_epik_Tot_abs_Q>
1

> <r_epik_Metal_State_Penalty>
0.0947591

> <b_epik_Metal_Only>
0

> <s_lp_Force_Field>
OPLS_2005

> <r_lp_Energy>
40.8554

> <b_lp_Chiralities_Consistent>
1

> <s_lp_Variant>
AV-unprocessed.smi:618-6

> <Gold.Version>
5.8.1

> <Gold.Id.Protein>
6NUR|6NUR_protein|mol2

> <Gold.PLP.Fitness>
44.7383

> <Gold.PLP.PLP>
-30.0873

> <Gold.PLP.part.hbond>
-4.0000

> <Gold.PLP.part.metal>
0.0000

> <Gold.PLP.part.buried>
-3.6404

> <Gold.PLP.part.nonpolar>
-23.6713

> <Gold.PLP.part.repulsive>
0.2718

> <Gold.PLP.ligand.clash>
0.0000

> <Gold.PLP.ligand.torsion>
0.1758

> <Gold.PLP.Chemscore.Hbond>
4.0000

> <Gold.PLP.Chemscore.CHOScore>
1.0000

> <Gold.PLP.Chemscore.Metal>
0.0000

> <Gold.Chemscore.Hbonds>
donor molecule, donor type, donor heavy atom, donor atom, acceptor molecule, acceptor atom, score
      L1  H     3    21       P1  7948  1.00
      L1  H     7    41       P1  7921  1.00
      L1  H    14    36       P1  7948  1.00
      P1  H  7989  7998       L1    19  1.00
      L1  C    20    40       P1  7957  1.00

> <Gold.PLP.Chemscore.Internal.Correction>
0.0027

> <Gold.Rescore>
     Score         DG    S(hbond)    S(metal)    S(lipo)     H(rot)  DE(clash)    DE(int)     intcor
     22.36     -23.67       3.48        0.00      83.84       1.27       0.32       0.99       ----

> <Gold.Chemscore.Fitness>
22.3583

> <Gold.Chemscore.DG>
-23.6708

> <Gold.Chemscore.ZeroCoef>
-5.4800

> <Gold.Chemscore.Hbond>
3.4794

> <Gold.Chemscore.Metal>
0.0000

> <Gold.Chemscore.Lipo>
83.8413

> <Gold.Chemscore.Internal_Hbond>
0.0000

> <Gold.Chemscore.DEClash>
0.3193

> <Gold.Chemscore.DEInternal>
0.9932

> <Gold.Chemscore.Rot>
1.2656

> <Gold.Chemscore.Internal.Correction>
   9.000000E+99

> <Gold.Chemscore.Hbonds>
donor molecule, donor type, donor heavy atom, donor atom, acceptor molecule, acceptor atom, score
      L1  H     3    21       P1  7948  0.98
      L1  H     7    41       P1  7921  0.73
      L1  H    14    36       P1  7948  0.96
      P1  H  7989  7998       L1    19  0.25

> <Gold.Chemscore.Hbond.Weighted>
-11.6212

> <Gold.Chemscore.Metal.Weighted>
-0.0000

> <Gold.Chemscore.Lipo.Weighted>
-9.8094

> <Gold.Chemscore.Internal_Hbond.Weighted>
0.0000

> <Gold.Chemscore.DEClash.Weighted>
0.3193

> <Gold.Chemscore.DEInternal.Weighted>
0.9932

> <Gold.Chemscore.Rot.Weighted>
3.2399

> <Gold.Chemscore.Internal.Correction.Weighted>
   9.000000E+99

> <Gold.Protein.RotatedTorsions>
[ 6907 6896 6895 6894 ] final   35.72 input  -60.11 | X-H torsion
[ 7974 7965 7964 7962 ] final    8.12 input  175.53 | X-H torsion
[ 8008 7997 7996 7995 ] final  129.19 input   59.86 | X-H torsion
[ 10167 10162 10161 10158 ] final   22.54 input  -65.29 | X-H torsion
[ 10718 10713 10712 10709 ] final  -21.20 input   66.30 | X-H torsion
[ 10763 10752 10751 10750 ] final -129.78 input  -60.55 | X-H torsion
[ 11005 11000 10999 10996 ] final  158.85 input  -57.11 | X-H torsion

> <Gold.Protein.ActiveResidues>
 VAL166  LYS551  ARG553  GLY616  TRP617  ASP618  TYR619  PRO620  LYS621  CYS622 
 ASP623  PHE694  ASN695  SER759  ASP760  ASP761  ALA762  ILE779  LEU786  VAL792 
 PHE793  MET794  SER795  GLU796  ALA797  LYS798  CYS799  TRP800  GLU811  SER814 

> <Gold.Protein.RotatedAtoms>
  152.1200  134.9212  160.0563 H   0  0  0  0  0  0  0  0  0  0  0  0  # atno 6907 bound_to 6896
  152.0357  133.3951  159.4324 H   0  0  0  0  0  0  0  0  0  0  0  0  # atno 6908 bound_to 6896
  150.6848  134.3392  159.4904 H   0  0  0  0  0  0  0  0  0  0  0  0  # atno 6909 bound_to 6896
  146.2419  139.9981  142.8419 H   0  0  0  0  0  0  0  0  0  0  0  0  # atno 7974 bound_to 7965
  156.2931  140.2626  156.2558 H   0  0  0  0  0  0  0  0  0  0  0  0  # atno 8008 bound_to 7997
  154.9837  140.0389  157.2307 H   0  0  0  0  0  0  0  0  0  0  0  0  # atno 8009 bound_to 7997
  154.7748  140.2784  155.6114 H   0  0  0  0  0  0  0  0  0  0  0  0  # atno 8010 bound_to 7997
  140.5340  143.9793  150.6481 H   0  0  0  0  0  0  0  0  0  0  0  0  # atno 10167 bound_to 10162
  156.5213  130.4633  149.6595 H   0  0  0  0  0  0  0  0  0  0  0  0  # atno 10718 bound_to 10713
  154.8757  135.3884  154.3975 H   0  0  0  0  0  0  0  0  0  0  0  0  # atno 10763 bound_to 10752
  153.4704  135.7030  153.6002 H   0  0  0  0  0  0  0  0  0  0  0  0  # atno 10764 bound_to 10752
  153.4462  135.3844  155.2225 H   0  0  0  0  0  0  0  0  0  0  0  0  # atno 10765 bound_to 10752
  140.1905  134.8411  157.2906 H   0  0  0  0  0  0  0  0  0  0  0  0  # atno 11005 bound_to 11000
  145.1441  140.9587  143.4471 LP  0  0  0  0  0  0  0  0  0  0  0  0  # atno 17320 bound_to 7965
  145.0268  139.3376  143.6045 LP  0  0  0  0  0  0  0  0  0  0  0  0  # atno 17321 bound_to 7965
  140.3175  143.3158  152.0817 LP  0  0  0  0  0  0  0  0  0  0  0  0  # atno 17342 bound_to 10162
  139.4964  144.6596  151.6495 LP  0  0  0  0  0  0  0  0  0  0  0  0  # atno 17343 bound_to 10162
  156.3146  130.7248  151.2147 LP  0  0  0  0  0  0  0  0  0  0  0  0  # atno 17370 bound_to 10713
  157.7436  131.0472  150.4932 LP  0  0  0  0  0  0  0  0  0  0  0  0  # atno 17371 bound_to 10713
  140.2165  134.4075  155.7586 LP  0  0  0  0  0  0  0  0  0  0  0  0  # atno 17394 bound_to 11000
  141.2226  133.7144  156.8422 LP  0  0  0  0  0  0  0  0  0  0  0  0  # atno 17395 bound_to 11000

$$$$
