AV-unprocessed.smi:2784|AV-procd|sdf|10735|dock8
  -GOLD-   2272015173D 1   1.00000     0.00000
 Structure written by MMmdl.
 31 32  0  0  0  0  0  0  0  0  1 V2000
  149.8441  144.9471  160.3230 C   0  0  0  0  0  0  0  0  0  0  0  0
  150.5196  143.7276  160.0623 O   0  0  0  0  0  0  0  0  0  0  0  0
  151.9296  143.8720  159.9128 C   0  0  1  0  0  0  0  0  0  0  0  0
  152.5181  143.9109  161.3243 C   0  0  0  0  0  0  0  0  0  0  0  0
  152.6369  142.4431  161.7235 C   0  0  0  0  0  0  0  0  0  0  0  0
  153.0412  141.7255  160.4335 C   0  0  0  0  0  0  0  0  0  0  0  0
  152.5592  142.6134  159.2691 C   0  0  1  0  0  0  0  0  0  0  0  0
  151.6309  141.8849  158.4058 N   0  0  0  0  0  0  0  0  0  0  0  0
  151.8403  140.6656  157.8881 C   0  0  0  0  0  0  0  0  0  0  0  0
  152.8797  140.0382  158.1148 O   0  0  0  0  0  0  0  0  0  0  0  0
  150.7571  140.2907  157.1058 N   0  0  0  0  0  0  0  0  0  0  0  0
  150.9007  139.3902  156.1821 C   0  0  0  0  0  0  0  0  0  0  0  0
  151.9897  138.6374  155.7504 N   0  0  0  0  0  0  0  0  0  0  0  0
  151.5717  137.8282  154.7312 C   0  0  0  0  0  0  0  0  0  0  0  0
  150.2787  138.0591  154.5260 C   0  0  0  0  0  0  0  0  0  0  0  0
  149.8404  139.0097  155.3984 O   0  0  0  0  0  0  0  0  0  0  0  0
  148.7715  144.7651  160.3876 H   0  0  0  0  0  0  0  0  0  0  0  0
  150.0150  145.6756  159.5302 H   0  0  0  0  0  0  0  0  0  0  0  0
  150.1703  145.3786  161.2702 H   0  0  0  0  0  0  0  0  0  0  0  0
  152.1886  144.7786  159.3620 H   0  0  0  0  0  0  0  0  0  0  0  0
  153.5114  144.3607  161.2941 H   0  0  0  0  0  0  0  0  0  0  0  0
  151.9134  144.4918  162.0218 H   0  0  0  0  0  0  0  0  0  0  0  0
  153.3489  142.2839  162.5335 H   0  0  0  0  0  0  0  0  0  0  0  0
  151.6657  142.0763  162.0582 H   0  0  0  0  0  0  0  0  0  0  0  0
  154.1266  141.6292  160.3910 H   0  0  0  0  0  0  0  0  0  0  0  0
  152.6307  140.7150  160.4006 H   0  0  0  0  0  0  0  0  0  0  0  0
  153.4400  142.9107  158.6968 H   0  0  0  0  0  0  0  0  0  0  0  0
  150.7665  142.3524  158.1736 H   0  0  0  0  0  0  0  0  0  0  0  0
  152.9365  138.6512  156.1019 H   0  0  0  0  0  0  0  0  0  0  0  0
  152.2643  137.1544  154.2487 H   0  0  0  0  0  0  0  0  0  0  0  0
  149.5612  137.6479  153.8314 H   0  0  0  0  0  0  0  0  0  0  0  0
  1  2  1  0  0  0  0
  1 17  1  0  0  0  0
  1 18  1  0  0  0  0
  1 19  1  0  0  0  0
  2  3  1  0  0  0  0
  3  7  1  0  0  0  0
  3  4  1  0  0  0  0
  3 20  1  0  0  0  0
  4  5  1  0  0  0  0
  4 21  1  0  0  0  0
  4 22  1  0  0  0  0
  5  6  1  0  0  0  0
  5 23  1  0  0  0  0
  5 24  1  0  0  0  0
  6  7  1  0  0  0  0
  6 25  1  0  0  0  0
  6 26  1  0  0  0  0
  7  8  1  0  0  0  0
  7 27  1  0  0  0  0
  8 28  1  0  0  0  0
  8  9  1  0  0  0  0
  9 11  1  0  0  0  0
  9 10  2  0  0  0  0
 11 12  2  0  0  0  0
 12 16  1  0  0  0  0
 12 13  1  0  0  0  0
 13 29  1  0  0  0  0
 13 14  1  0  0  0  0
 14 30  1  0  0  0  0
 14 15  2  0  0  0  0
 15 31  1  0  0  0  0
 15 16  1  0  0  0  0
M  END
> <s_m_source_file>
AV-unprocessed.smi

> <i_m_source_file_index>
2784

> <i_lp_mmshare_version>
43012

> <i_f3d_flags>
0

> <s_epik_input>
W0NIM11PW0NAQEhdMVtDSDJdW0NIMl1bQ0gyXVtDQEhdMVtOSF1DKD1PKVtOSF1jMm5bY0hdW2NIXW8y

> <s_epik_cmdline>
J2VwaWtfcHl0aG9uJywgJy1waCcsICc3LjAnLCAnLXRuJywgJzgnLCAnLW1hJywgJzIwMCcsICctbWV0YWxfYmluZGluZycsICctaW1hZScsICc8aW5maWxlLm1hZT4nLCAnLW9tYWUnLCAnPG91dGZpbGUubWFlPic=

> <r_lp_tautomer_probability>
0.107061

> <r_epik_Ionization_Penalty>
1.29244

> <r_epik_Ionization_Penalty_Charging>
1.29208

> <r_epik_Ionization_Penalty_Neutral>
0.000359742

> <r_epik_State_Penalty>
2.59896

> <r_epik_Charging_Adjusted_Penalty>
3.89105

> <i_epik_Tot_Q>
0

> <i_epik_Tot_abs_Q>
0

> <r_epik_Metal_State_Penalty>
3.62496

> <b_epik_Metal_Only>
0

> <s_lp_Force_Field>
OPLS_2005

> <r_lp_Energy>
46.0915

> <b_lp_Chiralities_Consistent>
1

> <s_lp_Variant>
AV-unprocessed.smi:2784-10

> <Gold.Version>
5.8.1

> <Gold.Id.Protein>
6NUR|6NUR_protein|mol2

> <Gold.PLP.Fitness>
39.6836

> <Gold.PLP.PLP>
-34.2874

> <Gold.PLP.part.hbond>
-1.6616

> <Gold.PLP.part.metal>
0.0000

> <Gold.PLP.part.buried>
-5.5463

> <Gold.PLP.part.nonpolar>
-26.8737

> <Gold.PLP.part.repulsive>
0.4474

> <Gold.PLP.ligand.clash>
0.0000

> <Gold.PLP.ligand.torsion>
0.3728

> <Gold.PLP.Chemscore.Hbond>
0.9920

> <Gold.PLP.Chemscore.CHOScore>
1.0512

> <Gold.PLP.Chemscore.Metal>
0.0000

> <Gold.Chemscore.Hbonds>
donor molecule, donor type, donor heavy atom, donor atom, acceptor molecule, acceptor atom, score
      P1  H  7997  8010       L1    10  1.00
      L1  C    15    31       P1  7948  1.00

> <Gold.PLP.Chemscore.Internal.Correction>
0.0122

> <Gold.Rescore>
     Score         DG    S(hbond)    S(metal)    S(lipo)     H(rot)  DE(clash)    DE(int)     intcor
     13.65     -15.00       0.98        0.00      82.32       1.32       0.00       1.34       ----

> <Gold.Chemscore.Fitness>
13.6534

> <Gold.Chemscore.DG>
-14.9973

> <Gold.Chemscore.ZeroCoef>
-5.4800

> <Gold.Chemscore.Hbond>
0.9804

> <Gold.Chemscore.Metal>
0.0000

> <Gold.Chemscore.Lipo>
82.3167

> <Gold.Chemscore.Internal_Hbond>
0.0000

> <Gold.Chemscore.DEClash>
0.0004

> <Gold.Chemscore.DEInternal>
1.3435

> <Gold.Chemscore.Rot>
1.3235

> <Gold.Chemscore.Internal.Correction>
   9.000000E+99

> <Gold.Chemscore.Hbonds>
donor molecule, donor type, donor heavy atom, donor atom, acceptor molecule, acceptor atom, score
      P1  H  7997  8010       L1    10  0.92

> <Gold.Chemscore.Hbond.Weighted>
-3.2745

> <Gold.Chemscore.Metal.Weighted>
-0.0000

> <Gold.Chemscore.Lipo.Weighted>
-9.6311

> <Gold.Chemscore.Internal_Hbond.Weighted>
0.0000

> <Gold.Chemscore.DEClash.Weighted>
0.0004

> <Gold.Chemscore.DEInternal.Weighted>
1.3435

> <Gold.Chemscore.Rot.Weighted>
3.3882

> <Gold.Chemscore.Internal.Correction.Weighted>
   9.000000E+99

> <Gold.Protein.RotatedTorsions>
[ 6907 6896 6895 6894 ] final  -90.40 input  -60.11 | X-H torsion
[ 7974 7965 7964 7962 ] final  -10.16 input  175.53 | X-H torsion
[ 8008 7997 7996 7995 ] final   41.76 input   59.86 | X-H torsion
[ 10167 10162 10161 10158 ] final   12.62 input  -65.29 | X-H torsion
[ 10718 10713 10712 10709 ] final  -71.36 input   66.30 | X-H torsion
[ 10763 10752 10751 10750 ] final   92.06 input  -60.55 | X-H torsion
[ 11005 11000 10999 10996 ] final  -82.10 input  -57.11 | X-H torsion

> <Gold.Protein.ActiveResidues>
 VAL166  LYS551  ARG553  GLY616  TRP617  ASP618  TYR619  PRO620  LYS621  CYS622 
 ASP623  PHE694  ASN695  SER759  ASP760  ASP761  ALA762  ILE779  LEU786  VAL792 
 PHE793  MET794  SER795  GLU796  ALA797  LYS798  CYS799  TRP800  GLU811  SER814 

> <Gold.Protein.RotatedAtoms>
  150.6881  134.2438  159.4482 H   0  0  0  0  0  0  0  0  0  0  0  0  # atno 6907 bound_to 6896
  152.0380  134.9726  160.0583 H   0  0  0  0  0  0  0  0  0  0  0  0  # atno 6908 bound_to 6896
  152.1239  133.4334  159.4725 H   0  0  0  0  0  0  0  0  0  0  0  0  # atno 6909 bound_to 6896
  146.2229  140.2723  142.8357 H   0  0  0  0  0  0  0  0  0  0  0  0  # atno 7974 bound_to 7965
  155.2749  140.3368  155.4262 H   0  0  0  0  0  0  0  0  0  0  0  0  # atno 8008 bound_to 7997
  156.2116  140.1772  156.7724 H   0  0  0  0  0  0  0  0  0  0  0  0  # atno 8009 bound_to 7997
  154.5694  140.0673  156.8926 H   0  0  0  0  0  0  0  0  0  0  0  0  # atno 8010 bound_to 7997
  140.6056  143.8514  150.7010 H   0  0  0  0  0  0  0  0  0  0  0  0  # atno 10167 bound_to 10162
  156.0366  130.4350  150.2432 H   0  0  0  0  0  0  0  0  0  0  0  0  # atno 10718 bound_to 10713
  153.2150  135.4375  155.0423 H   0  0  0  0  0  0  0  0  0  0  0  0  # atno 10763 bound_to 10752
  154.8220  135.3342  154.7012 H   0  0  0  0  0  0  0  0  0  0  0  0  # atno 10764 bound_to 10752
  153.7448  135.7002  153.5015 H   0  0  0  0  0  0  0  0  0  0  0  0  # atno 10765 bound_to 10752
  141.1664  133.7228  156.8521 H   0  0  0  0  0  0  0  0  0  0  0  0  # atno 11005 bound_to 11000
  144.9259  140.7920  143.5719 LP  0  0  0  0  0  0  0  0  0  0  0  0  # atno 17320 bound_to 7965
  145.2663  139.1972  143.4865 LP  0  0  0  0  0  0  0  0  0  0  0  0  # atno 17321 bound_to 7965
  140.2071  143.3913  152.1747 LP  0  0  0  0  0  0  0  0  0  0  0  0  # atno 17342 bound_to 10162
  139.5323  144.7172  151.5014 LP  0  0  0  0  0  0  0  0  0  0  0  0  # atno 17343 bound_to 10162
  157.0531  131.0068  151.3247 LP  0  0  0  0  0  0  0  0  0  0  0  0  # atno 17370 bound_to 10713
  157.5126  130.7948  149.7721 LP  0  0  0  0  0  0  0  0  0  0  0  0  # atno 17371 bound_to 10713
  140.1908  134.8967  157.3058 LP  0  0  0  0  0  0  0  0  0  0  0  0  # atno 17394 bound_to 11000
  140.2292  134.3929  155.7529 LP  0  0  0  0  0  0  0  0  0  0  0  0  # atno 17395 bound_to 11000

$$$$
