AV-unprocessed.smi:610|AV-procd|sdf|3054|dock9
  -GOLD-   2262023573D 1   1.00000     0.00000
 Structure written by MMmdl.
 39 40  0  0  0  0  0  0  0  0  3 V2000
  148.2998  138.0733  154.4234 C   0  0  0  0  0  0  0  0  0  0  0  0
  147.0994  138.3146  153.4982 C   0  0  1  0  0  0  0  0  0  0  0  0
  147.3168  139.5673  152.6223 C   0  0  0  0  0  0  0  0  0  0  0  0
  147.3278  140.8149  153.3945 N   0  0  0  0  0  0  0  0  0  0  0  0
  146.2563  141.4376  153.9818 C   0  0  0  0  0  0  0  0  0  0  0  0
  146.7440  142.5672  154.5868 C   0  0  0  0  0  0  0  0  0  0  0  0
  148.0925  142.5821  154.3508 N   0  3  0  0  0  0  0  0  0  0  0  0
  148.4468  141.5120  153.6319 C   0  0  0  0  0  0  0  0  0  0  0  0
  146.8952  137.1240  152.6737 N   0  0  0  0  0  0  0  0  0  0  0  0
  145.7967  136.3486  152.6590 C   0  0  0  0  0  0  0  0  0  0  0  0
  144.8199  136.5768  153.3733 O   0  0  0  0  0  0  0  0  0  0  0  0
  145.7768  135.1201  151.7183 C   0  0  0  0  0  0  0  0  0  0  0  0
  146.9299  134.2752  152.0802 N   0  3  0  0  0  0  0  0  0  0  0  0
  144.4527  134.3437  151.8498 C   0  0  0  0  0  0  0  0  0  0  0  0
  143.4673  135.0398  150.8987 C   0  0  0  0  0  0  0  0  0  0  0  0
  144.3238  135.7954  149.8705 C   0  0  0  0  0  0  0  0  0  0  0  0
  145.7808  135.4588  150.2131 C   0  0  0  0  0  0  0  0  0  0  0  0
  148.4662  138.9271  155.0809 H   0  0  0  0  0  0  0  0  0  0  0  0
  149.2152  137.9106  153.8531 H   0  0  0  0  0  0  0  0  0  0  0  0
  148.1409  137.1991  155.0557 H   0  0  0  0  0  0  0  0  0  0  0  0
  146.2291  138.4756  154.1373 H   0  0  0  0  0  0  0  0  0  0  0  0
  148.2765  139.5057  152.1078 H   0  0  0  0  0  0  0  0  0  0  0  0
  146.5496  139.6391  151.8493 H   0  0  0  0  0  0  0  0  0  0  0  0
  145.2516  141.0444  153.9216 H   0  0  0  0  0  0  0  0  0  0  0  0
  146.2456  143.3400  155.1540 H   0  0  0  0  0  0  0  0  0  0  0  0
  149.4403  141.2649  153.3026 H   0  0  0  0  0  0  0  0  0  0  0  0
  147.6574  136.8673  152.0628 H   0  0  0  0  0  0  0  0  0  0  0  0
  147.0620  133.5612  151.3782 H   0  0  0  0  0  0  0  0  0  0  0  0
  146.7552  133.8404  152.9752 H   0  0  0  0  0  0  0  0  0  0  0  0
  144.5948  133.3131  151.5204 H   0  0  0  0  0  0  0  0  0  0  0  0
  144.0663  134.2948  152.8688 H   0  0  0  0  0  0  0  0  0  0  0  0
  142.8050  134.3167  150.4214 H   0  0  0  0  0  0  0  0  0  0  0  0
  142.8387  135.7412  151.4477 H   0  0  0  0  0  0  0  0  0  0  0  0
  144.0785  135.5159  148.8454 H   0  0  0  0  0  0  0  0  0  0  0  0
  144.1521  136.8685  149.9655 H   0  0  0  0  0  0  0  0  0  0  0  0
  146.4730  136.2519  149.9277 H   0  0  0  0  0  0  0  0  0  0  0  0
  146.0775  134.5762  149.6436 H   0  0  0  0  0  0  0  0  0  0  0  0
  147.7606  134.8460  152.1428 H   0  0  0  0  0  0  0  0  0  0  0  0
  148.7319  143.2958  154.6781 H   0  0  0  0  0  0  0  0  0  0  0  0
  1  2  1  0  0  0  0
  1 18  1  0  0  0  0
  1 19  1  0  0  0  0
  1 20  1  0  0  0  0
  2  3  1  0  0  0  0
  2  9  1  0  0  0  0
  2 21  1  0  0  0  0
  3  4  1  0  0  0  0
  3 22  1  0  0  0  0
  3 23  1  0  0  0  0
  4  8  1  0  0  0  0
  4  5  1  0  0  0  0
  5  6  2  0  0  0  0
  5 24  1  0  0  0  0
  6  7  1  0  0  0  0
  6 25  1  0  0  0  0
  7  8  2  0  0  0  0
  7 39  1  0  0  0  0
  8 26  1  0  0  0  0
  9 10  1  0  0  0  0
  9 27  1  0  0  0  0
 10 11  2  0  0  0  0
 10 12  1  0  0  0  0
 12 17  1  0  0  0  0
 12 13  1  0  0  0  0
 12 14  1  0  0  0  0
 13 28  1  0  0  0  0
 13 29  1  0  0  0  0
 13 38  1  0  0  0  0
 14 15  1  0  0  0  0
 14 30  1  0  0  0  0
 14 31  1  0  0  0  0
 15 16  1  0  0  0  0
 15 32  1  0  0  0  0
 15 33  1  0  0  0  0
 16 17  1  0  0  0  0
 16 34  1  0  0  0  0
 16 35  1  0  0  0  0
 17 36  1  0  0  0  0
 17 37  1  0  0  0  0
M  CHG  1   7   1
M  CHG  1  13   1
M  END
> <s_m_source_file>
AV-unprocessed.smi

> <i_m_source_file_index>
610

> <i_lp_mmshare_version>
43012

> <i_f3d_flags>
0

> <s_epik_input>
W2NIXTFuW2NIXVtjSF1uMVtDSDJdW0NAQEhdKFtDSDNdKVtOSF1DKD1PKUMyKFtOSDJdKVtDSDJdW0NIMl1bQ0gyXVtDSDJdMg==

> <s_epik_cmdline>
J2VwaWtfcHl0aG9uJywgJy1waCcsICc3LjAnLCAnLXRuJywgJzgnLCAnLW1hJywgJzIwMCcsICctbWV0YWxfYmluZGluZycsICctaW1hZScsICc8aW5maWxlLm1hZT4nLCAnLW9tYWUnLCAnPG91dGZpbGUubWFlPic=

> <r_lp_tautomer_probability>
1

> <r_epik_Ionization_Penalty>
0.349719

> <r_epik_Ionization_Penalty_Charging>
0.0753376

> <r_epik_Ionization_Penalty_Neutral>
0.274381

> <r_epik_State_Penalty>
0.326418

> <r_epik_Charging_Adjusted_Penalty>
0.401755

> <i_epik_Tot_Q>
2

> <i_epik_Tot_abs_Q>
2

> <r_epik_Metal_State_Penalty>
0.608513

> <b_epik_Metal_Only>
0

> <s_lp_Force_Field>
OPLS_2005

> <r_lp_Energy>
30.9651

> <b_lp_Chiralities_Consistent>
1

> <s_lp_Variant>
AV-unprocessed.smi:610-2

> <Gold.Version>
5.8.1

> <Gold.Id.Protein>
6NUR|6NUR_protein|mol2

> <Gold.PLP.Fitness>
45.6079

> <Gold.PLP.PLP>
-25.8267

> <Gold.PLP.part.hbond>
-2.9264

> <Gold.PLP.part.metal>
0.0000

> <Gold.PLP.part.buried>
-1.4961

> <Gold.PLP.part.nonpolar>
-21.8615

> <Gold.PLP.part.repulsive>
0.2583

> <Gold.PLP.ligand.clash>
0.0000

> <Gold.PLP.ligand.torsion>
0.2234

> <Gold.PLP.Chemscore.Hbond>
4.9840

> <Gold.PLP.Chemscore.CHOScore>
1.7391

> <Gold.PLP.Chemscore.Metal>
0.0000

> <Gold.Chemscore.Hbonds>
donor molecule, donor type, donor heavy atom, donor atom, acceptor molecule, acceptor atom, score
      L1  H     7    39       P1  8028  1.76
      L1  H     9    27       P1  7948  0.78
      L1  H    13    38       P1  7948  2.00
      L1  C     5    24       P1 10175  1.00
      L1  C     8    26       P1  7957  0.73

> <Gold.PLP.Chemscore.Internal.Correction>
0.0587

> <Gold.Rescore>
     Score         DG    S(hbond)    S(metal)    S(lipo)     H(rot)  DE(clash)    DE(int)     intcor
     14.26     -14.94       2.76        0.00      47.38       2.06       0.12       0.57       ----

> <Gold.Chemscore.Fitness>
14.2570

> <Gold.Chemscore.DG>
-14.9448

> <Gold.Chemscore.ZeroCoef>
-5.4800

> <Gold.Chemscore.Hbond>
2.7563

> <Gold.Chemscore.Metal>
0.0000

> <Gold.Chemscore.Lipo>
47.3802

> <Gold.Chemscore.Internal_Hbond>
0.0000

> <Gold.Chemscore.DEClash>
0.1162

> <Gold.Chemscore.DEInternal>
0.5716

> <Gold.Chemscore.Rot>
2.0644

> <Gold.Chemscore.Internal.Correction>
   9.000000E+99

> <Gold.Chemscore.Hbonds>
donor molecule, donor type, donor heavy atom, donor atom, acceptor molecule, acceptor atom, score
      L1  H     7    39       P1  8028  0.86
      L1  H     9    27       P1  7948  0.74
      L1  H    13    38       P1  7948  0.74

> <Gold.Chemscore.Hbond.Weighted>
-9.2061

> <Gold.Chemscore.Metal.Weighted>
-0.0000

> <Gold.Chemscore.Lipo.Weighted>
-5.5435

> <Gold.Chemscore.Internal_Hbond.Weighted>
0.0000

> <Gold.Chemscore.DEClash.Weighted>
0.1162

> <Gold.Chemscore.DEInternal.Weighted>
0.5716

> <Gold.Chemscore.Rot.Weighted>
5.2848

> <Gold.Chemscore.Internal.Correction.Weighted>
   9.000000E+99

> <Gold.Protein.RotatedTorsions>
[ 6907 6896 6895 6894 ] final -130.02 input  -60.11 | X-H torsion
[ 7974 7965 7964 7962 ] final -127.19 input  175.53 | X-H torsion
[ 8008 7997 7996 7995 ] final   60.78 input   59.86 | X-H torsion
[ 10167 10162 10161 10158 ] final  -73.30 input  -65.29 | X-H torsion
[ 10718 10713 10712 10709 ] final -175.65 input   66.30 | X-H torsion
[ 10763 10752 10751 10750 ] final -100.17 input  -60.55 | X-H torsion
[ 11005 11000 10999 10996 ] final  -58.05 input  -57.11 | X-H torsion

> <Gold.Protein.ActiveResidues>
 VAL166  LYS551  ARG553  GLY616  TRP617  ASP618  TYR619  PRO620  LYS621  CYS622 
 ASP623  PHE694  ASN695  SER759  ASP760  ASP761  ALA762  ILE779  LEU786  VAL792 
 PHE793  MET794  SER795  GLU796  ALA797  LYS798  CYS799  TRP800  GLU811  SER814 

> <Gold.Protein.RotatedAtoms>
  150.9352  133.6721  159.2802 H   0  0  0  0  0  0  0  0  0  0  0  0  # atno 6907 bound_to 6896
  151.4129  135.0986  159.9600 H   0  0  0  0  0  0  0  0  0  0  0  0  # atno 6908 bound_to 6896
  152.5044  133.8821  159.7406 H   0  0  0  0  0  0  0  0  0  0  0  0  # atno 6909 bound_to 6896
  144.9796  140.7627  143.4620 H   0  0  0  0  0  0  0  0  0  0  0  0  # atno 7974 bound_to 7965
  155.5877  140.3492  155.4558 H   0  0  0  0  0  0  0  0  0  0  0  0  # atno 8008 bound_to 7997
  156.0325  140.1277  157.0268 H   0  0  0  0  0  0  0  0  0  0  0  0  # atno 8009 bound_to 7997
  154.4358  140.1040  156.6105 H   0  0  0  0  0  0  0  0  0  0  0  0  # atno 8010 bound_to 7997
  140.5122  143.2343  151.7574 H   0  0  0  0  0  0  0  0  0  0  0  0  # atno 10167 bound_to 10162
  156.8030  130.9559  151.3118 H   0  0  0  0  0  0  0  0  0  0  0  0  # atno 10718 bound_to 10713
  154.7557  135.4945  153.9370 H   0  0  0  0  0  0  0  0  0  0  0  0  # atno 10763 bound_to 10752
  153.1193  135.6728  153.9371 H   0  0  0  0  0  0  0  0  0  0  0  0  # atno 10764 bound_to 10752
  153.9107  135.3099  155.3427 H   0  0  0  0  0  0  0  0  0  0  0  0  # atno 10765 bound_to 10752
  141.1191  133.6611  156.4862 H   0  0  0  0  0  0  0  0  0  0  0  0  # atno 11005 bound_to 11000
  145.2440  139.2060  143.4978 LP  0  0  0  0  0  0  0  0  0  0  0  0  # atno 17320 bound_to 7965
  146.3404  140.2341  142.8594 LP  0  0  0  0  0  0  0  0  0  0  0  0  # atno 17321 bound_to 7965
  139.4899  144.4374  151.9803 LP  0  0  0  0  0  0  0  0  0  0  0  0  # atno 17342 bound_to 10162
  140.3467  144.3138  150.5957 LP  0  0  0  0  0  0  0  0  0  0  0  0  # atno 17343 bound_to 10162
  157.6544  130.8912  149.9699 LP  0  0  0  0  0  0  0  0  0  0  0  0  # atno 17370 bound_to 10713
  156.1090  130.3651  150.0083 LP  0  0  0  0  0  0  0  0  0  0  0  0  # atno 17371 bound_to 10713
  140.4560  134.6885  157.5063 LP  0  0  0  0  0  0  0  0  0  0  0  0  # atno 17394 bound_to 11000
  140.0134  134.6656  155.9346 LP  0  0  0  0  0  0  0  0  0  0  0  0  # atno 17395 bound_to 11000

$$$$
