AV-unprocessed.smi:2100|AV-procd|sdf|8578|dock8
  -GOLD-   2272011313D 1   1.00000     0.00000
 Structure written by MMmdl.
 40 41  0  0  0  0  0  0  0  0  2 V2000
  156.9323  135.1659  160.4742 C   0  0  0  0  0  0  0  0  0  0  0  0
  156.7623  136.6947  160.5308 C   0  0  1  0  0  0  0  0  0  0  0  0
  155.8447  137.2422  159.4233 C   0  0  0  0  0  0  0  0  0  0  0  0
  154.4251  136.9618  159.7124 N   0  0  0  0  0  0  0  0  0  0  0  0
  153.2806  137.1747  158.4246 S   0  0  0  0  0  0  0  0  0  0  0  0
  153.7649  136.3734  157.2887 O   0  0  0  0  0  0  0  0  0  0  0  0
  151.9674  136.8350  158.9969 O   0  0  0  0  0  0  0  0  0  0  0  0
  153.5210  138.7621  158.2132 N   0  5  0  0  0  0  0  0  0  0  0  0
  152.6882  139.7162  158.9246 C   0  0  0  0  0  0  0  0  0  0  0  0
  153.4814  140.3395  160.0967 C   0  0  0  0  0  0  0  0  0  0  0  0
  152.9985  141.7179  160.5450 C   0  0  0  0  0  0  0  0  0  0  0  0
  153.4785  142.2935  161.7442 C   0  0  0  0  0  0  0  0  0  0  0  0
  153.0064  143.5648  162.1204 C   0  0  0  0  0  0  0  0  0  0  0  0
  152.0830  144.2200  161.2837 C   0  0  0  0  0  0  0  0  0  0  0  0
  151.6713  143.5704  160.1030 C   0  0  0  0  0  0  0  0  0  0  0  0
  152.1166  142.3506  159.7328 N   0  0  0  0  0  0  0  0  0  0  0  0
  154.0251  137.3943  161.0589 C   0  0  0  0  0  0  0  0  0  0  0  0
  154.9757  136.8178  162.1236 C   0  0  2  0  0  0  0  0  0  0  0  0
  154.6691  137.3697  163.5201 C   0  0  0  0  0  0  0  0  0  0  0  0
  156.3247  137.1468  161.8102 O   0  0  0  0  0  0  0  0  0  0  0  0
  157.4009  134.8653  159.5366 H   0  0  0  0  0  0  0  0  0  0  0  0
  155.9789  134.6420  160.5371 H   0  0  0  0  0  0  0  0  0  0  0  0
  157.5653  134.8132  161.2884 H   0  0  0  0  0  0  0  0  0  0  0  0
  157.7528  137.1260  160.3824 H   0  0  0  0  0  0  0  0  0  0  0  0
  155.9720  138.3220  159.3399 H   0  0  0  0  0  0  0  0  0  0  0  0
  156.1357  136.8224  158.4607 H   0  0  0  0  0  0  0  0  0  0  0  0
  152.3541  140.5140  158.2609 H   0  0  0  0  0  0  0  0  0  0  0  0
  151.7802  139.2567  159.3166 H   0  0  0  0  0  0  0  0  0  0  0  0
  153.4678  139.6638  160.9532 H   0  0  0  0  0  0  0  0  0  0  0  0
  154.5297  140.4239  159.8075 H   0  0  0  0  0  0  0  0  0  0  0  0
  154.1810  141.7618  162.3693 H   0  0  0  0  0  0  0  0  0  0  0  0
  153.3457  144.0282  163.0349 H   0  0  0  0  0  0  0  0  0  0  0  0
  151.6991  145.1959  161.5408 H   0  0  0  0  0  0  0  0  0  0  0  0
  150.9655  144.0440  159.4371 H   0  0  0  0  0  0  0  0  0  0  0  0
  154.0238  138.4846  161.0917 H   0  0  0  0  0  0  0  0  0  0  0  0
  153.0073  137.0653  161.2677 H   0  0  0  0  0  0  0  0  0  0  0  0
  154.8629  135.7343  162.1614 H   0  0  0  0  0  0  0  0  0  0  0  0
  153.6501  137.1273  163.8223 H   0  0  0  0  0  0  0  0  0  0  0  0
  154.7783  138.4541  163.5483 H   0  0  0  0  0  0  0  0  0  0  0  0
  155.3454  136.9469  164.2631 H   0  0  0  0  0  0  0  0  0  0  0  0
  1  2  1  0  0  0  0
  1 21  1  0  0  0  0
  1 22  1  0  0  0  0
  1 23  1  0  0  0  0
  2 20  1  0  0  0  0
  2  3  1  0  0  0  0
  2 24  1  0  0  0  0
  3  4  1  0  0  0  0
  3 25  1  0  0  0  0
  3 26  1  0  0  0  0
  4  5  1  0  0  0  0
  4 17  1  0  0  0  0
  5  6  2  0  0  0  0
  5  7  2  0  0  0  0
  5  8  1  0  0  0  0
  8  9  1  0  0  0  0
  9 10  1  0  0  0  0
  9 27  1  0  0  0  0
  9 28  1  0  0  0  0
 10 11  1  0  0  0  0
 10 29  1  0  0  0  0
 10 30  1  0  0  0  0
 11 16  1  0  0  0  0
 11 12  2  0  0  0  0
 12 13  1  0  0  0  0
 12 31  1  0  0  0  0
 13 14  2  0  0  0  0
 13 32  1  0  0  0  0
 14 15  1  0  0  0  0
 14 33  1  0  0  0  0
 15 16  2  0  0  0  0
 15 34  1  0  0  0  0
 17 18  1  0  0  0  0
 17 35  1  0  0  0  0
 17 36  1  0  0  0  0
 18 19  1  0  0  0  0
 18 20  1  0  0  0  0
 18 37  1  0  0  0  0
 19 38  1  0  0  0  0
 19 39  1  0  0  0  0
 19 40  1  0  0  0  0
M  CHG  1   8  -1
M  END
> <s_m_source_file>
AV-unprocessed.smi

> <i_m_source_file_index>
2100

> <i_lp_mmshare_version>
43012

> <i_f3d_flags>
0

> <s_epik_input>
W0NIM11bQ0BASF0xW0NIMl1OKFtDSDJdW0NASF0oTzEpW0NIM10pUyg9TykoPU8pW05IXVtDSDJdW0NIMl1jMltjSF1bY0hdW2NIXVtjSF1uMg==

> <s_epik_cmdline>
J2VwaWtfcHl0aG9uJywgJy1waCcsICc3LjAnLCAnLXRuJywgJzgnLCAnLW1hJywgJzIwMCcsICctbWV0YWxfYmluZGluZycsICctaW1hZScsICc8aW5maWxlLm1hZT4nLCAnLW9tYWUnLCAnPG91dGZpbGUubWFlPic=

> <r_epik_Ionization_Penalty>
1.27779

> <r_epik_Ionization_Penalty_Charging>
1.20871

> <r_epik_Ionization_Penalty_Neutral>
0.0690773

> <r_epik_State_Penalty>
1.64557

> <r_epik_Charging_Adjusted_Penalty>
2.85428

> <i_epik_Tot_Q>
-1

> <i_epik_Tot_abs_Q>
1

> <r_epik_Metal_State_Penalty>
0.643506

> <b_epik_Metal_Only>
0

> <s_lp_Force_Field>
OPLS_2005

> <r_lp_Energy>
10.0642

> <b_lp_Chiralities_Consistent>
1

> <s_lp_Variant>
AV-unprocessed.smi:2100-6

> <Gold.Version>
5.8.1

> <Gold.Id.Protein>
6NUR|6NUR_protein|mol2

> <Gold.PLP.Fitness>
44.9067

> <Gold.PLP.PLP>
-35.9063

> <Gold.PLP.part.hbond>
-2.7400

> <Gold.PLP.part.metal>
0.0000

> <Gold.PLP.part.buried>
-5.4943

> <Gold.PLP.part.nonpolar>
-28.1537

> <Gold.PLP.part.repulsive>
0.0000

> <Gold.PLP.ligand.clash>
0.0000

> <Gold.PLP.ligand.torsion>
1.2020

> <Gold.PLP.Chemscore.Hbond>
3.2854

> <Gold.PLP.Chemscore.CHOScore>
0.0000

> <Gold.PLP.Chemscore.Metal>
0.0000

> <Gold.Chemscore.Hbonds>
donor molecule, donor type, donor heavy atom, donor atom, acceptor molecule, acceptor atom, score
      P1  H  6896  6907       L1     7  0.86
      P1  H  7997  8010       L1     8  1.98
      P1  H 10752 10763       L1     6  0.44

> <Gold.PLP.Chemscore.Internal.Correction>
1.5480

> <Gold.Rescore>
     Score         DG    S(hbond)    S(metal)    S(lipo)     H(rot)  DE(clash)    DE(int)     intcor
     17.80     -18.91       1.83        0.00      94.89       1.47       0.06       1.05       ----

> <Gold.Chemscore.Fitness>
17.8005

> <Gold.Chemscore.DG>
-18.9088

> <Gold.Chemscore.ZeroCoef>
-5.4800

> <Gold.Chemscore.Hbond>
1.8258

> <Gold.Chemscore.Metal>
0.0000

> <Gold.Chemscore.Lipo>
94.8858

> <Gold.Chemscore.Internal_Hbond>
0.0000

> <Gold.Chemscore.DEClash>
0.0589

> <Gold.Chemscore.DEInternal>
1.0494

> <Gold.Chemscore.Rot>
1.4731

> <Gold.Chemscore.Internal.Correction>
   9.000000E+99

> <Gold.Chemscore.Hbonds>
donor molecule, donor type, donor heavy atom, donor atom, acceptor molecule, acceptor atom, score
      P1  H  6896  6907       L1     7  0.84
      P1  H  7997  8010       L1     8  0.28
      P1  H 10752 10763       L1     6  0.44

> <Gold.Chemscore.Hbond.Weighted>
-6.0983

> <Gold.Chemscore.Metal.Weighted>
-0.0000

> <Gold.Chemscore.Lipo.Weighted>
-11.1016

> <Gold.Chemscore.Internal_Hbond.Weighted>
0.0000

> <Gold.Chemscore.DEClash.Weighted>
0.0589

> <Gold.Chemscore.DEInternal.Weighted>
1.0494

> <Gold.Chemscore.Rot.Weighted>
3.7712

> <Gold.Chemscore.Internal.Correction.Weighted>
   9.000000E+99

> <Gold.Protein.RotatedTorsions>
[ 6907 6896 6895 6894 ] final   -9.73 input  -60.11 | X-H torsion
[ 7974 7965 7964 7962 ] final   75.68 input  175.53 | X-H torsion
[ 8008 7997 7996 7995 ] final   28.93 input   59.86 | X-H torsion
[ 10167 10162 10161 10158 ] final   35.84 input  -65.29 | X-H torsion
[ 10718 10713 10712 10709 ] final  131.18 input   66.30 | X-H torsion
[ 10763 10752 10751 10750 ] final  111.64 input  -60.55 | X-H torsion
[ 11005 11000 10999 10996 ] final -160.53 input  -57.11 | X-H torsion

> <Gold.Protein.ActiveResidues>
 VAL166  LYS551  ARG553  GLY616  TRP617  ASP618  TYR619  PRO620  LYS621  CYS622 
 ASP623  PHE694  ASN695  SER759  ASP760  ASP761  ALA762  ILE779  LEU786  VAL792 
 PHE793  MET794  SER795  GLU796  ALA797  LYS798  CYS799  TRP800  GLU811  SER814 

> <Gold.Protein.RotatedAtoms>
  151.4132  135.0988  159.9591 H   0  0  0  0  0  0  0  0  0  0  0  0  # atno 6907 bound_to 6896
  152.5013  133.8778  159.7341 H   0  0  0  0  0  0  0  0  0  0  0  0  # atno 6908 bound_to 6896
  150.9277  133.6747  159.2846 H   0  0  0  0  0  0  0  0  0  0  0  0  # atno 6909 bound_to 6896
  145.7126  139.2620  143.1642 H   0  0  0  0  0  0  0  0  0  0  0  0  # atno 7974 bound_to 7965
  155.0665  140.3195  155.4644 H   0  0  0  0  0  0  0  0  0  0  0  0  # atno 8008 bound_to 7997
  156.2801  140.2119  156.5737 H   0  0  0  0  0  0  0  0  0  0  0  0  # atno 8009 bound_to 7997
  154.7090  140.0500  157.0519 H   0  0  0  0  0  0  0  0  0  0  0  0  # atno 8010 bound_to 7997
  140.4184  144.1495  150.6145 H   0  0  0  0  0  0  0  0  0  0  0  0  # atno 10167 bound_to 10162
  157.4992  131.1093  150.9450 H   0  0  0  0  0  0  0  0  0  0  0  0  # atno 10718 bound_to 10713
  153.4663  135.3711  155.2366 H   0  0  0  0  0  0  0  0  0  0  0  0  # atno 10763 bound_to 10752
  154.8757  135.3920  154.3865 H   0  0  0  0  0  0  0  0  0  0  0  0  # atno 10764 bound_to 10752
  153.4446  135.7084  153.6211 H   0  0  0  0  0  0  0  0  0  0  0  0  # atno 10765 bound_to 10752
  140.6304  134.4657  157.5229 H   0  0  0  0  0  0  0  0  0  0  0  0  # atno 11005 bound_to 11000
  146.0699  140.7880  142.9693 LP  0  0  0  0  0  0  0  0  0  0  0  0  # atno 17320 bound_to 7965
  144.6938  140.3326  143.7213 LP  0  0  0  0  0  0  0  0  0  0  0  0  # atno 17321 bound_to 7965
  140.4561  143.2467  151.9282 LP  0  0  0  0  0  0  0  0  0  0  0  0  # atno 17342 bound_to 10162
  139.4782  144.5514  151.8380 LP  0  0  0  0  0  0  0  0  0  0  0  0  # atno 17343 bound_to 10162
  157.0127  130.5643  149.5322 LP  0  0  0  0  0  0  0  0  0  0  0  0  # atno 17370 bound_to 10713
  156.0219  130.5313  150.8299 LP  0  0  0  0  0  0  0  0  0  0  0  0  # atno 17371 bound_to 10713
  139.9118  134.8329  156.1502 LP  0  0  0  0  0  0  0  0  0  0  0  0  # atno 17394 bound_to 11000
  141.0679  133.6810  156.2081 LP  0  0  0  0  0  0  0  0  0  0  0  0  # atno 17395 bound_to 11000

$$$$
