#       Name:                AV-unprocessed.smi:1071
#       Creating user name   scv26
#       Creation time:       Fri Mar 27 03:19:45 2020


#       File generated by GOLD software.
#

@<TRIPOS>MOLECULE
AV-unprocessed.smi:1071
    54    55     1
SMALL
NO_CHARGES


@<TRIPOS>ATOM
      1 ****        -9.0027   0.2055  -0.3639 C.3            1 S1                 0.0000
      2 ****        -7.6133   0.4676  -0.2748 O.3            1 S1                 0.0000
      3 ****        -6.8272  -0.6940  -0.4816 C.3            1 S1                 0.0000
      4 ****        -5.3461  -0.3209  -0.3718 C.3            1 S1                 0.0000
      5 ****        -4.5633  -1.4988  -0.5418 O.3            1 S1                 0.0000
      6 ****        -3.1890  -1.3907  -0.4798 C.ar           1 S1                 0.0000
      7 ****        -2.4139  -2.5581  -0.6272 C.ar           1 S1                 0.0000
      8 ****        -1.0117  -2.4539  -0.5642 C.ar           1 S1                 0.0000
      9 ****        -0.4250  -1.1876  -0.3682 C.ar           1 S1                 0.0000
     10 ****         0.9910  -1.1089  -0.2873 N.am           1 S1                 0.0000
     11 ****         1.7779  -0.0311  -0.4704 C.2            1 S1                 0.0000
     12 ****         1.3802   1.0303  -0.9494 O.2            1 S1                 0.0000
     13 ****         3.0852  -0.2940  -0.2284 N.am           1 S1                 0.0000
     14 ****         3.4942  -0.8296   1.0786 C.3            1 S1                 0.0000
     15 ****         3.8470   0.3423   2.0176 C.3            1 S1                 0.0000
     16 ****         4.8828   1.2263   1.4215 N.4            1 S1                 1.0000
     17 ****         5.2207   2.3702   2.2946 C.3            1 S1                 0.0000
     18 ****         4.5725   1.6459   0.0295 C.3            1 S1                 0.0000
     19 ****         4.2130   0.4294  -0.8489 C.3            1 S1                 0.0000
     20 ****         4.0143   0.8044  -2.3328 C.3            1 S1                 0.0000
     21 ****        -1.2896  -0.0760  -0.2199 C.ar           1 S1                 0.0000
     22 ****        -2.6348  -0.1703  -0.2750 N.ar           1 S1                 0.0000
     23 ****        -9.5607   1.1253  -0.1887 H              1 S1                 0.0000
     24 ****        -9.3154  -0.5253   0.3831 H              1 S1                 0.0000
     25 ****        -9.2704  -0.1678  -1.3532 H              1 S1                 0.0000
     26 ****        -7.0768  -1.4508   0.2637 H              1 S1                 0.0000
     27 ****        -7.0332  -1.1179  -1.4657 H              1 S1                 0.0000
     28 ****        -5.0963   0.4178  -1.1352 H              1 S1                 0.0000
     29 ****        -5.1516   0.1232   0.6059 H              1 S1                 0.0000
     30 ****        -2.8865  -3.5164  -0.7840 H              1 S1                 0.0000
     31 ****        -0.3979  -3.3367  -0.6696 H              1 S1                 0.0000
     32 ****         1.4629  -1.9733  -0.0652 H              1 S1                 0.0000
     33 ****         2.7257  -1.4489   1.5434 H              1 S1                 0.0000
     34 ****         4.3581  -1.4838   0.9514 H              1 S1                 0.0000
     35 ****         2.9511   0.9289   2.2288 H              1 S1                 0.0000
     36 ****         4.2045  -0.0438   2.9729 H              1 S1                 0.0000
     37 ****         4.3631   3.0324   2.4215 H              1 S1                 0.0000
     38 ****         6.0409   2.9498   1.8698 H              1 S1                 0.0000
     39 ****         5.5342   2.0229   3.2796 H              1 S1                 0.0000
     40 ****         3.7479   2.3607   0.0387 H              1 S1                 0.0000
     41 ****         5.4367   2.1640  -0.3880 H              1 S1                 0.0000
     42 ****         5.0662  -0.2513  -0.8385 H              1 S1                 0.0000
     43 ****         4.9543   1.1437  -2.7687 H              1 S1                 0.0000
     44 ****         3.2962   1.6124  -2.4698 H              1 S1                 0.0000
     45 ****         3.6773  -0.0532  -2.9159 H              1 S1                 0.0000
     46 ****        -0.9134   0.9171  -0.0289 H              1 S1                 0.0000
     47 ****         5.7186   0.6629   1.3564 H              1 S1                 0.0000
     48 ****        -7.4134   0.8323   0.6346 LP             1 S1                 0.0000
     49 ****        -7.3700   1.1469  -0.9672 LP             1 S1                 0.0000
     50 ****        -4.7894  -1.8765  -1.4397 LP             1 S1                 0.0000
     51 ****        -4.8411  -2.1433   0.1706 LP             1 S1                 0.0000
     52 ****         0.4244   1.1265  -1.2271 LP             1 S1                 0.0000
     53 ****         2.0129   1.7967  -1.0610 LP             1 S1                 0.0000
     54 ****        -3.2094   0.6410  -0.1673 LP             1 S1                 0.0000
@<TRIPOS>BOND
    1    1    2 1     
    2    1   23 1     
    3    1   24 1     
    4    1   25 1     
    5    2    3 1     
    6    3    4 1     
    7    3   26 1     
    8    3   27 1     
    9    4    5 1     
   10    4   28 1     
   11    4   29 1     
   12    5    6 1     
   13    6   22 ar    
   14    6    7 ar    
   15    7    8 ar    
   16    7   30 1     
   17    8    9 ar    
   18    8   31 1     
   19    9   10 1     
   20    9   21 ar    
   21   10   11 am    
   22   10   32 1     
   23   11   12 2     
   24   11   13 am    
   25   13   19 1     
   26   13   14 1     
   27   14   15 1     
   28   14   33 1     
   29   14   34 1     
   30   15   16 1     
   31   15   35 1     
   32   15   36 1     
   33   16   17 1     
   34   16   18 1     
   35   16   47 1     
   36   17   37 1     
   37   17   38 1     
   38   17   39 1     
   39   18   19 1     
   40   18   40 1     
   41   18   41 1     
   42   19   20 1     
   43   19   42 1     
   44   20   43 1     
   45   20   44 1     
   46   20   45 1     
   47   21   22 ar    
   48   21   46 1     
   49    2   48 1     
   50    2   49 1     
   51    5   50 1     
   52    5   51 1     
   53   12   52 1     
   54   12   53 1     
   55   22   54 1     
@<TRIPOS>SUBSTRUCTURE
      1 S1             1
@<TRIPOS>SET
LONE_PAIRS      STATIC     ATOMS    <user>   **** ""
7 48 49 50 51 52 53 54
DONOR_HYDROGENS      STATIC     ATOMS    <user>   **** ""
2 32 47
ATOM$BLUE        STATIC     ATOMS    COLORGROUP SYSTEM
7 48 49 50 51 52 53 54
ATOM$RED        STATIC     ATOMS    COLORGROUP SYSTEM
2 32 47
