AV-unprocessed.smi:657|AV-procd|sdf|3225|dock4
  -GOLD-   22720 0163D 1   1.00000     0.00000
 Structure written by MMmdl.
 46 47  0  0  0  0  0  0  0  0  1 V2000
  145.0211  144.0691  161.8358 C   0  0  0  0  0  0  0  0  0  0  0  0
  146.0347  144.2451  160.6896 C   0  0  0  0  0  0  0  0  0  0  0  0
  146.9827  145.4349  160.9449 C   0  0  0  0  0  0  0  0  0  0  0  0
  145.3600  144.2987  159.3727 N   0  0  0  0  0  0  0  0  0  0  0  0
  144.5866  145.5346  159.1612 C   0  0  0  0  0  0  0  0  0  0  0  0
  143.6784  145.4134  157.9261 C   0  0  0  0  0  0  0  0  0  0  0  0
  144.5007  145.1289  156.6684 C   0  0  0  0  0  0  0  0  0  0  0  0
  145.3578  143.8830  156.9018 C   0  0  0  0  0  0  0  0  0  0  0  0
  146.2229  144.0277  158.1760 C   0  0  2  0  0  0  0  0  0  0  0  0
  147.1415  142.7970  158.3057 C   0  0  0  0  0  0  0  0  0  0  0  0
  147.0832  142.0783  159.3041 O   0  0  0  0  0  0  0  0  0  0  0  0
  148.0016  142.5839  157.2975 N   0  0  0  0  0  0  0  0  0  0  0  0
  148.9670  141.4939  157.2333 C   0  0  0  0  0  0  0  0  0  0  0  0
  150.3448  141.9879  156.7657 C   0  0  0  0  0  0  0  0  0  0  0  0
  151.0585  142.7355  157.8566 C   0  0  0  0  0  0  0  0  0  0  0  0
  152.1281  142.2745  158.6761 C   0  0  0  0  0  0  0  0  0  0  0  0
  152.5333  143.1806  159.5509 N   0  0  0  0  0  0  0  0  0  0  0  0
  151.7406  144.2475  159.3210 N   0  0  0  0  0  0  0  0  0  0  0  0
  151.9099  145.4461  160.1140 C   0  0  0  0  0  0  0  0  0  0  0  0
  150.8414  144.0080  158.3044 C   0  0  0  0  0  0  0  0  0  0  0  0
  145.5349  143.8060  162.7608 H   0  0  0  0  0  0  0  0  0  0  0  0
  144.3132  143.2685  161.6186 H   0  0  0  0  0  0  0  0  0  0  0  0
  144.4552  144.9774  162.0404 H   0  0  0  0  0  0  0  0  0  0  0  0
  146.6341  143.3375  160.7370 H   0  0  0  0  0  0  0  0  0  0  0  0
  147.5212  145.2978  161.8829 H   0  0  0  0  0  0  0  0  0  0  0  0
  146.4436  146.3790  161.0220 H   0  0  0  0  0  0  0  0  0  0  0  0
  147.7311  145.5377  160.1598 H   0  0  0  0  0  0  0  0  0  0  0  0
  143.9486  145.7536  160.0148 H   0  0  0  0  0  0  0  0  0  0  0  0
  145.2552  146.3882  159.0423 H   0  0  0  0  0  0  0  0  0  0  0  0
  142.9492  144.6169  158.0813 H   0  0  0  0  0  0  0  0  0  0  0  0
  143.1076  146.3329  157.7935 H   0  0  0  0  0  0  0  0  0  0  0  0
  143.8451  144.9843  155.8093 H   0  0  0  0  0  0  0  0  0  0  0  0
  145.1390  145.9831  156.4394 H   0  0  0  0  0  0  0  0  0  0  0  0
  144.7051  143.0124  156.9867 H   0  0  0  0  0  0  0  0  0  0  0  0
  145.9895  143.7115  156.0289 H   0  0  0  0  0  0  0  0  0  0  0  0
  146.8716  144.8933  158.0271 H   0  0  0  0  0  0  0  0  0  0  0  0
  147.9903  143.2297  156.5215 H   0  0  0  0  0  0  0  0  0  0  0  0
  149.0469  141.0573  158.2294 H   0  0  0  0  0  0  0  0  0  0  0  0
  148.5991  140.7032  156.5770 H   0  0  0  0  0  0  0  0  0  0  0  0
  150.9437  141.1384  156.4351 H   0  0  0  0  0  0  0  0  0  0  0  0
  150.2207  142.6222  155.8873 H   0  0  0  0  0  0  0  0  0  0  0  0
  152.6181  141.3120  158.6613 H   0  0  0  0  0  0  0  0  0  0  0  0
  151.1921  146.2054  159.8024 H   0  0  0  0  0  0  0  0  0  0  0  0
  152.9192  145.8369  159.9816 H   0  0  0  0  0  0  0  0  0  0  0  0
  151.7487  145.2174  161.1679 H   0  0  0  0  0  0  0  0  0  0  0  0
  150.1273  144.7537  157.9872 H   0  0  0  0  0  0  0  0  0  0  0  0
  1  2  1  0  0  0  0
  1 21  1  0  0  0  0
  1 22  1  0  0  0  0
  1 23  1  0  0  0  0
  2  3  1  0  0  0  0
  2  4  1  0  0  0  0
  2 24  1  0  0  0  0
  3 25  1  0  0  0  0
  3 26  1  0  0  0  0
  3 27  1  0  0  0  0
  4  9  1  0  0  0  0
  4  5  1  0  0  0  0
  5  6  1  0  0  0  0
  5 28  1  0  0  0  0
  5 29  1  0  0  0  0
  6  7  1  0  0  0  0
  6 30  1  0  0  0  0
  6 31  1  0  0  0  0
  7  8  1  0  0  0  0
  7 32  1  0  0  0  0
  7 33  1  0  0  0  0
  8  9  1  0  0  0  0
  8 34  1  0  0  0  0
  8 35  1  0  0  0  0
  9 10  1  0  0  0  0
  9 36  1  0  0  0  0
 10 11  2  0  0  0  0
 10 12  1  0  0  0  0
 12 13  1  0  0  0  0
 12 37  1  0  0  0  0
 13 14  1  0  0  0  0
 13 38  1  0  0  0  0
 13 39  1  0  0  0  0
 14 15  1  0  0  0  0
 14 40  1  0  0  0  0
 14 41  1  0  0  0  0
 15 20  2  0  0  0  0
 15 16  1  0  0  0  0
 16 17  2  0  0  0  0
 16 42  1  0  0  0  0
 17 18  1  0  0  0  0
 18 19  1  0  0  0  0
 18 20  1  0  0  0  0
 19 43  1  0  0  0  0
 19 44  1  0  0  0  0
 19 45  1  0  0  0  0
 20 46  1  0  0  0  0
M  END
> <s_m_source_file>
AV-unprocessed.smi

> <i_m_source_file_index>
657

> <i_lp_mmshare_version>
43012

> <i_f3d_flags>
0

> <s_epik_input>
W0NIM11bQ0hdKFtDSDNdKU4xW0NIMl1bQ0gyXVtDSDJdW0NIMl1bQ0BIXTFDKD1PKVtOSF1bQ0gyXVtDSDJdYzJbY0hdbm4oW0NIM10pW2NIXTI=

> <s_epik_cmdline>
J2VwaWtfcHl0aG9uJywgJy1waCcsICc3LjAnLCAnLXRuJywgJzgnLCAnLW1hJywgJzIwMCcsICctbWV0YWxfYmluZGluZycsICctaW1hZScsICc8aW5maWxlLm1hZT4nLCAnLW9tYWUnLCAnPG91dGZpbGUubWFlPic=

> <r_lp_tautomer_probability>
1

> <r_epik_Ionization_Penalty>
1.91154

> <r_epik_Ionization_Penalty_Charging>
0

> <r_epik_Ionization_Penalty_Neutral>
1.91154

> <r_epik_State_Penalty>
2.0331

> <r_epik_Charging_Adjusted_Penalty>
2.0331

> <i_epik_Tot_Q>
0

> <i_epik_Tot_abs_Q>
0

> <r_epik_Metal_State_Penalty>
2.04973

> <b_epik_Metal_Only>
0

> <s_lp_Force_Field>
OPLS_2005

> <r_lp_Energy>
15.3254

> <b_lp_Chiralities_Consistent>
1

> <s_lp_Variant>
AV-unprocessed.smi:657-6

> <Gold.Version>
5.8.1

> <Gold.Id.Protein>
6NUR|6NUR_protein|mol2

> <Gold.PLP.Fitness>
41.4434

> <Gold.PLP.PLP>
-34.7179

> <Gold.PLP.part.hbond>
-2.7707

> <Gold.PLP.part.metal>
0.0000

> <Gold.PLP.part.buried>
-3.0656

> <Gold.PLP.part.nonpolar>
-30.0363

> <Gold.PLP.part.repulsive>
0.1465

> <Gold.PLP.ligand.clash>
0.0000

> <Gold.PLP.ligand.torsion>
0.5383

> <Gold.PLP.Chemscore.Hbond>
1.4912

> <Gold.PLP.Chemscore.CHOScore>
1.0684

> <Gold.PLP.Chemscore.Metal>
0.0000

> <Gold.Chemscore.Hbonds>
donor molecule, donor type, donor heavy atom, donor atom, acceptor molecule, acceptor atom, score
      L1  H    12    37       P1  8028  0.79
      P1  H  6934  6946       L1    11  0.69
      L1  C    20    46       P1  8028  0.47
      L1  C    20    46       P1  8029  0.46

> <Gold.PLP.Chemscore.Internal.Correction>
0.1234

> <Gold.Rescore>
     Score         DG    S(hbond)    S(metal)    S(lipo)     H(rot)  DE(clash)    DE(int)     intcor
     11.60     -14.76       1.12        0.00      81.80       1.57       1.32       1.85       ----

> <Gold.Chemscore.Fitness>
11.5952

> <Gold.Chemscore.DG>
-14.7601

> <Gold.Chemscore.ZeroCoef>
-5.4800

> <Gold.Chemscore.Hbond>
1.1190

> <Gold.Chemscore.Metal>
0.0000

> <Gold.Chemscore.Lipo>
81.8030

> <Gold.Chemscore.Internal_Hbond>
0.0000

> <Gold.Chemscore.DEClash>
1.3195

> <Gold.Chemscore.DEInternal>
1.8454

> <Gold.Chemscore.Rot>
1.5736

> <Gold.Chemscore.Internal.Correction>
   9.000000E+99

> <Gold.Chemscore.Hbonds>
donor molecule, donor type, donor heavy atom, donor atom, acceptor molecule, acceptor atom, score
      L1  H    12    37       P1  8028  0.13
      P1  H  6934  6946       L1    11  0.68

> <Gold.Chemscore.Hbond.Weighted>
-3.7376

> <Gold.Chemscore.Metal.Weighted>
-0.0000

> <Gold.Chemscore.Lipo.Weighted>
-9.5709

> <Gold.Chemscore.Internal_Hbond.Weighted>
0.0000

> <Gold.Chemscore.DEClash.Weighted>
1.3195

> <Gold.Chemscore.DEInternal.Weighted>
1.8454

> <Gold.Chemscore.Rot.Weighted>
4.0284

> <Gold.Chemscore.Internal.Correction.Weighted>
   9.000000E+99

> <Gold.Protein.RotatedTorsions>
[ 6907 6896 6895 6894 ] final   73.91 input  -60.11 | X-H torsion
[ 7974 7965 7964 7962 ] final  -53.01 input  175.53 | X-H torsion
[ 8008 7997 7996 7995 ] final -121.82 input   59.86 | X-H torsion
[ 10167 10162 10161 10158 ] final  144.21 input  -65.29 | X-H torsion
[ 10718 10713 10712 10709 ] final   53.49 input   66.30 | X-H torsion
[ 10763 10752 10751 10750 ] final -104.75 input  -60.55 | X-H torsion
[ 11005 11000 10999 10996 ] final  128.04 input  -57.11 | X-H torsion

> <Gold.Protein.ActiveResidues>
 VAL166  LYS551  ARG553  GLY616  TRP617  ASP618  TYR619  PRO620  LYS621  CYS622 
 ASP623  PHE694  ASN695  SER759  ASP760  ASP761  ALA762  ILE779  LEU786  VAL792 
 PHE793  MET794  SER795  GLU796  ALA797  LYS798  CYS799  TRP800  GLU811  SER814 

> <Gold.Protein.RotatedAtoms>
  152.4948  134.4351  159.9524 H   0  0  0  0  0  0  0  0  0  0  0  0  # atno 6907 bound_to 6896
  151.4332  133.3658  159.2779 H   0  0  0  0  0  0  0  0  0  0  0  0  # atno 6908 bound_to 6896
  150.9140  134.8580  159.7504 H   0  0  0  0  0  0  0  0  0  0  0  0  # atno 6909 bound_to 6896
  145.9016  140.7989  142.9740 H   0  0  0  0  0  0  0  0  0  0  0  0  # atno 7974 bound_to 7965
  155.1541  140.0404  157.2828 H   0  0  0  0  0  0  0  0  0  0  0  0  # atno 8008 bound_to 7997
  154.6383  140.2541  155.7325 H   0  0  0  0  0  0  0  0  0  0  0  0  # atno 8009 bound_to 7997
  156.2519  140.2861  156.0765 H   0  0  0  0  0  0  0  0  0  0  0  0  # atno 8010 bound_to 7997
  139.4952  144.5987  151.6527 H   0  0  0  0  0  0  0  0  0  0  0  0  # atno 10167 bound_to 10162
  157.5171  130.8540  149.8510 H   0  0  0  0  0  0  0  0  0  0  0  0  # atno 10718 bound_to 10713
  154.7899  135.4775  154.0030 H   0  0  0  0  0  0  0  0  0  0  0  0  # atno 10763 bound_to 10752
  153.1616  135.6809  153.8741 H   0  0  0  0  0  0  0  0  0  0  0  0  # atno 10764 bound_to 10752
  153.8353  135.3186  155.3400 H   0  0  0  0  0  0  0  0  0  0  0  0  # atno 10765 bound_to 10752
  139.9539  134.9617  156.8944 H   0  0  0  0  0  0  0  0  0  0  0  0  # atno 11005 bound_to 11000
  144.6736  140.1686  143.7416 LP  0  0  0  0  0  0  0  0  0  0  0  0  # atno 17320 bound_to 7965
  145.8784  139.2309  143.1620 LP  0  0  0  0  0  0  0  0  0  0  0  0  # atno 17321 bound_to 7965
  140.5632  144.0234  150.6179 LP  0  0  0  0  0  0  0  0  0  0  0  0  # atno 17342 bound_to 10162
  140.3327  143.3068  152.0671 LP  0  0  0  0  0  0  0  0  0  0  0  0  # atno 17343 bound_to 10162
  156.0328  130.3760  150.1641 LP  0  0  0  0  0  0  0  0  0  0  0  0  # atno 17370 bound_to 10713
  156.9830  130.9870  151.3433 LP  0  0  0  0  0  0  0  0  0  0  0  0  # atno 17371 bound_to 10713
  140.5653  134.0495  155.7412 LP  0  0  0  0  0  0  0  0  0  0  0  0  # atno 17394 bound_to 11000
  141.1208  133.9465  157.2734 LP  0  0  0  0  0  0  0  0  0  0  0  0  # atno 17395 bound_to 11000

$$$$
