AV-unprocessed.smi:1309|AV-procd|sdf|5444|dock9
  -GOLD-   22720 5 13D 1   1.00000     0.00000
 Structure written by MMmdl.
 41 42  0  0  0  0  0  0  0  0  1 V2000
  148.0852  131.8445  161.4440 C   0  0  0  0  0  0  0  0  0  0  0  0
  146.9173  132.7526  161.8558 C   0  0  0  0  0  0  0  0  0  0  0  0
  145.5779  132.3295  161.2347 C   0  0  0  0  0  0  0  0  0  0  0  0
  147.2165  134.1989  161.6146 C   0  0  0  0  0  0  0  0  0  0  0  0
  147.3900  134.7273  160.3994 N   0  0  0  0  0  0  0  0  0  0  0  0
  147.6467  136.1017  160.4369 C   0  0  0  0  0  0  0  0  0  0  0  0
  147.8529  136.8609  159.1586 C   0  0  0  0  0  0  0  0  0  0  0  0
  149.2864  137.3895  159.0863 C   0  0  0  0  0  0  0  0  0  0  0  0
  150.1696  136.8726  159.7702 O   0  0  0  0  0  0  0  0  0  0  0  0
  149.5048  138.4211  158.2546 N   0  0  0  0  0  0  0  0  0  0  0  0
  150.7972  139.0661  158.0329 C   0  0  0  0  0  0  0  0  0  0  0  0
  150.6847  140.5264  157.5571 C   0  0  0  0  0  0  0  0  0  0  0  0
  149.9752  140.8061  156.5889 O   0  0  0  0  0  0  0  0  0  0  0  0
  151.3892  141.4654  158.2215 N   0  0  0  0  0  0  0  0  0  0  0  0
  152.2785  141.2221  159.3569 C   0  0  0  0  0  0  0  0  0  0  0  0
  153.0287  142.5352  159.5822 C   0  0  0  0  0  0  0  0  0  0  0  0
  152.0959  143.5983  159.0191 C   0  0  0  0  0  0  0  0  0  0  0  0
  151.3612  142.8868  157.8825 C   0  0  0  0  0  0  0  0  0  0  0  0
  147.6816  136.6088  161.7125 C   0  0  0  0  0  0  0  0  0  0  0  0
  147.3756  135.3808  162.9094 S   0  0  0  0  0  0  0  0  0  0  0  0
  149.0025  132.1252  161.9628 H   0  0  0  0  0  0  0  0  0  0  0  0
  148.2762  131.9063  160.3721 H   0  0  0  0  0  0  0  0  0  0  0  0
  147.8756  130.8017  161.6841 H   0  0  0  0  0  0  0  0  0  0  0  0
  146.8048  132.6386  162.9347 H   0  0  0  0  0  0  0  0  0  0  0  0
  144.7593  132.9438  161.6110 H   0  0  0  0  0  0  0  0  0  0  0  0
  145.3466  131.2902  161.4695 H   0  0  0  0  0  0  0  0  0  0  0  0
  145.5960  132.4275  160.1486 H   0  0  0  0  0  0  0  0  0  0  0  0
  147.6568  136.2249  158.2942 H   0  0  0  0  0  0  0  0  0  0  0  0
  147.1561  137.6973  159.0887 H   0  0  0  0  0  0  0  0  0  0  0  0
  148.7190  138.7881  157.7379 H   0  0  0  0  0  0  0  0  0  0  0  0
  151.3911  139.0146  158.9468 H   0  0  0  0  0  0  0  0  0  0  0  0
  151.3316  138.4922  157.2759 H   0  0  0  0  0  0  0  0  0  0  0  0
  151.6780  140.9722  160.2327 H   0  0  0  0  0  0  0  0  0  0  0  0
  152.9736  140.4017  159.1731 H   0  0  0  0  0  0  0  0  0  0  0  0
  153.2806  142.7039  160.6297 H   0  0  0  0  0  0  0  0  0  0  0  0
  153.9584  142.5277  159.0118 H   0  0  0  0  0  0  0  0  0  0  0  0
  151.3802  143.8977  159.7859 H   0  0  0  0  0  0  0  0  0  0  0  0
  152.6236  144.4927  158.6871 H   0  0  0  0  0  0  0  0  0  0  0  0
  151.8823  143.0371  156.9358 H   0  0  0  0  0  0  0  0  0  0  0  0
  150.3428  143.2626  157.7726 H   0  0  0  0  0  0  0  0  0  0  0  0
  147.8620  137.6282  162.0196 H   0  0  0  0  0  0  0  0  0  0  0  0
  1  2  1  0  0  0  0
  1 21  1  0  0  0  0
  1 22  1  0  0  0  0
  1 23  1  0  0  0  0
  2  3  1  0  0  0  0
  2  4  1  0  0  0  0
  2 24  1  0  0  0  0
  3 25  1  0  0  0  0
  3 26  1  0  0  0  0
  3 27  1  0  0  0  0
  4 20  1  0  0  0  0
  4  5  2  0  0  0  0
  5  6  1  0  0  0  0
  6  7  1  0  0  0  0
  6 19  2  0  0  0  0
  7  8  1  0  0  0  0
  7 28  1  0  0  0  0
  7 29  1  0  0  0  0
  8  9  2  0  0  0  0
  8 10  1  0  0  0  0
 10 11  1  0  0  0  0
 10 30  1  0  0  0  0
 11 12  1  0  0  0  0
 11 31  1  0  0  0  0
 11 32  1  0  0  0  0
 12 13  2  0  0  0  0
 12 14  1  0  0  0  0
 14 18  1  0  0  0  0
 14 15  1  0  0  0  0
 15 16  1  0  0  0  0
 15 33  1  0  0  0  0
 15 34  1  0  0  0  0
 16 17  1  0  0  0  0
 16 35  1  0  0  0  0
 16 36  1  0  0  0  0
 17 18  1  0  0  0  0
 17 37  1  0  0  0  0
 17 38  1  0  0  0  0
 18 39  1  0  0  0  0
 18 40  1  0  0  0  0
 19 20  1  0  0  0  0
 19 41  1  0  0  0  0
M  END
> <s_m_source_file>
AV-unprocessed.smi

> <i_m_source_file_index>
1309

> <i_lp_mmshare_version>
43012

> <i_f3d_flags>
0

> <s_epik_input>
W0NIM11bQ0hdKFtDSDNdKWMxbmMoW2NIXXMxKVtDSDJdQyg9TylbTkhdW0NIMl1DKD1PKU4yW0NIMl1bQ0gyXVtDSDJdW0NIMl0y

> <s_epik_cmdline>
J2VwaWtfcHl0aG9uJywgJy1waCcsICc3LjAnLCAnLXRuJywgJzgnLCAnLW1hJywgJzIwMCcsICctbWV0YWxfYmluZGluZycsICctaW1hZScsICc8aW5maWxlLm1hZT4nLCAnLW9tYWUnLCAnPG91dGZpbGUubWFlPic=

> <r_lp_tautomer_probability>
1

> <r_epik_Ionization_Penalty>
2.87584e-05

> <r_epik_Ionization_Penalty_Charging>
0

> <r_epik_Ionization_Penalty_Neutral>
2.87584e-05

> <r_epik_State_Penalty>
-0

> <r_epik_Charging_Adjusted_Penalty>
0

> <i_epik_Tot_Q>
0

> <i_epik_Tot_abs_Q>
0

> <r_epik_Metal_State_Penalty>
-0

> <b_epik_Metal_Only>
0

> <s_lp_Force_Field>
OPLS_2005

> <r_lp_Energy>
16.8696

> <b_lp_Chiralities_Consistent>
1

> <s_lp_Variant>
AV-unprocessed.smi:1309-1

> <Gold.Version>
5.8.1

> <Gold.Id.Protein>
6NUR|6NUR_protein|mol2

> <Gold.PLP.Fitness>
41.4003

> <Gold.PLP.PLP>
-39.5162

> <Gold.PLP.part.hbond>
-1.4765

> <Gold.PLP.part.metal>
0.0000

> <Gold.PLP.part.buried>
-4.1290

> <Gold.PLP.part.nonpolar>
-35.0312

> <Gold.PLP.part.repulsive>
0.1861

> <Gold.PLP.ligand.clash>
0.0000

> <Gold.PLP.ligand.torsion>
0.6110

> <Gold.PLP.Chemscore.Hbond>
1.0000

> <Gold.PLP.Chemscore.CHOScore>
0.0000

> <Gold.PLP.Chemscore.Metal>
0.0000

> <Gold.Chemscore.Hbonds>
donor molecule, donor type, donor heavy atom, donor atom, acceptor molecule, acceptor atom, score
      P1  H  6896  6908       L1     9  0.96

> <Gold.PLP.Chemscore.Internal.Correction>
0.1060

> <Gold.Rescore>
     Score         DG    S(hbond)    S(metal)    S(lipo)     H(rot)  DE(clash)    DE(int)     intcor
     15.78     -16.48       0.99        0.00     102.90       1.70       0.05       0.65       ----

> <Gold.Chemscore.Fitness>
15.7767

> <Gold.Chemscore.DG>
-16.4794

> <Gold.Chemscore.ZeroCoef>
-5.4800

> <Gold.Chemscore.Hbond>
0.9910

> <Gold.Chemscore.Metal>
0.0000

> <Gold.Chemscore.Lipo>
102.8991

> <Gold.Chemscore.Internal_Hbond>
0.0000

> <Gold.Chemscore.DEClash>
0.0484

> <Gold.Chemscore.DEInternal>
0.6544

> <Gold.Chemscore.Rot>
1.6991

> <Gold.Chemscore.Internal.Correction>
   9.000000E+99

> <Gold.Chemscore.Hbonds>
donor molecule, donor type, donor heavy atom, donor atom, acceptor molecule, acceptor atom, score
      P1  H  6896  6908       L1     9  0.91

> <Gold.Chemscore.Hbond.Weighted>
-3.3099

> <Gold.Chemscore.Metal.Weighted>
-0.0000

> <Gold.Chemscore.Lipo.Weighted>
-12.0392

> <Gold.Chemscore.Internal_Hbond.Weighted>
0.0000

> <Gold.Chemscore.DEClash.Weighted>
0.0484

> <Gold.Chemscore.DEInternal.Weighted>
0.6544

> <Gold.Chemscore.Rot.Weighted>
4.3497

> <Gold.Chemscore.Internal.Correction.Weighted>
   9.000000E+99

> <Gold.Protein.RotatedTorsions>
[ 6907 6896 6895 6894 ] final -160.42 input  -60.11 | X-H torsion
[ 7974 7965 7964 7962 ] final  102.43 input  175.53 | X-H torsion
[ 8008 7997 7996 7995 ] final  -28.43 input   59.86 | X-H torsion
[ 10167 10162 10161 10158 ] final  -97.36 input  -65.29 | X-H torsion
[ 10718 10713 10712 10709 ] final   62.31 input   66.30 | X-H torsion
[ 10763 10752 10751 10750 ] final   92.88 input  -60.55 | X-H torsion
[ 11005 11000 10999 10996 ] final -124.81 input  -57.11 | X-H torsion

> <Gold.Protein.ActiveResidues>
 VAL166  LYS551  ARG553  GLY616  TRP617  ASP618  TYR619  PRO620  LYS621  CYS622 
 ASP623  PHE694  ASN695  SER759  ASP760  ASP761  ALA762  ILE779  LEU786  VAL792 
 PHE793  MET794  SER795  GLU796  ALA797  LYS798  CYS799  TRP800  GLU811  SER814 

> <Gold.Protein.RotatedAtoms>
  151.3488  133.3933  159.2677 H   0  0  0  0  0  0  0  0  0  0  0  0  # atno 6907 bound_to 6896
  150.9818  134.9172  159.7859 H   0  0  0  0  0  0  0  0  0  0  0  0  # atno 6908 bound_to 6896
  152.5219  134.3452  159.9283 H   0  0  0  0  0  0  0  0  0  0  0  0  # atno 6909 bound_to 6896
  145.3591  139.2422  143.3516 H   0  0  0  0  0  0  0  0  0  0  0  0  # atno 7974 bound_to 7965
  154.4332  140.1845  156.1088 H   0  0  0  0  0  0  0  0  0  0  0  0  # atno 8008 bound_to 7997
  156.0234  140.3338  155.7037 H   0  0  0  0  0  0  0  0  0  0  0  0  # atno 8009 bound_to 7997
  155.5944  140.0634  157.2741 H   0  0  0  0  0  0  0  0  0  0  0  0  # atno 8010 bound_to 7997
  140.2843  143.3262  152.0410 H   0  0  0  0  0  0  0  0  0  0  0  0  # atno 10167 bound_to 10162
  157.5891  130.9043  149.9571 H   0  0  0  0  0  0  0  0  0  0  0  0  # atno 10718 bound_to 10713
  153.2241  135.4345  155.0522 H   0  0  0  0  0  0  0  0  0  0  0  0  # atno 10763 bound_to 10752
  154.8265  135.3363  154.6883 H   0  0  0  0  0  0  0  0  0  0  0  0  # atno 10764 bound_to 10752
  153.7314  135.7011  153.5044 H   0  0  0  0  0  0  0  0  0  0  0  0  # atno 10765 bound_to 10752
  140.9812  134.0671  157.3763 H   0  0  0  0  0  0  0  0  0  0  0  0  # atno 11005 bound_to 11000
  146.2935  140.4222  142.8730 LP  0  0  0  0  0  0  0  0  0  0  0  0  # atno 17320 bound_to 7965
  144.8659  140.7206  143.6077 LP  0  0  0  0  0  0  0  0  0  0  0  0  # atno 17321 bound_to 7965
  139.4954  144.6570  151.6550 LP  0  0  0  0  0  0  0  0  0  0  0  0  # atno 17342 bound_to 10162
  140.5786  143.9985  150.6255 LP  0  0  0  0  0  0  0  0  0  0  0  0  # atno 17343 bound_to 10162
  156.0943  130.3660  150.0335 LP  0  0  0  0  0  0  0  0  0  0  0  0  # atno 17370 bound_to 10713
  156.8461  130.9442  151.3629 LP  0  0  0  0  0  0  0  0  0  0  0  0  # atno 17371 bound_to 10713
  139.8951  135.0139  156.6983 LP  0  0  0  0  0  0  0  0  0  0  0  0  # atno 17394 bound_to 11000
  140.7184  133.9162  155.8130 LP  0  0  0  0  0  0  0  0  0  0  0  0  # atno 17395 bound_to 11000

$$$$
