AV-unprocessed.smi:166|AV-procd|sdf|1388|dock3
  -GOLD-   2262019123D 1   1.00000     0.00000
 Structure written by MMmdl.
 54 58  0  0  0  0  0  0  0  0  1 V2000
  143.1410  144.0990  159.6617 O   0  0  0  0  0  0  0  0  0  0  0  0
  144.4049  143.4741  159.5133 C   0  0  1  0  0  0  0  0  0  0  0  0
  144.8236  143.5312  158.0246 C   0  0  0  0  0  0  0  0  0  0  0  0
  146.0165  142.7537  157.7226 N   0  0  0  0  0  0  0  0  0  0  0  0
  147.1676  142.6801  158.4745 C   0  0  0  0  0  0  0  0  0  0  0  0
  148.1028  141.9110  157.9883 N   0  0  0  0  0  0  0  0  0  0  0  0
  147.5507  141.4014  156.8190 C   0  0  0  0  0  0  0  0  0  0  0  0
  148.0168  140.5159  155.8064 C   0  0  0  0  0  0  0  0  0  0  0  0
  149.2461  139.9416  155.8428 N   0  0  0  0  0  0  0  0  0  0  0  0
  149.7072  139.4023  154.5637 C   0  0  0  0  0  0  0  0  0  0  0  0
  150.8843  138.4356  154.7699 C   0  0  0  0  0  0  0  0  0  0  0  0
  152.0093  139.1057  155.5723 C   0  0  0  0  0  0  0  0  0  0  0  0
  151.4670  139.6465  156.9053 C   0  0  1  0  0  0  0  0  0  0  0  0
  152.5310  140.3285  157.5549 O   0  0  0  0  0  0  0  0  0  0  0  0
  152.2381  140.7508  158.8802 C   0  0  0  0  0  0  0  0  0  0  0  0
  153.1234  141.9121  159.2941 C   0  0  0  0  0  0  0  0  0  0  0  0
  152.9462  142.5843  160.6401 C   0  0  0  0  0  0  0  0  0  0  0  0
  152.5748  143.3217  159.3821 C   0  0  0  0  0  0  0  0  0  0  0  0
  150.2768  140.5951  156.6521 C   0  0  0  0  0  0  0  0  0  0  0  0
  147.1747  140.2531  154.7707 N   0  0  0  0  0  0  0  0  0  0  0  0
  145.9597  140.8075  154.7301 C   0  0  0  0  0  0  0  0  0  0  0  0
  145.3949  141.6437  155.6026 N   0  0  0  0  0  0  0  0  0  0  0  0
  146.2371  141.9207  156.6389 C   0  0  0  0  0  0  0  0  0  0  0  0
  145.3945  144.1781  160.4348 C   0  0  0  0  0  0  0  0  0  0  0  0
  145.2537  143.4034  161.7380 C   0  0  0  0  0  0  0  0  0  0  0  0
  145.1228  142.0652  161.2920 O   0  0  0  0  0  0  0  0  0  0  0  0
  144.3229  142.0537  160.1135 C   0  0  0  0  0  0  0  0  0  0  0  0
  142.6784  144.0404  158.8398 H   0  0  0  0  0  0  0  0  0  0  0  0
  144.0127  143.1739  157.3884 H   0  0  0  0  0  0  0  0  0  0  0  0
  145.0083  144.5647  157.7292 H   0  0  0  0  0  0  0  0  0  0  0  0
  147.2959  143.2239  159.3991 H   0  0  0  0  0  0  0  0  0  0  0  0
  148.9066  138.8858  154.0354 H   0  0  0  0  0  0  0  0  0  0  0  0
  150.0160  140.2322  153.9266 H   0  0  0  0  0  0  0  0  0  0  0  0
  150.5379  137.5462  155.2980 H   0  0  0  0  0  0  0  0  0  0  0  0
  151.2629  138.0968  153.8053 H   0  0  0  0  0  0  0  0  0  0  0  0
  152.8154  138.3946  155.7549 H   0  0  0  0  0  0  0  0  0  0  0  0
  152.4382  139.9218  154.9891 H   0  0  0  0  0  0  0  0  0  0  0  0
  151.1424  138.7992  157.5126 H   0  0  0  0  0  0  0  0  0  0  0  0
  151.1983  141.0649  158.9671 H   0  0  0  0  0  0  0  0  0  0  0  0
  152.3950  139.9283  159.5791 H   0  0  0  0  0  0  0  0  0  0  0  0
  154.1492  141.8231  158.9415 H   0  0  0  0  0  0  0  0  0  0  0  0
  152.1347  142.2438  161.2804 H   0  0  0  0  0  0  0  0  0  0  0  0
  153.8456  142.9042  161.1623 H   0  0  0  0  0  0  0  0  0  0  0  0
  153.2264  144.1335  159.0656 H   0  0  0  0  0  0  0  0  0  0  0  0
  151.5157  143.4735  159.1835 H   0  0  0  0  0  0  0  0  0  0  0  0
  150.6206  141.4932  156.1369 H   0  0  0  0  0  0  0  0  0  0  0  0
  149.8448  140.9123  157.6016 H   0  0  0  0  0  0  0  0  0  0  0  0
  145.3536  140.5437  153.8760 H   0  0  0  0  0  0  0  0  0  0  0  0
  146.4126  144.0573  160.0616 H   0  0  0  0  0  0  0  0  0  0  0  0
  145.2086  145.2468  160.5489 H   0  0  0  0  0  0  0  0  0  0  0  0
  146.1116  143.5262  162.3992 H   0  0  0  0  0  0  0  0  0  0  0  0
  144.3536  143.7019  162.2779 H   0  0  0  0  0  0  0  0  0  0  0  0
  143.2989  141.7697  160.3620 H   0  0  0  0  0  0  0  0  0  0  0  0
  144.7183  141.2918  159.4430 H   0  0  0  0  0  0  0  0  0  0  0  0
  1  2  1  0  0  0  0
  1 28  1  0  0  0  0
  2 27  1  0  0  0  0
  2  3  1  0  0  0  0
  2 24  1  0  0  0  0
  3  4  1  0  0  0  0
  3 29  1  0  0  0  0
  3 30  1  0  0  0  0
  4 23  1  0  0  0  0
  4  5  1  0  0  0  0
  5  6  2  0  0  0  0
  5 31  1  0  0  0  0
  6  7  1  0  0  0  0
  7 23  2  0  0  0  0
  7  8  1  0  0  0  0
  8  9  1  0  0  0  0
  8 20  2  0  0  0  0
  9 19  1  0  0  0  0
  9 10  1  0  0  0  0
 10 11  1  0  0  0  0
 10 32  1  0  0  0  0
 10 33  1  0  0  0  0
 11 12  1  0  0  0  0
 11 34  1  0  0  0  0
 11 35  1  0  0  0  0
 12 13  1  0  0  0  0
 12 36  1  0  0  0  0
 12 37  1  0  0  0  0
 13 14  1  0  0  0  0
 13 19  1  0  0  0  0
 13 38  1  0  0  0  0
 14 15  1  0  0  0  0
 15 16  1  0  0  0  0
 15 39  1  0  0  0  0
 15 40  1  0  0  0  0
 16 18  1  0  0  0  0
 16 17  1  0  0  0  0
 16 41  1  0  0  0  0
 17 18  1  0  0  0  0
 17 42  1  0  0  0  0
 17 43  1  0  0  0  0
 18 44  1  0  0  0  0
 18 45  1  0  0  0  0
 19 46  1  0  0  0  0
 19 47  1  0  0  0  0
 20 21  1  0  0  0  0
 21 22  2  0  0  0  0
 21 48  1  0  0  0  0
 22 23  1  0  0  0  0
 24 25  1  0  0  0  0
 24 49  1  0  0  0  0
 24 50  1  0  0  0  0
 25 26  1  0  0  0  0
 25 51  1  0  0  0  0
 25 52  1  0  0  0  0
 26 27  1  0  0  0  0
 27 53  1  0  0  0  0
 27 54  1  0  0  0  0
M  END
> <s_m_source_file>
AV-unprocessed.smi

> <i_m_source_file_index>
166

> <i_lp_mmshare_version>
43012

> <i_f3d_flags>
0

> <s_epik_input>
W0NIMl0xT1tDSDJdW0NIMl1bQ0BAXTEoW09IXSlbQ0gyXW4oW2NIXW4yKWMoYzIzKW5bY0hdbmMzTjRbQ0gyXVtDSDJdW0NIMl1bQ0BIXShbQ0gyXTQpT1tDSDJdW0NIXTVbQ0gyXVtDSDJdNQ==

> <s_epik_cmdline>
J2VwaWtfcHl0aG9uJywgJy1waCcsICc3LjAnLCAnLXRuJywgJzgnLCAnLW1hJywgJzIwMCcsICctbWV0YWxfYmluZGluZycsICctaW1hZScsICc8aW5maWxlLm1hZT4nLCAnLW9tYWUnLCAnPG91dGZpbGUubWFlPic=

> <r_lp_tautomer_probability>
1

> <r_epik_Ionization_Penalty>
0.00342552

> <r_epik_Ionization_Penalty_Charging>
0

> <r_epik_Ionization_Penalty_Neutral>
0.00342552

> <r_epik_State_Penalty>
0.0022204

> <r_epik_Charging_Adjusted_Penalty>
0.0022204

> <i_epik_Tot_Q>
0

> <i_epik_Tot_abs_Q>
0

> <r_epik_Metal_State_Penalty>
-0

> <b_epik_Metal_Only>
0

> <s_lp_Force_Field>
OPLS_2005

> <r_lp_Energy>
44.5811

> <b_lp_Chiralities_Consistent>
1

> <s_lp_Variant>
AV-unprocessed.smi:166-1

> <Gold.Version>
5.8.1

> <Gold.Id.Protein>
6NUR|6NUR_protein|mol2

> <Gold.PLP.Fitness>
49.9739

> <Gold.PLP.PLP>
-43.0587

> <Gold.PLP.part.hbond>
-2.0000

> <Gold.PLP.part.metal>
0.0000

> <Gold.PLP.part.buried>
-5.5145

> <Gold.PLP.part.nonpolar>
-34.9884

> <Gold.PLP.part.repulsive>
0.4173

> <Gold.PLP.ligand.clash>
0.0000

> <Gold.PLP.ligand.torsion>
1.3213

> <Gold.PLP.Chemscore.Hbond>
1.8480

> <Gold.PLP.Chemscore.CHOScore>
1.0000

> <Gold.PLP.Chemscore.Metal>
0.0000

> <Gold.Chemscore.Hbonds>
donor molecule, donor type, donor heavy atom, donor atom, acceptor molecule, acceptor atom, score
      P1  H  6934  6946       L1    26  0.47
      P1  H  7997  8008       L1    14  0.89
      L1  C    21    48       P1 10175  1.00

> <Gold.PLP.Chemscore.Internal.Correction>
1.0138

> <Gold.Rescore>
     Score         DG    S(hbond)    S(metal)    S(lipo)     H(rot)  DE(clash)    DE(int)     intcor
     11.84     -14.63       1.52        0.00      93.60       2.68       0.03       2.76       ----

> <Gold.Chemscore.Fitness>
11.8410

> <Gold.Chemscore.DG>
-14.6271

> <Gold.Chemscore.ZeroCoef>
-5.4800

> <Gold.Chemscore.Hbond>
1.5151

> <Gold.Chemscore.Metal>
0.0000

> <Gold.Chemscore.Lipo>
93.6042

> <Gold.Chemscore.Internal_Hbond>
0.0000

> <Gold.Chemscore.DEClash>
0.0256

> <Gold.Chemscore.DEInternal>
2.7605

> <Gold.Chemscore.Rot>
2.6817

> <Gold.Chemscore.Internal.Correction>
   9.000000E+99

> <Gold.Chemscore.Hbonds>
donor molecule, donor type, donor heavy atom, donor atom, acceptor molecule, acceptor atom, score
      P1  H  6934  6946       L1    26  0.21
      P1  H  7997  8008       L1    14  0.77

> <Gold.Chemscore.Hbond.Weighted>
-5.0605

> <Gold.Chemscore.Metal.Weighted>
-0.0000

> <Gold.Chemscore.Lipo.Weighted>
-10.9517

> <Gold.Chemscore.Internal_Hbond.Weighted>
0.0000

> <Gold.Chemscore.DEClash.Weighted>
0.0256

> <Gold.Chemscore.DEInternal.Weighted>
2.7605

> <Gold.Chemscore.Rot.Weighted>
6.8651

> <Gold.Chemscore.Internal.Correction.Weighted>
   9.000000E+99

> <Gold.Protein.RotatedTorsions>
[ 6907 6896 6895 6894 ] final  153.84 input  -60.11 | X-H torsion
[ 7974 7965 7964 7962 ] final   95.74 input  175.53 | X-H torsion
[ 8008 7997 7996 7995 ] final  -67.33 input   59.86 | X-H torsion
[ 10167 10162 10161 10158 ] final -167.72 input  -65.29 | X-H torsion
[ 10718 10713 10712 10709 ] final -155.55 input   66.30 | X-H torsion
[ 10763 10752 10751 10750 ] final   96.78 input  -60.55 | X-H torsion
[ 11005 11000 10999 10996 ] final  157.08 input  -57.11 | X-H torsion

> <Gold.Protein.ActiveResidues>
 VAL166  LYS551  ARG553  GLY616  TRP617  ASP618  TYR619  PRO620  LYS621  CYS622 
 ASP623  PHE694  ASN695  SER759  ASP760  ASP761  ALA762  ILE779  LEU786  VAL792 
 PHE793  MET794  SER795  GLU796  ALA797  LYS798  CYS799  TRP800  GLU811  SER814 

> <Gold.Protein.RotatedAtoms>
  152.0669  133.4088  159.4442 H   0  0  0  0  0  0  0  0  0  0  0  0  # atno 6907 bound_to 6896
  150.6864  134.3136  159.4766 H   0  0  0  0  0  0  0  0  0  0  0  0  # atno 6908 bound_to 6896
  152.0963  134.9372  160.0621 H   0  0  0  0  0  0  0  0  0  0  0  0  # atno 6909 bound_to 6896
  145.4482  139.2295  143.3054 H   0  0  0  0  0  0  0  0  0  0  0  0  # atno 7974 bound_to 7965
  154.4793  140.0895  156.7338 H   0  0  0  0  0  0  0  0  0  0  0  0  # atno 8008 bound_to 7997
  155.4513  140.3457  155.4283 H   0  0  0  0  0  0  0  0  0  0  0  0  # atno 8009 bound_to 7997
  156.1166  140.1462  156.9252 H   0  0  0  0  0  0  0  0  0  0  0  0  # atno 8010 bound_to 7997
  139.6031  144.0969  152.1764 H   0  0  0  0  0  0  0  0  0  0  0  0  # atno 10167 bound_to 10162
  156.5144  130.8449  151.2658 H   0  0  0  0  0  0  0  0  0  0  0  0  # atno 10718 bound_to 10713
  153.2691  135.4206  155.0969 H   0  0  0  0  0  0  0  0  0  0  0  0  # atno 10763 bound_to 10752
  154.8449  135.3467  154.6270 H   0  0  0  0  0  0  0  0  0  0  0  0  # atno 10764 bound_to 10752
  153.6690  135.7044  153.5210 H   0  0  0  0  0  0  0  0  0  0  0  0  # atno 10765 bound_to 10752
  140.1735  134.8526  157.2719 H   0  0  0  0  0  0  0  0  0  0  0  0  # atno 11005 bound_to 11000
  146.2519  140.5238  142.8890 LP  0  0  0  0  0  0  0  0  0  0  0  0  # atno 17320 bound_to 7965
  144.8078  140.6331  143.6435 LP  0  0  0  0  0  0  0  0  0  0  0  0  # atno 17321 bound_to 7965
  140.0570  144.5887  150.7292 LP  0  0  0  0  0  0  0  0  0  0  0  0  # atno 17342 bound_to 10162
  140.7265  143.2641  151.4103 LP  0  0  0  0  0  0  0  0  0  0  0  0  # atno 17343 bound_to 10162
  157.7446  130.9939  150.2687 LP  0  0  0  0  0  0  0  0  0  0  0  0  # atno 17370 bound_to 10713
  156.3210  130.3786  149.7575 LP  0  0  0  0  0  0  0  0  0  0  0  0  # atno 17371 bound_to 10713
  140.2349  134.3864  155.7505 LP  0  0  0  0  0  0  0  0  0  0  0  0  # atno 17394 bound_to 11000
  141.2219  133.7234  156.8699 LP  0  0  0  0  0  0  0  0  0  0  0  0  # atno 17395 bound_to 11000

$$$$
