#       Name:                AV-unprocessed.smi:1407
#       Creating user name   scv26
#       Creation time:       Fri Mar 27 05:35:54 2020


#       File generated by GOLD software.
#

@<TRIPOS>MOLECULE
AV-unprocessed.smi:1407
    54    55     1
SMALL
NO_CHARGES


@<TRIPOS>ATOM
      1 ****        -2.6979   1.8093   0.7599 C.3            1 S1                 0.0000
      2 ****        -1.3053   1.5853   1.2335 N.4            1 S1                 1.0000
      3 ****        -1.0525   2.3954   2.4579 C.3            1 S1                 0.0000
      4 ****        -0.8482   0.1426   1.2821 C.3            1 S1                 0.0000
      5 ****         0.7163   0.1323   1.3457 C.3            1 S1                 0.0000
      6 ****         1.3448   0.6692   0.1402 N.am           1 S1                 0.0000
      7 ****         1.7872   1.9227  -0.0519 C.2            1 S1                 0.0000
      8 ****         1.7202   2.7937   0.8135 O.2            1 S1                 0.0000
      9 ****         2.3781   2.2766  -1.4276 C.3            1 S1                 0.0000
     10 ****         2.3577   1.1747  -2.4071 N.am           1 S1                 0.0000
     11 ****         1.2125   1.0688  -3.2217 C.2            1 S1                 0.0000
     12 ****         1.0757   0.0909  -4.1309 C.2            1 S1                 0.0000
     13 ****         2.1458  -0.8686  -4.2668 C.2            1 S1                 0.0000
     14 ****         3.2446  -0.7779  -3.4914 C.2            1 S1                 0.0000
     15 ****         3.3932   0.2830  -2.4885 C.2            1 S1                 0.0000
     16 ****         4.3810   0.3584  -1.7581 O.2            1 S1                 0.0000
     17 ****        -1.4157  -0.5359   2.5753 C.3            1 S1                 0.0000
     18 ****        -1.8643  -2.0095   2.5312 C.3            1 S1                 0.0000
     19 ****        -0.8810  -3.0119   1.9149 C.3            1 S1                 0.0000
     20 ****        -1.0677  -3.1505   0.3995 C.3            1 S1                 0.0000
     21 ****        -0.6325  -1.9262  -0.4134 C.3            1 S1                 0.0000
     22 ****        -1.3131  -0.5906  -0.0282 C.3            1 S1                 0.0000
     23 ****        -3.4226   1.2751   1.3744 H              1 S1                 0.0000
     24 ****        -2.8362   1.5093  -0.2779 H              1 S1                 0.0000
     25 ****        -2.9508   2.8696   0.7995 H              1 S1                 0.0000
     26 ****        -1.7324   2.1343   3.2685 H              1 S1                 0.0000
     27 ****        -1.2087   3.4517   2.2371 H              1 S1                 0.0000
     28 ****        -0.0363   2.3128   2.8346 H              1 S1                 0.0000
     29 ****         1.1026   0.6431   2.2260 H              1 S1                 0.0000
     30 ****         1.0884  -0.8822   1.4681 H              1 S1                 0.0000
     31 ****         1.4492   0.0226  -0.6290 H              1 S1                 0.0000
     32 ****         1.8247   3.1297  -1.8231 H              1 S1                 0.0000
     33 ****         3.3946   2.6464  -1.2824 H              1 S1                 0.0000
     34 ****         0.4578   1.8235  -3.0530 H              1 S1                 0.0000
     35 ****         0.1889   0.0232  -4.7438 H              1 S1                 0.0000
     36 ****         2.0664  -1.6619  -4.9958 H              1 S1                 0.0000
     37 ****         4.0359  -1.5038  -3.6087 H              1 S1                 0.0000
     38 ****        -0.6959  -0.4176   3.3865 H              1 S1                 0.0000
     39 ****        -2.2992  -0.0002   2.9198 H              1 S1                 0.0000
     40 ****        -2.0602  -2.3174   3.5591 H              1 S1                 0.0000
     41 ****        -2.8294  -2.0857   2.0289 H              1 S1                 0.0000
     42 ****         0.1495  -2.7771   2.1776 H              1 S1                 0.0000
     43 ****        -1.0778  -3.9894   2.3572 H              1 S1                 0.0000
     44 ****        -0.4983  -4.0137   0.0531 H              1 S1                 0.0000
     45 ****        -2.1111  -3.3809   0.1805 H              1 S1                 0.0000
     46 ****         0.4528  -1.8462  -0.4122 H              1 S1                 0.0000
     47 ****        -0.8817  -2.1318  -1.4552 H              1 S1                 0.0000
     48 ****        -2.3918  -0.7505  -0.0117 H              1 S1                 0.0000
     49 ****        -1.1344   0.0792  -0.8708 H              1 S1                 0.0000
     50 ****        -0.7233   2.0070   0.5235 H              1 S1                 0.0000
     51 ****         1.3229   2.5818   1.7064 LP             1 S1                 0.0000
     52 ****         2.0630   3.7139   0.6244 LP             1 S1                 0.0000
     53 ****         4.4453   1.0885  -1.0778 LP             1 S1                 0.0000
     54 ****         5.1193  -0.3105  -1.8450 LP             1 S1                 0.0000
@<TRIPOS>BOND
    1    1    2 1     
    2    1   23 1     
    3    1   24 1     
    4    1   25 1     
    5    2    3 1     
    6    2    4 1     
    7    2   50 1     
    8    3   26 1     
    9    3   27 1     
   10    3   28 1     
   11    4   22 1     
   12    4    5 1     
   13    4   17 1     
   14    5    6 1     
   15    5   29 1     
   16    5   30 1     
   17    6    7 am    
   18    6   31 1     
   19    7    8 2     
   20    7    9 1     
   21    9   10 1     
   22    9   32 1     
   23    9   33 1     
   24   10   15 am    
   25   10   11 1     
   26   11   12 2     
   27   11   34 1     
   28   12   13 1     
   29   12   35 1     
   30   13   14 2     
   31   13   36 1     
   32   14   15 1     
   33   14   37 1     
   34   15   16 2     
   35   17   18 1     
   36   17   38 1     
   37   17   39 1     
   38   18   19 1     
   39   18   40 1     
   40   18   41 1     
   41   19   20 1     
   42   19   42 1     
   43   19   43 1     
   44   20   21 1     
   45   20   44 1     
   46   20   45 1     
   47   21   22 1     
   48   21   46 1     
   49   21   47 1     
   50   22   48 1     
   51   22   49 1     
   52    8   51 1     
   53    8   52 1     
   54   16   53 1     
   55   16   54 1     
@<TRIPOS>SUBSTRUCTURE
      1 S1             1
@<TRIPOS>SET
LONE_PAIRS      STATIC     ATOMS    <user>   **** ""
4 51 52 53 54
DONOR_HYDROGENS      STATIC     ATOMS    <user>   **** ""
2 50 31
ATOM$BLUE        STATIC     ATOMS    COLORGROUP SYSTEM
4 51 52 53 54
ATOM$RED        STATIC     ATOMS    COLORGROUP SYSTEM
2 50 31
