#       Name:                AV-unprocessed.smi:2977
#       Creating user name   scv26
#       Creation time:       Fri Mar 27 16:28:30 2020


#       File generated by GOLD software.
#

@<TRIPOS>MOLECULE
AV-unprocessed.smi:2977
    43    44     1
SMALL
NO_CHARGES


@<TRIPOS>ATOM
      1 ****         0.7324   2.3532   1.6099 O.2            1 S1                 0.0000
      2 ****         0.2708   1.2839   2.0090 C.2            1 S1                 0.0000
      3 ****        -1.2170   1.1715   2.3627 C.3            1 S1                 0.0000
      4 ****        -2.0778   1.5960   1.2505 N.am           1 S1                 0.0000
      5 ****        -2.5272   2.9016   1.3441 N.2            1 S1                 0.0000
      6 ****        -3.2621   3.3874   0.4039 C.2            1 S1                 0.0000
      7 ****        -3.6449   2.6104  -0.7548 C.2            1 S1                 0.0000
      8 ****        -4.6311   3.3172  -1.9855 Cl             1 S1                 0.0000
      9 ****        -3.2094   1.3277  -0.8298 C.2            1 S1                 0.0000
     10 ****        -3.6306   0.3332  -2.1817 Cl             1 S1                 0.0000
     11 ****        -2.3723   0.7396   0.2247 C.2            1 S1                 0.0000
     12 ****        -1.9650  -0.4223   0.1992 O.2            1 S1                 0.0000
     13 ****         1.0098   0.1770   2.1763 N.am           1 S1                 0.0000
     14 ****         2.4389   0.0632   1.8986 C.3            1 S1                 0.0000
     15 ****         2.7868   0.1700   0.3983 C.3            1 S1                 0.0000
     16 ****         1.9299  -0.7027  -0.5076 C.2            1 S1                 0.0000
     17 ****         1.1183  -0.1755  -1.4453 C.2            1 S1                 0.0000
     18 ****         0.2343  -0.9959  -2.3675 C.3            1 S1                 0.0000
     19 ****         0.0886  -2.4522  -1.8957 C.3            1 S1                 0.0000
     20 ****         1.4383  -3.0260  -1.4471 C.3            1 S1                 0.0000
     21 ****         2.0418  -2.2072  -0.2915 C.3            1 S1                 0.0000
     22 ****        -1.4617   0.1525   2.6694 H              1 S1                 0.0000
     23 ****        -1.4031   1.7909   3.2418 H              1 S1                 0.0000
     24 ****        -3.6351   4.4113   0.4313 H              1 S1                 0.0000
     25 ****         0.5447  -0.6551   2.5096 H              1 S1                 0.0000
     26 ****         2.9850   0.8183   2.4656 H              1 S1                 0.0000
     27 ****         2.7699  -0.9026   2.2808 H              1 S1                 0.0000
     28 ****         2.6942   1.2094   0.0813 H              1 S1                 0.0000
     29 ****         3.8340  -0.0930   0.2467 H              1 S1                 0.0000
     30 ****         1.0768   0.8955  -1.5796 H              1 S1                 0.0000
     31 ****        -0.7472  -0.5273  -2.4352 H              1 S1                 0.0000
     32 ****         0.6696  -0.9649  -3.3665 H              1 S1                 0.0000
     33 ****        -0.6133  -2.4986  -1.0622 H              1 S1                 0.0000
     34 ****        -0.3390  -3.0610  -2.6926 H              1 S1                 0.0000
     35 ****         1.3265  -4.0678  -1.1458 H              1 S1                 0.0000
     36 ****         2.1266  -3.0222  -2.2934 H              1 S1                 0.0000
     37 ****         3.0894  -2.4801  -0.1604 H              1 S1                 0.0000
     38 ****         1.5318  -2.4539   0.6402 H              1 S1                 0.0000
     39 ****         0.1367   3.1509   1.5157 LP             1 S1                 0.0000
     40 ****         1.7030   2.4240   1.3798 LP             1 S1                 0.0000
     41 ****        -2.2836   3.4632   2.1348 LP             1 S1                 0.0000
     42 ****        -1.3978  -0.7698   0.9458 LP             1 S1                 0.0000
     43 ****        -2.2016  -1.0184  -0.5682 LP             1 S1                 0.0000
@<TRIPOS>BOND
    1    1    2 2     
    2    2    3 1     
    3    2   13 am    
    4    3    4 1     
    5    3   22 1     
    6    3   23 1     
    7    4   11 am    
    8    4    5 1     
    9    5    6 2     
   10    6    7 1     
   11    6   24 1     
   12    7    8 1     
   13    7    9 2     
   14    9   10 1     
   15    9   11 1     
   16   11   12 2     
   17   13   14 1     
   18   13   25 1     
   19   14   15 1     
   20   14   26 1     
   21   14   27 1     
   22   15   16 1     
   23   15   28 1     
   24   15   29 1     
   25   16   21 1     
   26   16   17 2     
   27   17   18 1     
   28   17   30 1     
   29   18   19 1     
   30   18   31 1     
   31   18   32 1     
   32   19   20 1     
   33   19   33 1     
   34   19   34 1     
   35   20   21 1     
   36   20   35 1     
   37   20   36 1     
   38   21   37 1     
   39   21   38 1     
   40    1   39 1     
   41    1   40 1     
   42    5   41 1     
   43   12   42 1     
   44   12   43 1     
@<TRIPOS>SUBSTRUCTURE
      1 S1             1
@<TRIPOS>SET
LONE_PAIRS      STATIC     ATOMS    <user>   **** ""
5 39 40 41 42 43
DONOR_HYDROGENS      STATIC     ATOMS    <user>   **** ""
1 25
ATOM$BLUE        STATIC     ATOMS    COLORGROUP SYSTEM
5 39 40 41 42 43
ATOM$RED        STATIC     ATOMS    COLORGROUP SYSTEM
1 25
