AV-unprocessed.smi:3217|AV-procd|sdf|12289|dock9
  -GOLD-   2272018133D 1   1.00000     0.00000
 Structure written by MMmdl.
 34 35  0  0  0  0  0  0  0  0  1 V2000
  144.1068  136.1838  151.9904 C   0  0  0  0  0  0  0  0  0  0  0  0
  145.1620  135.4330  152.8174 C   0  0  2  0  0  0  0  0  0  0  0  0
  146.3756  136.2449  152.8781 N   0  0  0  0  0  0  0  0  0  0  0  0
  146.4905  137.4471  153.4606 C   0  0  0  0  0  0  0  0  0  0  0  0
  145.5587  138.0305  154.0134 O   0  0  0  0  0  0  0  0  0  0  0  0
  147.7420  137.9219  153.3380 N   0  0  0  0  0  0  0  0  0  0  0  0
  148.2769  139.1512  153.8105 C   0  0  0  0  0  0  0  0  0  0  0  0
  147.4452  140.2893  153.7716 C   0  0  0  0  0  0  0  0  0  0  0  0
  147.9504  141.5252  154.2180 C   0  0  0  0  0  0  0  0  0  0  0  0
  149.2794  141.5770  154.6805 C   0  0  0  0  0  0  0  0  0  0  0  0
  150.0943  140.5017  154.7107 N   0  0  0  0  0  0  0  0  0  0  0  0
  149.6026  139.3188  154.2827 C   0  0  0  0  0  0  0  0  0  0  0  0
  145.5017  134.0523  152.2233 C   0  0  2  0  0  0  0  0  0  0  0  0
  146.1962  134.0938  150.8602 C   0  0  0  0  0  0  0  0  0  0  0  0
  145.7989  132.7789  150.2049 C   0  0  0  0  0  0  0  0  0  0  0  0
  144.6864  132.2340  151.1031 C   0  0  0  0  0  0  0  0  0  0  0  0
  144.3166  133.3288  151.9272 O   0  0  0  0  0  0  0  0  0  0  0  0
  143.1671  135.6328  151.9498 H   0  0  0  0  0  0  0  0  0  0  0  0
  144.4444  136.3429  150.9657 H   0  0  0  0  0  0  0  0  0  0  0  0
  143.8911  137.1602  152.4254 H   0  0  0  0  0  0  0  0  0  0  0  0
  144.7556  135.2833  153.8192 H   0  0  0  0  0  0  0  0  0  0  0  0
  147.1996  135.8511  152.4483 H   0  0  0  0  0  0  0  0  0  0  0  0
  148.3764  137.3566  152.7932 H   0  0  0  0  0  0  0  0  0  0  0  0
  146.4303  140.2187  153.4080 H   0  0  0  0  0  0  0  0  0  0  0  0
  147.3347  142.4123  154.2052 H   0  0  0  0  0  0  0  0  0  0  0  0
  149.7005  142.5081  155.0299 H   0  0  0  0  0  0  0  0  0  0  0  0
  150.3098  138.5048  154.3084 H   0  0  0  0  0  0  0  0  0  0  0  0
  146.1017  133.4706  152.9265 H   0  0  0  0  0  0  0  0  0  0  0  0
  145.8135  134.9241  150.2652 H   0  0  0  0  0  0  0  0  0  0  0  0
  147.2767  134.2127  150.9454 H   0  0  0  0  0  0  0  0  0  0  0  0
  145.4426  132.9496  149.1885 H   0  0  0  0  0  0  0  0  0  0  0  0
  146.6349  132.0805  150.1552 H   0  0  0  0  0  0  0  0  0  0  0  0
  143.8342  131.8584  150.5366 H   0  0  0  0  0  0  0  0  0  0  0  0
  145.0619  131.4248  151.7312 H   0  0  0  0  0  0  0  0  0  0  0  0
  1  2  1  0  0  0  0
  1 18  1  0  0  0  0
  1 19  1  0  0  0  0
  1 20  1  0  0  0  0
  2  3  1  0  0  0  0
  2 13  1  0  0  0  0
  2 21  1  0  0  0  0
  3  4  1  0  0  0  0
  3 22  1  0  0  0  0
  4  5  2  0  0  0  0
  4  6  1  0  0  0  0
  6  7  1  0  0  0  0
  6 23  1  0  0  0  0
  7 12  1  0  0  0  0
  7  8  2  0  0  0  0
  8  9  1  0  0  0  0
  8 24  1  0  0  0  0
  9 10  2  0  0  0  0
  9 25  1  0  0  0  0
 10 11  1  0  0  0  0
 10 26  1  0  0  0  0
 11 12  2  0  0  0  0
 12 27  1  0  0  0  0
 13 17  1  0  0  0  0
 13 14  1  0  0  0  0
 13 28  1  0  0  0  0
 14 15  1  0  0  0  0
 14 29  1  0  0  0  0
 14 30  1  0  0  0  0
 15 16  1  0  0  0  0
 15 31  1  0  0  0  0
 15 32  1  0  0  0  0
 16 17  1  0  0  0  0
 16 33  1  0  0  0  0
 16 34  1  0  0  0  0
M  END
> <s_m_source_file>
AV-unprocessed.smi

> <i_m_source_file_index>
3217

> <i_lp_mmshare_version>
43012

> <i_f3d_flags>
0

> <s_epik_input>
TzFbQ0gyXVtDSDJdW0NIMl1bQ0BIXTFbQ0BIXShbQ0gzXSlbTkhdQyg9TylbTkhdYzJbY0hdW2NIXVtjSF1uW2NIXTI=

> <s_epik_cmdline>
J2VwaWtfcHl0aG9uJywgJy1waCcsICc3LjAnLCAnLXRuJywgJzgnLCAnLW1hJywgJzIwMCcsICctbWV0YWxfYmluZGluZycsICctaW1hZScsICc8aW5maWxlLm1hZT4nLCAnLW9tYWUnLCAnPG91dGZpbGUubWFlPic=

> <r_epik_Ionization_Penalty>
0.00475451

> <r_epik_Ionization_Penalty_Charging>
0

> <r_epik_Ionization_Penalty_Neutral>
0.00475451

> <r_epik_State_Penalty>
0.00341814

> <r_epik_Charging_Adjusted_Penalty>
0.00341814

> <i_epik_Tot_Q>
0

> <i_epik_Tot_abs_Q>
0

> <r_epik_Metal_State_Penalty>
-0

> <b_epik_Metal_Only>
0

> <s_lp_Force_Field>
OPLS_2005

> <r_lp_Energy>
20.3997

> <b_lp_Chiralities_Consistent>
1

> <s_lp_Variant>
AV-unprocessed.smi:3217-1

> <Gold.Version>
5.8.1

> <Gold.Id.Protein>
6NUR|6NUR_protein|mol2

> <Gold.PLP.Fitness>
38.5881

> <Gold.PLP.PLP>
-27.7786

> <Gold.PLP.part.hbond>
-3.0000

> <Gold.PLP.part.metal>
0.0000

> <Gold.PLP.part.buried>
-2.0122

> <Gold.PLP.part.nonpolar>
-22.1277

> <Gold.PLP.part.repulsive>
0.3904

> <Gold.PLP.ligand.clash>
0.0000

> <Gold.PLP.ligand.torsion>
0.3656

> <Gold.PLP.Chemscore.Hbond>
2.8400

> <Gold.PLP.Chemscore.CHOScore>
1.0000

> <Gold.PLP.Chemscore.Metal>
0.0000

> <Gold.Chemscore.Hbonds>
donor molecule, donor type, donor heavy atom, donor atom, acceptor molecule, acceptor atom, score
      L1  H     3    22       P1  7948  0.91
      L1  H     6    23       P1  7948  1.00
      P1  H  7989  7998       L1    11  0.93
      L1  C    10    26       P1  8028  1.00

> <Gold.PLP.Chemscore.Internal.Correction>
0.0208

> <Gold.Rescore>
     Score         DG    S(hbond)    S(metal)    S(lipo)     H(rot)  DE(clash)    DE(int)     intcor
     16.19     -18.03       2.23        0.00      70.27       1.22       0.32       1.52       ----

> <Gold.Chemscore.Fitness>
16.1865

> <Gold.Chemscore.DG>
-18.0261

> <Gold.Chemscore.ZeroCoef>
-5.4800

> <Gold.Chemscore.Hbond>
2.2325

> <Gold.Chemscore.Metal>
0.0000

> <Gold.Chemscore.Lipo>
70.2740

> <Gold.Chemscore.Internal_Hbond>
0.0000

> <Gold.Chemscore.DEClash>
0.3185

> <Gold.Chemscore.DEInternal>
1.5211

> <Gold.Chemscore.Rot>
1.2236

> <Gold.Chemscore.Internal.Correction>
   9.000000E+99

> <Gold.Chemscore.Hbonds>
donor molecule, donor type, donor heavy atom, donor atom, acceptor molecule, acceptor atom, score
      L1  H     3    22       P1  7948  0.88
      L1  H     6    23       P1  7948  0.96
      P1  H  7989  7998       L1    11  0.26

> <Gold.Chemscore.Hbond.Weighted>
-7.4566

> <Gold.Chemscore.Metal.Weighted>
-0.0000

> <Gold.Chemscore.Lipo.Weighted>
-8.2221

> <Gold.Chemscore.Internal_Hbond.Weighted>
0.0000

> <Gold.Chemscore.DEClash.Weighted>
0.3185

> <Gold.Chemscore.DEInternal.Weighted>
1.5211

> <Gold.Chemscore.Rot.Weighted>
3.1325

> <Gold.Chemscore.Internal.Correction.Weighted>
   9.000000E+99

> <Gold.Protein.RotatedTorsions>
[ 6907 6896 6895 6894 ] final -150.29 input  -60.11 | X-H torsion
[ 7974 7965 7964 7962 ] final  -10.53 input  175.53 | X-H torsion
[ 8008 7997 7996 7995 ] final   44.18 input   59.86 | X-H torsion
[ 10167 10162 10161 10158 ] final   26.28 input  -65.29 | X-H torsion
[ 10718 10713 10712 10709 ] final -159.99 input   66.30 | X-H torsion
[ 10763 10752 10751 10750 ] final  -38.03 input  -60.55 | X-H torsion
[ 11005 11000 10999 10996 ] final  170.71 input  -57.11 | X-H torsion

> <Gold.Protein.ActiveResidues>
 VAL166  LYS551  ARG553  GLY616  TRP617  ASP618  TYR619  PRO620  LYS621  CYS622 
 ASP623  PHE694  ASN695  SER759  ASP760  ASP761  ALA762  ILE779  LEU786  VAL792 
 PHE793  MET794  SER795  GLU796  ALA797  LYS798  CYS799  TRP800  GLU811  SER814 

> <Gold.Protein.RotatedAtoms>
  151.1964  133.4636  159.2595 H   0  0  0  0  0  0  0  0  0  0  0  0  # atno 6907 bound_to 6896
  151.1112  135.0028  159.8505 H   0  0  0  0  0  0  0  0  0  0  0  0  # atno 6908 bound_to 6896
  152.5450  134.1883  159.8716 H   0  0  0  0  0  0  0  0  0  0  0  0  # atno 6909 bound_to 6896
  146.2217  140.2778  142.8360 H   0  0  0  0  0  0  0  0  0  0  0  0  # atno 7974 bound_to 7965
  155.3150  140.3393  155.4243 H   0  0  0  0  0  0  0  0  0  0  0  0  # atno 8008 bound_to 7997
  156.1937  140.1707  156.8079 H   0  0  0  0  0  0  0  0  0  0  0  0  # atno 8009 bound_to 7997
  154.5472  140.0713  156.8593 H   0  0  0  0  0  0  0  0  0  0  0  0  # atno 8010 bound_to 7997
  140.5036  144.0275  150.6343 H   0  0  0  0  0  0  0  0  0  0  0  0  # atno 10167 bound_to 10162
  156.5759  130.8708  151.2851 H   0  0  0  0  0  0  0  0  0  0  0  0  # atno 10718 bound_to 10713
  153.9061  135.6797  153.4753 H   0  0  0  0  0  0  0  0  0  0  0  0  # atno 10763 bound_to 10752
  153.1103  135.4786  154.9021 H   0  0  0  0  0  0  0  0  0  0  0  0  # atno 10764 bound_to 10752
  154.7550  135.3195  154.8441 H   0  0  0  0  0  0  0  0  0  0  0  0  # atno 10765 bound_to 10752
  140.3113  134.7514  157.3993 H   0  0  0  0  0  0  0  0  0  0  0  0  # atno 11005 bound_to 11000
  144.9220  140.7878  143.5742 LP  0  0  0  0  0  0  0  0  0  0  0  0  # atno 17320 bound_to 7965
  145.2715  139.1953  143.4839 LP  0  0  0  0  0  0  0  0  0  0  0  0  # atno 17321 bound_to 7965
  140.3578  143.2926  152.0417 LP  0  0  0  0  0  0  0  0  0  0  0  0  # atno 17342 bound_to 10162
  139.4878  144.6326  151.7040 LP  0  0  0  0  0  0  0  0  0  0  0  0  # atno 17343 bound_to 10162
  157.7338  130.9735  150.1995 LP  0  0  0  0  0  0  0  0  0  0  0  0  # atno 17370 bound_to 10713
  156.2674  130.3718  149.8067 LP  0  0  0  0  0  0  0  0  0  0  0  0  # atno 17371 bound_to 10713
  140.1022  134.5457  155.8342 LP  0  0  0  0  0  0  0  0  0  0  0  0  # atno 17394 bound_to 11000
  141.2107  133.6698  156.6532 LP  0  0  0  0  0  0  0  0  0  0  0  0  # atno 17395 bound_to 11000

$$$$
