#       Name:                AV-unprocessed.smi:3213
#       Creating user name   scv26
#       Creation time:       Fri Mar 27 18:11:59 2020


#       File generated by GOLD software.
#

@<TRIPOS>MOLECULE
AV-unprocessed.smi:3213
    40    40     1
SMALL
NO_CHARGES


@<TRIPOS>ATOM
      1 ****        -4.3528   0.4826   1.6496 C.3            1 S1                 0.0000
      2 ****        -3.1807   1.0037   0.7992 C.3            1 S1                 0.0000
      3 ****        -3.7449   1.6835  -0.4668 C.3            1 S1                 0.0000
      4 ****        -2.3611   2.0077   1.6366 C.3            1 S1                 0.0000
      5 ****        -2.3600  -0.1608   0.4450 N.am           1 S1                 0.0000
      6 ****        -1.2444  -0.2021  -0.3057 C.2            1 S1                 0.0000
      7 ****        -0.7354   0.7861  -0.8354 O.2            1 S1                 0.0000
      8 ****        -0.6103  -1.5843  -0.4892 C.3            1 S1                 0.0000
      9 ****         0.8290  -1.5481  -0.2952 N.pl3          1 S1                 0.0000
     10 ****         1.8158  -1.3575  -1.2396 C.2            1 S1                 0.0000
     11 ****         3.0182  -1.3975  -0.5921 C.2            1 S1                 0.0000
     12 ****         4.3998  -1.2440  -1.1639 C.3            1 S1                 0.0000
     13 ****         4.9075   0.1978  -1.0327 C.3            1 S1                 0.0000
     14 ****         6.2045   0.3006  -1.5796 O.3            1 S1                 0.0000
     15 ****         2.6544  -1.6189   0.7669 C.2            1 S1                 0.0000
     16 ****         1.3462  -1.7096   0.9418 N.2            1 S1                 0.0000
     17 ****        -5.0147   1.2942   1.9540 H              1 S1                 0.0000
     18 ****        -3.9993  -0.0082   2.5573 H              1 S1                 0.0000
     19 ****        -4.9549  -0.2405   1.0979 H              1 S1                 0.0000
     20 ****        -4.2871   0.9729  -1.0917 H              1 S1                 0.0000
     21 ****        -2.9612   2.1301  -1.0785 H              1 S1                 0.0000
     22 ****        -4.4376   2.4841  -0.2055 H              1 S1                 0.0000
     23 ****        -2.9843   2.8358   1.9760 H              1 S1                 0.0000
     24 ****        -1.5371   2.4395   1.0688 H              1 S1                 0.0000
     25 ****        -1.9375   1.5325   2.5222 H              1 S1                 0.0000
     26 ****        -2.6765  -1.0415   0.8240 H              1 S1                 0.0000
     27 ****        -1.0443  -2.3065   0.2048 H              1 S1                 0.0000
     28 ****        -0.8196  -1.9426  -1.4975 H              1 S1                 0.0000
     29 ****         1.5819  -1.2085  -2.2837 H              1 S1                 0.0000
     30 ****         5.0947  -1.9180  -0.6613 H              1 S1                 0.0000
     31 ****         4.4120  -1.5353  -2.2150 H              1 S1                 0.0000
     32 ****         4.2451   0.8885  -1.5556 H              1 S1                 0.0000
     33 ****         4.9384   0.5022   0.0140 H              1 S1                 0.0000
     34 ****         6.4958   1.1958  -1.4966 H              1 S1                 0.0000
     35 ****         3.3007  -1.7149   1.6271 H              1 S1                 0.0000
     36 ****        -1.1534   1.6870  -0.7187 LP             1 S1                 0.0000
     37 ****         0.0960   0.6878  -1.3823 LP             1 S1                 0.0000
     38 ****         6.1848   0.0407  -2.5450 LP             1 S1                 0.0000
     39 ****         6.8281  -0.3041  -1.0842 LP             1 S1                 0.0000
     40 ****         0.8517  -1.8631   1.7973 LP             1 S1                 0.0000
@<TRIPOS>BOND
    1    1    2 1     
    2    1   17 1     
    3    1   18 1     
    4    1   19 1     
    5    2    3 1     
    6    2    4 1     
    7    2    5 1     
    8    3   20 1     
    9    3   21 1     
   10    3   22 1     
   11    4   23 1     
   12    4   24 1     
   13    4   25 1     
   14    5    6 am    
   15    5   26 1     
   16    6    7 2     
   17    6    8 1     
   18    8    9 1     
   19    8   27 1     
   20    8   28 1     
   21    9   16 1     
   22    9   10 1     
   23   10   11 2     
   24   10   29 1     
   25   11   12 1     
   26   11   15 1     
   27   12   13 1     
   28   12   30 1     
   29   12   31 1     
   30   13   14 1     
   31   13   32 1     
   32   13   33 1     
   33   14   34 1     
   34   15   16 2     
   35   15   35 1     
   36    7   36 1     
   37    7   37 1     
   38   14   38 1     
   39   14   39 1     
   40   16   40 1     
@<TRIPOS>SUBSTRUCTURE
      1 S1             1
@<TRIPOS>SET
LONE_PAIRS      STATIC     ATOMS    <user>   **** ""
5 36 37 38 39 40
DONOR_HYDROGENS      STATIC     ATOMS    <user>   **** ""
2 26 34
ATOM$BLUE        STATIC     ATOMS    COLORGROUP SYSTEM
5 36 37 38 39 40
ATOM$RED        STATIC     ATOMS    COLORGROUP SYSTEM
2 26 34
