AV-unprocessed.smi:992|AV-procd|sdf|4332|dock4
  -GOLD-   22720 2233D 1   1.00000     0.00000
 Structure written by MMmdl.
 33 34  0  0  0  0  0  0  0  0  2 V2000
  152.6699  142.0569  161.4399 C   0  0  0  0  0  0  0  0  0  0  0  0
  151.8663  142.7216  160.3174 C   0  0  2  0  0  0  0  0  0  0  0  0
  151.7344  141.8084  159.0856 C   0  0  0  0  0  0  0  0  0  0  0  0
  151.0562  142.5180  158.0104 N   0  0  0  0  0  0  0  0  0  0  0  0
  150.7694  141.7054  156.9059 C   0  0  0  0  0  0  0  0  0  0  0  0
  151.2232  140.3713  156.7794 C   0  0  0  0  0  0  0  0  0  0  0  0
  150.8789  139.6302  155.6299 C   0  0  0  0  0  0  0  0  0  0  0  0
  150.0892  140.2346  154.6291 C   0  0  0  0  0  0  0  0  0  0  0  0
  149.7320  139.5253  153.4841 N   0  0  0  0  0  0  0  0  0  0  0  0
  149.6655  141.5679  154.8047 C   0  0  0  0  0  0  0  0  0  0  0  0
  150.0167  142.2437  155.9206 N   0  3  0  0  0  0  0  0  0  0  0  0
  151.7322  143.7576  157.6504 C   0  0  0  0  0  0  0  0  0  0  0  0
  151.9147  144.6601  158.8872 C   0  0  1  0  0  0  0  0  0  0  0  0
  150.6163  145.3469  159.3472 C   0  0  0  0  0  0  0  0  0  0  0  0
  152.5384  143.9247  159.9435 O   0  0  0  0  0  0  0  0  0  0  0  0
  152.1943  141.1324  161.7684 H   0  0  0  0  0  0  0  0  0  0  0  0
  152.7483  142.7156  162.3052 H   0  0  0  0  0  0  0  0  0  0  0  0
  153.6817  141.8155  161.1126 H   0  0  0  0  0  0  0  0  0  0  0  0
  150.8757  142.9586  160.7060 H   0  0  0  0  0  0  0  0  0  0  0  0
  152.7225  141.4897  158.7508 H   0  0  0  0  0  0  0  0  0  0  0  0
  151.1749  140.9083  159.3439 H   0  0  0  0  0  0  0  0  0  0  0  0
  151.8270  139.9167  157.5510 H   0  0  0  0  0  0  0  0  0  0  0  0
  151.2180  138.6101  155.5215 H   0  0  0  0  0  0  0  0  0  0  0  0
  150.0256  138.5692  153.3412 H   0  0  0  0  0  0  0  0  0  0  0  0
  149.2067  139.9562  152.7365 H   0  0  0  0  0  0  0  0  0  0  0  0
  149.0605  142.1127  154.0942 H   0  0  0  0  0  0  0  0  0  0  0  0
  152.7101  143.5226  157.2277 H   0  0  0  0  0  0  0  0  0  0  0  0
  151.1690  144.2822  156.8771 H   0  0  0  0  0  0  0  0  0  0  0  0
  152.6111  145.4545  158.6173 H   0  0  0  0  0  0  0  0  0  0  0  0
  150.2267  145.9992  158.5654 H   0  0  0  0  0  0  0  0  0  0  0  0
  150.7948  145.9620  160.2295 H   0  0  0  0  0  0  0  0  0  0  0  0
  149.8318  144.6314  159.5916 H   0  0  0  0  0  0  0  0  0  0  0  0
  149.6965  143.2067  156.0247 H   0  0  0  0  0  0  0  0  0  0  0  0
  1  2  1  0  0  0  0
  1 16  1  0  0  0  0
  1 17  1  0  0  0  0
  1 18  1  0  0  0  0
  2 15  1  0  0  0  0
  2  3  1  0  0  0  0
  2 19  1  0  0  0  0
  3  4  1  0  0  0  0
  3 20  1  0  0  0  0
  3 21  1  0  0  0  0
  4  5  1  0  0  0  0
  4 12  1  0  0  0  0
  5 11  1  0  0  0  0
  5  6  2  0  0  0  0
  6  7  1  0  0  0  0
  6 22  1  0  0  0  0
  7  8  2  0  0  0  0
  7 23  1  0  0  0  0
  8  9  1  0  0  0  0
  8 10  1  0  0  0  0
  9 24  1  0  0  0  0
  9 25  1  0  0  0  0
 10 11  2  0  0  0  0
 10 26  1  0  0  0  0
 11 33  1  0  0  0  0
 12 13  1  0  0  0  0
 12 27  1  0  0  0  0
 12 28  1  0  0  0  0
 13 14  1  0  0  0  0
 13 15  1  0  0  0  0
 13 29  1  0  0  0  0
 14 30  1  0  0  0  0
 14 31  1  0  0  0  0
 14 32  1  0  0  0  0
M  CHG  1  11   1
M  END
> <s_m_source_file>
AV-unprocessed.smi

> <i_m_source_file_index>
992

> <i_lp_mmshare_version>
43012

> <i_f3d_flags>
0

> <s_epik_input>
W0NIM11bQ0BASF0xW0NIMl1OKFtDSDJdW0NASF0oTzEpW0NIM10pYzJbY0hdW2NIXWMoW05IMl0pW2NIXW4y

> <s_epik_cmdline>
J2VwaWtfcHl0aG9uJywgJy1waCcsICc3LjAnLCAnLXRuJywgJzgnLCAnLW1hJywgJzIwMCcsICctbWV0YWxfYmluZGluZycsICctaW1hZScsICc8aW5maWxlLm1hZT4nLCAnLW9tYWUnLCAnPG91dGZpbGUubWFlPic=

> <r_lp_tautomer_probability>
0.999846

> <r_epik_Ionization_Penalty>
2.28753

> <r_epik_Ionization_Penalty_Charging>
2.28753

> <r_epik_Ionization_Penalty_Neutral>
1.09395e-07

> <r_epik_State_Penalty>
2.43729

> <r_epik_Charging_Adjusted_Penalty>
4.72482

> <i_epik_Tot_Q>
1

> <i_epik_Tot_abs_Q>
1

> <r_epik_Metal_State_Penalty>
6.52028

> <b_epik_Metal_Only>
0

> <s_lp_Force_Field>
OPLS_2005

> <r_lp_Energy>
28.0969

> <b_lp_Chiralities_Consistent>
1

> <s_lp_Variant>
AV-unprocessed.smi:992-4

> <Gold.Version>
5.8.1

> <Gold.Id.Protein>
6NUR|6NUR_protein|mol2

> <Gold.PLP.Fitness>
44.5833

> <Gold.PLP.PLP>
-37.8799

> <Gold.PLP.part.hbond>
-1.9157

> <Gold.PLP.part.metal>
0.0000

> <Gold.PLP.part.buried>
-4.2150

> <Gold.PLP.part.nonpolar>
-32.6163

> <Gold.PLP.part.repulsive>
0.3154

> <Gold.PLP.ligand.clash>
0.0000

> <Gold.PLP.ligand.torsion>
0.0531

> <Gold.PLP.Chemscore.Hbond>
2.2400

> <Gold.PLP.Chemscore.CHOScore>
0.0000

> <Gold.PLP.Chemscore.Metal>
0.0000

> <Gold.Chemscore.Hbonds>
donor molecule, donor type, donor heavy atom, donor atom, acceptor molecule, acceptor atom, score
      L1  H     9    25       P1  7957  0.56
      L1  H    11    33       P1  8028  2.00

> <Gold.PLP.Chemscore.Internal.Correction>
0.0897

> <Gold.Rescore>
     Score         DG    S(hbond)    S(metal)    S(lipo)     H(rot)  DE(clash)    DE(int)     intcor
     19.19     -19.36       1.64        0.00      93.76       1.00       0.01       0.17       ----

> <Gold.Chemscore.Fitness>
19.1851

> <Gold.Chemscore.DG>
-19.3564

> <Gold.Chemscore.ZeroCoef>
-5.4800

> <Gold.Chemscore.Hbond>
1.6368

> <Gold.Chemscore.Metal>
0.0000

> <Gold.Chemscore.Lipo>
93.7552

> <Gold.Chemscore.Internal_Hbond>
0.0000

> <Gold.Chemscore.DEClash>
0.0053

> <Gold.Chemscore.DEInternal>
0.1661

> <Gold.Chemscore.Rot>
1.0000

> <Gold.Chemscore.Internal.Correction>
   9.000000E+99

> <Gold.Chemscore.Hbonds>
donor molecule, donor type, donor heavy atom, donor atom, acceptor molecule, acceptor atom, score
      L1  H     9    25       P1  7957  0.56
      L1  H    11    33       P1  8028  1.00

> <Gold.Chemscore.Hbond.Weighted>
-5.4670

> <Gold.Chemscore.Metal.Weighted>
-0.0000

> <Gold.Chemscore.Lipo.Weighted>
-10.9694

> <Gold.Chemscore.Internal_Hbond.Weighted>
0.0000

> <Gold.Chemscore.DEClash.Weighted>
0.0053

> <Gold.Chemscore.DEInternal.Weighted>
0.1661

> <Gold.Chemscore.Rot.Weighted>
2.5600

> <Gold.Chemscore.Internal.Correction.Weighted>
   9.000000E+99

> <Gold.Protein.RotatedTorsions>
[ 6907 6896 6895 6894 ] final  -33.06 input  -60.11 | X-H torsion
[ 7974 7965 7964 7962 ] final  -30.10 input  175.53 | X-H torsion
[ 8008 7997 7996 7995 ] final -144.42 input   59.86 | X-H torsion
[ 10167 10162 10161 10158 ] final  132.05 input  -65.29 | X-H torsion
[ 10718 10713 10712 10709 ] final   99.01 input   66.30 | X-H torsion
[ 10763 10752 10751 10750 ] final  -52.75 input  -60.55 | X-H torsion
[ 11005 11000 10999 10996 ] final  -70.69 input  -57.11 | X-H torsion

> <Gold.Protein.ActiveResidues>
 VAL166  LYS551  ARG553  GLY616  TRP617  ASP618  TYR619  PRO620  LYS621  CYS622 
 ASP623  PHE694  ASN695  SER759  ASP760  ASP761  ALA762  ILE779  LEU786  VAL792 
 PHE793  MET794  SER795  GLU796  ALA797  LYS798  CYS799  TRP800  GLU811  SER814 

> <Gold.Protein.RotatedAtoms>
  151.0706  134.9796  159.8306 H   0  0  0  0  0  0  0  0  0  0  0  0  # atno 6907 bound_to 6896
  152.5408  134.2304  159.8832 H   0  0  0  0  0  0  0  0  0  0  0  0  # atno 6908 bound_to 6896
  151.2328  133.4397  159.2638 H   0  0  0  0  0  0  0  0  0  0  0  0  # atno 6909 bound_to 6896
  146.1167  140.5498  142.8753 H   0  0  0  0  0  0  0  0  0  0  0  0  # atno 7974 bound_to 7965
  155.5266  140.0596  157.2897 H   0  0  0  0  0  0  0  0  0  0  0  0  # atno 8008 bound_to 7997
  154.4499  140.1943  156.0497 H   0  0  0  0  0  0  0  0  0  0  0  0  # atno 8009 bound_to 7997
  156.0682  140.3263  155.7547 H   0  0  0  0  0  0  0  0  0  0  0  0  # atno 8010 bound_to 7997
  139.5357  144.6679  151.4795 H   0  0  0  0  0  0  0  0  0  0  0  0  # atno 10167 bound_to 10162
  157.6884  131.0657  150.4884 H   0  0  0  0  0  0  0  0  0  0  0  0  # atno 10718 bound_to 10713
  154.1478  135.6495  153.4956 H   0  0  0  0  0  0  0  0  0  0  0  0  # atno 10763 bound_to 10752
  153.0146  135.5331  154.6839 H   0  0  0  0  0  0  0  0  0  0  0  0  # atno 10764 bound_to 10752
  154.6118  135.2955  155.0395 H   0  0  0  0  0  0  0  0  0  0  0  0  # atno 10765 bound_to 10752
  141.1579  133.6797  156.6791 H   0  0  0  0  0  0  0  0  0  0  0  0  # atno 11005 bound_to 11000
  144.7560  140.5308  143.6769 LP  0  0  0  0  0  0  0  0  0  0  0  0  # atno 17320 bound_to 7965
  145.5551  139.1477  143.3372 LP  0  0  0  0  0  0  0  0  0  0  0  0  # atno 17321 bound_to 7965
  140.6561  143.8595  150.6837 LP  0  0  0  0  0  0  0  0  0  0  0  0  # atno 17342 bound_to 10162
  140.1975  143.3986  152.1816 LP  0  0  0  0  0  0  0  0  0  0  0  0  # atno 17343 bound_to 10162
  156.5212  130.4162  149.6250 LP  0  0  0  0  0  0  0  0  0  0  0  0  # atno 17370 bound_to 10713
  156.3153  130.7251  151.2152 LP  0  0  0  0  0  0  0  0  0  0  0  0  # atno 17371 bound_to 10713
  140.3116  134.8081  157.4181 LP  0  0  0  0  0  0  0  0  0  0  0  0  # atno 17394 bound_to 11000
  140.1174  134.5265  155.8213 LP  0  0  0  0  0  0  0  0  0  0  0  0  # atno 17395 bound_to 11000

$$$$
