AV-unprocessed.smi:3058|AV-procd|sdf|11675|dock6
  -GOLD-   2272017 83D 1   1.00000     0.00000
 Structure written by MMmdl.
 39 41  0  0  0  0  0  0  0  0  2 V2000
  150.0560  141.3756  158.8416 O   0  0  0  0  0  0  0  0  0  0  0  0
  149.9637  142.4365  158.2228 C   0  0  0  0  0  0  0  0  0  0  0  0
  149.5093  142.5067  156.9620 N   0  0  0  0  0  0  0  0  0  0  0  0
  149.0595  141.3676  156.1709 C   0  0  0  0  0  0  0  0  0  0  0  0
  149.3099  141.5871  154.6697 C   0  0  0  0  0  0  0  0  0  0  0  0
  148.4799  140.6544  153.8098 C   0  0  0  0  0  0  0  0  0  0  0  0
  147.3230  141.1255  153.1505 C   0  0  0  0  0  0  0  0  0  0  0  0
  146.5711  140.2366  152.3542 C   0  0  0  0  0  0  0  0  0  0  0  0
  146.9939  138.8969  152.2341 C   0  0  0  0  0  0  0  0  0  0  0  0
  148.1068  138.4827  152.8790 N   0  3  0  0  0  0  0  0  0  0  0  0
  148.8537  139.3023  153.6513 C   0  0  0  0  0  0  0  0  0  0  0  0
  150.4021  143.7677  158.8588 C   0  0  2  0  0  0  0  0  0  0  0  0
  151.3537  144.6210  157.9837 C   0  0  0  0  0  0  0  0  0  0  0  0
  152.5352  144.9036  158.9310 C   0  0  2  0  0  0  0  0  0  0  0  0
  153.3676  143.6205  159.1124 C   0  0  0  0  0  0  0  0  0  0  0  0
  152.4726  142.7618  160.0247 C   0  0  0  0  0  0  0  0  0  0  0  0
  151.2071  143.6344  160.1789 C   0  0  1  0  0  0  0  0  0  0  0  0
  151.8347  145.0218  160.2798 C   0  0  0  0  0  0  0  0  0  0  0  0
  149.4702  143.4147  156.5218 H   0  0  0  0  0  0  0  0  0  0  0  0
  149.5559  140.4580  156.5143 H   0  0  0  0  0  0  0  0  0  0  0  0
  147.9939  141.2280  156.3544 H   0  0  0  0  0  0  0  0  0  0  0  0
  149.0806  142.6186  154.3986 H   0  0  0  0  0  0  0  0  0  0  0  0
  150.3643  141.4360  154.4342 H   0  0  0  0  0  0  0  0  0  0  0  0
  147.0148  142.1564  153.2517 H   0  0  0  0  0  0  0  0  0  0  0  0
  145.6830  140.5785  151.8425 H   0  0  0  0  0  0  0  0  0  0  0  0
  146.4804  138.1502  151.6460 H   0  0  0  0  0  0  0  0  0  0  0  0
  149.7215  138.8547  154.1137 H   0  0  0  0  0  0  0  0  0  0  0  0
  149.5060  144.3585  159.0596 H   0  0  0  0  0  0  0  0  0  0  0  0
  151.6797  144.1337  157.0637 H   0  0  0  0  0  0  0  0  0  0  0  0
  150.8646  145.5531  157.6974 H   0  0  0  0  0  0  0  0  0  0  0  0
  153.1286  145.7712  158.6413 H   0  0  0  0  0  0  0  0  0  0  0  0
  153.5814  143.1314  158.1613 H   0  0  0  0  0  0  0  0  0  0  0  0
  154.3188  143.8354  159.6008 H   0  0  0  0  0  0  0  0  0  0  0  0
  152.2814  141.7685  159.6210 H   0  0  0  0  0  0  0  0  0  0  0  0
  152.9524  142.6221  160.9943 H   0  0  0  0  0  0  0  0  0  0  0  0
  150.5914  143.3606  161.0361 H   0  0  0  0  0  0  0  0  0  0  0  0
  152.5252  145.1278  161.1187 H   0  0  0  0  0  0  0  0  0  0  0  0
  151.1017  145.8297  160.3176 H   0  0  0  0  0  0  0  0  0  0  0  0
  148.3960  137.5093  152.7780 H   0  0  0  0  0  0  0  0  0  0  0  0
  1  2  2  0  0  0  0
  2  3  1  0  0  0  0
  2 12  1  0  0  0  0
  3  4  1  0  0  0  0
  3 19  1  0  0  0  0
  4  5  1  0  0  0  0
  4 20  1  0  0  0  0
  4 21  1  0  0  0  0
  5  6  1  0  0  0  0
  5 22  1  0  0  0  0
  5 23  1  0  0  0  0
  6 11  1  0  0  0  0
  6  7  2  0  0  0  0
  7  8  1  0  0  0  0
  7 24  1  0  0  0  0
  8  9  2  0  0  0  0
  8 25  1  0  0  0  0
  9 10  1  0  0  0  0
  9 26  1  0  0  0  0
 10 11  2  0  0  0  0
 10 39  1  0  0  0  0
 11 27  1  0  0  0  0
 12 17  1  0  0  0  0
 12 13  1  0  0  0  0
 12 28  1  0  0  0  0
 13 14  1  0  0  0  0
 13 29  1  0  0  0  0
 13 30  1  0  0  0  0
 14 18  1  0  0  0  0
 14 15  1  0  0  0  0
 14 31  1  0  0  0  0
 15 16  1  0  0  0  0
 15 32  1  0  0  0  0
 15 33  1  0  0  0  0
 16 17  1  0  0  0  0
 16 34  1  0  0  0  0
 16 35  1  0  0  0  0
 17 18  1  0  0  0  0
 17 36  1  0  0  0  0
 18 37  1  0  0  0  0
 18 38  1  0  0  0  0
M  CHG  1  10   1
M  END
> <s_m_source_file>
AV-unprocessed.smi

> <i_m_source_file_index>
3058

> <i_lp_mmshare_version>
43012

> <i_f3d_flags>
0

> <s_epik_input>
W0NIMl0xW0NIMl1bQ0BIXShbQ0gyXTIpW0NAQEhdKFtDSDJdW0NAQEhdMTIpQyg9TylbTkhdW0NIMl1bQ0gyXWMzW2NIXVtjSF1bY0hdbltjSF0z

> <s_epik_cmdline>
J2VwaWtfcHl0aG9uJywgJy1waCcsICc3LjAnLCAnLXRuJywgJzgnLCAnLW1hJywgJzIwMCcsICctbWV0YWxfYmluZGluZycsICctaW1hZScsICc8aW5maWxlLm1hZT4nLCAnLW9tYWUnLCAnPG91dGZpbGUubWFlPic=

> <r_epik_Ionization_Penalty>
2.24375

> <r_epik_Ionization_Penalty_Charging>
2.24375

> <r_epik_Ionization_Penalty_Neutral>
1.89995e-08

> <r_epik_State_Penalty>
2.39035

> <r_epik_Charging_Adjusted_Penalty>
4.63411

> <i_epik_Tot_Q>
1

> <i_epik_Tot_abs_Q>
1

> <r_epik_Metal_State_Penalty>
2.40369

> <b_epik_Metal_Only>
0

> <s_lp_Force_Field>
OPLS_2005

> <r_lp_Energy>
54.0755

> <b_lp_Chiralities_Consistent>
1

> <s_lp_Variant>
AV-unprocessed.smi:3058-7

> <Gold.Version>
5.8.1

> <Gold.Id.Protein>
6NUR|6NUR_protein|mol2

> <Gold.PLP.Fitness>
46.5171

> <Gold.PLP.PLP>
-39.0083

> <Gold.PLP.part.hbond>
-4.0000

> <Gold.PLP.part.metal>
0.0000

> <Gold.PLP.part.buried>
4.2779

> <Gold.PLP.part.nonpolar>
-39.7412

> <Gold.PLP.part.repulsive>
0.0694

> <Gold.PLP.ligand.clash>
0.0000

> <Gold.PLP.ligand.torsion>
0.7272

> <Gold.PLP.Chemscore.Hbond>
2.9840

> <Gold.PLP.Chemscore.CHOScore>
0.0000

> <Gold.PLP.Chemscore.Metal>
0.0000

> <Gold.Chemscore.Hbonds>
donor molecule, donor type, donor heavy atom, donor atom, acceptor molecule, acceptor atom, score
      L1  H     3    19       P1  8028  1.00
      L1  H    10    39       P1  7948  2.00

> <Gold.PLP.Chemscore.Internal.Correction>
0.0113

> <Gold.Rescore>
     Score         DG    S(hbond)    S(metal)    S(lipo)     H(rot)  DE(clash)    DE(int)     intcor
     20.44     -23.20       1.61        0.00     137.21       1.45       1.83       0.93       ----

> <Gold.Chemscore.Fitness>
20.4408

> <Gold.Chemscore.DG>
-23.2011

> <Gold.Chemscore.ZeroCoef>
-5.4800

> <Gold.Chemscore.Hbond>
1.6143

> <Gold.Chemscore.Metal>
0.0000

> <Gold.Chemscore.Lipo>
137.2100

> <Gold.Chemscore.Internal_Hbond>
0.0000

> <Gold.Chemscore.DEClash>
1.8300

> <Gold.Chemscore.DEInternal>
0.9303

> <Gold.Chemscore.Rot>
1.4548

> <Gold.Chemscore.Internal.Correction>
   9.000000E+99

> <Gold.Chemscore.Hbonds>
donor molecule, donor type, donor heavy atom, donor atom, acceptor molecule, acceptor atom, score
      L1  H     3    19       P1  8028  1.00
      L1  H    10    39       P1  7948  0.94

> <Gold.Chemscore.Hbond.Weighted>
-5.3918

> <Gold.Chemscore.Metal.Weighted>
-0.0000

> <Gold.Chemscore.Lipo.Weighted>
-16.0536

> <Gold.Chemscore.Internal_Hbond.Weighted>
0.0000

> <Gold.Chemscore.DEClash.Weighted>
1.8300

> <Gold.Chemscore.DEInternal.Weighted>
0.9303

> <Gold.Chemscore.Rot.Weighted>
3.7242

> <Gold.Chemscore.Internal.Correction.Weighted>
   9.000000E+99

> <Gold.Protein.RotatedTorsions>
[ 6907 6896 6895 6894 ] final  -95.74 input  -60.11 | X-H torsion
[ 7974 7965 7964 7962 ] final  -41.16 input  175.53 | X-H torsion
[ 8008 7997 7996 7995 ] final  174.80 input   59.86 | X-H torsion
[ 10167 10162 10161 10158 ] final   -2.15 input  -65.29 | X-H torsion
[ 10718 10713 10712 10709 ] final  127.22 input   66.30 | X-H torsion
[ 10763 10752 10751 10750 ] final  -68.20 input  -60.55 | X-H torsion
[ 11005 11000 10999 10996 ] final   -1.37 input  -57.11 | X-H torsion

> <Gold.Protein.ActiveResidues>
 VAL166  LYS551  ARG553  GLY616  TRP617  ASP618  TYR619  PRO620  LYS621  CYS622 
 ASP623  PHE694  ASN695  SER759  ASP760  ASP761  ALA762  ILE779  LEU786  VAL792 
 PHE793  MET794  SER795  GLU796  ALA797  LYS798  CYS799  TRP800  GLU811  SER814 

> <Gold.Protein.RotatedAtoms>
  150.6971  134.1610  159.4175 H   0  0  0  0  0  0  0  0  0  0  0  0  # atno 6907 bound_to 6896
  151.9591  135.0130  160.0556 H   0  0  0  0  0  0  0  0  0  0  0  0  # atno 6908 bound_to 6896
  152.1943  133.4760  159.5061 H   0  0  0  0  0  0  0  0  0  0  0  0  # atno 6909 bound_to 6896
  146.0237  140.6818  142.9166 H   0  0  0  0  0  0  0  0  0  0  0  0  # atno 7974 bound_to 7965
  156.0937  140.1425  156.9559 H   0  0  0  0  0  0  0  0  0  0  0  0  # atno 8008 bound_to 7997
  154.4658  140.0927  156.7061 H   0  0  0  0  0  0  0  0  0  0  0  0  # atno 8009 bound_to 7997
  155.4877  140.3447  155.4352 H   0  0  0  0  0  0  0  0  0  0  0  0  # atno 8010 bound_to 7997
  140.6839  143.6691  150.8201 H   0  0  0  0  0  0  0  0  0  0  0  0  # atno 10167 bound_to 10162
  157.5351  131.1098  150.8947 H   0  0  0  0  0  0  0  0  0  0  0  0  # atno 10718 bound_to 10713
  154.3856  135.6064  153.5814 H   0  0  0  0  0  0  0  0  0  0  0  0  # atno 10763 bound_to 10752
  152.9788  135.5871  154.4359 H   0  0  0  0  0  0  0  0  0  0  0  0  # atno 10764 bound_to 10752
  154.4135  135.2844  155.2000 H   0  0  0  0  0  0  0  0  0  0  0  0  # atno 10765 bound_to 10752
  140.6466  133.9442  155.8356 H   0  0  0  0  0  0  0  0  0  0  0  0  # atno 11005 bound_to 11000
  144.7000  140.3612  143.7163 LP  0  0  0  0  0  0  0  0  0  0  0  0  # atno 17320 bound_to 7965
  145.7152  139.1695  143.2516 LP  0  0  0  0  0  0  0  0  0  0  0  0  # atno 17321 bound_to 7965
  140.0395  143.5361  152.2724 LP  0  0  0  0  0  0  0  0  0  0  0  0  # atno 17342 bound_to 10162
  139.6183  144.7624  151.2798 LP  0  0  0  0  0  0  0  0  0  0  0  0  # atno 17343 bound_to 10162
  156.9517  130.5422  149.5282 LP  0  0  0  0  0  0  0  0  0  0  0  0  # atno 17370 bound_to 10713
  156.0453  130.5530  150.8865 LP  0  0  0  0  0  0  0  0  0  0  0  0  # atno 17371 bound_to 10713
  141.0568  134.0405  157.3712 LP  0  0  0  0  0  0  0  0  0  0  0  0  # atno 17394 bound_to 11000
  139.9061  135.0179  156.7490 LP  0  0  0  0  0  0  0  0  0  0  0  0  # atno 17395 bound_to 11000

$$$$
