AV-unprocessed.smi:2339|AV-procd|sdf|9342|dock2
  -GOLD-   2272012563D 1   1.00000     0.00000
 Structure written by MMmdl.
 49 52  0  0  0  0  0  0  0  0  1 V2000
  146.9650  133.1677  152.5435 C   0  0  0  0  0  0  0  0  0  0  0  0
  148.4896  133.0344  152.4595 C   0  0  0  0  0  0  0  0  0  0  0  0
  149.1076  133.0638  153.7771 N   0  0  0  0  0  0  0  0  0  0  0  0
  149.3578  131.8914  154.4828 C   0  0  0  0  0  0  0  0  0  0  0  0
  149.8617  131.8544  155.7314 C   0  0  0  0  0  0  0  0  0  0  0  0
  150.1731  133.1213  156.4235 C   0  0  0  0  0  0  0  0  0  0  0  0
  150.6337  133.1257  157.5652 O   0  0  0  0  0  0  0  0  0  0  0  0
  149.8998  134.3743  155.6717 C   0  0  0  0  0  0  0  0  0  0  0  0
  150.2030  135.5715  156.3379 N   0  0  0  0  0  0  0  0  0  0  0  0
  149.9638  136.8465  155.9690 C   0  0  0  0  0  0  0  0  0  0  0  0
  149.4079  137.1958  154.9302 O   0  0  0  0  0  0  0  0  0  0  0  0
  150.3514  137.7507  156.8853 N   0  0  0  0  0  0  0  0  0  0  0  0
  150.2383  139.2131  156.8031 C   0  0  2  0  0  0  0  0  0  0  0  0
  150.9498  139.8330  155.5747 C   0  0  2  0  0  0  0  0  0  0  0  0
  151.4668  139.0200  154.4118 C   0  0  0  0  0  0  0  0  0  0  0  0
  152.9458  138.8271  154.7590 C   0  0  0  0  0  0  0  0  0  0  0  0
  153.0240  139.0540  156.1644 O   0  0  0  0  0  0  0  0  0  0  0  0
  152.1351  140.1217  156.4819 C   0  0  2  0  0  0  0  0  0  0  0  0
  151.2497  139.9297  157.7296 C   0  0  0  0  0  0  0  0  0  0  0  0
  151.8586  139.2001  158.9276 C   0  0  0  0  0  0  0  0  0  0  0  0
  152.5214  140.2641  159.8048 C   0  0  0  0  0  0  0  0  0  0  0  0
  151.7895  141.5714  159.4871 C   0  0  0  0  0  0  0  0  0  0  0  0
  150.7779  141.2248  158.3898 C   0  0  0  0  0  0  0  0  0  0  0  0
  149.3943  134.2684  154.4164 C   0  0  0  0  0  0  0  0  0  0  0  0
  146.5202  133.1530  151.5485 H   0  0  0  0  0  0  0  0  0  0  0  0
  146.6770  134.1034  153.0231 H   0  0  0  0  0  0  0  0  0  0  0  0
  146.5293  132.3483  153.1159 H   0  0  0  0  0  0  0  0  0  0  0  0
  148.7533  132.1046  151.9540 H   0  0  0  0  0  0  0  0  0  0  0  0
  148.8984  133.8401  151.8483 H   0  0  0  0  0  0  0  0  0  0  0  0
  149.1190  130.9869  153.9423 H   0  0  0  0  0  0  0  0  0  0  0  0
  150.0424  130.9184  156.2394 H   0  0  0  0  0  0  0  0  0  0  0  0
  150.6316  135.4472  157.2437 H   0  0  0  0  0  0  0  0  0  0  0  0
  150.7037  137.3871  157.7593 H   0  0  0  0  0  0  0  0  0  0  0  0
  149.2216  139.5857  156.9393 H   0  0  0  0  0  0  0  0  0  0  0  0
  150.4555  140.7583  155.2740 H   0  0  0  0  0  0  0  0  0  0  0  0
  150.9573  138.0630  154.3128 H   0  0  0  0  0  0  0  0  0  0  0  0
  151.3537  139.5437  153.4623 H   0  0  0  0  0  0  0  0  0  0  0  0
  153.3144  137.8363  154.4930 H   0  0  0  0  0  0  0  0  0  0  0  0
  153.5589  139.5692  154.2455 H   0  0  0  0  0  0  0  0  0  0  0  0
  152.5732  141.1115  156.3447 H   0  0  0  0  0  0  0  0  0  0  0  0
  151.0721  138.7038  159.4979 H   0  0  0  0  0  0  0  0  0  0  0  0
  152.5711  138.4277  158.6368 H   0  0  0  0  0  0  0  0  0  0  0  0
  152.4671  140.0062  160.8628 H   0  0  0  0  0  0  0  0  0  0  0  0
  153.5758  140.3599  159.5431 H   0  0  0  0  0  0  0  0  0  0  0  0
  151.2939  141.9857  160.3657 H   0  0  0  0  0  0  0  0  0  0  0  0
  152.5001  142.3171  159.1285 H   0  0  0  0  0  0  0  0  0  0  0  0
  150.6710  142.0432  157.6767 H   0  0  0  0  0  0  0  0  0  0  0  0
  149.7963  141.0744  158.8415 H   0  0  0  0  0  0  0  0  0  0  0  0
  149.1839  135.1230  153.7935 H   0  0  0  0  0  0  0  0  0  0  0  0
  1  2  1  0  0  0  0
  1 25  1  0  0  0  0
  1 26  1  0  0  0  0
  1 27  1  0  0  0  0
  2  3  1  0  0  0  0
  2 28  1  0  0  0  0
  2 29  1  0  0  0  0
  3 24  1  0  0  0  0
  3  4  1  0  0  0  0
  4  5  2  0  0  0  0
  4 30  1  0  0  0  0
  5  6  1  0  0  0  0
  5 31  1  0  0  0  0
  6  7  2  0  0  0  0
  6  8  1  0  0  0  0
  8  9  1  0  0  0  0
  8 24  2  0  0  0  0
  9 10  1  0  0  0  0
  9 32  1  0  0  0  0
 10 11  2  0  0  0  0
 10 12  1  0  0  0  0
 12 13  1  0  0  0  0
 12 33  1  0  0  0  0
 13 19  1  0  0  0  0
 13 14  1  0  0  0  0
 13 34  1  0  0  0  0
 14 18  1  0  0  0  0
 14 15  1  0  0  0  0
 14 35  1  0  0  0  0
 15 16  1  0  0  0  0
 15 36  1  0  0  0  0
 15 37  1  0  0  0  0
 16 17  1  0  0  0  0
 16 38  1  0  0  0  0
 16 39  1  0  0  0  0
 17 18  1  0  0  0  0
 18 19  1  0  0  0  0
 18 40  1  0  0  0  0
 19 23  1  0  0  0  0
 19 20  1  0  0  0  0
 20 21  1  0  0  0  0
 20 41  1  0  0  0  0
 20 42  1  0  0  0  0
 21 22  1  0  0  0  0
 21 43  1  0  0  0  0
 21 44  1  0  0  0  0
 22 23  1  0  0  0  0
 22 45  1  0  0  0  0
 22 46  1  0  0  0  0
 23 47  1  0  0  0  0
 23 48  1  0  0  0  0
 24 49  1  0  0  0  0
M  END
> <s_m_source_file>
AV-unprocessed.smi

> <i_m_source_file_index>
2339

> <i_lp_mmshare_version>
43012

> <i_f3d_flags>
0

> <s_epik_input>
W0NIM11bQ0gyXW4xW2NIXVtjSF1jKD1PKWMoW2NIXTEpW05IXUMoPU8pW05IXVtDQEBIXTJbQ0BASF0oW0NIMl1bQ0gyXU8zKVtDQEBIXTNDMjRbQ0gyXVtDSDJdW0NIMl1bQ0gyXTQ=

> <s_epik_cmdline>
J2VwaWtfcHl0aG9uJywgJy1waCcsICc3LjAnLCAnLXRuJywgJzgnLCAnLW1hJywgJzIwMCcsICctbWV0YWxfYmluZGluZycsICctaW1hZScsICc8aW5maWxlLm1hZT4nLCAnLW9tYWUnLCAnPG91dGZpbGUubWFlPic=

> <r_lp_tautomer_probability>
1

> <r_epik_Ionization_Penalty>
0.00145966

> <r_epik_Ionization_Penalty_Charging>
0.00143969

> <r_epik_Ionization_Penalty_Neutral>
1.99697e-05

> <r_epik_State_Penalty>
0.000961843

> <r_epik_Charging_Adjusted_Penalty>
0.00240153

> <i_epik_Tot_Q>
0

> <i_epik_Tot_abs_Q>
0

> <r_epik_Metal_State_Penalty>
-0

> <b_epik_Metal_Only>
0

> <s_lp_Force_Field>
OPLS_2005

> <r_lp_Energy>
59.2385

> <b_lp_Chiralities_Consistent>
1

> <s_lp_Variant>
AV-unprocessed.smi:2339-7

> <Gold.Version>
5.8.1

> <Gold.Id.Protein>
6NUR|6NUR_protein|mol2

> <Gold.PLP.Fitness>
47.0545

> <Gold.PLP.PLP>
-39.2848

> <Gold.PLP.part.hbond>
-2.0000

> <Gold.PLP.part.metal>
0.0000

> <Gold.PLP.part.buried>
-2.2591

> <Gold.PLP.part.nonpolar>
-34.3293

> <Gold.PLP.part.repulsive>
0.2426

> <Gold.PLP.ligand.clash>
0.0000

> <Gold.PLP.ligand.torsion>
0.5248

> <Gold.PLP.Chemscore.Hbond>
1.8704

> <Gold.PLP.Chemscore.CHOScore>
1.0000

> <Gold.PLP.Chemscore.Metal>
0.0000

> <Gold.Chemscore.Hbonds>
donor molecule, donor type, donor heavy atom, donor atom, acceptor molecule, acceptor atom, score
      P1  H  6896  6908       L1     7  0.93
      P1  H  7997  8010       L1    17  0.34
      L1  C    24    49       P1  7948  1.00

> <Gold.PLP.Chemscore.Internal.Correction>
0.2081

> <Gold.Rescore>
     Score         DG    S(hbond)    S(metal)    S(lipo)     H(rot)  DE(clash)    DE(int)     intcor
     14.91     -16.57       1.13        0.00      88.17       1.17       0.09       1.57       ----

> <Gold.Chemscore.Fitness>
14.9091

> <Gold.Chemscore.DG>
-16.5710

> <Gold.Chemscore.ZeroCoef>
-5.4800

> <Gold.Chemscore.Hbond>
1.1264

> <Gold.Chemscore.Metal>
0.0000

> <Gold.Chemscore.Lipo>
88.1742

> <Gold.Chemscore.Internal_Hbond>
0.0000

> <Gold.Chemscore.DEClash>
0.0898

> <Gold.Chemscore.DEInternal>
1.5722

> <Gold.Chemscore.Rot>
1.1670

> <Gold.Chemscore.Internal.Correction>
   9.000000E+99

> <Gold.Chemscore.Hbonds>
donor molecule, donor type, donor heavy atom, donor atom, acceptor molecule, acceptor atom, score
      P1  H  6896  6908       L1     7  0.90

> <Gold.Chemscore.Hbond.Weighted>
-3.7621

> <Gold.Chemscore.Metal.Weighted>
-0.0000

> <Gold.Chemscore.Lipo.Weighted>
-10.3164

> <Gold.Chemscore.Internal_Hbond.Weighted>
0.0000

> <Gold.Chemscore.DEClash.Weighted>
0.0898

> <Gold.Chemscore.DEInternal.Weighted>
1.5722

> <Gold.Chemscore.Rot.Weighted>
2.9874

> <Gold.Chemscore.Internal.Correction.Weighted>
   9.000000E+99

> <Gold.Protein.RotatedTorsions>
[ 6907 6896 6895 6894 ] final   82.48 input  -60.11 | X-H torsion
[ 7974 7965 7964 7962 ] final  133.92 input  175.53 | X-H torsion
[ 8008 7997 7996 7995 ] final  100.78 input   59.86 | X-H torsion
[ 10167 10162 10161 10158 ] final  -33.14 input  -65.29 | X-H torsion
[ 10718 10713 10712 10709 ] final  179.72 input   66.30 | X-H torsion
[ 10763 10752 10751 10750 ] final   29.47 input  -60.55 | X-H torsion
[ 11005 11000 10999 10996 ] final   85.15 input  -57.11 | X-H torsion

> <Gold.Protein.ActiveResidues>
 VAL166  LYS551  ARG553  GLY616  TRP617  ASP618  TYR619  PRO620  LYS621  CYS622 
 ASP623  PHE694  ASN695  SER759  ASP760  ASP761  ALA762  ILE779  LEU786  VAL792 
 PHE793  MET794  SER795  GLU796  ALA797  LYS798  CYS799  TRP800  GLU811  SER814 

> <Gold.Protein.RotatedAtoms>
  152.5300  134.3044  159.9090 H   0  0  0  0  0  0  0  0  0  0  0  0  # atno 6907 bound_to 6896
  151.2994  133.4123  159.2646 H   0  0  0  0  0  0  0  0  0  0  0  0  # atno 6908 bound_to 6896
  151.0132  134.9429  159.8076 H   0  0  0  0  0  0  0  0  0  0  0  0  # atno 6909 bound_to 6896
  144.9816  139.4499  143.5383 H   0  0  0  0  0  0  0  0  0  0  0  0  # atno 7974 bound_to 7965
  156.1236  140.3208  155.8245 H   0  0  0  0  0  0  0  0  0  0  0  0  # atno 8008 bound_to 7997
  155.4460  140.0529  157.3023 H   0  0  0  0  0  0  0  0  0  0  0  0  # atno 8009 bound_to 7997
  154.4846  140.2067  155.9699 H   0  0  0  0  0  0  0  0  0  0  0  0  # atno 8010 bound_to 7997
  140.7209  143.3642  151.1903 H   0  0  0  0  0  0  0  0  0  0  0  0  # atno 10167 bound_to 10162
  156.8715  130.9785  151.3072 H   0  0  0  0  0  0  0  0  0  0  0  0  # atno 10718 bound_to 10713
  153.0428  135.6488  154.0896 H   0  0  0  0  0  0  0  0  0  0  0  0  # atno 10763 bound_to 10752
  154.0599  135.2889  155.3328 H   0  0  0  0  0  0  0  0  0  0  0  0  # atno 10764 bound_to 10752
  154.6664  135.5372  153.8148 H   0  0  0  0  0  0  0  0  0  0  0  0  # atno 10765 bound_to 10752
  139.8979  134.8267  156.2543 H   0  0  0  0  0  0  0  0  0  0  0  0  # atno 11005 bound_to 11000
  146.3409  139.9092  142.8783 LP  0  0  0  0  0  0  0  0  0  0  0  0  # atno 17320 bound_to 7965
  145.2413  141.0010  143.3934 LP  0  0  0  0  0  0  0  0  0  0  0  0  # atno 17321 bound_to 7965
  139.7200  143.9238  152.2982 LP  0  0  0  0  0  0  0  0  0  0  0  0  # atno 17342 bound_to 10162
  139.8992  144.6922  150.8684 LP  0  0  0  0  0  0  0  0  0  0  0  0  # atno 17343 bound_to 10162
  157.6193  130.8642  149.9081 LP  0  0  0  0  0  0  0  0  0  0  0  0  # atno 17370 bound_to 10713
  156.0724  130.3683  150.0748 LP  0  0  0  0  0  0  0  0  0  0  0  0  # atno 17371 bound_to 10713
  141.0203  133.7045  156.1258 LP  0  0  0  0  0  0  0  0  0  0  0  0  # atno 17394 bound_to 11000
  140.7243  134.4325  157.5572 LP  0  0  0  0  0  0  0  0  0  0  0  0  # atno 17395 bound_to 11000

$$$$
