AV-unprocessed.smi:3031|AV-procd|sdf|11553|dock5
  -GOLD-   2272016513D 1   1.00000     0.00000
 Structure written by MMmdl.
 46 47  0  0  0  0  0  0  0  0  1 V2000
  153.1177  142.8750  162.6313 C   0  0  0  0  0  0  0  0  0  0  0  0
  152.9014  142.6788  161.1586 C   0  0  0  0  0  0  0  0  0  0  0  0
  153.5634  141.7613  160.2944 C   0  0  0  0  0  0  0  0  0  0  0  0
  153.1400  141.8355  159.0433 N   0  0  0  0  0  0  0  0  0  0  0  0
  152.1935  142.7975  159.0645 N   0  0  0  0  0  0  0  0  0  0  0  0
  151.4943  143.1510  157.8416 C   0  0  0  0  0  0  0  0  0  0  0  0
  150.5118  142.0545  157.3841 C   0  0  2  0  0  0  0  0  0  0  0  0
  151.1331  140.6585  157.5711 C   0  0  0  0  0  0  0  0  0  0  0  0
  150.1094  142.2891  155.9928 N   0  0  0  0  0  0  0  0  0  0  0  0
  148.9829  141.4857  155.5185 C   0  0  0  0  0  0  0  0  0  0  0  0
  149.4364  140.4377  154.4877 C   0  0  2  0  0  0  0  0  0  0  0  0
  148.5493  140.4559  153.3892 O   0  0  0  0  0  0  0  0  0  0  0  0
  149.5971  138.9755  154.9716 C   0  0  0  0  0  0  0  0  0  0  0  0
  150.8482  138.6325  155.6593 N   0  0  0  0  0  0  0  0  0  0  0  0
  152.0250  138.7721  154.7999 C   0  0  0  0  0  0  0  0  0  0  0  0
  153.3222  138.3821  155.5290 C   0  0  0  0  0  0  0  0  0  0  0  0
  153.2165  137.0471  156.0107 O   0  0  0  0  0  0  0  0  0  0  0  0
  152.1057  136.8668  156.8820 C   0  0  0  0  0  0  0  0  0  0  0  0
  150.8096  137.2575  156.1506 C   0  0  0  0  0  0  0  0  0  0  0  0
  152.0317  143.3264  160.3273 C   0  0  0  0  0  0  0  0  0  0  0  0
  152.8136  141.9971  163.2015 H   0  0  0  0  0  0  0  0  0  0  0  0
  152.5486  143.7214  163.0170 H   0  0  0  0  0  0  0  0  0  0  0  0
  154.1666  143.0618  162.8620 H   0  0  0  0  0  0  0  0  0  0  0  0
  154.3352  141.0464  160.5390 H   0  0  0  0  0  0  0  0  0  0  0  0
  150.9695  144.0948  157.9979 H   0  0  0  0  0  0  0  0  0  0  0  0
  152.2415  143.3357  157.0684 H   0  0  0  0  0  0  0  0  0  0  0  0
  149.6290  142.1134  158.0224 H   0  0  0  0  0  0  0  0  0  0  0  0
  151.4792  140.5225  158.5960 H   0  0  0  0  0  0  0  0  0  0  0  0
  151.9899  140.5137  156.9122 H   0  0  0  0  0  0  0  0  0  0  0  0
  150.4170  139.8614  157.3733 H   0  0  0  0  0  0  0  0  0  0  0  0
  149.8947  143.2735  155.8684 H   0  0  0  0  0  0  0  0  0  0  0  0
  148.4593  141.0021  156.3406 H   0  0  0  0  0  0  0  0  0  0  0  0
  148.2501  142.1414  155.0464 H   0  0  0  0  0  0  0  0  0  0  0  0
  150.4041  140.7585  154.1000 H   0  0  0  0  0  0  0  0  0  0  0  0
  149.0463  140.2781  152.6051 H   0  0  0  0  0  0  0  0  0  0  0  0
  148.7625  138.7928  155.6506 H   0  0  0  0  0  0  0  0  0  0  0  0
  149.4339  138.2885  154.1400 H   0  0  0  0  0  0  0  0  0  0  0  0
  151.9124  138.1460  153.9135 H   0  0  0  0  0  0  0  0  0  0  0  0
  152.1308  139.7909  154.4416 H   0  0  0  0  0  0  0  0  0  0  0  0
  154.1728  138.4498  154.8508 H   0  0  0  0  0  0  0  0  0  0  0  0
  153.5185  139.0625  156.3591 H   0  0  0  0  0  0  0  0  0  0  0  0
  152.0647  135.8238  157.1963 H   0  0  0  0  0  0  0  0  0  0  0  0
  152.2382  137.4690  157.7822 H   0  0  0  0  0  0  0  0  0  0  0  0
  149.9672  137.1317  156.8319 H   0  0  0  0  0  0  0  0  0  0  0  0
  150.6430  136.5712  155.3188 H   0  0  0  0  0  0  0  0  0  0  0  0
  151.3150  144.1089  160.5287 H   0  0  0  0  0  0  0  0  0  0  0  0
  1  2  1  0  0  0  0
  1 21  1  0  0  0  0
  1 22  1  0  0  0  0
  1 23  1  0  0  0  0
  2 20  2  0  0  0  0
  2  3  1  0  0  0  0
  3  4  2  0  0  0  0
  3 24  1  0  0  0  0
  4  5  1  0  0  0  0
  5  6  1  0  0  0  0
  5 20  1  0  0  0  0
  6  7  1  0  0  0  0
  6 25  1  0  0  0  0
  6 26  1  0  0  0  0
  7  8  1  0  0  0  0
  7  9  1  0  0  0  0
  7 27  1  0  0  0  0
  8 28  1  0  0  0  0
  8 29  1  0  0  0  0
  8 30  1  0  0  0  0
  9 10  1  0  0  0  0
  9 31  1  0  0  0  0
 10 11  1  0  0  0  0
 10 32  1  0  0  0  0
 10 33  1  0  0  0  0
 11 12  1  0  0  0  0
 11 13  1  0  0  0  0
 11 34  1  0  0  0  0
 12 35  1  0  0  0  0
 13 14  1  0  0  0  0
 13 36  1  0  0  0  0
 13 37  1  0  0  0  0
 14 19  1  0  0  0  0
 14 15  1  0  0  0  0
 15 16  1  0  0  0  0
 15 38  1  0  0  0  0
 15 39  1  0  0  0  0
 16 17  1  0  0  0  0
 16 40  1  0  0  0  0
 16 41  1  0  0  0  0
 17 18  1  0  0  0  0
 18 19  1  0  0  0  0
 18 42  1  0  0  0  0
 18 43  1  0  0  0  0
 19 44  1  0  0  0  0
 19 45  1  0  0  0  0
 20 46  1  0  0  0  0
M  END
> <s_m_source_file>
AV-unprocessed.smi

> <i_m_source_file_index>
3031

> <i_lp_mmshare_version>
43012

> <i_f3d_flags>
0

> <s_epik_input>
W0NIM11jMVtjSF1ubihbY0hdMSlbQ0gyXVtDQEhdKFtDSDNdKVtOSF1bQ0gyXVtDQEhdKFtPSF0pW0NIMl1OMltDSDJdW0NIMl1PW0NIMl1bQ0gyXTI=

> <s_epik_cmdline>
J2VwaWtfcHl0aG9uJywgJy1waCcsICc3LjAnLCAnLXRuJywgJzgnLCAnLW1hJywgJzIwMCcsICctbWV0YWxfYmluZGluZycsICctaW1hZScsICc8aW5maWxlLm1hZT4nLCAnLW9tYWUnLCAnPG91dGZpbGUubWFlPic=

> <r_lp_tautomer_probability>
1

> <r_epik_Ionization_Penalty>
2.8101

> <r_epik_Ionization_Penalty_Charging>
0

> <r_epik_Ionization_Penalty_Neutral>
2.8101

> <r_epik_State_Penalty>
2.12351

> <r_epik_Charging_Adjusted_Penalty>
2.12351

> <i_epik_Tot_Q>
0

> <i_epik_Tot_abs_Q>
0

> <r_epik_Metal_State_Penalty>
2.12345

> <b_epik_Metal_Only>
0

> <s_lp_Force_Field>
OPLS_2005

> <r_lp_Energy>
35.4854

> <b_lp_Chiralities_Consistent>
1

> <s_lp_Variant>
AV-unprocessed.smi:3031-13

> <Gold.Version>
5.8.1

> <Gold.Id.Protein>
6NUR|6NUR_protein|mol2

> <Gold.PLP.Fitness>
47.4641

> <Gold.PLP.PLP>
-42.0667

> <Gold.PLP.part.hbond>
-2.7355

> <Gold.PLP.part.metal>
0.0000

> <Gold.PLP.part.buried>
-4.2377

> <Gold.PLP.part.nonpolar>
-35.2084

> <Gold.PLP.part.repulsive>
0.0047

> <Gold.PLP.ligand.clash>
0.0000

> <Gold.PLP.ligand.torsion>
1.5521

> <Gold.PLP.Chemscore.Hbond>
2.7920

> <Gold.PLP.Chemscore.CHOScore>
0.0000

> <Gold.PLP.Chemscore.Metal>
0.0000

> <Gold.Chemscore.Hbonds>
donor molecule, donor type, donor heavy atom, donor atom, acceptor molecule, acceptor atom, score
      L1  H     9    31       P1  8028  1.00
      L1  H    12    35       P1  7957  1.00
      P1  H 10752 10765       L1    17  0.58

> <Gold.PLP.Chemscore.Internal.Correction>
0.1257

> <Gold.Rescore>
     Score         DG    S(hbond)    S(metal)    S(lipo)     H(rot)  DE(clash)    DE(int)     intcor
     17.14     -20.57       2.55        0.00     111.61       2.53       0.30       3.13       ----

> <Gold.Chemscore.Fitness>
17.1378

> <Gold.Chemscore.DG>
-20.5681

> <Gold.Chemscore.ZeroCoef>
-5.4800

> <Gold.Chemscore.Hbond>
2.5493

> <Gold.Chemscore.Metal>
0.0000

> <Gold.Chemscore.Lipo>
111.6121

> <Gold.Chemscore.Internal_Hbond>
0.0000

> <Gold.Chemscore.DEClash>
0.2974

> <Gold.Chemscore.DEInternal>
3.1329

> <Gold.Chemscore.Rot>
2.5333

> <Gold.Chemscore.Internal.Correction>
   9.000000E+99

> <Gold.Chemscore.Hbonds>
donor molecule, donor type, donor heavy atom, donor atom, acceptor molecule, acceptor atom, score
      L1  H     9    31       P1  8028  0.99
      L1  H    12    35       P1  7957  0.97
      P1  H 10752 10765       L1    17  0.23

> <Gold.Chemscore.Hbond.Weighted>
-8.5146

> <Gold.Chemscore.Metal.Weighted>
-0.0000

> <Gold.Chemscore.Lipo.Weighted>
-13.0586

> <Gold.Chemscore.Internal_Hbond.Weighted>
0.0000

> <Gold.Chemscore.DEClash.Weighted>
0.2974

> <Gold.Chemscore.DEInternal.Weighted>
3.1329

> <Gold.Chemscore.Rot.Weighted>
6.4852

> <Gold.Chemscore.Internal.Correction.Weighted>
   9.000000E+99

> <Gold.Protein.RotatedTorsions>
[ 6907 6896 6895 6894 ] final -163.30 input  -60.11 | X-H torsion
[ 7974 7965 7964 7962 ] final  136.02 input  175.53 | X-H torsion
[ 8008 7997 7996 7995 ] final   12.80 input   59.86 | X-H torsion
[ 10167 10162 10161 10158 ] final  -67.77 input  -65.29 | X-H torsion
[ 10718 10713 10712 10709 ] final   64.94 input   66.30 | X-H torsion
[ 10763 10752 10751 10750 ] final -133.74 input  -60.55 | X-H torsion
[ 11005 11000 10999 10996 ] final  -39.81 input  -57.11 | X-H torsion

> <Gold.Protein.ActiveResidues>
 VAL166  LYS551  ARG553  GLY616  TRP617  ASP618  TYR619  PRO620  LYS621  CYS622 
 ASP623  PHE694  ASN695  SER759  ASP760  ASP761  ALA762  ILE779  LEU786  VAL792 
 PHE793  MET794  SER795  GLU796  ALA797  LYS798  CYS799  TRP800  GLU811  SER814 

> <Gold.Protein.RotatedAtoms>
  151.3939  133.3779  159.2723 H   0  0  0  0  0  0  0  0  0  0  0  0  # atno 6907 bound_to 6896
  150.9484  134.8888  159.7667 H   0  0  0  0  0  0  0  0  0  0  0  0  # atno 6908 bound_to 6896
  152.5101  134.3893  159.9430 H   0  0  0  0  0  0  0  0  0  0  0  0  # atno 6909 bound_to 6896
  144.9606  139.4714  143.5481 H   0  0  0  0  0  0  0  0  0  0  0  0  # atno 7974 bound_to 7965
  154.8256  140.2891  155.5757 H   0  0  0  0  0  0  0  0  0  0  0  0  # atno 8008 bound_to 7997
  156.3001  140.2542  156.3102 H   0  0  0  0  0  0  0  0  0  0  0  0  # atno 8009 bound_to 7997
  154.9289  140.0384  157.2027 H   0  0  0  0  0  0  0  0  0  0  0  0  # atno 8010 bound_to 7997
  140.5558  143.2312  151.6825 H   0  0  0  0  0  0  0  0  0  0  0  0  # atno 10167 bound_to 10162
  157.6072  130.9187  149.9911 H   0  0  0  0  0  0  0  0  0  0  0  0  # atno 10718 bound_to 10713
  154.8729  135.3756  154.4622 H   0  0  0  0  0  0  0  0  0  0  0  0  # atno 10763 bound_to 10752
  153.5289  135.7028  153.5698 H   0  0  0  0  0  0  0  0  0  0  0  0  # atno 10764 bound_to 10752
  153.3912  135.3972  155.1889 H   0  0  0  0  0  0  0  0  0  0  0  0  # atno 10765 bound_to 10752
  141.0129  133.6899  156.2237 H   0  0  0  0  0  0  0  0  0  0  0  0  # atno 11005 bound_to 11000
  146.3352  139.8753  142.8833 LP  0  0  0  0  0  0  0  0  0  0  0  0  # atno 17320 bound_to 7965
  145.2705  141.0107  143.3774 LP  0  0  0  0  0  0  0  0  0  0  0  0  # atno 17321 bound_to 7965
  139.5047  144.3744  152.0438 LP  0  0  0  0  0  0  0  0  0  0  0  0  # atno 17342 bound_to 10162
  140.2865  144.3801  150.6102 LP  0  0  0  0  0  0  0  0  0  0  0  0  # atno 17343 bound_to 10162
  156.1163  130.3647  149.9963 LP  0  0  0  0  0  0  0  0  0  0  0  0  # atno 17370 bound_to 10713
  156.8052  130.9305  151.3645 LP  0  0  0  0  0  0  0  0  0  0  0  0  # atno 17371 bound_to 10713
  140.6703  134.4875  157.5587 LP  0  0  0  0  0  0  0  0  0  0  0  0  # atno 17394 bound_to 11000
  139.9100  134.8365  156.1563 LP  0  0  0  0  0  0  0  0  0  0  0  0  # atno 17395 bound_to 11000

$$$$
