AV-unprocessed.smi:2781|AV-procd|sdf|10718|dock6
  -GOLD-   2272015153D 1   1.00000     0.00000
 Structure written by MMmdl.
 35 38  0  0  0  0  0  0  0  0  1 V2000
  149.9623  140.5521  157.0270 O   0  0  0  0  0  0  0  0  0  0  0  0
  149.5727  141.6747  156.7035 C   0  0  0  0  0  0  0  0  0  0  0  0
  148.7892  141.9501  155.6457 N   0  0  0  0  0  0  0  0  0  0  0  0
  148.2481  141.0460  154.6931 C   0  0  0  0  0  0  0  0  0  0  0  0
  147.3139  141.6113  153.7953 C   0  0  0  0  0  0  0  0  0  0  0  0
  146.7190  140.7984  152.8107 C   0  0  0  0  0  0  0  0  0  0  0  0
  147.0746  139.4393  152.7515 C   0  0  0  0  0  0  0  0  0  0  0  0
  146.5285  138.6187  151.8230 F   0  0  0  0  0  0  0  0  0  0  0  0
  148.0117  138.9545  153.6823 C   0  0  0  0  0  0  0  0  0  0  0  0
  148.5831  139.7329  154.6259 N   0  0  0  0  0  0  0  0  0  0  0  0
  149.8850  142.7910  157.3765 N   0  0  0  0  0  0  0  0  0  0  0  0
  150.7009  142.8546  158.5458 C   0  0  2  0  0  0  0  0  0  0  0  0
  152.1170  143.3632  158.3696 C   0  0  1  0  0  0  0  0  0  0  0  0
  153.1028  143.7401  159.4730 C   0  0  1  0  0  0  0  0  0  0  0  0
  152.4183  143.7546  160.8556 C   0  0  0  0  0  0  0  0  0  0  0  0
  152.1608  142.2537  161.1154 C   0  0  0  0  0  0  0  0  0  0  0  0
  152.7338  141.5927  159.8447 C   0  0  2  0  0  0  0  0  0  0  0  0
  153.9500  142.4765  159.5859 C   0  0  0  0  0  0  0  0  0  0  0  0
  151.8638  141.8870  158.6249 C   0  0  1  0  0  0  0  0  0  0  0  0
  148.5523  142.9209  155.5050 H   0  0  0  0  0  0  0  0  0  0  0  0
  147.0528  142.6579  153.8562 H   0  0  0  0  0  0  0  0  0  0  0  0
  146.0032  141.2108  152.1150 H   0  0  0  0  0  0  0  0  0  0  0  0
  148.3110  137.9169  153.6703 H   0  0  0  0  0  0  0  0  0  0  0  0
  149.5183  143.6675  157.0351 H   0  0  0  0  0  0  0  0  0  0  0  0
  150.1889  143.1025  159.4723 H   0  0  0  0  0  0  0  0  0  0  0  0
  152.4416  143.6184  157.3621 H   0  0  0  0  0  0  0  0  0  0  0  0
  153.6586  144.6482  159.2383 H   0  0  0  0  0  0  0  0  0  0  0  0
  153.0888  144.1618  161.6136 H   0  0  0  0  0  0  0  0  0  0  0  0
  151.5080  144.3545  160.8672 H   0  0  0  0  0  0  0  0  0  0  0  0
  152.7052  141.9224  162.0006 H   0  0  0  0  0  0  0  0  0  0  0  0
  151.1074  142.0194  161.2718 H   0  0  0  0  0  0  0  0  0  0  0  0
  152.9506  140.5295  159.9513 H   0  0  0  0  0  0  0  0  0  0  0  0
  154.4764  142.2262  158.6631 H   0  0  0  0  0  0  0  0  0  0  0  0
  154.6632  142.4966  160.4122 H   0  0  0  0  0  0  0  0  0  0  0  0
  152.0328  141.2275  157.7752 H   0  0  0  0  0  0  0  0  0  0  0  0
  1  2  2  0  0  0  0
  2  3  1  0  0  0  0
  2 11  1  0  0  0  0
  3  4  1  0  0  0  0
  3 20  1  0  0  0  0
  4 10  1  0  0  0  0
  4  5  2  0  0  0  0
  5  6  1  0  0  0  0
  5 21  1  0  0  0  0
  6  7  2  0  0  0  0
  6 22  1  0  0  0  0
  7  8  1  0  0  0  0
  7  9  1  0  0  0  0
  9 10  2  0  0  0  0
  9 23  1  0  0  0  0
 11 12  1  0  0  0  0
 11 24  1  0  0  0  0
 12 19  1  0  0  0  0
 12 13  1  0  0  0  0
 12 25  1  0  0  0  0
 13 19  1  0  0  0  0
 13 14  1  0  0  0  0
 13 26  1  0  0  0  0
 14 18  1  0  0  0  0
 14 15  1  0  0  0  0
 14 27  1  0  0  0  0
 15 16  1  0  0  0  0
 15 28  1  0  0  0  0
 15 29  1  0  0  0  0
 16 17  1  0  0  0  0
 16 30  1  0  0  0  0
 16 31  1  0  0  0  0
 17 18  1  0  0  0  0
 17 19  1  0  0  0  0
 17 32  1  0  0  0  0
 18 33  1  0  0  0  0
 18 34  1  0  0  0  0
 19 35  1  0  0  0  0
M  END
> <s_m_source_file>
AV-unprocessed.smi

> <i_m_source_file_index>
2781

> <i_lp_mmshare_version>
43012

> <i_f3d_flags>
0

> <s_epik_input>
bjFbY0hdYyhGKVtjSF1bY0hdYzFbTkhdQyg9TylbTkhdW0NASF0yW0NAQEhdM1tDQEhdKFtDSDJdNClbQ0gyXVtDSDJdW0NASF00W0NASF0yMw==

> <s_epik_cmdline>
J2VwaWtfcHl0aG9uJywgJy1waCcsICc3LjAnLCAnLXRuJywgJzgnLCAnLW1hJywgJzIwMCcsICctbWV0YWxfYmluZGluZycsICctaW1hZScsICc8aW5maWxlLm1hZT4nLCAnLW9tYWUnLCAnPG91dGZpbGUubWFlPic=

> <r_lp_tautomer_probability>
1

> <r_epik_Ionization_Penalty>
4.05776e-05

> <r_epik_Ionization_Penalty_Charging>
0

> <r_epik_Ionization_Penalty_Neutral>
4.05776e-05

> <r_epik_State_Penalty>
-0

> <r_epik_Charging_Adjusted_Penalty>
0

> <i_epik_Tot_Q>
0

> <i_epik_Tot_abs_Q>
0

> <r_epik_Metal_State_Penalty>
-0

> <b_epik_Metal_Only>
0

> <s_lp_Force_Field>
OPLS_2005

> <r_lp_Energy>
79.6255

> <b_lp_Chiralities_Consistent>
1

> <s_lp_Variant>
AV-unprocessed.smi:2781-2

> <Gold.Version>
5.8.1

> <Gold.Id.Protein>
6NUR|6NUR_protein|mol2

> <Gold.PLP.Fitness>
46.6009

> <Gold.PLP.PLP>
-38.1491

> <Gold.PLP.part.hbond>
-2.0000

> <Gold.PLP.part.metal>
0.0000

> <Gold.PLP.part.buried>
-0.8960

> <Gold.PLP.part.nonpolar>
-35.0691

> <Gold.PLP.part.repulsive>
0.2567

> <Gold.PLP.ligand.clash>
0.0000

> <Gold.PLP.ligand.torsion>
0.2924

> <Gold.PLP.Chemscore.Hbond>
2.0000

> <Gold.PLP.Chemscore.CHOScore>
1.0000

> <Gold.PLP.Chemscore.Metal>
0.0000

> <Gold.Chemscore.Hbonds>
donor molecule, donor type, donor heavy atom, donor atom, acceptor molecule, acceptor atom, score
      L1  H     3    20       P1  8028  1.00
      L1  H    11    24       P1  8028  1.00
      L1  C     9    23       P1  7948  0.97

> <Gold.PLP.Chemscore.Internal.Correction>
0.0365

> <Gold.Rescore>
     Score         DG    S(hbond)    S(metal)    S(lipo)     H(rot)  DE(clash)    DE(int)     intcor
     19.83     -22.99       1.91        0.00     116.96       1.00       0.19       2.97       ----

> <Gold.Chemscore.Fitness>
19.8304

> <Gold.Chemscore.DG>
-22.9875

> <Gold.Chemscore.ZeroCoef>
-5.4800

> <Gold.Chemscore.Hbond>
1.9111

> <Gold.Chemscore.Metal>
0.0000

> <Gold.Chemscore.Lipo>
116.9608

> <Gold.Chemscore.Internal_Hbond>
0.0000

> <Gold.Chemscore.DEClash>
0.1864

> <Gold.Chemscore.DEInternal>
2.9707

> <Gold.Chemscore.Rot>
1.0000

> <Gold.Chemscore.Internal.Correction>
   9.000000E+99

> <Gold.Chemscore.Hbonds>
donor molecule, donor type, donor heavy atom, donor atom, acceptor molecule, acceptor atom, score
      L1  H     3    20       P1  8028  0.97
      L1  H    11    24       P1  8028  0.85

> <Gold.Chemscore.Hbond.Weighted>
-6.3831

> <Gold.Chemscore.Metal.Weighted>
-0.0000

> <Gold.Chemscore.Lipo.Weighted>
-13.6844

> <Gold.Chemscore.Internal_Hbond.Weighted>
0.0000

> <Gold.Chemscore.DEClash.Weighted>
0.1864

> <Gold.Chemscore.DEInternal.Weighted>
2.9707

> <Gold.Chemscore.Rot.Weighted>
2.5600

> <Gold.Chemscore.Internal.Correction.Weighted>
   9.000000E+99

> <Gold.Protein.RotatedTorsions>
[ 6907 6896 6895 6894 ] final -119.11 input  -60.11 | X-H torsion
[ 7974 7965 7964 7962 ] final  -61.08 input  175.53 | X-H torsion
[ 8008 7997 7996 7995 ] final  -24.01 input   59.86 | X-H torsion
[ 10167 10162 10161 10158 ] final -172.92 input  -65.29 | X-H torsion
[ 10718 10713 10712 10709 ] final -154.55 input   66.30 | X-H torsion
[ 10763 10752 10751 10750 ] final  -18.78 input  -60.55 | X-H torsion
[ 11005 11000 10999 10996 ] final  -25.84 input  -57.11 | X-H torsion

> <Gold.Protein.ActiveResidues>
 VAL166  LYS551  ARG553  GLY616  TRP617  ASP618  TYR619  PRO620  LYS621  CYS622 
 ASP623  PHE694  ASN695  SER759  ASP760  ASP761  ALA762  ILE779  LEU786  VAL792 
 PHE793  MET794  SER795  GLU796  ALA797  LYS798  CYS799  TRP800  GLU811  SER814 

> <Gold.Protein.RotatedAtoms>
  150.8277  133.8144  159.3111 H   0  0  0  0  0  0  0  0  0  0  0  0  # atno 6907 bound_to 6896
  151.5883  135.1053  160.0042 H   0  0  0  0  0  0  0  0  0  0  0  0  # atno 6908 bound_to 6896
  152.4360  133.7321  159.6649 H   0  0  0  0  0  0  0  0  0  0  0  0  # atno 6909 bound_to 6896
  145.8078  140.8617  143.0197 H   0  0  0  0  0  0  0  0  0  0  0  0  # atno 7974 bound_to 7965
  154.4553  140.1965  156.0399 H   0  0  0  0  0  0  0  0  0  0  0  0  # atno 8008 bound_to 7997
  156.0732  140.3281  155.7574 H   0  0  0  0  0  0  0  0  0  0  0  0  # atno 8009 bound_to 7997
  155.5230  140.0571  157.2894 H   0  0  0  0  0  0  0  0  0  0  0  0  # atno 8010 bound_to 7997
  139.5717  144.1626  152.1393 H   0  0  0  0  0  0  0  0  0  0  0  0  # atno 10167 bound_to 10162
  156.5008  130.8390  151.2608 H   0  0  0  0  0  0  0  0  0  0  0  0  # atno 10718 bound_to 10713
  153.5946  135.7001  153.5409 H   0  0  0  0  0  0  0  0  0  0  0  0  # atno 10763 bound_to 10752
  153.3148  135.4091  155.1367 H   0  0  0  0  0  0  0  0  0  0  0  0  # atno 10764 bound_to 10752
  154.8594  135.3681  154.5480 H   0  0  0  0  0  0  0  0  0  0  0  0  # atno 10765 bound_to 10752
  140.8975  133.7546  156.0500 H   0  0  0  0  0  0  0  0  0  0  0  0  # atno 11005 bound_to 11000
  144.6761  140.0352  143.7482 LP  0  0  0  0  0  0  0  0  0  0  0  0  # atno 17320 bound_to 7965
  145.9809  139.2941  143.1042 LP  0  0  0  0  0  0  0  0  0  0  0  0  # atno 17321 bound_to 7965
  140.1161  144.5415  150.6893 LP  0  0  0  0  0  0  0  0  0  0  0  0  # atno 17342 bound_to 10162
  140.7001  143.2429  151.4888 LP  0  0  0  0  0  0  0  0  0  0  0  0  # atno 17343 bound_to 10162
  157.7463  130.9982  150.2845 LP  0  0  0  0  0  0  0  0  0  0  0  0  # atno 17370 bound_to 10713
  156.3335  130.3804  149.7470 LP  0  0  0  0  0  0  0  0  0  0  0  0  # atno 17371 bound_to 10713
  140.8271  134.3222  157.5362 LP  0  0  0  0  0  0  0  0  0  0  0  0  # atno 17394 bound_to 11000
  139.8737  134.9342  156.3601 LP  0  0  0  0  0  0  0  0  0  0  0  0  # atno 17395 bound_to 11000

$$$$
