AV-unprocessed.smi:146|AV-procd|sdf|1200|dock10
  -GOLD-   2262018363D 1   1.00000     0.00000
 Structure written by MMmdl.
 55 59  0  0  0  0  0  0  0  0  1 V2000
  153.1387  138.7236  154.7344 C   0  0  0  0  0  0  0  0  0  0  0  0
  151.8928  139.0615  155.5683 C   0  0  0  0  0  0  0  0  0  0  0  0
  150.7578  139.4862  154.6141 C   0  0  0  0  0  0  0  0  0  0  0  0
  151.4882  137.8338  156.4093 C   0  0  0  0  0  0  0  0  0  0  0  0
  150.5253  138.2093  157.4346 N   0  0  0  0  0  0  0  0  0  0  0  0
  149.8154  137.1822  157.9630 C   0  0  0  0  0  0  0  0  0  0  0  0
  149.3963  137.2369  159.2555 N   0  0  0  0  0  0  0  0  0  0  0  0
  148.7047  136.2226  159.7830 C   0  0  0  0  0  0  0  0  0  0  0  0
  148.3257  135.0816  159.2048 N   0  0  0  0  0  0  0  0  0  0  0  0
  148.7314  135.0254  157.9044 C   0  0  0  0  0  0  0  0  0  0  0  0
  149.4772  136.0212  157.2124 C   0  0  0  0  0  0  0  0  0  0  0  0
  149.7050  135.6170  155.9023 N   0  0  0  0  0  0  0  0  0  0  0  0
  149.1372  134.4445  155.8282 C   0  0  0  0  0  0  0  0  0  0  0  0
  148.5170  134.0167  156.9810 N   0  0  0  0  0  0  0  0  0  0  0  0
  147.8089  132.7594  157.1706 C   0  0  0  0  0  0  0  0  0  0  0  0
  146.2900  132.8424  156.9101 C   0  0  0  0  0  0  0  0  0  0  0  0
  145.6319  131.4593  157.0595 C   0  0  0  0  0  0  0  0  0  0  0  0
  144.2378  131.5211  156.8335 O   0  0  0  0  0  0  0  0  0  0  0  0
  145.5523  133.9856  157.6206 C   0  0  0  0  0  0  0  0  0  0  0  0
  144.9265  134.4184  156.3943 O   0  0  0  0  0  0  0  0  0  0  0  0
  145.8626  133.6105  155.6507 C   0  0  0  0  0  0  0  0  0  0  0  0
  151.0444  139.2309  158.3339 C   0  0  0  0  0  0  0  0  0  0  0  0
  151.4736  140.4851  157.5419 C   0  0  1  0  0  0  0  0  0  0  0  0
  150.2933  141.3767  157.1407 C   0  0  0  0  0  0  0  0  0  0  0  0
  150.2736  142.5139  158.1659 C   0  0  0  0  0  0  0  0  0  0  0  0
  151.2791  142.1914  159.1119 O   0  0  0  0  0  0  0  0  0  0  0  0
  152.2708  141.4341  158.4415 C   0  0  0  0  0  0  0  0  0  0  0  0
  152.3063  140.1366  156.4265 O   0  0  0  0  0  0  0  0  0  0  0  0
  152.9470  137.8981  154.0480 H   0  0  0  0  0  0  0  0  0  0  0  0
  153.9750  138.4351  155.3723 H   0  0  0  0  0  0  0  0  0  0  0  0
  153.4607  139.5801  154.1411 H   0  0  0  0  0  0  0  0  0  0  0  0
  150.5663  138.7124  153.8699 H   0  0  0  0  0  0  0  0  0  0  0  0
  151.0136  140.4012  154.0792 H   0  0  0  0  0  0  0  0  0  0  0  0
  149.8164  139.6531  155.1348 H   0  0  0  0  0  0  0  0  0  0  0  0
  151.1041  137.0480  155.7590 H   0  0  0  0  0  0  0  0  0  0  0  0
  152.3653  137.4185  156.9077 H   0  0  0  0  0  0  0  0  0  0  0  0
  148.4140  136.3426  160.8164 H   0  0  0  0  0  0  0  0  0  0  0  0
  149.1467  133.8586  154.9205 H   0  0  0  0  0  0  0  0  0  0  0  0
  148.2676  132.0108  156.5233 H   0  0  0  0  0  0  0  0  0  0  0  0
  148.0034  132.4192  158.1883 H   0  0  0  0  0  0  0  0  0  0  0  0
  146.0531  130.7562  156.3401 H   0  0  0  0  0  0  0  0  0  0  0  0
  145.8178  131.0282  158.0432 H   0  0  0  0  0  0  0  0  0  0  0  0
  144.0876  131.5981  155.9034 H   0  0  0  0  0  0  0  0  0  0  0  0
  144.8295  133.6556  158.3677 H   0  0  0  0  0  0  0  0  0  0  0  0
  146.2123  134.7522  158.0301 H   0  0  0  0  0  0  0  0  0  0  0  0
  146.6497  134.2227  155.2091 H   0  0  0  0  0  0  0  0  0  0  0  0
  145.3790  132.9923  154.8931 H   0  0  0  0  0  0  0  0  0  0  0  0
  150.2990  139.4995  159.0841 H   0  0  0  0  0  0  0  0  0  0  0  0
  151.9002  138.8156  158.8683 H   0  0  0  0  0  0  0  0  0  0  0  0
  150.4379  141.8006  156.1466 H   0  0  0  0  0  0  0  0  0  0  0  0
  149.3500  140.8298  157.1318 H   0  0  0  0  0  0  0  0  0  0  0  0
  150.5169  143.4645  157.6896 H   0  0  0  0  0  0  0  0  0  0  0  0
  149.3045  142.6166  158.6546 H   0  0  0  0  0  0  0  0  0  0  0  0
  152.9299  140.9182  159.1403 H   0  0  0  0  0  0  0  0  0  0  0  0
  152.8830  142.1118  157.8440 H   0  0  0  0  0  0  0  0  0  0  0  0
  1  2  1  0  0  0  0
  1 29  1  0  0  0  0
  1 30  1  0  0  0  0
  1 31  1  0  0  0  0
  2 28  1  0  0  0  0
  2  3  1  0  0  0  0
  2  4  1  0  0  0  0
  3 32  1  0  0  0  0
  3 33  1  0  0  0  0
  3 34  1  0  0  0  0
  4  5  1  0  0  0  0
  4 35  1  0  0  0  0
  4 36  1  0  0  0  0
  5  6  1  0  0  0  0
  5 22  1  0  0  0  0
  6 11  1  0  0  0  0
  6  7  2  0  0  0  0
  7  8  1  0  0  0  0
  8  9  2  0  0  0  0
  8 37  1  0  0  0  0
  9 10  1  0  0  0  0
 10 14  1  0  0  0  0
 10 11  2  0  0  0  0
 11 12  1  0  0  0  0
 12 13  2  0  0  0  0
 13 14  1  0  0  0  0
 13 38  1  0  0  0  0
 14 15  1  0  0  0  0
 15 16  1  0  0  0  0
 15 39  1  0  0  0  0
 15 40  1  0  0  0  0
 16 21  1  0  0  0  0
 16 17  1  0  0  0  0
 16 19  1  0  0  0  0
 17 18  1  0  0  0  0
 17 41  1  0  0  0  0
 17 42  1  0  0  0  0
 18 43  1  0  0  0  0
 19 20  1  0  0  0  0
 19 44  1  0  0  0  0
 19 45  1  0  0  0  0
 20 21  1  0  0  0  0
 21 46  1  0  0  0  0
 21 47  1  0  0  0  0
 22 23  1  0  0  0  0
 22 48  1  0  0  0  0
 22 49  1  0  0  0  0
 23 27  1  0  0  0  0
 23 24  1  0  0  0  0
 23 28  1  0  0  0  0
 24 25  1  0  0  0  0
 24 50  1  0  0  0  0
 24 51  1  0  0  0  0
 25 26  1  0  0  0  0
 25 52  1  0  0  0  0
 25 53  1  0  0  0  0
 26 27  1  0  0  0  0
 27 54  1  0  0  0  0
 27 55  1  0  0  0  0
M  END
> <s_m_source_file>
AV-unprocessed.smi

> <i_m_source_file_index>
146

> <i_lp_mmshare_version>
43012

> <i_f3d_flags>
0

> <s_epik_input>
W0NIMl0xT1tDSDJdW0NIMl1bQ0BAXTEyW0NIMl1OKFtDSDJdQyhPMikoW0NIM10pW0NIM10pYyhuW2NIXW4zKWMoYzM0KW5bY0hdbjRbQ0gyXUM1KFtDSDJdW09IXSlbQ0gyXU9bQ0gyXTU=

> <s_epik_cmdline>
J2VwaWtfcHl0aG9uJywgJy1waCcsICc3LjAnLCAnLXRuJywgJzgnLCAnLW1hJywgJzIwMCcsICctbWV0YWxfYmluZGluZycsICctaW1hZScsICc8aW5maWxlLm1hZT4nLCAnLW9tYWUnLCAnPG91dGZpbGUubWFlPic=

> <r_lp_tautomer_probability>
1

> <r_epik_Ionization_Penalty>
0.00353822

> <r_epik_Ionization_Penalty_Charging>
0

> <r_epik_Ionization_Penalty_Neutral>
0.00353822

> <r_epik_State_Penalty>
0.0023805

> <r_epik_Charging_Adjusted_Penalty>
0.0023805

> <i_epik_Tot_Q>
0

> <i_epik_Tot_abs_Q>
0

> <r_epik_Metal_State_Penalty>
-0

> <b_epik_Metal_Only>
0

> <s_lp_Force_Field>
OPLS_2005

> <r_lp_Energy>
57.4997

> <b_lp_Chiralities_Consistent>
1

> <s_lp_Variant>
AV-unprocessed.smi:146-2

> <Gold.Version>
5.8.1

> <Gold.Id.Protein>
6NUR|6NUR_protein|mol2

> <Gold.PLP.Fitness>
33.0900

> <Gold.PLP.PLP>
-28.5418

> <Gold.PLP.part.hbond>
-2.6903

> <Gold.PLP.part.metal>
0.0000

> <Gold.PLP.part.buried>
-3.7348

> <Gold.PLP.part.nonpolar>
-21.3244

> <Gold.PLP.part.repulsive>
0.0925

> <Gold.PLP.ligand.clash>
0.0000

> <Gold.PLP.ligand.torsion>
1.0395

> <Gold.PLP.Chemscore.Hbond>
2.0000

> <Gold.PLP.Chemscore.CHOScore>
0.0000

> <Gold.PLP.Chemscore.Metal>
0.0000

> <Gold.Chemscore.Hbonds>
donor molecule, donor type, donor heavy atom, donor atom, acceptor molecule, acceptor atom, score
      L1  H    18    43       P1 10957  0.74
      P1  H  7997  8008       L1    28  1.00

> <Gold.PLP.Chemscore.Internal.Correction>
0.6272

> <Gold.Rescore>
     Score         DG    S(hbond)    S(metal)    S(lipo)     H(rot)  DE(clash)    DE(int)     intcor
      9.89     -13.06       1.87        0.00      64.67       2.44       0.00       3.17       ----

> <Gold.Chemscore.Fitness>
9.8899

> <Gold.Chemscore.DG>
-13.0597

> <Gold.Chemscore.ZeroCoef>
-5.4800

> <Gold.Chemscore.Hbond>
1.8723

> <Gold.Chemscore.Metal>
0.0000

> <Gold.Chemscore.Lipo>
64.6691

> <Gold.Chemscore.Internal_Hbond>
0.0000

> <Gold.Chemscore.DEClash>
0.0038

> <Gold.Chemscore.DEInternal>
3.1660

> <Gold.Chemscore.Rot>
2.4376

> <Gold.Chemscore.Internal.Correction>
   9.000000E+99

> <Gold.Chemscore.Hbonds>
donor molecule, donor type, donor heavy atom, donor atom, acceptor molecule, acceptor atom, score
      L1  H    18    43       P1 10957  0.25
      P1  H  7997  8008       L1    28  0.56

> <Gold.Chemscore.Hbond.Weighted>
-6.2536

> <Gold.Chemscore.Metal.Weighted>
-0.0000

> <Gold.Chemscore.Lipo.Weighted>
-7.5663

> <Gold.Chemscore.Internal_Hbond.Weighted>
0.0000

> <Gold.Chemscore.DEClash.Weighted>
0.0038

> <Gold.Chemscore.DEInternal.Weighted>
3.1660

> <Gold.Chemscore.Rot.Weighted>
6.2402

> <Gold.Chemscore.Internal.Correction.Weighted>
   9.000000E+99

> <Gold.Protein.RotatedTorsions>
[ 6907 6896 6895 6894 ] final   66.55 input  -60.11 | X-H torsion
[ 7974 7965 7964 7962 ] final   93.52 input  175.53 | X-H torsion
[ 8008 7997 7996 7995 ] final  -49.50 input   59.86 | X-H torsion
[ 10167 10162 10161 10158 ] final  135.53 input  -65.29 | X-H torsion
[ 10718 10713 10712 10709 ] final  151.06 input   66.30 | X-H torsion
[ 10763 10752 10751 10750 ] final  -51.88 input  -60.55 | X-H torsion
[ 11005 11000 10999 10996 ] final  -67.45 input  -57.11 | X-H torsion

> <Gold.Protein.ActiveResidues>
 VAL166  LYS551  ARG553  GLY616  TRP617  ASP618  TYR619  PRO620  LYS621  CYS622 
 ASP623  PHE694  ASN695  SER759  ASP760  ASP761  ALA762  ILE779  LEU786  VAL792 
 PHE793  MET794  SER795  GLU796  ALA797  LYS798  CYS799  TRP800  GLU811  SER814 

> <Gold.Protein.RotatedAtoms>
  152.4489  134.5435  159.9845 H   0  0  0  0  0  0  0  0  0  0  0  0  # atno 6907 bound_to 6896
  151.5513  133.3411  159.2961 H   0  0  0  0  0  0  0  0  0  0  0  0  # atno 6908 bound_to 6896
  150.8413  134.7737  159.6998 H   0  0  0  0  0  0  0  0  0  0  0  0  # atno 6909 bound_to 6896
  145.4779  139.2279  143.2899 H   0  0  0  0  0  0  0  0  0  0  0  0  # atno 7974 bound_to 7965
  154.4045  140.1295  156.4513 H   0  0  0  0  0  0  0  0  0  0  0  0  # atno 8008 bound_to 7997
  155.7363  140.3490  155.5063 H   0  0  0  0  0  0  0  0  0  0  0  0  # atno 8009 bound_to 7997
  155.9080  140.1031  157.1291 H   0  0  0  0  0  0  0  0  0  0  0  0  # atno 8010 bound_to 7997
  139.5213  144.6512  151.5297 H   0  0  0  0  0  0  0  0  0  0  0  0  # atno 10167 bound_to 10162
  157.2755  131.0825  151.1569 H   0  0  0  0  0  0  0  0  0  0  0  0  # atno 10718 bound_to 10713
  154.1337  135.6516  153.4927 H   0  0  0  0  0  0  0  0  0  0  0  0  # atno 10763 bound_to 10752
  153.0187  135.5299  154.6975 H   0  0  0  0  0  0  0  0  0  0  0  0  # atno 10764 bound_to 10752
  154.6217  135.2965  155.0289 H   0  0  0  0  0  0  0  0  0  0  0  0  # atno 10765 bound_to 10752
  141.1508  133.6719  156.6294 H   0  0  0  0  0  0  0  0  0  0  0  0  # atno 11005 bound_to 11000
  146.2358  140.5562  142.8955 LP  0  0  0  0  0  0  0  0  0  0  0  0  # atno 17320 bound_to 7965
  144.7906  140.6025  143.6544 LP  0  0  0  0  0  0  0  0  0  0  0  0  # atno 17321 bound_to 7965
  140.6318  143.9062  150.6612 LP  0  0  0  0  0  0  0  0  0  0  0  0  # atno 17342 bound_to 10162
  140.2368  143.3693  152.1520 LP  0  0  0  0  0  0  0  0  0  0  0  0  # atno 17343 bound_to 10162
  157.3023  130.6849  149.6171 LP  0  0  0  0  0  0  0  0  0  0  0  0  # atno 17370 bound_to 10713
  155.9663  130.4388  150.5233 LP  0  0  0  0  0  0  0  0  0  0  0  0  # atno 17371 bound_to 10713
  140.3478  134.7794  157.4445 LP  0  0  0  0  0  0  0  0  0  0  0  0  # atno 17394 bound_to 11000
  140.0885  134.5633  155.8468 LP  0  0  0  0  0  0  0  0  0  0  0  0  # atno 17395 bound_to 11000

$$$$
