AV-unprocessed.smi:490|AV-procd|sdf|2704|dock10
  -GOLD-   2262023143D 1   1.00000     0.00000
 Structure written by MMmdl.
 49 51  0  0  0  0  0  0  0  0  1 V2000
  153.7478  140.6359  160.7074 C   0  0  0  0  0  0  0  0  0  0  0  0
  152.9119  141.4236  159.7130 C   0  0  0  0  0  0  0  0  0  0  0  0
  153.0836  142.8203  159.6301 C   0  0  0  0  0  0  0  0  0  0  0  0
  152.3269  143.5781  158.7196 C   0  0  0  0  0  0  0  0  0  0  0  0
  151.3975  142.9445  157.8726 C   0  0  0  0  0  0  0  0  0  0  0  0
  150.5877  143.7706  156.8910 C   0  0  0  0  0  0  0  0  0  0  0  0
  151.2279  141.5431  157.9367 C   0  0  0  0  0  0  0  0  0  0  0  0
  150.3265  140.9447  157.0928 O   0  0  0  0  0  0  0  0  0  0  0  0
  150.7035  140.9919  155.7230 C   0  0  0  0  0  0  0  0  0  0  0  0
  149.4334  141.1248  154.8621 C   0  0  1  0  0  0  0  0  0  0  0  0
  149.8037  141.0453  153.5015 O   0  0  0  0  0  0  0  0  0  0  0  0
  148.3726  140.0346  155.1278 C   0  0  0  0  0  0  0  0  0  0  0  0
  147.1116  140.5759  155.6221 N   0  0  0  0  0  0  0  0  0  0  0  0
  146.4370  140.2288  156.7481 C   0  0  0  0  0  0  0  0  0  0  0  0
  146.9490  139.1970  157.7067 C   0  0  0  0  0  0  0  0  0  0  0  0
  146.0469  138.9395  158.7613 O   0  0  0  0  0  0  0  0  0  0  0  0
  145.2894  140.8735  156.9598 N   0  0  0  0  0  0  0  0  0  0  0  0
  145.2195  141.7322  155.8812 C   0  0  0  0  0  0  0  0  0  0  0  0
  144.2346  142.6822  155.5281 C   0  0  0  0  0  0  0  0  0  0  0  0
  144.3786  143.4597  154.3607 C   0  0  0  0  0  0  0  0  0  0  0  0
  145.5084  143.3006  153.5326 C   0  0  0  0  0  0  0  0  0  0  0  0
  146.5013  142.3597  153.8661 C   0  0  0  0  0  0  0  0  0  0  0  0
  146.3503  141.5805  155.0295 C   0  0  0  0  0  0  0  0  0  0  0  0
  151.9705  140.7778  158.8734 C   0  0  0  0  0  0  0  0  0  0  0  0
  151.7619  139.2722  158.9813 C   0  0  0  0  0  0  0  0  0  0  0  0
  154.4881  141.2706  161.1953 H   0  0  0  0  0  0  0  0  0  0  0  0
  154.2815  139.8283  160.2053 H   0  0  0  0  0  0  0  0  0  0  0  0
  153.1135  140.2051  161.4822 H   0  0  0  0  0  0  0  0  0  0  0  0
  153.7965  143.3203  160.2694 H   0  0  0  0  0  0  0  0  0  0  0  0
  152.4667  144.6484  158.6730 H   0  0  0  0  0  0  0  0  0  0  0  0
  149.5230  143.5710  157.0139 H   0  0  0  0  0  0  0  0  0  0  0  0
  150.8682  143.5245  155.8670 H   0  0  0  0  0  0  0  0  0  0  0  0
  150.7497  144.8382  157.0404 H   0  0  0  0  0  0  0  0  0  0  0  0
  151.3999  141.8118  155.5417 H   0  0  0  0  0  0  0  0  0  0  0  0
  151.2391  140.0805  155.4667 H   0  0  0  0  0  0  0  0  0  0  0  0
  148.9861  142.1038  155.0314 H   0  0  0  0  0  0  0  0  0  0  0  0
  149.2790  140.3768  153.0878 H   0  0  0  0  0  0  0  0  0  0  0  0
  148.1704  139.4743  154.2146 H   0  0  0  0  0  0  0  0  0  0  0  0
  148.7496  139.3077  155.8481 H   0  0  0  0  0  0  0  0  0  0  0  0
  147.1295  138.2652  157.1694 H   0  0  0  0  0  0  0  0  0  0  0  0
  147.9075  139.5082  158.1191 H   0  0  0  0  0  0  0  0  0  0  0  0
  145.4324  138.2808  158.4761 H   0  0  0  0  0  0  0  0  0  0  0  0
  143.3666  142.8126  156.1573 H   0  0  0  0  0  0  0  0  0  0  0  0
  143.6192  144.1821  154.0997 H   0  0  0  0  0  0  0  0  0  0  0  0
  145.6114  143.9002  152.6400 H   0  0  0  0  0  0  0  0  0  0  0  0
  147.3647  142.2327  153.2298 H   0  0  0  0  0  0  0  0  0  0  0  0
  150.8768  138.9339  158.4434 H   0  0  0  0  0  0  0  0  0  0  0  0
  151.6346  138.9728  160.0214 H   0  0  0  0  0  0  0  0  0  0  0  0
  152.6249  138.7446  158.5752 H   0  0  0  0  0  0  0  0  0  0  0  0
  1  2  1  0  0  0  0
  1 26  1  0  0  0  0
  1 27  1  0  0  0  0
  1 28  1  0  0  0  0
  2 24  1  0  0  0  0
  2  3  2  0  0  0  0
  3  4  1  0  0  0  0
  3 29  1  0  0  0  0
  4  5  2  0  0  0  0
  4 30  1  0  0  0  0
  5  6  1  0  0  0  0
  5  7  1  0  0  0  0
  6 31  1  0  0  0  0
  6 32  1  0  0  0  0
  6 33  1  0  0  0  0
  7  8  1  0  0  0  0
  7 24  2  0  0  0  0
  8  9  1  0  0  0  0
  9 10  1  0  0  0  0
  9 34  1  0  0  0  0
  9 35  1  0  0  0  0
 10 11  1  0  0  0  0
 10 12  1  0  0  0  0
 10 36  1  0  0  0  0
 11 37  1  0  0  0  0
 12 13  1  0  0  0  0
 12 38  1  0  0  0  0
 12 39  1  0  0  0  0
 13 23  1  0  0  0  0
 13 14  1  0  0  0  0
 14 15  1  0  0  0  0
 14 17  2  0  0  0  0
 15 16  1  0  0  0  0
 15 40  1  0  0  0  0
 15 41  1  0  0  0  0
 16 42  1  0  0  0  0
 17 18  1  0  0  0  0
 18 23  2  0  0  0  0
 18 19  1  0  0  0  0
 19 20  2  0  0  0  0
 19 43  1  0  0  0  0
 20 21  1  0  0  0  0
 20 44  1  0  0  0  0
 21 22  2  0  0  0  0
 21 45  1  0  0  0  0
 22 23  1  0  0  0  0
 22 46  1  0  0  0  0
 24 25  1  0  0  0  0
 25 47  1  0  0  0  0
 25 48  1  0  0  0  0
 25 49  1  0  0  0  0
M  END
> <s_m_source_file>
AV-unprocessed.smi

> <i_m_source_file_index>
490

> <i_lp_mmshare_version>
43012

> <i_f3d_flags>
0

> <s_epik_input>
W0NIM11jMVtjSF1bY0hdYyhbQ0gzXSljKGMxW0NIM10pT1tDSDJdW0NASF0oW09IXSlbQ0gyXW4oYyhuMilbQ0gyXVtPSF0pYyhjMjMpW2NIXVtjSF1bY0hdW2NIXTM=

> <s_epik_cmdline>
J2VwaWtfcHl0aG9uJywgJy1waCcsICc3LjAnLCAnLXRuJywgJzgnLCAnLW1hJywgJzIwMCcsICctbWV0YWxfYmluZGluZycsICctaW1hZScsICc8aW5maWxlLm1hZT4nLCAnLW9tYWUnLCAnPG91dGZpbGUubWFlPic=

> <r_lp_tautomer_probability>
1

> <r_epik_Ionization_Penalty>
0.0555874

> <r_epik_Ionization_Penalty_Charging>
0

> <r_epik_Ionization_Penalty_Neutral>
0.0555874

> <r_epik_State_Penalty>
0.0478234

> <r_epik_Charging_Adjusted_Penalty>
0.0478234

> <i_epik_Tot_Q>
0

> <i_epik_Tot_abs_Q>
0

> <r_epik_Metal_State_Penalty>
4.98044e-05

> <b_epik_Metal_Only>
0

> <s_lp_Force_Field>
OPLS_2005

> <r_lp_Energy>
21.221

> <b_lp_Chiralities_Consistent>
1

> <s_lp_Variant>
AV-unprocessed.smi:490-2

> <Gold.Version>
5.8.1

> <Gold.Id.Protein>
6NUR|6NUR_protein|mol2

> <Gold.PLP.Fitness>
46.8238

> <Gold.PLP.PLP>
-44.4605

> <Gold.PLP.part.hbond>
-3.4651

> <Gold.PLP.part.metal>
0.0000

> <Gold.PLP.part.buried>
1.1735

> <Gold.PLP.part.nonpolar>
-39.7472

> <Gold.PLP.part.repulsive>
0.0391

> <Gold.PLP.ligand.clash>
0.0000

> <Gold.PLP.ligand.torsion>
1.0989

> <Gold.PLP.Chemscore.Hbond>
1.4896

> <Gold.PLP.Chemscore.CHOScore>
0.0000

> <Gold.PLP.Chemscore.Metal>
0.0000

> <Gold.Chemscore.Hbonds>
donor molecule, donor type, donor heavy atom, donor atom, acceptor molecule, acceptor atom, score
      L1  H    11    37       P1  7957  0.34
      P1  H  6934  6947       L1    16  0.02
      P1  H  7989  7998       L1    11  0.24
      P1  H  8011  8017       L1    11  1.00

> <Gold.PLP.Chemscore.Internal.Correction>
0.0922

> <Gold.Rescore>
     Score         DG    S(hbond)    S(metal)    S(lipo)     H(rot)  DE(clash)    DE(int)     intcor
     12.98     -17.27       1.09        0.00     133.68       2.93       1.93       2.36       ----

> <Gold.Chemscore.Fitness>
12.9841

> <Gold.Chemscore.DG>
-17.2724

> <Gold.Chemscore.ZeroCoef>
-5.4800

> <Gold.Chemscore.Hbond>
1.0921

> <Gold.Chemscore.Metal>
0.0000

> <Gold.Chemscore.Lipo>
133.6761

> <Gold.Chemscore.Internal_Hbond>
0.0000

> <Gold.Chemscore.DEClash>
1.9252

> <Gold.Chemscore.DEInternal>
2.3630

> <Gold.Chemscore.Rot>
2.9279

> <Gold.Chemscore.Internal.Correction>
   9.000000E+99

> <Gold.Chemscore.Hbonds>
donor molecule, donor type, donor heavy atom, donor atom, acceptor molecule, acceptor atom, score
      L1  H    11    37       P1  7957  0.33
      P1  H  6934  6947       L1    16  0.02
      P1  H  7989  7998       L1    11  0.14
      P1  H  8011  8017       L1    11  0.48

> <Gold.Chemscore.Hbond.Weighted>
-3.6477

> <Gold.Chemscore.Metal.Weighted>
-0.0000

> <Gold.Chemscore.Lipo.Weighted>
-15.6401

> <Gold.Chemscore.Internal_Hbond.Weighted>
0.0000

> <Gold.Chemscore.DEClash.Weighted>
1.9252

> <Gold.Chemscore.DEInternal.Weighted>
2.3630

> <Gold.Chemscore.Rot.Weighted>
7.4954

> <Gold.Chemscore.Internal.Correction.Weighted>
   9.000000E+99

> <Gold.Protein.RotatedTorsions>
[ 6907 6896 6895 6894 ] final    1.09 input  -60.11 | X-H torsion
[ 7974 7965 7964 7962 ] final  127.44 input  175.53 | X-H torsion
[ 8008 7997 7996 7995 ] final  118.67 input   59.86 | X-H torsion
[ 10167 10162 10161 10158 ] final   15.79 input  -65.29 | X-H torsion
[ 10718 10713 10712 10709 ] final -107.36 input   66.30 | X-H torsion
[ 10763 10752 10751 10750 ] final   86.64 input  -60.55 | X-H torsion
[ 11005 11000 10999 10996 ] final   56.87 input  -57.11 | X-H torsion

> <Gold.Protein.ActiveResidues>
 VAL166  LYS551  ARG553  GLY616  TRP617  ASP618  TYR619  PRO620  LYS621  CYS622 
 ASP623  PHE694  ASN695  SER759  ASP760  ASP761  ALA762  ILE779  LEU786  VAL792 
 PHE793  MET794  SER795  GLU796  ALA797  LYS798  CYS799  TRP800  GLU811  SER814 

> <Gold.Protein.RotatedAtoms>
  151.5870  135.1055  160.0030 H   0  0  0  0  0  0  0  0  0  0  0  0  # atno 6907 bound_to 6896
  152.4325  133.7299  159.6592 H   0  0  0  0  0  0  0  0  0  0  0  0  # atno 6908 bound_to 6896
  150.8219  133.8167  159.3158 H   0  0  0  0  0  0  0  0  0  0  0  0  # atno 6909 bound_to 6896
  145.0505  139.3887  143.5056 H   0  0  0  0  0  0  0  0  0  0  0  0  # atno 7974 bound_to 7965
  156.2558  140.2869  156.0872 H   0  0  0  0  0  0  0  0  0  0  0  0  # atno 8008 bound_to 7997
  155.1503  140.0397  157.2837 H   0  0  0  0  0  0  0  0  0  0  0  0  # atno 8009 bound_to 7997
  154.6466  140.2535  155.7268 H   0  0  0  0  0  0  0  0  0  0  0  0  # atno 8010 bound_to 7997
  140.5843  143.8921  150.6816 H   0  0  0  0  0  0  0  0  0  0  0  0  # atno 10167 bound_to 10162
  156.0433  130.5658  150.7810 H   0  0  0  0  0  0  0  0  0  0  0  0  # atno 10718 bound_to 10713
  153.1590  135.4573  154.9745 H   0  0  0  0  0  0  0  0  0  0  0  0  # atno 10763 bound_to 10752
  154.7883  135.3211  154.7838 H   0  0  0  0  0  0  0  0  0  0  0  0  # atno 10764 bound_to 10752
  153.8331  135.6937  153.4866 H   0  0  0  0  0  0  0  0  0  0  0  0  # atno 10765 bound_to 10752
  140.0496  134.5756  155.9280 H   0  0  0  0  0  0  0  0  0  0  0  0  # atno 11005 bound_to 11000
  146.3517  140.0153  142.8663 LP  0  0  0  0  0  0  0  0  0  0  0  0  # atno 17320 bound_to 7965
  145.1533  140.9634  143.4420 LP  0  0  0  0  0  0  0  0  0  0  0  0  # atno 17321 bound_to 7965
  140.2428  143.3651  152.1472 LP  0  0  0  0  0  0  0  0  0  0  0  0  # atno 17342 bound_to 10162
  139.5188  144.7011  151.5492 LP  0  0  0  0  0  0  0  0  0  0  0  0  # atno 17343 bound_to 10162
  157.5278  131.0935  150.9995 LP  0  0  0  0  0  0  0  0  0  0  0  0  # atno 17370 bound_to 10713
  157.0309  130.5711  149.5343 LP  0  0  0  0  0  0  0  0  0  0  0  0  # atno 17371 bound_to 10713
  141.1924  133.6575  156.5498 LP  0  0  0  0  0  0  0  0  0  0  0  0  # atno 17394 bound_to 11000
  140.3939  134.7416  157.4738 LP  0  0  0  0  0  0  0  0  0  0  0  0  # atno 17395 bound_to 11000

$$$$
