AV-unprocessed.smi:921|AV-procd|sdf|4172|dock4
  -GOLD-   22720 2 83D 1   1.00000     0.00000
 Structure written by MMmdl.
 40 42  0  0  0  0  0  0  0  0  2 V2000
  149.9706  135.9393  154.3656 N   0  0  0  0  0  0  0  0  0  0  0  0
  151.0099  136.5732  154.9154 C   0  0  0  0  0  0  0  0  0  0  0  0
  151.5922  136.1379  155.9066 O   0  0  0  0  0  0  0  0  0  0  0  0
  151.4611  137.8800  154.2589 C   0  0  0  0  0  0  0  0  0  0  0  0
  150.3381  138.8698  154.2223 C   0  0  0  0  0  0  0  0  0  0  0  0
  149.2092  138.7655  153.4634 N   0  3  0  0  0  0  0  0  0  0  0  0
  148.3835  139.8677  153.6883 C   0  0  0  0  0  0  0  0  0  0  0  0
  147.1447  140.2039  153.1510 C   0  0  0  0  0  0  0  0  0  0  0  0
  146.5663  141.4094  153.6002 C   0  0  0  0  0  0  0  0  0  0  0  0
  147.2164  142.2280  154.5468 C   0  0  0  0  0  0  0  0  0  0  0  0
  148.4730  141.8772  155.0833 C   0  0  0  0  0  0  0  0  0  0  0  0
  149.0375  140.6844  154.6327 C   0  0  0  0  0  0  0  0  0  0  0  0
  150.2378  140.0318  154.9327 N   0  0  0  0  0  0  0  0  0  0  0  0
  151.1606  140.6477  155.8989 C   0  0  0  0  0  0  0  0  0  0  0  0
  150.5509  140.7872  157.3075 C   0  0  1  0  0  0  0  0  0  0  0  0
  150.2106  139.5078  157.8078 O   0  0  0  0  0  0  0  0  0  0  0  0
  151.4842  141.5543  158.2345 C   0  0  0  0  0  0  0  0  0  0  0  0
  151.5060  142.9676  158.2272 C   0  0  0  0  0  0  0  0  0  0  0  0
  152.3644  143.6709  159.0944 C   0  0  0  0  0  0  0  0  0  0  0  0
  152.3817  145.0248  159.0790 F   0  0  0  0  0  0  0  0  0  0  0  0
  153.2032  142.9673  159.9789 C   0  0  0  0  0  0  0  0  0  0  0  0
  153.1807  141.5599  159.9981 C   0  0  0  0  0  0  0  0  0  0  0  0
  152.3235  140.8544  159.1311 C   0  0  0  0  0  0  0  0  0  0  0  0
  152.3079  139.5000  159.1690 F   0  0  0  0  0  0  0  0  0  0  0  0
  149.6376  135.0783  154.7757 H   0  0  0  0  0  0  0  0  0  0  0  0
  149.5141  136.3221  153.5504 H   0  0  0  0  0  0  0  0  0  0  0  0
  152.3047  138.3119  154.7991 H   0  0  0  0  0  0  0  0  0  0  0  0
  151.8078  137.6739  153.2462 H   0  0  0  0  0  0  0  0  0  0  0  0
  146.6446  139.5784  152.4263 H   0  0  0  0  0  0  0  0  0  0  0  0
  145.6048  141.7118  153.2114 H   0  0  0  0  0  0  0  0  0  0  0  0
  146.7421  143.1439  154.8681 H   0  0  0  0  0  0  0  0  0  0  0  0
  148.9627  142.5104  155.8085 H   0  0  0  0  0  0  0  0  0  0  0  0
  152.0663  140.0417  155.9345 H   0  0  0  0  0  0  0  0  0  0  0  0
  151.4629  141.6202  155.5083 H   0  0  0  0  0  0  0  0  0  0  0  0
  149.6136  141.3395  157.2365 H   0  0  0  0  0  0  0  0  0  0  0  0
  149.5951  139.1077  157.2123 H   0  0  0  0  0  0  0  0  0  0  0  0
  150.8622  143.5205  157.5587 H   0  0  0  0  0  0  0  0  0  0  0  0
  153.8607  143.5062  160.6449 H   0  0  0  0  0  0  0  0  0  0  0  0
  153.8205  141.0202  160.6808 H   0  0  0  0  0  0  0  0  0  0  0  0
  149.0202  137.9949  152.8356 H   0  0  0  0  0  0  0  0  0  0  0  0
  1  2  1  0  0  0  0
  1 25  1  0  0  0  0
  1 26  1  0  0  0  0
  2  3  2  0  0  0  0
  2  4  1  0  0  0  0
  4  5  1  0  0  0  0
  4 27  1  0  0  0  0
  4 28  1  0  0  0  0
  5 13  1  0  0  0  0
  5  6  2  0  0  0  0
  6  7  1  0  0  0  0
  6 40  1  0  0  0  0
  7 12  2  0  0  0  0
  7  8  1  0  0  0  0
  8  9  2  0  0  0  0
  8 29  1  0  0  0  0
  9 10  1  0  0  0  0
  9 30  1  0  0  0  0
 10 11  2  0  0  0  0
 10 31  1  0  0  0  0
 11 12  1  0  0  0  0
 11 32  1  0  0  0  0
 12 13  1  0  0  0  0
 13 14  1  0  0  0  0
 14 15  1  0  0  0  0
 14 33  1  0  0  0  0
 14 34  1  0  0  0  0
 15 16  1  0  0  0  0
 15 17  1  0  0  0  0
 15 35  1  0  0  0  0
 16 36  1  0  0  0  0
 17 23  1  0  0  0  0
 17 18  2  0  0  0  0
 18 19  1  0  0  0  0
 18 37  1  0  0  0  0
 19 20  1  0  0  0  0
 19 21  2  0  0  0  0
 21 22  1  0  0  0  0
 21 38  1  0  0  0  0
 22 23  2  0  0  0  0
 22 39  1  0  0  0  0
 23 24  1  0  0  0  0
M  CHG  1   6   1
M  END
> <s_m_source_file>
AV-unprocessed.smi

> <i_m_source_file_index>
921

> <i_lp_mmshare_version>
43012

> <i_f3d_flags>
0

> <s_epik_input>
W2NIXTFbY0hdW2NIXVtjSF1jKGMxMiluKGMobjIpW0NIMl1DKD1PKVtOSDJdKVtDSDJdW0NASF0oW09IXSljM1tjSF1jKEYpW2NIXVtjSF1jM0Y=

> <s_epik_cmdline>
J2VwaWtfcHl0aG9uJywgJy1waCcsICc3LjAnLCAnLXRuJywgJzgnLCAnLW1hJywgJzIwMCcsICctbWV0YWxfYmluZGluZycsICctaW1hZScsICc8aW5maWxlLm1hZT4nLCAnLW9tYWUnLCAnPG91dGZpbGUubWFlPic=

> <r_epik_Ionization_Penalty>
1.66646

> <r_epik_Ionization_Penalty_Charging>
1.66645

> <r_epik_Ionization_Penalty_Neutral>
3.86504e-06

> <r_epik_State_Penalty>
1.76975

> <r_epik_Charging_Adjusted_Penalty>
3.43621

> <i_epik_Tot_Q>
1

> <i_epik_Tot_abs_Q>
1

> <r_epik_Metal_State_Penalty>
1.80493

> <b_epik_Metal_Only>
0

> <s_lp_Force_Field>
OPLS_2005

> <r_lp_Energy>
15.327

> <b_lp_Chiralities_Consistent>
1

> <s_lp_Variant>
AV-unprocessed.smi:921-4

> <Gold.Version>
5.8.1

> <Gold.Id.Protein>
6NUR|6NUR_protein|mol2

> <Gold.PLP.Fitness>
65.8536

> <Gold.PLP.PLP>
-55.3076

> <Gold.PLP.part.hbond>
-4.4899

> <Gold.PLP.part.metal>
0.0000

> <Gold.PLP.part.buried>
1.7598

> <Gold.PLP.part.nonpolar>
-52.6097

> <Gold.PLP.part.repulsive>
0.1619

> <Gold.PLP.ligand.clash>
0.0000

> <Gold.PLP.ligand.torsion>
0.7572

> <Gold.PLP.Chemscore.Hbond>
4.0000

> <Gold.PLP.Chemscore.CHOScore>
0.0000

> <Gold.PLP.Chemscore.Metal>
0.0000

> <Gold.Chemscore.Hbonds>
donor molecule, donor type, donor heavy atom, donor atom, acceptor molecule, acceptor atom, score
      L1  H     1    26       P1  7948  1.00
      L1  H     6    40       P1  7948  2.00
      P1  H 10752 10764       L1     3  0.94

> <Gold.PLP.Chemscore.Internal.Correction>
0.0604

> <Gold.Rescore>
     Score         DG    S(hbond)    S(metal)    S(lipo)     H(rot)  DE(clash)    DE(int)     intcor
     14.87     -18.50       2.36        0.00     113.29       3.17       1.09       2.54       ----

> <Gold.Chemscore.Fitness>
14.8681

> <Gold.Chemscore.DG>
-18.4960

> <Gold.Chemscore.ZeroCoef>
-5.4800

> <Gold.Chemscore.Hbond>
2.3594

> <Gold.Chemscore.Metal>
0.0000

> <Gold.Chemscore.Lipo>
113.2920

> <Gold.Chemscore.Internal_Hbond>
0.0000

> <Gold.Chemscore.DEClash>
1.0904

> <Gold.Chemscore.DEInternal>
2.5375

> <Gold.Chemscore.Rot>
3.1717

> <Gold.Chemscore.Internal.Correction>
   9.000000E+99

> <Gold.Chemscore.Hbonds>
donor molecule, donor type, donor heavy atom, donor atom, acceptor molecule, acceptor atom, score
      L1  H     1    26       P1  7948  0.58
      L1  H     6    40       P1  7948  0.97
      P1  H 10752 10764       L1     3  0.40

> <Gold.Chemscore.Hbond.Weighted>
-7.8804

> <Gold.Chemscore.Metal.Weighted>
-0.0000

> <Gold.Chemscore.Lipo.Weighted>
-13.2552

> <Gold.Chemscore.Internal_Hbond.Weighted>
0.0000

> <Gold.Chemscore.DEClash.Weighted>
1.0904

> <Gold.Chemscore.DEInternal.Weighted>
2.5375

> <Gold.Chemscore.Rot.Weighted>
8.1196

> <Gold.Chemscore.Internal.Correction.Weighted>
   9.000000E+99

> <Gold.Protein.RotatedTorsions>
[ 6907 6896 6895 6894 ] final  170.24 input  -60.11 | X-H torsion
[ 7974 7965 7964 7962 ] final -111.62 input  175.53 | X-H torsion
[ 8008 7997 7996 7995 ] final   53.27 input   59.86 | X-H torsion
[ 10167 10162 10161 10158 ] final  -62.75 input  -65.29 | X-H torsion
[ 10718 10713 10712 10709 ] final -143.92 input   66.30 | X-H torsion
[ 10763 10752 10751 10750 ] final  -16.16 input  -60.55 | X-H torsion
[ 11005 11000 10999 10996 ] final  156.08 input  -57.11 | X-H torsion

> <Gold.Protein.ActiveResidues>
 VAL166  LYS551  ARG553  GLY616  TRP617  ASP618  TYR619  PRO620  LYS621  CYS622 
 ASP623  PHE694  ASN695  SER759  ASP760  ASP761  ALA762  ILE779  LEU786  VAL792 
 PHE793  MET794  SER795  GLU796  ALA797  LYS798  CYS799  TRP800  GLU811  SER814 

> <Gold.Protein.RotatedAtoms>
  151.8193  133.3392  159.3578 H   0  0  0  0  0  0  0  0  0  0  0  0  # atno 6907 bound_to 6896
  150.7300  134.5589  159.5842 H   0  0  0  0  0  0  0  0  0  0  0  0  # atno 6908 bound_to 6896
  152.3018  134.7603  160.0407 H   0  0  0  0  0  0  0  0  0  0  0  0  # atno 6909 bound_to 6896
  145.1539  140.8843  143.3630 H   0  0  0  0  0  0  0  0  0  0  0  0  # atno 7974 bound_to 7965
  155.4656  140.3463  155.4318 H   0  0  0  0  0  0  0  0  0  0  0  0  # atno 8008 bound_to 7997
  156.1133  140.1467  156.9337 H   0  0  0  0  0  0  0  0  0  0  0  0  # atno 8009 bound_to 7997
  154.4771  140.0881  156.7268 H   0  0  0  0  0  0  0  0  0  0  0  0  # atno 8010 bound_to 7997
  140.5918  143.2343  151.6123 H   0  0  0  0  0  0  0  0  0  0  0  0  # atno 10167 bound_to 10162
  156.3637  130.7752  151.1923 H   0  0  0  0  0  0  0  0  0  0  0  0  # atno 10718 bound_to 10713
  153.5543  135.7011  153.5577 H   0  0  0  0  0  0  0  0  0  0  0  0  # atno 10763 bound_to 10752
  153.3487  135.4001  155.1629 H   0  0  0  0  0  0  0  0  0  0  0  0  # atno 10764 bound_to 10752
  154.8657  135.3760  154.5056 H   0  0  0  0  0  0  0  0  0  0  0  0  # atno 10765 bound_to 10752
  140.1641  134.8589  157.2610 H   0  0  0  0  0  0  0  0  0  0  0  0  # atno 11005 bound_to 11000
  145.0402  139.3266  143.5980 LP  0  0  0  0  0  0  0  0  0  0  0  0  # atno 17320 bound_to 7965
  146.3491  139.9772  142.8699 LP  0  0  0  0  0  0  0  0  0  0  0  0  # atno 17321 bound_to 7965
  139.5232  144.3140  152.0969 LP  0  0  0  0  0  0  0  0  0  0  0  0  # atno 17342 bound_to 10162
  140.2305  144.4373  150.6302 LP  0  0  0  0  0  0  0  0  0  0  0  0  # atno 17343 bound_to 10162
  157.7476  131.0392  150.4541 LP  0  0  0  0  0  0  0  0  0  0  0  0  # atno 17370 bound_to 10713
  156.4756  130.4062  149.6492 LP  0  0  0  0  0  0  0  0  0  0  0  0  # atno 17371 bound_to 10713
  140.2455  134.3745  155.7463 LP  0  0  0  0  0  0  0  0  0  0  0  0  # atno 17394 bound_to 11000
  141.2212  133.7288  156.8854 LP  0  0  0  0  0  0  0  0  0  0  0  0  # atno 17395 bound_to 11000

$$$$
