AV-unprocessed.smi:292|AV-procd|sdf|2249|dock3
  -GOLD-   2262022133D 1   1.00000     0.00000
 Structure written by MMmdl.
 33 34  0  0  0  0  0  0  0  0  1 V2000
  149.3537  133.1431  154.9448 N   0  0  0  0  0  0  0  0  0  0  0  0
  149.6444  134.2631  154.9306 C   0  0  0  0  0  0  0  0  0  0  0  0
  150.0092  135.6695  154.9126 C   0  0  0  0  0  0  0  0  0  0  0  0
  151.2775  136.0728  154.6106 N   0  0  0  0  0  0  0  0  0  0  0  0
  151.1104  137.3839  154.7294 C   0  0  0  0  0  0  0  0  0  0  0  0
  149.8689  137.7451  155.0711 N   0  0  0  0  0  0  0  0  0  0  0  0
  149.3036  139.0630  155.3167 C   0  0  0  0  0  0  0  0  0  0  0  0
  150.2921  140.0377  155.9736 C   0  0  0  0  0  0  0  0  0  0  0  0
  151.2803  140.4099  155.3421 O   0  0  0  0  0  0  0  0  0  0  0  0
  150.0380  140.4317  157.2333 N   0  0  0  0  0  0  0  0  0  0  0  0
  150.8362  141.3646  158.0259 C   0  0  2  0  0  0  0  0  0  0  0  0
  150.7203  142.8019  157.4551 C   0  0  0  0  0  0  0  0  0  0  0  0
  151.9144  143.7403  157.7277 C   0  0  0  0  0  0  0  0  0  0  0  0
  152.3141  143.8943  159.2090 C   0  0  0  0  0  0  0  0  0  0  0  0
  152.6043  142.5895  159.9880 C   0  0  0  0  0  0  0  0  0  0  0  0
  153.0360  141.4722  159.1491 N   0  0  0  0  0  0  0  0  0  0  0  0
  152.2718  140.8450  158.2383 C   0  0  0  0  0  0  0  0  0  0  0  0
  152.7033  139.8991  157.5797 O   0  0  0  0  0  0  0  0  0  0  0  0
  149.1209  136.6208  155.1928 N   0  0  0  0  0  0  0  0  0  0  0  0
  151.9089  138.0944  154.5734 H   0  0  0  0  0  0  0  0  0  0  0  0
  148.9685  139.4829  154.3677 H   0  0  0  0  0  0  0  0  0  0  0  0
  148.4212  138.9544  155.9490 H   0  0  0  0  0  0  0  0  0  0  0  0
  149.2002  140.0803  157.6746 H   0  0  0  0  0  0  0  0  0  0  0  0
  150.3898  141.3726  159.0213 H   0  0  0  0  0  0  0  0  0  0  0  0
  150.5891  142.7500  156.3733 H   0  0  0  0  0  0  0  0  0  0  0  0
  149.8076  143.2603  157.8377 H   0  0  0  0  0  0  0  0  0  0  0  0
  152.7787  143.4016  157.1547 H   0  0  0  0  0  0  0  0  0  0  0  0
  151.6804  144.7266  157.3262 H   0  0  0  0  0  0  0  0  0  0  0  0
  153.2060  144.5209  159.2440 H   0  0  0  0  0  0  0  0  0  0  0  0
  151.5436  144.4561  159.7383 H   0  0  0  0  0  0  0  0  0  0  0  0
  153.3750  142.7769  160.7359 H   0  0  0  0  0  0  0  0  0  0  0  0
  151.7227  142.2896  160.5556 H   0  0  0  0  0  0  0  0  0  0  0  0
  153.9804  141.1397  159.2812 H   0  0  0  0  0  0  0  0  0  0  0  0
  1  2  3  0  0  0  0
  2  3  1  0  0  0  0
  3 19  2  0  0  0  0
  3  4  1  0  0  0  0
  4  5  2  0  0  0  0
  5  6  1  0  0  0  0
  5 20  1  0  0  0  0
  6  7  1  0  0  0  0
  6 19  1  0  0  0  0
  7  8  1  0  0  0  0
  7 21  1  0  0  0  0
  7 22  1  0  0  0  0
  8  9  2  0  0  0  0
  8 10  1  0  0  0  0
 10 11  1  0  0  0  0
 10 23  1  0  0  0  0
 11 17  1  0  0  0  0
 11 12  1  0  0  0  0
 11 24  1  0  0  0  0
 12 13  1  0  0  0  0
 12 25  1  0  0  0  0
 12 26  1  0  0  0  0
 13 14  1  0  0  0  0
 13 27  1  0  0  0  0
 13 28  1  0  0  0  0
 14 15  1  0  0  0  0
 14 29  1  0  0  0  0
 14 30  1  0  0  0  0
 15 16  1  0  0  0  0
 15 31  1  0  0  0  0
 15 32  1  0  0  0  0
 16 17  1  0  0  0  0
 16 33  1  0  0  0  0
 17 18  2  0  0  0  0
M  END
> <s_m_source_file>
AV-unprocessed.smi

> <i_m_source_file_index>
292

> <i_lp_mmshare_version>
43012

> <i_f3d_flags>
0

> <s_epik_input>
TiNDYzFuW2NIXW4objEpW0NIMl1DKD1PKVtOSF1bQ0BASF0yW0NIMl1bQ0gyXVtDSDJdW0NIMl1bTkhdQzI9Tw==

> <s_epik_cmdline>
J2VwaWtfcHl0aG9uJywgJy1waCcsICc3LjAnLCAnLXRuJywgJzgnLCAnLW1hJywgJzIwMCcsICctbWV0YWxfYmluZGluZycsICctaW1hZScsICc8aW5maWxlLm1hZT4nLCAnLW9tYWUnLCAnPG91dGZpbGUubWFlPic=

> <r_lp_tautomer_probability>
1

> <r_epik_Ionization_Penalty>
1.99744e-07

> <r_epik_Ionization_Penalty_Charging>
0

> <r_epik_Ionization_Penalty_Neutral>
1.99744e-07

> <r_epik_State_Penalty>
-0

> <r_epik_Charging_Adjusted_Penalty>
0

> <i_epik_Tot_Q>
0

> <i_epik_Tot_abs_Q>
0

> <r_epik_Metal_State_Penalty>
-0

> <b_epik_Metal_Only>
0

> <s_lp_Force_Field>
OPLS_2005

> <r_lp_Energy>
19.194

> <b_lp_Chiralities_Consistent>
1

> <s_lp_Variant>
AV-unprocessed.smi:292-1

> <Gold.Version>
5.8.1

> <Gold.Id.Protein>
6NUR|6NUR_protein|mol2

> <Gold.PLP.Fitness>
38.8336

> <Gold.PLP.PLP>
-30.7744

> <Gold.PLP.part.hbond>
-3.0000

> <Gold.PLP.part.metal>
0.0000

> <Gold.PLP.part.buried>
-5.6562

> <Gold.PLP.part.nonpolar>
-24.4358

> <Gold.PLP.part.repulsive>
0.4637

> <Gold.PLP.ligand.clash>
0.0000

> <Gold.PLP.ligand.torsion>
0.4379

> <Gold.PLP.Chemscore.Hbond>
2.9600

> <Gold.PLP.Chemscore.CHOScore>
0.0000

> <Gold.PLP.Chemscore.Metal>
0.0000

> <Gold.Chemscore.Hbonds>
donor molecule, donor type, donor heavy atom, donor atom, acceptor molecule, acceptor atom, score
      P1  H  7989  7998       L1     9  0.94
      P1  H  7997  8010       L1    18  0.99
      P1  H 10752 10763       L1     4  1.00

> <Gold.PLP.Chemscore.Internal.Correction>
0.0550

> <Gold.Rescore>
     Score         DG    S(hbond)    S(metal)    S(lipo)     H(rot)  DE(clash)    DE(int)     intcor
     12.76     -15.68       2.83        0.00      53.19       2.14       0.04       2.87       ----

> <Gold.Chemscore.Fitness>
12.7555

> <Gold.Chemscore.DG>
-15.6750

> <Gold.Chemscore.ZeroCoef>
-5.4800

> <Gold.Chemscore.Hbond>
2.8327

> <Gold.Chemscore.Metal>
0.0000

> <Gold.Chemscore.Lipo>
53.1912

> <Gold.Chemscore.Internal_Hbond>
0.0000

> <Gold.Chemscore.DEClash>
0.0449

> <Gold.Chemscore.DEInternal>
2.8746

> <Gold.Chemscore.Rot>
2.1444

> <Gold.Chemscore.Internal.Correction>
   9.000000E+99

> <Gold.Chemscore.Hbonds>
donor molecule, donor type, donor heavy atom, donor atom, acceptor molecule, acceptor atom, score
      P1  H  7989  7998       L1     9  0.91
      P1  H  7997  8010       L1    18  0.86
      P1  H 10752 10763       L1     4  0.88

> <Gold.Chemscore.Hbond.Weighted>
-9.4613

> <Gold.Chemscore.Metal.Weighted>
-0.0000

> <Gold.Chemscore.Lipo.Weighted>
-6.2234

> <Gold.Chemscore.Internal_Hbond.Weighted>
0.0000

> <Gold.Chemscore.DEClash.Weighted>
0.0449

> <Gold.Chemscore.DEInternal.Weighted>
2.8746

> <Gold.Chemscore.Rot.Weighted>
5.4896

> <Gold.Chemscore.Internal.Correction.Weighted>
   9.000000E+99

> <Gold.Protein.RotatedTorsions>
[ 6907 6896 6895 6894 ] final  -44.47 input  -60.11 | X-H torsion
[ 7974 7965 7964 7962 ] final -108.59 input  175.53 | X-H torsion
[ 8008 7997 7996 7995 ] final   36.05 input   59.86 | X-H torsion
[ 10167 10162 10161 10158 ] final -170.90 input  -65.29 | X-H torsion
[ 10718 10713 10712 10709 ] final   79.16 input   66.30 | X-H torsion
[ 10763 10752 10751 10750 ] final   56.39 input  -60.55 | X-H torsion
[ 11005 11000 10999 10996 ] final  -29.20 input  -57.11 | X-H torsion

> <Gold.Protein.ActiveResidues>
 VAL166  LYS551  ARG553  GLY616  TRP617  ASP618  TYR619  PRO620  LYS621  CYS622 
 ASP623  PHE694  ASN695  SER759  ASP760  ASP761  ALA762  ILE779  LEU786  VAL792 
 PHE793  MET794  SER795  GLU796  ALA797  LYS798  CYS799  TRP800  GLU811  SER814 

> <Gold.Protein.RotatedAtoms>
  150.9325  134.8739  159.7560 H   0  0  0  0  0  0  0  0  0  0  0  0  # atno 6907 bound_to 6896
  152.5044  134.4058  159.9442 H   0  0  0  0  0  0  0  0  0  0  0  0  # atno 6908 bound_to 6896
  151.4084  133.3695  159.2776 H   0  0  0  0  0  0  0  0  0  0  0  0  # atno 6909 bound_to 6896
  145.1910  140.9014  143.3425 H   0  0  0  0  0  0  0  0  0  0  0  0  # atno 7974 bound_to 7965
  155.1811  140.3300  155.4375 H   0  0  0  0  0  0  0  0  0  0  0  0  # atno 8008 bound_to 7997
  156.2476  140.1926  156.6860 H   0  0  0  0  0  0  0  0  0  0  0  0  # atno 8009 bound_to 7997
  154.6270  140.0587  156.9672 H   0  0  0  0  0  0  0  0  0  0  0  0  # atno 8010 bound_to 7997
  139.5834  144.1372  152.1545 H   0  0  0  0  0  0  0  0  0  0  0  0  # atno 10167 bound_to 10162
  157.6768  130.9901  150.1892 H   0  0  0  0  0  0  0  0  0  0  0  0  # atno 10718 bound_to 10713
  152.9831  135.5678  154.5221 H   0  0  0  0  0  0  0  0  0  0  0  0  # atno 10763 bound_to 10752
  154.4707  135.2785  155.1647 H   0  0  0  0  0  0  0  0  0  0  0  0  # atno 10764 bound_to 10752
  154.3196  135.6271  153.5555 H   0  0  0  0  0  0  0  0  0  0  0  0  # atno 10765 bound_to 10752
  140.9276  133.7359  156.0889 H   0  0  0  0  0  0  0  0  0  0  0  0  # atno 11005 bound_to 11000
  145.0041  139.3570  143.6152 LP  0  0  0  0  0  0  0  0  0  0  0  0  # atno 17320 bound_to 7965
  146.3436  139.9277  142.8758 LP  0  0  0  0  0  0  0  0  0  0  0  0  # atno 17321 bound_to 7965
  140.0930  144.5604  150.7041 LP  0  0  0  0  0  0  0  0  0  0  0  0  # atno 17342 bound_to 10162
  140.7109  143.2504  151.4583 LP  0  0  0  0  0  0  0  0  0  0  0  0  # atno 17343 bound_to 10162
  156.2607  130.3710  149.8133 LP  0  0  0  0  0  0  0  0  0  0  0  0  # atno 17370 bound_to 10713
  156.5879  130.8494  151.3400 LP  0  0  0  0  0  0  0  0  0  0  0  0  # atno 17371 bound_to 10713
  140.7906  134.3622  157.5465 LP  0  0  0  0  0  0  0  0  0  0  0  0  # atno 17394 bound_to 11000
  139.8789  134.9138  156.3091 LP  0  0  0  0  0  0  0  0  0  0  0  0  # atno 17395 bound_to 11000

$$$$
