AV-unprocessed.smi:3076|AV-procd|sdf|11725|dock5
  -GOLD-   2272017123D 1   1.00000     0.00000
 Structure written by MMmdl.
 21 21  0  0  0  0  0  0  0  0  2 V2000
  147.8530  139.0147  152.5631 N   0  3  0  0  0  0  0  0  0  0  0  0
  147.9028  139.2561  154.0157 C   0  0  0  0  0  0  0  0  0  0  0  0
  149.0389  140.2234  154.3939 C   0  0  2  0  0  0  0  0  0  0  0  0
  149.2748  141.0954  153.3055 O   0  0  0  0  0  0  0  0  0  0  0  0
  150.2950  139.4657  154.7936 C   0  0  0  0  0  0  0  0  0  0  0  0
  150.4193  138.0761  154.5736 C   0  0  0  0  0  0  0  0  0  0  0  0
  151.6018  137.4258  154.9754 C   0  0  0  0  0  0  0  0  0  0  0  0
  152.6153  138.1922  155.5842 C   0  0  0  0  0  0  0  0  0  0  0  0
  152.5085  139.5203  155.8027 N   0  0  0  0  0  0  0  0  0  0  0  0
  151.3717  140.1365  155.4142 C   0  0  0  0  0  0  0  0  0  0  0  0
  148.2186  138.0955  152.3591 H   0  0  0  0  0  0  0  0  0  0  0  0
  148.4118  139.7128  152.0927 H   0  0  0  0  0  0  0  0  0  0  0  0
  146.9410  139.6702  154.3202 H   0  0  0  0  0  0  0  0  0  0  0  0
  148.0170  138.3017  154.5316 H   0  0  0  0  0  0  0  0  0  0  0  0
  148.7234  140.8367  155.2394 H   0  0  0  0  0  0  0  0  0  0  0  0
  149.0795  140.6352  152.5026 H   0  0  0  0  0  0  0  0  0  0  0  0
  149.6227  137.5147  154.1073 H   0  0  0  0  0  0  0  0  0  0  0  0
  151.7295  136.3644  154.8214 H   0  0  0  0  0  0  0  0  0  0  0  0
  153.5346  137.7256  155.9057 H   0  0  0  0  0  0  0  0  0  0  0  0
  151.3206  141.1981  155.6081 H   0  0  0  0  0  0  0  0  0  0  0  0
  146.8976  139.0780  152.2424 H   0  0  0  0  0  0  0  0  0  0  0  0
  1  2  1  0  0  0  0
  1 11  1  0  0  0  0
  1 12  1  0  0  0  0
  1 21  1  0  0  0  0
  2  3  1  0  0  0  0
  2 13  1  0  0  0  0
  2 14  1  0  0  0  0
  3  4  1  0  0  0  0
  3  5  1  0  0  0  0
  3 15  1  0  0  0  0
  4 16  1  0  0  0  0
  5 10  1  0  0  0  0
  5  6  2  0  0  0  0
  6  7  1  0  0  0  0
  6 17  1  0  0  0  0
  7  8  2  0  0  0  0
  7 18  1  0  0  0  0
  8  9  1  0  0  0  0
  8 19  1  0  0  0  0
  9 10  2  0  0  0  0
 10 20  1  0  0  0  0
M  CHG  1   1   1
M  END
> <s_m_source_file>
AV-unprocessed.smi

> <i_m_source_file_index>
3076

> <i_lp_mmshare_version>
43012

> <i_f3d_flags>
0

> <s_epik_input>
W05IMl1bQ0gyXVtDQEhdKFtPSF0pYzFbY0hdW2NIXVtjSF1uW2NIXTE=

> <s_epik_cmdline>
J2VwaWtfcHl0aG9uJywgJy1waCcsICc3LjAnLCAnLXRuJywgJzgnLCAnLW1hJywgJzIwMCcsICctbWV0YWxfYmluZGluZycsICctaW1hZScsICc8aW5maWxlLm1hZT4nLCAnLW9tYWUnLCAnPG91dGZpbGUubWFlPic=

> <r_epik_Ionization_Penalty>
0.0145342

> <r_epik_Ionization_Penalty_Charging>
0.0140431

> <r_epik_Ionization_Penalty_Neutral>
0.000491123

> <r_epik_State_Penalty>
0.0109628

> <r_epik_Charging_Adjusted_Penalty>
0.0250059

> <i_epik_Tot_Q>
1

> <i_epik_Tot_abs_Q>
1

> <r_epik_Metal_State_Penalty>
0.0109916

> <b_epik_Metal_Only>
0

> <s_lp_Force_Field>
OPLS_2005

> <r_lp_Energy>
5.00299

> <b_lp_Chiralities_Consistent>
1

> <s_lp_Variant>
AV-unprocessed.smi:3076-1

> <Gold.Version>
5.8.1

> <Gold.Id.Protein>
6NUR|6NUR_protein|mol2

> <Gold.PLP.Fitness>
37.8418

> <Gold.PLP.PLP>
-22.7564

> <Gold.PLP.part.hbond>
-5.3238

> <Gold.PLP.part.metal>
0.0000

> <Gold.PLP.part.buried>
-2.3157

> <Gold.PLP.part.nonpolar>
-15.9498

> <Gold.PLP.part.repulsive>
0.0713

> <Gold.PLP.ligand.clash>
0.0000

> <Gold.PLP.ligand.torsion>
0.6449

> <Gold.PLP.Chemscore.Hbond>
5.4560

> <Gold.PLP.Chemscore.CHOScore>
0.0000

> <Gold.PLP.Chemscore.Metal>
0.0000

> <Gold.Chemscore.Hbonds>
donor molecule, donor type, donor heavy atom, donor atom, acceptor molecule, acceptor atom, score
      L1  H     1    11       P1  7948  1.95
      L1  H     1    12       P1  7957  0.96
      L1  H     4    16       P1  7957  0.96
      P1  H  7989  7998       L1     4  0.03
      P1  H  7997  8009       L1     9  1.00
      P1  H  8011  8017       L1     4  0.35

> <Gold.PLP.Chemscore.Internal.Correction>
0.0070

> <Gold.Rescore>
     Score         DG    S(hbond)    S(metal)    S(lipo)     H(rot)  DE(clash)    DE(int)     intcor
     17.98     -18.61       3.80        0.00      45.13       1.90       0.11       0.52       ----

> <Gold.Chemscore.Fitness>
17.9794

> <Gold.Chemscore.DG>
-18.6067

> <Gold.Chemscore.ZeroCoef>
-5.4800

> <Gold.Chemscore.Hbond>
3.8042

> <Gold.Chemscore.Metal>
0.0000

> <Gold.Chemscore.Lipo>
45.1268

> <Gold.Chemscore.Internal_Hbond>
0.0000

> <Gold.Chemscore.DEClash>
0.1115

> <Gold.Chemscore.DEInternal>
0.5159

> <Gold.Chemscore.Rot>
1.8981

> <Gold.Chemscore.Internal.Correction>
   9.000000E+99

> <Gold.Chemscore.Hbonds>
donor molecule, donor type, donor heavy atom, donor atom, acceptor molecule, acceptor atom, score
      L1  H     1    11       P1  7948  0.92
      L1  H     1    12       P1  7957  0.86
      L1  H     4    16       P1  7957  0.88
      P1  H  7997  8009       L1     9  0.54
      P1  H  8011  8017       L1     4  0.01

> <Gold.Chemscore.Hbond.Weighted>
-12.7061

> <Gold.Chemscore.Metal.Weighted>
-0.0000

> <Gold.Chemscore.Lipo.Weighted>
-5.2798

> <Gold.Chemscore.Internal_Hbond.Weighted>
0.0000

> <Gold.Chemscore.DEClash.Weighted>
0.1115

> <Gold.Chemscore.DEInternal.Weighted>
0.5159

> <Gold.Chemscore.Rot.Weighted>
4.8592

> <Gold.Chemscore.Internal.Correction.Weighted>
   9.000000E+99

> <Gold.Protein.RotatedTorsions>
[ 6907 6896 6895 6894 ] final  -24.89 input  -60.11 | X-H torsion
[ 7974 7965 7964 7962 ] final -174.65 input  175.53 | X-H torsion
[ 8008 7997 7996 7995 ] final -153.91 input   59.86 | X-H torsion
[ 10167 10162 10161 10158 ] final  130.45 input  -65.29 | X-H torsion
[ 10718 10713 10712 10709 ] final    3.04 input   66.30 | X-H torsion
[ 10763 10752 10751 10750 ] final  -57.33 input  -60.55 | X-H torsion
[ 11005 11000 10999 10996 ] final  -88.36 input  -57.11 | X-H torsion

> <Gold.Protein.ActiveResidues>
 VAL166  LYS551  ARG553  GLY616  TRP617  ASP618  TYR619  PRO620  LYS621  CYS622 
 ASP623  PHE694  ASN695  SER759  ASP760  ASP761  ALA762  ILE779  LEU786  VAL792 
 PHE793  MET794  SER795  GLU796  ALA797  LYS798  CYS799  TRP800  GLU811  SER814 

> <Gold.Protein.RotatedAtoms>
  151.1831  135.0369  159.8800 H   0  0  0  0  0  0  0  0  0  0  0  0  # atno 6907 bound_to 6896
  152.5444  134.1041  159.8340 H   0  0  0  0  0  0  0  0  0  0  0  0  # atno 6908 bound_to 6896
  151.1160  133.5091  159.2636 H   0  0  0  0  0  0  0  0  0  0  0  0  # atno 6909 bound_to 6896
  144.7131  140.1439  143.6389 H   0  0  0  0  0  0  0  0  0  0  0  0  # atno 7974 bound_to 7965
  155.6781  140.0741  157.2495 H   0  0  0  0  0  0  0  0  0  0  0  0  # atno 8008 bound_to 7997
  154.4110  140.1687  156.2004 H   0  0  0  0  0  0  0  0  0  0  0  0  # atno 8009 bound_to 7997
  155.9558  140.3374  155.6451 H   0  0  0  0  0  0  0  0  0  0  0  0  # atno 8010 bound_to 7997
  139.5429  144.6747  151.4565 H   0  0  0  0  0  0  0  0  0  0  0  0  # atno 10167 bound_to 10162
  156.8719  130.5623  149.5657 H   0  0  0  0  0  0  0  0  0  0  0  0  # atno 10718 bound_to 10713
  154.2208  135.6378  153.5144 H   0  0  0  0  0  0  0  0  0  0  0  0  # atno 10763 bound_to 10752
  152.9969  135.5496  154.6116 H   0  0  0  0  0  0  0  0  0  0  0  0  # atno 10764 bound_to 10752
  154.5576  135.2906  155.0924 H   0  0  0  0  0  0  0  0  0  0  0  0  # atno 10765 bound_to 10752
  141.1603  133.7565  156.9441 H   0  0  0  0  0  0  0  0  0  0  0  0  # atno 11005 bound_to 11000
  145.9177  139.2526  143.1400 LP  0  0  0  0  0  0  0  0  0  0  0  0  # atno 17320 bound_to 7965
  145.9652  140.8804  143.0190 LP  0  0  0  0  0  0  0  0  0  0  0  0  # atno 17321 bound_to 7965
  140.6667  143.8383  150.6950 LP  0  0  0  0  0  0  0  0  0  0  0  0  # atno 17342 bound_to 10162
  140.1795  143.4127  152.1943 LP  0  0  0  0  0  0  0  0  0  0  0  0  # atno 17343 bound_to 10162
  156.0722  130.5752  150.9405 LP  0  0  0  0  0  0  0  0  0  0  0  0  # atno 17370 bound_to 10713
  157.6191  131.0931  150.8656 LP  0  0  0  0  0  0  0  0  0  0  0  0  # atno 17371 bound_to 10713
  140.1302  134.9361  157.2326 LP  0  0  0  0  0  0  0  0  0  0  0  0  # atno 17394 bound_to 11000
  140.2963  134.3183  155.7301 LP  0  0  0  0  0  0  0  0  0  0  0  0  # atno 17395 bound_to 11000

$$$$
