AV-unprocessed.smi:1144|AV-procd|sdf|4878|dock3
  -GOLD-   22720 3453D 1   1.00000     0.00000
 Structure written by MMmdl.
 35 36  0  0  0  0  0  0  0  0  2 V2000
  147.0901  137.7792  154.6541 C   0  0  0  0  0  0  0  0  0  0  0  0
  147.8544  138.4787  153.5953 N   0  3  1  0  0  0  0  0  0  0  0  0
  147.0696  139.5102  152.8764 C   0  0  0  0  0  0  0  0  0  0  0  0
  146.9706  140.8094  153.6958 C   0  0  0  0  0  0  0  0  0  0  0  0
  148.2777  141.2573  154.0294 O   0  0  0  0  0  0  0  0  0  0  0  0
  148.9834  140.3307  154.8495 C   0  0  2  0  0  0  0  0  0  0  0  0
  150.3423  140.9407  155.2327 C   0  0  0  0  0  0  0  0  0  0  0  0
  150.2117  142.0120  156.2116 N   0  0  0  0  0  0  0  0  0  0  0  0
  150.8599  142.0512  157.4330 C   0  0  0  0  0  0  0  0  0  0  0  0
  151.3944  140.9210  157.9088 N   0  0  0  0  0  0  0  0  0  0  0  0
  152.0221  140.9928  159.1021 C   0  0  0  0  0  0  0  0  0  0  0  0
  152.1145  142.2013  159.8196 C   0  0  0  0  0  0  0  0  0  0  0  0
  151.5122  143.3316  159.2232 C   0  0  0  0  0  0  0  0  0  0  0  0
  151.5303  144.7016  159.8846 C   0  0  0  0  0  0  0  0  0  0  0  0
  150.2809  145.1334  160.0576 F   0  0  0  0  0  0  0  0  0  0  0  0
  152.1333  144.6632  161.0734 F   0  0  0  0  0  0  0  0  0  0  0  0
  152.1819  145.5671  159.1082 F   0  0  0  0  0  0  0  0  0  0  0  0
  150.8852  143.2459  158.0265 N   0  0  0  0  0  0  0  0  0  0  0  0
  149.1572  139.0181  154.0551 C   0  0  0  0  0  0  0  0  0  0  0  0
  146.7932  138.4541  155.4569 H   0  0  0  0  0  0  0  0  0  0  0  0
  147.6864  136.9763  155.0887 H   0  0  0  0  0  0  0  0  0  0  0  0
  146.1872  137.3300  154.2392 H   0  0  0  0  0  0  0  0  0  0  0  0
  147.5688  139.7206  151.9297 H   0  0  0  0  0  0  0  0  0  0  0  0
  146.0781  139.1308  152.6261 H   0  0  0  0  0  0  0  0  0  0  0  0
  146.4734  141.5834  153.1110 H   0  0  0  0  0  0  0  0  0  0  0  0
  146.3771  140.6675  154.5999 H   0  0  0  0  0  0  0  0  0  0  0  0
  148.4158  140.1384  155.7616 H   0  0  0  0  0  0  0  0  0  0  0  0
  150.9677  140.1715  155.6860 H   0  0  0  0  0  0  0  0  0  0  0  0
  150.8776  141.2859  154.3475 H   0  0  0  0  0  0  0  0  0  0  0  0
  149.7151  142.8464  155.9343 H   0  0  0  0  0  0  0  0  0  0  0  0
  152.4529  140.0803  159.4867 H   0  0  0  0  0  0  0  0  0  0  0  0
  152.6185  142.2500  160.7736 H   0  0  0  0  0  0  0  0  0  0  0  0
  149.6837  138.2704  154.6497 H   0  0  0  0  0  0  0  0  0  0  0  0
  149.7760  139.2047  153.1763 H   0  0  0  0  0  0  0  0  0  0  0  0
  148.0700  137.7648  152.9138 H   0  0  0  0  0  0  0  0  0  0  0  0
  1  2  1  0  0  0  0
  1 20  1  0  0  0  0
  1 21  1  0  0  0  0
  1 22  1  0  0  0  0
  2 19  1  0  0  0  0
  2  3  1  0  0  0  0
  2 35  1  0  0  0  0
  3  4  1  0  0  0  0
  3 23  1  0  0  0  0
  3 24  1  0  0  0  0
  4  5  1  0  0  0  0
  4 25  1  0  0  0  0
  4 26  1  0  0  0  0
  5  6  1  0  0  0  0
  6  7  1  0  0  0  0
  6 19  1  0  0  0  0
  6 27  1  0  0  0  0
  7  8  1  0  0  0  0
  7 28  1  0  0  0  0
  7 29  1  0  0  0  0
  8  9  1  0  0  0  0
  8 30  1  0  0  0  0
  9 18  1  0  0  0  0
  9 10  2  0  0  0  0
 10 11  1  0  0  0  0
 11 12  2  0  0  0  0
 11 31  1  0  0  0  0
 12 13  1  0  0  0  0
 12 32  1  0  0  0  0
 13 14  1  0  0  0  0
 13 18  2  0  0  0  0
 14 15  1  0  0  0  0
 14 16  1  0  0  0  0
 14 17  1  0  0  0  0
 19 33  1  0  0  0  0
 19 34  1  0  0  0  0
M  CHG  1   2   1
M  END
> <s_m_source_file>
AV-unprocessed.smi

> <i_m_source_file_index>
1144

> <i_lp_mmshare_version>
43012

> <i_f3d_flags>
0

> <s_epik_input>
W0NIM11OMVtDSDJdW0NIMl1PW0NASF0oW0NIMl0xKVtDSDJdW05IXWMybltjSF1bY0hdYyhuMilDKEYpKEYpRg==

> <s_epik_cmdline>
J2VwaWtfcHl0aG9uJywgJy1waCcsICc3LjAnLCAnLXRuJywgJzgnLCAnLW1hJywgJzIwMCcsICctbWV0YWxfYmluZGluZycsICctaW1hZScsICc8aW5maWxlLm1hZT4nLCAnLW9tYWUnLCAnPG91dGZpbGUubWFlPic=

> <r_lp_tautomer_probability>
1

> <r_epik_Ionization_Penalty>
0.178506

> <r_epik_Ionization_Penalty_Charging>
0.178504

> <r_epik_Ionization_Penalty_Neutral>
2.47225e-06

> <r_epik_State_Penalty>
0.167974

> <r_epik_Charging_Adjusted_Penalty>
0.346478

> <i_epik_Tot_Q>
1

> <i_epik_Tot_abs_Q>
1

> <r_epik_Metal_State_Penalty>
0.167974

> <b_epik_Metal_Only>
0

> <s_lp_Force_Field>
OPLS_2005

> <r_lp_Energy>
11.1237

> <b_lp_Chiralities_Consistent>
1

> <s_lp_Variant>
AV-unprocessed.smi:1144-3

> <Gold.Version>
5.8.1

> <Gold.Id.Protein>
6NUR|6NUR_protein|mol2

> <Gold.PLP.Fitness>
44.7096

> <Gold.PLP.PLP>
-36.3450

> <Gold.PLP.part.hbond>
-1.8543

> <Gold.PLP.part.metal>
0.0000

> <Gold.PLP.part.buried>
-3.0425

> <Gold.PLP.part.nonpolar>
-30.9657

> <Gold.PLP.part.repulsive>
0.3867

> <Gold.PLP.ligand.clash>
0.0000

> <Gold.PLP.ligand.torsion>
0.1605

> <Gold.PLP.Chemscore.Hbond>
2.8938

> <Gold.PLP.Chemscore.CHOScore>
0.0000

> <Gold.PLP.Chemscore.Metal>
0.0000

> <Gold.Chemscore.Hbonds>
donor molecule, donor type, donor heavy atom, donor atom, acceptor molecule, acceptor atom, score
      L1  H     2    35       P1  7948  1.92
      L1  H     8    30       P1  8028  0.91

> <Gold.PLP.Chemscore.Internal.Correction>
0.0043

> <Gold.Rescore>
     Score         DG    S(hbond)    S(metal)    S(lipo)     H(rot)  DE(clash)    DE(int)     intcor
     16.11     -16.50       1.78        0.00      72.70       1.34       0.24       0.15       ----

> <Gold.Chemscore.Fitness>
16.1090

> <Gold.Chemscore.DG>
-16.4982

> <Gold.Chemscore.ZeroCoef>
-5.4800

> <Gold.Chemscore.Hbond>
1.7777

> <Gold.Chemscore.Metal>
0.0000

> <Gold.Chemscore.Lipo>
72.6982

> <Gold.Chemscore.Internal_Hbond>
0.0000

> <Gold.Chemscore.DEClash>
0.2427

> <Gold.Chemscore.DEInternal>
0.1464

> <Gold.Chemscore.Rot>
1.3379

> <Gold.Chemscore.Internal.Correction>
   9.000000E+99

> <Gold.Chemscore.Hbonds>
donor molecule, donor type, donor heavy atom, donor atom, acceptor molecule, acceptor atom, score
      L1  H     2    35       P1  7948  0.91
      L1  H     8    30       P1  8028  0.87

> <Gold.Chemscore.Hbond.Weighted>
-5.9375

> <Gold.Chemscore.Metal.Weighted>
-0.0000

> <Gold.Chemscore.Lipo.Weighted>
-8.5057

> <Gold.Chemscore.Internal_Hbond.Weighted>
0.0000

> <Gold.Chemscore.DEClash.Weighted>
0.2427

> <Gold.Chemscore.DEInternal.Weighted>
0.1464

> <Gold.Chemscore.Rot.Weighted>
3.4250

> <Gold.Chemscore.Internal.Correction.Weighted>
   9.000000E+99

> <Gold.Protein.RotatedTorsions>
[ 6907 6896 6895 6894 ] final  -51.31 input  -60.11 | X-H torsion
[ 7974 7965 7964 7962 ] final -118.54 input  175.53 | X-H torsion
[ 8008 7997 7996 7995 ] final -150.68 input   59.86 | X-H torsion
[ 10167 10162 10161 10158 ] final   61.43 input  -65.29 | X-H torsion
[ 10718 10713 10712 10709 ] final   35.56 input   66.30 | X-H torsion
[ 10763 10752 10751 10750 ] final   61.20 input  -60.55 | X-H torsion
[ 11005 11000 10999 10996 ] final   -9.78 input  -57.11 | X-H torsion

> <Gold.Protein.ActiveResidues>
 VAL166  LYS551  ARG553  GLY616  TRP617  ASP618  TYR619  PRO620  LYS621  CYS622 
 ASP623  PHE694  ASN695  SER759  ASP760  ASP761  ALA762  ILE779  LEU786  VAL792 
 PHE793  MET794  SER795  GLU796  ALA797  LYS798  CYS799  TRP800  GLU811  SER814 

> <Gold.Protein.RotatedAtoms>
  150.8623  134.7978  159.7092 H   0  0  0  0  0  0  0  0  0  0  0  0  # atno 6907 bound_to 6896
  152.4656  134.5080  159.9755 H   0  0  0  0  0  0  0  0  0  0  0  0  # atno 6908 bound_to 6896
  151.5181  133.3433  159.2932 H   0  0  0  0  0  0  0  0  0  0  0  0  # atno 6909 bound_to 6896
  145.0727  140.8370  143.4086 H   0  0  0  0  0  0  0  0  0  0  0  0  # atno 7974 bound_to 7965
  155.6273  140.0688  157.2659 H   0  0  0  0  0  0  0  0  0  0  0  0  # atno 8008 bound_to 7997
  154.4214  140.1773  156.1484 H   0  0  0  0  0  0  0  0  0  0  0  0  # atno 8009 bound_to 7997
  155.9961  140.3340  155.6803 H   0  0  0  0  0  0  0  0  0  0  0  0  # atno 8010 bound_to 7997
  140.1549  144.4427  150.6740 H   0  0  0  0  0  0  0  0  0  0  0  0  # atno 10167 bound_to 10162
  157.3241  130.7464  149.6804 H   0  0  0  0  0  0  0  0  0  0  0  0  # atno 10718 bound_to 10713
  152.9943  135.5509  154.5996 H   0  0  0  0  0  0  0  0  0  0  0  0  # atno 10763 bound_to 10752
  154.5340  135.2815  155.1157 H   0  0  0  0  0  0  0  0  0  0  0  0  # atno 10764 bound_to 10752
  154.2460  135.6407  153.5276 H   0  0  0  0  0  0  0  0  0  0  0  0  # atno 10765 bound_to 10752
  140.7377  133.8696  155.8943 H   0  0  0  0  0  0  0  0  0  0  0  0  # atno 11005 bound_to 11000
  145.1273  139.2654  143.5557 LP  0  0  0  0  0  0  0  0  0  0  0  0  # atno 17320 bound_to 7965
  146.3529  140.0914  142.8612 LP  0  0  0  0  0  0  0  0  0  0  0  0  # atno 17321 bound_to 7965
  140.6679  143.2275  151.5696 LP  0  0  0  0  0  0  0  0  0  0  0  0  # atno 17342 bound_to 10162
  139.5408  144.2652  152.1347 LP  0  0  0  0  0  0  0  0  0  0  0  0  # atno 17343 bound_to 10162
  155.9689  130.4214  150.4469 LP  0  0  0  0  0  0  0  0  0  0  0  0  # atno 17370 bound_to 10713
  157.2490  131.0542  151.2391 LP  0  0  0  0  0  0  0  0  0  0  0  0  # atno 17371 bound_to 10713
  140.9864  134.1337  157.4448 LP  0  0  0  0  0  0  0  0  0  0  0  0  # atno 17394 bound_to 11000
  139.8812  135.0027  156.6141 LP  0  0  0  0  0  0  0  0  0  0  0  0  # atno 17395 bound_to 11000

$$$$
