AV-unprocessed.smi:2193|AV-procd|sdf|8898|dock6
  -GOLD-   2272012103D 1   1.00000     0.00000
 Structure written by MMmdl.
 40 42  0  0  0  0  0  0  0  0  1 V2000
  153.2042  139.0545  155.1754 O   0  0  0  0  0  0  0  0  0  0  0  0
  151.9092  139.3223  155.6674 C   0  0  0  0  0  0  0  0  0  0  0  0
  151.8920  140.3950  156.7138 C   0  0  0  0  0  0  0  0  0  0  0  0
  152.5297  140.2465  157.8756 N   0  0  0  0  0  0  0  0  0  0  0  0
  152.2802  141.4436  158.5166 C   0  0  0  0  0  0  0  0  0  0  0  0
  152.6896  141.9077  159.7873 C   0  0  0  0  0  0  0  0  0  0  0  0
  152.3112  143.1905  160.2347 C   0  0  0  0  0  0  0  0  0  0  0  0
  151.5217  144.0266  159.4190 C   0  0  0  0  0  0  0  0  0  0  0  0
  151.1035  143.5835  158.1494 C   0  0  0  0  0  0  0  0  0  0  0  0
  151.4804  142.3002  157.7090 C   0  0  0  0  0  0  0  0  0  0  0  0
  151.2387  141.5744  156.5461 N   0  0  0  0  0  0  0  0  0  0  0  0
  150.4587  142.0341  155.4029 C   0  0  0  0  0  0  0  0  0  0  0  0
  149.4451  140.9808  154.9100 C   0  0  2  0  0  0  0  0  0  0  0  0
  149.5656  140.8113  153.5123 O   0  0  0  0  0  0  0  0  0  0  0  0
  147.9947  141.3696  155.2302 C   0  0  0  0  0  0  0  0  0  0  0  0
  147.4709  142.1230  154.1440 O   0  0  0  0  0  0  0  0  0  0  0  0
  146.3536  142.8989  154.3651 C   0  0  0  0  0  0  0  0  0  0  0  0
  145.8586  143.6340  153.2677 C   0  0  0  0  0  0  0  0  0  0  0  0
  144.7209  144.4530  153.4024 C   0  0  0  0  0  0  0  0  0  0  0  0
  144.0644  144.5457  154.6434 C   0  0  0  0  0  0  0  0  0  0  0  0
  142.9703  145.3326  154.7753 F   0  0  0  0  0  0  0  0  0  0  0  0
  144.5476  143.8186  155.7472 C   0  0  0  0  0  0  0  0  0  0  0  0
  145.6852  142.9987  155.6120 C   0  0  0  0  0  0  0  0  0  0  0  0
  153.1734  139.0590  154.2312 H   0  0  0  0  0  0  0  0  0  0  0  0
  151.2804  139.6271  154.8300 H   0  0  0  0  0  0  0  0  0  0  0  0
  151.4691  138.4085  156.0664 H   0  0  0  0  0  0  0  0  0  0  0  0
  153.2970  141.2757  160.4184 H   0  0  0  0  0  0  0  0  0  0  0  0
  152.6296  143.5349  161.2077 H   0  0  0  0  0  0  0  0  0  0  0  0
  151.2371  145.0084  159.7684 H   0  0  0  0  0  0  0  0  0  0  0  0
  150.4995  144.2224  157.5222 H   0  0  0  0  0  0  0  0  0  0  0  0
  149.9343  142.9414  155.7050 H   0  0  0  0  0  0  0  0  0  0  0  0
  151.1217  142.3270  154.5900 H   0  0  0  0  0  0  0  0  0  0  0  0
  149.6589  140.0166  155.3717 H   0  0  0  0  0  0  0  0  0  0  0  0
  149.0323  140.0755  153.2523 H   0  0  0  0  0  0  0  0  0  0  0  0
  147.3963  140.4740  155.4063 H   0  0  0  0  0  0  0  0  0  0  0  0
  147.9697  141.9777  156.1362 H   0  0  0  0  0  0  0  0  0  0  0  0
  146.3565  143.5690  152.3114 H   0  0  0  0  0  0  0  0  0  0  0  0
  144.3531  145.0100  152.5533 H   0  0  0  0  0  0  0  0  0  0  0  0
  144.0452  143.8892  156.7007 H   0  0  0  0  0  0  0  0  0  0  0  0
  146.0254  142.4570  156.4813 H   0  0  0  0  0  0  0  0  0  0  0  0
  1  2  1  0  0  0  0
  1 24  1  0  0  0  0
  2  3  1  0  0  0  0
  2 25  1  0  0  0  0
  2 26  1  0  0  0  0
  3 11  1  0  0  0  0
  3  4  2  0  0  0  0
  4  5  1  0  0  0  0
  5 10  2  0  0  0  0
  5  6  1  0  0  0  0
  6  7  2  0  0  0  0
  6 27  1  0  0  0  0
  7  8  1  0  0  0  0
  7 28  1  0  0  0  0
  8  9  2  0  0  0  0
  8 29  1  0  0  0  0
  9 10  1  0  0  0  0
  9 30  1  0  0  0  0
 10 11  1  0  0  0  0
 11 12  1  0  0  0  0
 12 13  1  0  0  0  0
 12 31  1  0  0  0  0
 12 32  1  0  0  0  0
 13 14  1  0  0  0  0
 13 15  1  0  0  0  0
 13 33  1  0  0  0  0
 14 34  1  0  0  0  0
 15 16  1  0  0  0  0
 15 35  1  0  0  0  0
 15 36  1  0  0  0  0
 16 17  1  0  0  0  0
 17 23  1  0  0  0  0
 17 18  2  0  0  0  0
 18 19  1  0  0  0  0
 18 37  1  0  0  0  0
 19 20  2  0  0  0  0
 19 38  1  0  0  0  0
 20 21  1  0  0  0  0
 20 22  1  0  0  0  0
 22 23  2  0  0  0  0
 22 39  1  0  0  0  0
 23 40  1  0  0  0  0
M  END
> <s_m_source_file>
AV-unprocessed.smi

> <i_m_source_file_index>
2193

> <i_lp_mmshare_version>
43012

> <i_f3d_flags>
0

> <s_epik_input>
W2NIXTFbY0hdW2NIXVtjSF1jKGMxMiluKGMobjIpW0NIMl1bT0hdKVtDSDJdW0NASF0oW09IXSlbQ0gyXU9jM1tjSF1bY0hdYyhGKVtjSF1bY0hdMw==

> <s_epik_cmdline>
J2VwaWtfcHl0aG9uJywgJy1waCcsICc3LjAnLCAnLXRuJywgJzgnLCAnLW1hJywgJzIwMCcsICctbWV0YWxfYmluZGluZycsICctaW1hZScsICc8aW5maWxlLm1hZT4nLCAnLW9tYWUnLCAnPG91dGZpbGUubWFlPic=

> <r_lp_tautomer_probability>
1

> <r_epik_Ionization_Penalty>
0.0549747

> <r_epik_Ionization_Penalty_Charging>
0

> <r_epik_Ionization_Penalty_Neutral>
0.0549747

> <r_epik_State_Penalty>
0.0472568

> <r_epik_Charging_Adjusted_Penalty>
0.0472568

> <i_epik_Tot_Q>
0

> <i_epik_Tot_abs_Q>
0

> <r_epik_Metal_State_Penalty>
4.91905e-05

> <b_epik_Metal_Only>
0

> <s_lp_Force_Field>
OPLS_2005

> <r_lp_Energy>
14.0704

> <b_lp_Chiralities_Consistent>
1

> <s_lp_Variant>
AV-unprocessed.smi:2193-1

> <Gold.Version>
5.8.1

> <Gold.Id.Protein>
6NUR|6NUR_protein|mol2

> <Gold.PLP.Fitness>
53.3677

> <Gold.PLP.PLP>
-49.0792

> <Gold.PLP.part.hbond>
-4.6126

> <Gold.PLP.part.metal>
0.0000

> <Gold.PLP.part.buried>
-4.6708

> <Gold.PLP.part.nonpolar>
-38.7144

> <Gold.PLP.part.repulsive>
0.1630

> <Gold.PLP.ligand.clash>
0.0000

> <Gold.PLP.ligand.torsion>
1.2781

> <Gold.PLP.Chemscore.Hbond>
2.2608

> <Gold.PLP.Chemscore.CHOScore>
0.0000

> <Gold.PLP.Chemscore.Metal>
0.0000

> <Gold.Chemscore.Hbonds>
donor molecule, donor type, donor heavy atom, donor atom, acceptor molecule, acceptor atom, score
      P1  H  7989  7998       L1    14  0.27
      P1  H  7997  8010       L1     1  1.00
      P1  H  8011  8017       L1    14  1.00

> <Gold.PLP.Chemscore.Internal.Correction>
0.0623

> <Gold.Rescore>
     Score         DG    S(hbond)    S(metal)    S(lipo)     H(rot)  DE(clash)    DE(int)     intcor
     14.30     -17.39       1.64        0.00     125.43       3.22       1.85       1.24       ----

> <Gold.Chemscore.Fitness>
14.3002

> <Gold.Chemscore.DG>
-17.3904

> <Gold.Chemscore.ZeroCoef>
-5.4800

> <Gold.Chemscore.Hbond>
1.6400

> <Gold.Chemscore.Metal>
0.0000

> <Gold.Chemscore.Lipo>
125.4284

> <Gold.Chemscore.Internal_Hbond>
0.0000

> <Gold.Chemscore.DEClash>
1.8479

> <Gold.Chemscore.DEInternal>
1.2423

> <Gold.Chemscore.Rot>
3.2196

> <Gold.Chemscore.Internal.Correction>
   9.000000E+99

> <Gold.Chemscore.Hbonds>
donor molecule, donor type, donor heavy atom, donor atom, acceptor molecule, acceptor atom, score
      L1  H    14    34       P1  7957  0.02
      P1  H  7989  7998       L1    14  0.04
      P1  H  7997  8010       L1     1  0.64
      P1  H  8011  8017       L1    14  0.92

> <Gold.Chemscore.Hbond.Weighted>
-5.4775

> <Gold.Chemscore.Metal.Weighted>
-0.0000

> <Gold.Chemscore.Lipo.Weighted>
-14.6751

> <Gold.Chemscore.Internal_Hbond.Weighted>
0.0000

> <Gold.Chemscore.DEClash.Weighted>
1.8479

> <Gold.Chemscore.DEInternal.Weighted>
1.2423

> <Gold.Chemscore.Rot.Weighted>
8.2422

> <Gold.Chemscore.Internal.Correction.Weighted>
   9.000000E+99

> <Gold.Protein.RotatedTorsions>
[ 6907 6896 6895 6894 ] final  -15.36 input  -60.11 | X-H torsion
[ 7974 7965 7964 7962 ] final  -67.39 input  175.53 | X-H torsion
[ 8008 7997 7996 7995 ] final   91.07 input   59.86 | X-H torsion
[ 10167 10162 10161 10158 ] final  170.31 input  -65.29 | X-H torsion
[ 10718 10713 10712 10709 ] final -137.60 input   66.30 | X-H torsion
[ 10763 10752 10751 10750 ] final   -4.97 input  -60.55 | X-H torsion
[ 11005 11000 10999 10996 ] final  154.48 input  -57.11 | X-H torsion

> <Gold.Protein.ActiveResidues>
 VAL166  LYS551  ARG553  GLY616  TRP617  ASP618  TYR619  PRO620  LYS621  CYS622 
 ASP623  PHE694  ASN695  SER759  ASP760  ASP761  ALA762  ILE779  LEU786  VAL792 
 PHE793  MET794  SER795  GLU796  ALA797  LYS798  CYS799  TRP800  GLU811  SER814 

> <Gold.Protein.RotatedAtoms>
  151.3251  135.0828  159.9318 H   0  0  0  0  0  0  0  0  0  0  0  0  # atno 6907 bound_to 6896
  152.5248  133.9600  159.7723 H   0  0  0  0  0  0  0  0  0  0  0  0  # atno 6908 bound_to 6896
  150.9928  133.6080  159.2736 H   0  0  0  0  0  0  0  0  0  0  0  0  # atno 6909 bound_to 6896
  145.7297  140.9002  143.0586 H   0  0  0  0  0  0  0  0  0  0  0  0  # atno 7974 bound_to 7965
  156.0195  140.3342  155.7023 H   0  0  0  0  0  0  0  0  0  0  0  0  # atno 8008 bound_to 7997
  155.6043  140.0659  157.2742 H   0  0  0  0  0  0  0  0  0  0  0  0  # atno 8009 bound_to 7997
  154.4310  140.1805  156.1194 H   0  0  0  0  0  0  0  0  0  0  0  0  # atno 8010 bound_to 7997
  139.5015  144.3611  151.9824 H   0  0  0  0  0  0  0  0  0  0  0  0  # atno 10167 bound_to 10162
  156.2899  130.7369  151.1391 H   0  0  0  0  0  0  0  0  0  0  0  0  # atno 10718 bound_to 10713
  153.3922  135.7002  153.6487 H   0  0  0  0  0  0  0  0  0  0  0  0  # atno 10763 bound_to 10752
  153.5055  135.3643  155.2561 H   0  0  0  0  0  0  0  0  0  0  0  0  # atno 10764 bound_to 10752
  154.8703  135.4122  154.3240 H   0  0  0  0  0  0  0  0  0  0  0  0  # atno 10765 bound_to 10752
  140.1493  134.8686  157.2434 H   0  0  0  0  0  0  0  0  0  0  0  0  # atno 11005 bound_to 11000
  144.6896  139.9314  143.7472 LP  0  0  0  0  0  0  0  0  0  0  0  0  # atno 17320 bound_to 7965
  146.0549  139.3546  143.0617 LP  0  0  0  0  0  0  0  0  0  0  0  0  # atno 17321 bound_to 7965
  140.3047  144.3607  150.6050 LP  0  0  0  0  0  0  0  0  0  0  0  0  # atno 17342 bound_to 10162
  140.5846  143.2170  151.7366 LP  0  0  0  0  0  0  0  0  0  0  0  0  # atno 17343 bound_to 10162
  157.7339  131.0586  150.5551 LP  0  0  0  0  0  0  0  0  0  0  0  0  # atno 17370 bound_to 10713
  156.5666  130.4269  149.6038 LP  0  0  0  0  0  0  0  0  0  0  0  0  # atno 17371 bound_to 10713
  140.2624  134.3555  155.7402 LP  0  0  0  0  0  0  0  0  0  0  0  0  # atno 17394 bound_to 11000
  141.2197  133.7377  156.9101 LP  0  0  0  0  0  0  0  0  0  0  0  0  # atno 17395 bound_to 11000

$$$$
