#       Name:                AV-unprocessed.smi:1333
#       Creating user name   scv26
#       Creation time:       Fri Mar 27 05:06:47 2020


#       File generated by GOLD software.
#

@<TRIPOS>MOLECULE
AV-unprocessed.smi:1333
    38    39     1
SMALL
NO_CHARGES


@<TRIPOS>ATOM
      1 ****         1.0254   0.9303   0.2194 O.2            1 S1                 0.0000
      2 ****         1.7861  -0.0407   0.1789 C.2            1 S1                 0.0000
      3 ****         3.3044   0.1701   0.1016 C.3            1 S1                 0.0000
      4 ****         3.6877   1.5718   0.1230 N.pl3          1 S1                 0.0000
      5 ****         3.9768   2.3458   1.2399 C.2            1 S1                 0.0000
      6 ****         4.2813   3.6059   0.7769 C.2            1 S1                 0.0000
      7 ****         4.1876   3.6303  -0.6127 N.2            1 S1                 0.0000
      8 ****         3.8307   2.3919  -0.9279 C.2            1 S1                 0.0000
      9 ****         1.4040  -1.3386   0.1959 N.am           1 S1                 0.0000
     10 ****         0.1752  -1.9052   0.2564 C.2            1 S1                 0.0000
     11 ****         0.0505  -3.1289   0.2585 O.2            1 S1                 0.0000
     12 ****        -0.8831  -1.0745   0.3097 N.am           1 S1                 0.0000
     13 ****        -2.2826  -1.4858   0.3756 C.3            1 S1                 0.0000
     14 ****        -2.8197  -1.8898  -1.0123 C.3            1 S1                 0.0000
     15 ****        -3.7630  -0.7659  -1.4414 C.3            1 S1                 0.0000
     16 ****        -4.3385  -0.2424  -0.1296 C.3            1 S1                 0.0000
     17 ****        -3.1702  -0.3209   0.8552 C.3            1 S1                 0.0000
     18 ****         3.7858  -0.3355   0.9399 H              1 S1                 0.0000
     19 ****         3.6879  -0.2837  -0.8132 H              1 S1                 0.0000
     20 ****         3.9395   1.9481   2.2435 H              1 S1                 0.0000
     21 ****         4.5570   4.4898   1.3327 H              1 S1                 0.0000
     22 ****         3.6675   2.0742  -1.9474 H              1 S1                 0.0000
     23 ****         2.1642  -2.0017   0.1560 H              1 S1                 0.0000
     24 ****        -0.7014  -0.0807   0.3041 H              1 S1                 0.0000
     25 ****        -2.3820  -2.3266   1.0647 H              1 S1                 0.0000
     26 ****        -2.0363  -2.0681  -1.7502 H              1 S1                 0.0000
     27 ****        -3.3859  -2.8174  -0.9194 H              1 S1                 0.0000
     28 ****        -3.1945   0.0236  -1.9348 H              1 S1                 0.0000
     29 ****        -4.5338  -1.1059  -2.1337 H              1 S1                 0.0000
     30 ****        -4.7443   0.7655  -0.2208 H              1 S1                 0.0000
     31 ****        -5.1449  -0.8974   0.2031 H              1 S1                 0.0000
     32 ****        -3.5128  -0.4599   1.8813 H              1 S1                 0.0000
     33 ****        -2.6190   0.6207   0.8259 H              1 S1                 0.0000
     34 ****         1.3977   1.8583   0.2019 LP             1 S1                 0.0000
     35 ****         0.0367   0.7892   0.2698 LP             1 S1                 0.0000
     36 ****         4.3511   4.4010  -1.2286 LP             1 S1                 0.0000
     37 ****         0.8603  -3.7140   0.2153 LP             1 S1                 0.0000
     38 ****        -0.8606  -3.5385   0.3034 LP             1 S1                 0.0000
@<TRIPOS>BOND
    1    1    2 2     
    2    2    3 1     
    3    2    9 1     
    4    3    4 1     
    5    3   18 1     
    6    3   19 1     
    7    4    8 1     
    8    4    5 1     
    9    5    6 2     
   10    5   20 1     
   11    6    7 1     
   12    6   21 1     
   13    7    8 2     
   14    8   22 1     
   15    9   10 1     
   16    9   23 1     
   17   10   11 2     
   18   10   12 1     
   19   12   13 1     
   20   12   24 1     
   21   13   17 1     
   22   13   14 1     
   23   13   25 1     
   24   14   15 1     
   25   14   26 1     
   26   14   27 1     
   27   15   16 1     
   28   15   28 1     
   29   15   29 1     
   30   16   17 1     
   31   16   30 1     
   32   16   31 1     
   33   17   32 1     
   34   17   33 1     
   35    1   34 1     
   36    1   35 1     
   37    7   36 1     
   38   11   37 1     
   39   11   38 1     
@<TRIPOS>SUBSTRUCTURE
      1 S1             1
@<TRIPOS>SET
LONE_PAIRS      STATIC     ATOMS    <user>   **** ""
5 34 35 36 37 38
DONOR_HYDROGENS      STATIC     ATOMS    <user>   **** ""
2 23 24
ATOM$BLUE        STATIC     ATOMS    COLORGROUP SYSTEM
5 34 35 36 37 38
ATOM$RED        STATIC     ATOMS    COLORGROUP SYSTEM
2 23 24
