AV-unprocessed.smi:1550|AV-procd|sdf|6227|dock3
  -GOLD-   22720 6403D 1   1.00000     0.00000
 Structure written by MMmdl.
 43 44  0  0  0  0  0  0  0  0  1 V2000
  149.1161  135.0305  155.3921 C   0  0  0  0  0  0  0  0  0  0  0  0
  147.8506  135.7882  155.8203 C   0  0  1  0  0  0  0  0  0  0  0  0
  148.1330  137.1813  155.7215 O   0  0  0  0  0  0  0  0  0  0  0  0
  149.1532  137.6616  156.5898 C   0  0  0  0  0  0  0  0  0  0  0  0
  149.8309  138.8686  155.9295 C   0  0  1  0  0  0  0  0  0  0  0  0
  148.8291  140.0038  155.6415 C   0  0  0  0  0  0  0  0  0  0  0  0
  149.5514  141.2232  155.0570 C   0  0  0  0  0  0  0  0  0  0  0  0
  150.7107  141.6272  155.9739 C   0  0  0  0  0  0  0  0  0  0  0  0
  151.6107  140.4155  156.2631 C   0  0  0  0  0  0  0  0  0  0  0  0
  150.8352  139.3568  156.8167 O   0  0  0  0  0  0  0  0  0  0  0  0
  146.6528  135.4260  154.9275 C   0  0  0  0  0  0  0  0  0  0  0  0
  145.6097  135.0272  155.4458 O   0  0  0  0  0  0  0  0  0  0  0  0
  146.8478  135.5793  153.6029 N   0  0  0  0  0  0  0  0  0  0  0  0
  145.9822  135.2684  152.5415 C   0  0  0  0  0  0  0  0  0  0  0  0
  145.6996  134.0074  152.1216 C   0  0  0  0  0  0  0  0  0  0  0  0
  144.8085  133.7506  151.0014 C   0  0  0  0  0  0  0  0  0  0  0  0
  144.4777  132.3447  150.5258 C   0  0  0  0  0  0  0  0  0  0  0  0
  143.1720  132.1112  150.6537 F   0  0  0  0  0  0  0  0  0  0  0  0
  144.7950  132.2081  149.2384 F   0  0  0  0  0  0  0  0  0  0  0  0
  145.1396  131.4194  151.2210 F   0  0  0  0  0  0  0  0  0  0  0  0
  144.2847  134.8291  150.3915 C   0  0  0  0  0  0  0  0  0  0  0  0
  144.5793  136.1285  150.8104 N   0  0  0  0  0  0  0  0  0  0  0  0
  145.3983  136.4260  151.8441 C   0  0  0  0  0  0  0  0  0  0  0  0
  145.6129  137.5986  152.1494 O   0  0  0  0  0  0  0  0  0  0  0  0
  144.1481  136.8849  150.2984 H   0  0  0  0  0  0  0  0  0  0  0  0
  148.9650  133.9513  155.4354 H   0  0  0  0  0  0  0  0  0  0  0  0
  149.9513  135.2724  156.0499 H   0  0  0  0  0  0  0  0  0  0  0  0
  149.4148  135.2877  154.3751 H   0  0  0  0  0  0  0  0  0  0  0  0
  147.6344  135.5345  156.8601 H   0  0  0  0  0  0  0  0  0  0  0  0
  148.7208  137.9701  157.5423 H   0  0  0  0  0  0  0  0  0  0  0  0
  149.8833  136.8786  156.8004 H   0  0  0  0  0  0  0  0  0  0  0  0
  150.2908  138.5463  154.9933 H   0  0  0  0  0  0  0  0  0  0  0  0
  148.0573  139.6629  154.9506 H   0  0  0  0  0  0  0  0  0  0  0  0
  148.3201  140.2884  156.5635 H   0  0  0  0  0  0  0  0  0  0  0  0
  149.9348  140.9808  154.0652 H   0  0  0  0  0  0  0  0  0  0  0  0
  148.8569  142.0541  154.9314 H   0  0  0  0  0  0  0  0  0  0  0  0
  151.2916  142.4291  155.5173 H   0  0  0  0  0  0  0  0  0  0  0  0
  150.3169  142.0200  156.9121 H   0  0  0  0  0  0  0  0  0  0  0  0
  152.1122  140.0767  155.3553 H   0  0  0  0  0  0  0  0  0  0  0  0
  152.3909  140.6892  156.9735 H   0  0  0  0  0  0  0  0  0  0  0  0
  147.7205  136.0053  153.3251 H   0  0  0  0  0  0  0  0  0  0  0  0
  146.1540  133.1561  152.6016 H   0  0  0  0  0  0  0  0  0  0  0  0
  143.6113  134.7790  149.5485 H   0  0  0  0  0  0  0  0  0  0  0  0
  1  2  1  0  0  0  0
  1 26  1  0  0  0  0
  1 27  1  0  0  0  0
  1 28  1  0  0  0  0
  2  3  1  0  0  0  0
  2 11  1  0  0  0  0
  2 29  1  0  0  0  0
  3  4  1  0  0  0  0
  4  5  1  0  0  0  0
  4 30  1  0  0  0  0
  4 31  1  0  0  0  0
  5 10  1  0  0  0  0
  5  6  1  0  0  0  0
  5 32  1  0  0  0  0
  6  7  1  0  0  0  0
  6 33  1  0  0  0  0
  6 34  1  0  0  0  0
  7  8  1  0  0  0  0
  7 35  1  0  0  0  0
  7 36  1  0  0  0  0
  8  9  1  0  0  0  0
  8 37  1  0  0  0  0
  8 38  1  0  0  0  0
  9 10  1  0  0  0  0
  9 39  1  0  0  0  0
  9 40  1  0  0  0  0
 11 12  2  0  0  0  0
 11 13  1  0  0  0  0
 13 14  1  0  0  0  0
 13 41  1  0  0  0  0
 14 23  1  0  0  0  0
 14 15  2  0  0  0  0
 15 16  1  0  0  0  0
 15 42  1  0  0  0  0
 16 17  1  0  0  0  0
 16 21  2  0  0  0  0
 17 18  1  0  0  0  0
 17 19  1  0  0  0  0
 17 20  1  0  0  0  0
 21 22  1  0  0  0  0
 21 43  1  0  0  0  0
 22 25  1  0  0  0  0
 22 23  1  0  0  0  0
 23 24  2  0  0  0  0
M  END
> <s_m_source_file>
AV-unprocessed.smi

> <i_m_source_file_index>
1550

> <i_lp_mmshare_version>
43012

> <i_f3d_flags>
0

> <s_epik_input>
TzFbQ0gyXVtDSDJdW0NIMl1bQ0gyXVtDQEhdMVtDSDJdT1tDQEBIXShbQ0gzXSlDKD1PKVtOSF1jMltjSF1jKEMoRikoRilGKVtjSF1bbkhdYzI9Tw==

> <s_epik_cmdline>
J2VwaWtfcHl0aG9uJywgJy1waCcsICc3LjAnLCAnLXRuJywgJzgnLCAnLW1hJywgJzIwMCcsICctbWV0YWxfYmluZGluZycsICctaW1hZScsICc8aW5maWxlLm1hZT4nLCAnLW9tYWUnLCAnPG91dGZpbGUubWFlPic=

> <r_lp_tautomer_probability>
0.999

> <r_epik_Ionization_Penalty>
0.00891333

> <r_epik_Ionization_Penalty_Charging>
0.00891323

> <r_epik_Ionization_Penalty_Neutral>
1.00146e-07

> <r_epik_State_Penalty>
0.00674197

> <r_epik_Charging_Adjusted_Penalty>
0.0156552

> <i_epik_Tot_Q>
0

> <i_epik_Tot_abs_Q>
0

> <r_epik_Metal_State_Penalty>
0.321024

> <b_epik_Metal_Only>
0

> <s_lp_Force_Field>
OPLS_2005

> <r_lp_Energy>
24.886

> <b_lp_Chiralities_Consistent>
1

> <s_lp_Variant>
AV-unprocessed.smi:1550-4

> <Gold.Version>
5.8.1

> <Gold.Id.Protein>
6NUR|6NUR_protein|mol2

> <Gold.PLP.Fitness>
41.3942

> <Gold.PLP.PLP>
-34.4961

> <Gold.PLP.part.hbond>
-2.0000

> <Gold.PLP.part.metal>
0.0000

> <Gold.PLP.part.buried>
-3.9423

> <Gold.PLP.part.nonpolar>
-29.4919

> <Gold.PLP.part.repulsive>
0.6493

> <Gold.PLP.ligand.clash>
0.0000

> <Gold.PLP.ligand.torsion>
0.9468

> <Gold.PLP.Chemscore.Hbond>
1.8960

> <Gold.PLP.Chemscore.CHOScore>
1.0000

> <Gold.PLP.Chemscore.Metal>
0.0000

> <Gold.Chemscore.Hbonds>
donor molecule, donor type, donor heavy atom, donor atom, acceptor molecule, acceptor atom, score
      L1  H    13    41       P1  7948  0.88
      L1  H    22    25       P1 10171  1.00
      L1  C    21    43       P1 10186  0.77

> <Gold.PLP.Chemscore.Internal.Correction>
0.1037

> <Gold.Rescore>
     Score         DG    S(hbond)    S(metal)    S(lipo)     H(rot)  DE(clash)    DE(int)     intcor
     13.60     -14.88       1.92        0.00      66.23       1.86       0.35       0.94       ----

> <Gold.Chemscore.Fitness>
13.6021

> <Gold.Chemscore.DG>
-14.8847

> <Gold.Chemscore.ZeroCoef>
-5.4800

> <Gold.Chemscore.Hbond>
1.9190

> <Gold.Chemscore.Metal>
0.0000

> <Gold.Chemscore.Lipo>
66.2317

> <Gold.Chemscore.Internal_Hbond>
0.0000

> <Gold.Chemscore.DEClash>
0.3470

> <Gold.Chemscore.DEInternal>
0.9355

> <Gold.Chemscore.Rot>
1.8571

> <Gold.Chemscore.Internal.Correction>
   9.000000E+99

> <Gold.Chemscore.Hbonds>
donor molecule, donor type, donor heavy atom, donor atom, acceptor molecule, acceptor atom, score
      L1  H    13    41       P1  7948  0.86
      L1  H    22    25       P1 10171  0.99

> <Gold.Chemscore.Hbond.Weighted>
-6.4096

> <Gold.Chemscore.Metal.Weighted>
-0.0000

> <Gold.Chemscore.Lipo.Weighted>
-7.7491

> <Gold.Chemscore.Internal_Hbond.Weighted>
0.0000

> <Gold.Chemscore.DEClash.Weighted>
0.3470

> <Gold.Chemscore.DEInternal.Weighted>
0.9355

> <Gold.Chemscore.Rot.Weighted>
4.7541

> <Gold.Chemscore.Internal.Correction.Weighted>
   9.000000E+99

> <Gold.Protein.RotatedTorsions>
[ 6907 6896 6895 6894 ] final -143.22 input  -60.11 | X-H torsion
[ 7974 7965 7964 7962 ] final    5.04 input  175.53 | X-H torsion
[ 8008 7997 7996 7995 ] final   -0.54 input   59.86 | X-H torsion
[ 10167 10162 10161 10158 ] final  148.66 input  -65.29 | X-H torsion
[ 10718 10713 10712 10709 ] final  172.83 input   66.30 | X-H torsion
[ 10763 10752 10751 10750 ] final   29.26 input  -60.55 | X-H torsion
[ 11005 11000 10999 10996 ] final -122.79 input  -57.11 | X-H torsion

> <Gold.Protein.ActiveResidues>
 VAL166  LYS551  ARG553  GLY616  TRP617  ASP618  TYR619  PRO620  LYS621  CYS622 
 ASP623  PHE694  ASN695  SER759  ASP760  ASP761  ALA762  ILE779  LEU786  VAL792 
 PHE793  MET794  SER795  GLU796  ALA797  LYS798  CYS799  TRP800  GLU811  SER814 

> <Gold.Protein.RotatedAtoms>
  151.0976  133.5268  159.2611 H   0  0  0  0  0  0  0  0  0  0  0  0  # atno 6907 bound_to 6896
  151.2111  135.0481  159.8921 H   0  0  0  0  0  0  0  0  0  0  0  0  # atno 6908 bound_to 6896
  152.5440  134.0791  159.8281 H   0  0  0  0  0  0  0  0  0  0  0  0  # atno 6909 bound_to 6896
  146.2442  140.0443  142.8380 H   0  0  0  0  0  0  0  0  0  0  0  0  # atno 7974 bound_to 7965
  154.6569  140.2581  155.7151 H   0  0  0  0  0  0  0  0  0  0  0  0  # atno 8008 bound_to 7997
  156.2601  140.2856  156.0947 H   0  0  0  0  0  0  0  0  0  0  0  0  # atno 8009 bound_to 7997
  155.1367  140.0379  157.2778 H   0  0  0  0  0  0  0  0  0  0  0  0  # atno 8010 bound_to 7997
  139.4872  144.5662  151.7140 H   0  0  0  0  0  0  0  0  0  0  0  0  # atno 10167 bound_to 10162
  156.9731  131.0096  151.2900 H   0  0  0  0  0  0  0  0  0  0  0  0  # atno 10718 bound_to 10713
  153.0441  135.6493  154.0863 H   0  0  0  0  0  0  0  0  0  0  0  0  # atno 10763 bound_to 10752
  154.0564  135.2891  155.3333 H   0  0  0  0  0  0  0  0  0  0  0  0  # atno 10764 bound_to 10752
  154.6686  135.5364  153.8175 H   0  0  0  0  0  0  0  0  0  0  0  0  # atno 10765 bound_to 10752
  140.9969  134.0459  157.3586 H   0  0  0  0  0  0  0  0  0  0  0  0  # atno 11005 bound_to 11000
  145.1041  140.9364  143.4695 LP  0  0  0  0  0  0  0  0  0  0  0  0  # atno 17320 bound_to 7965
  145.0643  139.3081  143.5864 LP  0  0  0  0  0  0  0  0  0  0  0  0  # atno 17321 bound_to 7965
  140.5241  144.0833  150.6032 LP  0  0  0  0  0  0  0  0  0  0  0  0  # atno 17342 bound_to 10162
  140.3801  143.2807  152.0180 LP  0  0  0  0  0  0  0  0  0  0  0  0  # atno 17343 bound_to 10162
  157.5578  130.8225  149.8227 LP  0  0  0  0  0  0  0  0  0  0  0  0  # atno 17370 bound_to 10713
  156.0274  130.3775  150.1783 LP  0  0  0  0  0  0  0  0  0  0  0  0  # atno 17371 bound_to 10713
  139.9019  135.0167  156.7308 LP  0  0  0  0  0  0  0  0  0  0  0  0  # atno 17394 bound_to 11000
  140.6952  133.9355  155.7990 LP  0  0  0  0  0  0  0  0  0  0  0  0  # atno 17395 bound_to 11000

$$$$
