AV-unprocessed.smi:3220|AV-procd|sdf|12298|dock8
  -GOLD-   2272018143D 1   1.00000     0.00000
 Structure written by MMmdl.
 33 34  0  0  0  0  0  0  0  0  1 V2000
  150.7727  140.7438  158.0391 C   0  0  0  0  0  0  0  0  0  0  0  0
  150.2286  142.1031  157.5797 C   0  0  1  0  0  0  0  0  0  0  0  0
  151.3666  143.1331  157.4094 C   0  0  0  0  0  0  0  0  0  0  0  0
  151.6838  143.8329  158.6417 N   0  0  0  0  0  0  0  0  0  0  0  0
  151.6054  145.1845  158.9055 C   0  0  0  0  0  0  0  0  0  0  0  0
  151.9907  145.3681  160.2024 C   0  0  0  0  0  0  0  0  0  0  0  0
  152.2943  144.0531  160.6538 C   0  0  0  0  0  0  0  0  0  0  0  0
  152.1139  143.1370  159.7163 N   0  0  0  0  0  0  0  0  0  0  0  0
  149.4992  141.9203  156.3252 N   0  0  0  0  0  0  0  0  0  0  0  0
  149.8812  141.1429  155.2994 C   0  0  0  0  0  0  0  0  0  0  0  0
  150.9308  140.4985  155.2930 O   0  0  0  0  0  0  0  0  0  0  0  0
  148.9218  141.0838  154.1012 C   0  0  2  0  0  0  0  0  0  0  0  0
  147.7275  142.0511  154.2243 C   0  0  0  0  0  0  0  0  0  0  0  0
  146.5061  141.1495  154.1682 C   0  0  0  0  0  0  0  0  0  0  0  0
  147.0560  139.8026  154.6143 C   0  0  0  0  0  0  0  0  0  0  0  0
  148.3491  139.7788  154.0279 O   0  0  0  0  0  0  0  0  0  0  0  0
  151.3043  140.8345  158.9867 H   0  0  0  0  0  0  0  0  0  0  0  0
  151.4654  140.3240  157.3085 H   0  0  0  0  0  0  0  0  0  0  0  0
  149.9647  140.0260  158.1843 H   0  0  0  0  0  0  0  0  0  0  0  0
  149.5472  142.4547  158.3569 H   0  0  0  0  0  0  0  0  0  0  0  0
  152.2740  142.6354  157.0637 H   0  0  0  0  0  0  0  0  0  0  0  0
  151.1074  143.8680  156.6458 H   0  0  0  0  0  0  0  0  0  0  0  0
  151.2783  145.8936  158.1592 H   0  0  0  0  0  0  0  0  0  0  0  0
  152.0460  146.2991  160.7466 H   0  0  0  0  0  0  0  0  0  0  0  0
  152.6393  143.7393  161.6280 H   0  0  0  0  0  0  0  0  0  0  0  0
  148.6252  142.4177  156.2342 H   0  0  0  0  0  0  0  0  0  0  0  0
  149.4691  141.2699  153.1758 H   0  0  0  0  0  0  0  0  0  0  0  0
  147.7423  142.6065  155.1638 H   0  0  0  0  0  0  0  0  0  0  0  0
  147.7150  142.7852  153.4182 H   0  0  0  0  0  0  0  0  0  0  0  0
  145.6848  141.5019  154.7927 H   0  0  0  0  0  0  0  0  0  0  0  0
  146.1458  141.0772  153.1411 H   0  0  0  0  0  0  0  0  0  0  0  0
  147.1375  139.7532  155.7012 H   0  0  0  0  0  0  0  0  0  0  0  0
  146.4454  138.9648  154.2771 H   0  0  0  0  0  0  0  0  0  0  0  0
  1  2  1  0  0  0  0
  1 17  1  0  0  0  0
  1 18  1  0  0  0  0
  1 19  1  0  0  0  0
  2  3  1  0  0  0  0
  2  9  1  0  0  0  0
  2 20  1  0  0  0  0
  3  4  1  0  0  0  0
  3 21  1  0  0  0  0
  3 22  1  0  0  0  0
  4  8  1  0  0  0  0
  4  5  1  0  0  0  0
  5  6  2  0  0  0  0
  5 23  1  0  0  0  0
  6  7  1  0  0  0  0
  6 24  1  0  0  0  0
  7  8  2  0  0  0  0
  7 25  1  0  0  0  0
  9 10  1  0  0  0  0
  9 26  1  0  0  0  0
 10 11  2  0  0  0  0
 10 12  1  0  0  0  0
 12 16  1  0  0  0  0
 12 13  1  0  0  0  0
 12 27  1  0  0  0  0
 13 14  1  0  0  0  0
 13 28  1  0  0  0  0
 13 29  1  0  0  0  0
 14 15  1  0  0  0  0
 14 30  1  0  0  0  0
 14 31  1  0  0  0  0
 15 16  1  0  0  0  0
 15 32  1  0  0  0  0
 15 33  1  0  0  0  0
M  END
> <s_m_source_file>
AV-unprocessed.smi

> <i_m_source_file_index>
3220

> <i_lp_mmshare_version>
43012

> <i_f3d_flags>
0

> <s_epik_input>
bjFbY0hdW2NIXVtjSF1uMVtDSDJdW0NAQEhdKFtDSDNdKVtOSF1DKD1PKVtDQEBIXTJbQ0gyXVtDSDJdW0NIMl1PMg==

> <s_epik_cmdline>
J2VwaWtfcHl0aG9uJywgJy1waCcsICc3LjAnLCAnLXRuJywgJzgnLCAnLW1hJywgJzIwMCcsICctbWV0YWxfYmluZGluZycsICctaW1hZScsICc8aW5maWxlLm1hZT4nLCAnLW9tYWUnLCAnPG91dGZpbGUubWFlPic=

> <r_lp_tautomer_probability>
1

> <r_epik_Ionization_Penalty>
0.00033363

> <r_epik_Ionization_Penalty_Charging>
0

> <r_epik_Ionization_Penalty_Neutral>
0.00033363

> <r_epik_State_Penalty>
-0

> <r_epik_Charging_Adjusted_Penalty>
0

> <i_epik_Tot_Q>
0

> <i_epik_Tot_abs_Q>
0

> <r_epik_Metal_State_Penalty>
-0

> <b_epik_Metal_Only>
0

> <s_lp_Force_Field>
OPLS_2005

> <r_lp_Energy>
18.0853

> <b_lp_Chiralities_Consistent>
1

> <s_lp_Variant>
AV-unprocessed.smi:3220-2

> <Gold.Version>
5.8.1

> <Gold.Id.Protein>
6NUR|6NUR_protein|mol2

> <Gold.PLP.Fitness>
38.6072

> <Gold.PLP.PLP>
-36.9502

> <Gold.PLP.part.hbond>
-2.0000

> <Gold.PLP.part.metal>
0.0000

> <Gold.PLP.part.buried>
-4.7946

> <Gold.PLP.part.nonpolar>
-30.2169

> <Gold.PLP.part.repulsive>
0.2460

> <Gold.PLP.ligand.clash>
0.0000

> <Gold.PLP.ligand.torsion>
0.7024

> <Gold.PLP.Chemscore.Hbond>
1.0141

> <Gold.PLP.Chemscore.CHOScore>
0.0000

> <Gold.PLP.Chemscore.Metal>
0.0000

> <Gold.Chemscore.Hbonds>
donor molecule, donor type, donor heavy atom, donor atom, acceptor molecule, acceptor atom, score
      L1  H     9    26       P1  8028  0.04
      P1  H  7989  7998       L1    11  0.98

> <Gold.PLP.Chemscore.Internal.Correction>
0.0194

> <Gold.Rescore>
     Score         DG    S(hbond)    S(metal)    S(lipo)     H(rot)  DE(clash)    DE(int)     intcor
     11.82     -14.02       0.94        0.00      81.69       1.62       0.06       2.14       ----

> <Gold.Chemscore.Fitness>
11.8237

> <Gold.Chemscore.DG>
-14.0227

> <Gold.Chemscore.ZeroCoef>
-5.4800

> <Gold.Chemscore.Hbond>
0.9394

> <Gold.Chemscore.Metal>
0.0000

> <Gold.Chemscore.Lipo>
81.6852

> <Gold.Chemscore.Internal_Hbond>
0.0000

> <Gold.Chemscore.DEClash>
0.0618

> <Gold.Chemscore.DEInternal>
2.1373

> <Gold.Chemscore.Rot>
1.6219

> <Gold.Chemscore.Internal.Correction>
   9.000000E+99

> <Gold.Chemscore.Hbonds>
donor molecule, donor type, donor heavy atom, donor atom, acceptor molecule, acceptor atom, score
      L1  H     9    26       P1  8028  0.04
      P1  H  7989  7998       L1    11  0.32

> <Gold.Chemscore.Hbond.Weighted>
-3.1375

> <Gold.Chemscore.Metal.Weighted>
-0.0000

> <Gold.Chemscore.Lipo.Weighted>
-9.5572

> <Gold.Chemscore.Internal_Hbond.Weighted>
0.0000

> <Gold.Chemscore.DEClash.Weighted>
0.0618

> <Gold.Chemscore.DEInternal.Weighted>
2.1373

> <Gold.Chemscore.Rot.Weighted>
4.1520

> <Gold.Chemscore.Internal.Correction.Weighted>
   9.000000E+99

> <Gold.Protein.RotatedTorsions>
[ 6907 6896 6895 6894 ] final -151.21 input  -60.11 | X-H torsion
[ 7974 7965 7964 7962 ] final   95.36 input  175.53 | X-H torsion
[ 8008 7997 7996 7995 ] final -124.46 input   59.86 | X-H torsion
[ 10167 10162 10161 10158 ] final  105.52 input  -65.29 | X-H torsion
[ 10718 10713 10712 10709 ] final    1.11 input   66.30 | X-H torsion
[ 10763 10752 10751 10750 ] final   86.15 input  -60.55 | X-H torsion
[ 11005 11000 10999 10996 ] final   69.11 input  -57.11 | X-H torsion

> <Gold.Protein.ActiveResidues>
 VAL166  LYS551  ARG553  GLY616  TRP617  ASP618  TYR619  PRO620  LYS621  CYS622 
 ASP623  PHE694  ASN695  SER759  ASP760  ASP761  ALA762  ILE779  LEU786  VAL792 
 PHE793  MET794  SER795  GLU796  ALA797  LYS798  CYS799  TRP800  GLU811  SER814 

> <Gold.Protein.RotatedAtoms>
  151.2097  133.4563  159.2597 H   0  0  0  0  0  0  0  0  0  0  0  0  # atno 6907 bound_to 6896
  151.0988  134.9960  159.8449 H   0  0  0  0  0  0  0  0  0  0  0  0  # atno 6908 bound_to 6896
  152.5441  134.2026  159.8771 H   0  0  0  0  0  0  0  0  0  0  0  0  # atno 6909 bound_to 6896
  145.4533  139.2292  143.3028 H   0  0  0  0  0  0  0  0  0  0  0  0  # atno 7974 bound_to 7965
  155.1972  140.0415  157.2911 H   0  0  0  0  0  0  0  0  0  0  0  0  # atno 8008 bound_to 7997
  154.6099  140.2474  155.7654 H   0  0  0  0  0  0  0  0  0  0  0  0  # atno 8009 bound_to 7997
  156.2372  140.2917  156.0355 H   0  0  0  0  0  0  0  0  0  0  0  0  # atno 8010 bound_to 7997
  139.7086  144.7082  151.1065 H   0  0  0  0  0  0  0  0  0  0  0  0  # atno 10167 bound_to 10162
  156.8434  130.5529  149.5675 H   0  0  0  0  0  0  0  0  0  0  0  0  # atno 10718 bound_to 10713
  153.1542  135.4591  154.9681 H   0  0  0  0  0  0  0  0  0  0  0  0  # atno 10763 bound_to 10752
  154.7848  135.3200  154.7912 H   0  0  0  0  0  0  0  0  0  0  0  0  # atno 10764 bound_to 10752
  153.8412  135.6930  153.4857 H   0  0  0  0  0  0  0  0  0  0  0  0  # atno 10765 bound_to 10752
  139.9672  134.6960  156.0520 H   0  0  0  0  0  0  0  0  0  0  0  0  # atno 11005 bound_to 11000
  146.2492  140.5294  142.8900 LP  0  0  0  0  0  0  0  0  0  0  0  0  # atno 17320 bound_to 7965
  144.8048  140.6280  143.6454 LP  0  0  0  0  0  0  0  0  0  0  0  0  # atno 17321 bound_to 7965
  140.7728  143.5324  150.9407 LP  0  0  0  0  0  0  0  0  0  0  0  0  # atno 17342 bound_to 10162
  139.9008  143.6838  152.3131 LP  0  0  0  0  0  0  0  0  0  0  0  0  # atno 17343 bound_to 10162
  156.0868  130.5864  150.9662 LP  0  0  0  0  0  0  0  0  0  0  0  0  # atno 17370 bound_to 10713
  157.6343  131.0918  150.8379 LP  0  0  0  0  0  0  0  0  0  0  0  0  # atno 17371 bound_to 10713
  141.1352  133.6577  156.3574 LP  0  0  0  0  0  0  0  0  0  0  0  0  # atno 17394 bound_to 11000
  140.5370  134.6157  157.5368 LP  0  0  0  0  0  0  0  0  0  0  0  0  # atno 17395 bound_to 11000

$$$$
