AV-unprocessed.smi:109|AV-procd|sdf|1060|dock10
  -GOLD-   2262018133D 1   1.00000     0.00000
 Structure written by MMmdl.
 58 61  0  0  0  0  0  0  0  0  1 V2000
  155.4151  139.7801  158.9766 O   0  0  0  0  0  0  0  0  0  0  0  0
  154.4053  140.2614  159.8369 C   0  0  0  0  0  0  0  0  0  0  0  0
  153.0348  139.7430  159.3738 C   0  0  0  0  0  0  0  0  0  0  0  0
  152.3444  140.6846  158.3621 C   0  0  1  0  0  0  0  0  0  0  0  0
  151.2752  139.9670  157.6681 N   0  0  0  0  0  0  0  0  0  0  0  0
  151.5396  139.0655  156.6959 C   0  0  0  0  0  0  0  0  0  0  0  0
  152.5166  139.2817  155.7771 N   0  0  0  0  0  0  0  0  0  0  0  0
  152.7592  138.3685  154.8327 C   0  0  0  0  0  0  0  0  0  0  0  0
  152.1572  137.1942  154.6343 N   0  0  0  0  0  0  0  0  0  0  0  0
  151.1755  136.9686  155.5546 C   0  0  0  0  0  0  0  0  0  0  0  0
  150.8074  137.8534  156.6068 C   0  0  0  0  0  0  0  0  0  0  0  0
  149.7662  137.3038  157.3424 N   0  0  0  0  0  0  0  0  0  0  0  0
  149.5389  136.1582  156.7588 C   0  0  0  0  0  0  0  0  0  0  0  0
  150.3416  135.8731  155.6762 N   0  0  0  0  0  0  0  0  0  0  0  0
  150.3101  134.6343  154.8309 C   0  0  2  0  0  0  0  0  0  0  0  0
  148.9890  134.3412  154.4800 O   0  0  0  0  0  0  0  0  0  0  0  0
  148.6137  133.0526  154.9671 C   0  0  1  0  0  0  0  0  0  0  0  0
  147.5974  132.4115  154.0099 C   0  0  0  0  0  0  0  0  0  0  0  0
  148.0602  132.5038  152.6794 O   0  0  0  0  0  0  0  0  0  0  0  0
  149.9514  132.3131  155.0290 C   0  0  2  0  0  0  0  0  0  0  0  0
  149.9258  131.1696  155.8617 O   0  0  0  0  0  0  0  0  0  0  0  0
  150.8952  133.3948  155.5342 C   0  0  2  0  0  0  0  0  0  0  0  0
  150.9036  133.4940  156.9506 O   0  0  0  0  0  0  0  0  0  0  0  0
  151.8095  142.0031  158.9866 C   0  0  0  0  0  0  0  0  0  0  0  0
  151.0134  142.8621  157.9798 C   0  0  0  0  0  0  0  0  0  0  0  0
  150.4131  144.1068  158.6535 C   0  0  0  0  0  0  0  0  0  0  0  0
  151.5022  144.9465  159.3390 C   0  0  0  0  0  0  0  0  0  0  0  0
  152.3009  144.1022  160.3440 C   0  0  0  0  0  0  0  0  0  0  0  0
  152.9011  142.8555  159.6730 C   0  0  0  0  0  0  0  0  0  0  0  0
  150.8586  134.9041  153.9276 H   0  0  0  0  0  0  0  0  0  0  0  0
  148.2025  133.1428  155.9740 H   0  0  0  0  0  0  0  0  0  0  0  0
  150.2508  132.0137  154.0232 H   0  0  0  0  0  0  0  0  0  0  0  0
  151.9187  133.2308  155.1956 H   0  0  0  0  0  0  0  0  0  0  0  0
  156.1829  139.5881  159.4930 H   0  0  0  0  0  0  0  0  0  0  0  0
  154.6185  139.9289  160.8532 H   0  0  0  0  0  0  0  0  0  0  0  0
  154.4329  141.3514  159.8368 H   0  0  0  0  0  0  0  0  0  0  0  0
  153.1485  138.7472  158.9433 H   0  0  0  0  0  0  0  0  0  0  0  0
  152.4089  139.6223  160.2569 H   0  0  0  0  0  0  0  0  0  0  0  0
  153.1051  140.9567  157.6294 H   0  0  0  0  0  0  0  0  0  0  0  0
  150.3352  140.2423  157.9144 H   0  0  0  0  0  0  0  0  0  0  0  0
  153.5501  138.6114  154.1384 H   0  0  0  0  0  0  0  0  0  0  0  0
  148.7731  135.4806  157.1078 H   0  0  0  0  0  0  0  0  0  0  0  0
  147.4034  131.3716  154.2742 H   0  0  0  0  0  0  0  0  0  0  0  0
  146.6462  132.9421  154.0615 H   0  0  0  0  0  0  0  0  0  0  0  0
  148.2132  131.6307  152.3524 H   0  0  0  0  0  0  0  0  0  0  0  0
  149.5726  131.4240  156.7011 H   0  0  0  0  0  0  0  0  0  0  0  0
  150.3798  134.2394  157.2012 H   0  0  0  0  0  0  0  0  0  0  0  0
  151.0971  141.7200  159.7629 H   0  0  0  0  0  0  0  0  0  0  0  0
  151.6532  143.1840  157.1588 H   0  0  0  0  0  0  0  0  0  0  0  0
  150.2142  142.2686  157.5346 H   0  0  0  0  0  0  0  0  0  0  0  0
  149.8878  144.7121  157.9143 H   0  0  0  0  0  0  0  0  0  0  0  0
  149.6682  143.8018  159.3897 H   0  0  0  0  0  0  0  0  0  0  0  0
  152.1780  145.3537  158.5859 H   0  0  0  0  0  0  0  0  0  0  0  0
  151.0513  145.8005  159.8451 H   0  0  0  0  0  0  0  0  0  0  0  0
  153.0948  144.7042  160.7870 H   0  0  0  0  0  0  0  0  0  0  0  0
  151.6497  143.7981  161.1644 H   0  0  0  0  0  0  0  0  0  0  0  0
  153.4292  142.2633  160.4208 H   0  0  0  0  0  0  0  0  0  0  0  0
  153.6474  143.1712  158.9436 H   0  0  0  0  0  0  0  0  0  0  0  0
  1  2  1  0  0  0  0
  1 34  1  0  0  0  0
  2  3  1  0  0  0  0
  2 35  1  0  0  0  0
  2 36  1  0  0  0  0
  3  4  1  0  0  0  0
  3 37  1  0  0  0  0
  3 38  1  0  0  0  0
  4  5  1  0  0  0  0
  4 24  1  0  0  0  0
  4 39  1  0  0  0  0
  5  6  1  0  0  0  0
  5 40  1  0  0  0  0
  6 11  1  0  0  0  0
  6  7  2  0  0  0  0
  7  8  1  0  0  0  0
  8  9  2  0  0  0  0
  8 41  1  0  0  0  0
  9 10  1  0  0  0  0
 10 14  1  0  0  0  0
 10 11  2  0  0  0  0
 11 12  1  0  0  0  0
 12 13  2  0  0  0  0
 13 14  1  0  0  0  0
 13 42  1  0  0  0  0
 14 15  1  0  0  0  0
 15 30  1  0  0  0  0
 15 22  1  0  0  0  0
 15 16  1  0  0  0  0
 16 17  1  0  0  0  0
 17 31  1  0  0  0  0
 17 18  1  0  0  0  0
 17 20  1  0  0  0  0
 18 19  1  0  0  0  0
 18 43  1  0  0  0  0
 18 44  1  0  0  0  0
 19 45  1  0  0  0  0
 20 32  1  0  0  0  0
 20 21  1  0  0  0  0
 20 22  1  0  0  0  0
 21 46  1  0  0  0  0
 22 33  1  0  0  0  0
 22 23  1  0  0  0  0
 23 47  1  0  0  0  0
 24 29  1  0  0  0  0
 24 25  1  0  0  0  0
 24 48  1  0  0  0  0
 25 26  1  0  0  0  0
 25 49  1  0  0  0  0
 25 50  1  0  0  0  0
 26 27  1  0  0  0  0
 26 51  1  0  0  0  0
 26 52  1  0  0  0  0
 27 28  1  0  0  0  0
 27 53  1  0  0  0  0
 27 54  1  0  0  0  0
 28 29  1  0  0  0  0
 28 55  1  0  0  0  0
 28 56  1  0  0  0  0
 29 57  1  0  0  0  0
 29 58  1  0  0  0  0
M  END
> <s_m_source_file>
AV-unprocessed.smi

> <i_m_source_file_index>
109

> <i_lp_mmshare_version>
43012

> <i_f3d_flags>
0

> <s_epik_input>
W0NIMl0xW0NIMl1bQ0gyXVtDSDJdW0NIMl1bQ0hdMVtDQEhdKFtDSDJdW0NIMl1bT0hdKVtOSF1jKG5bY0hdbjIpYyhjMjMpbltjSF1uM1tDQEBIXTRPW0NASF0oW0NIMl1bT0hdKVtDQEBIXShbT0hdKVtDQEhdNFtPSF0=

> <s_epik_cmdline>
J2VwaWtfcHl0aG9uJywgJy1waCcsICc3LjAnLCAnLXRuJywgJzgnLCAnLW1hJywgJzIwMCcsICctbWV0YWxfYmluZGluZycsICctaW1hZScsICc8aW5maWxlLm1hZT4nLCAnLW9tYWUnLCAnPG91dGZpbGUubWFlPic=

> <r_lp_tautomer_probability>
1

> <r_epik_Ionization_Penalty>
0.000793976

> <r_epik_Ionization_Penalty_Charging>
0

> <r_epik_Ionization_Penalty_Neutral>
0.000793976

> <r_epik_State_Penalty>
-0

> <r_epik_Charging_Adjusted_Penalty>
0

> <i_epik_Tot_Q>
0

> <i_epik_Tot_abs_Q>
0

> <r_epik_Metal_State_Penalty>
-0

> <b_epik_Metal_Only>
0

> <s_epik_Chemistry_Notes>
This compound contains an acetal/aminal-like group ( X-CH(R)-Y where X, Y are N, S, or O) that may be acid/base labile, releasing an aldehyde.

> <s_lp_Force_Field>
OPLS_2005

> <r_lp_Energy>
62.1287

> <b_lp_Chiralities_Consistent>
1

> <s_lp_Variant>
AV-unprocessed.smi:109-30

> <Gold.Version>
5.8.1

> <Gold.Id.Protein>
6NUR|6NUR_protein|mol2

> <Gold.PLP.Fitness>
54.1575

> <Gold.PLP.PLP>
-45.7899

> <Gold.PLP.part.hbond>
-4.1327

> <Gold.PLP.part.metal>
0.0000

> <Gold.PLP.part.buried>
-9.8333

> <Gold.PLP.part.nonpolar>
-34.3441

> <Gold.PLP.part.repulsive>
2.2829

> <Gold.PLP.ligand.clash>
0.0177

> <Gold.PLP.ligand.torsion>
1.2423

> <Gold.PLP.Chemscore.Hbond>
3.4868

> <Gold.PLP.Chemscore.CHOScore>
0.0000

> <Gold.PLP.Chemscore.Metal>
0.0000

> <Gold.Chemscore.Hbonds>
donor molecule, donor type, donor heavy atom, donor atom, acceptor molecule, acceptor atom, score
      L1  H    19    45       P1 10747  0.16
      P1  H  7997  8009       L1     1  1.00
      P1  H  7997  8010       L1     7  0.76
      P1  H 10752 10765       L1     9  0.86

> <Gold.PLP.Chemscore.Internal.Correction>
0.4094

> <Gold.Rescore>
     Score         DG    S(hbond)    S(metal)    S(lipo)     H(rot)  DE(clash)    DE(int)     intcor
      9.88     -12.43       2.41        0.00     110.27       5.47       0.23       2.33       ----

> <Gold.Chemscore.Fitness>
9.8757

> <Gold.Chemscore.DG>
-12.4336

> <Gold.Chemscore.ZeroCoef>
-5.4800

> <Gold.Chemscore.Hbond>
2.4089

> <Gold.Chemscore.Metal>
0.0000

> <Gold.Chemscore.Lipo>
110.2689

> <Gold.Chemscore.Internal_Hbond>
0.0000

> <Gold.Chemscore.DEClash>
0.2272

> <Gold.Chemscore.DEInternal>
2.3307

> <Gold.Chemscore.Rot>
5.4662

> <Gold.Chemscore.Internal.Correction>
   9.000000E+99

> <Gold.Chemscore.Hbonds>
donor molecule, donor type, donor heavy atom, donor atom, acceptor molecule, acceptor atom, score
      L1  H    19    45       P1 10747  0.16
      P1  H  7997  8009       L1     1  0.98
      P1  H  7997  8010       L1     7  0.19
      P1  H 10752 10765       L1     9  0.47

> <Gold.Chemscore.Hbond.Weighted>
-8.0456

> <Gold.Chemscore.Metal.Weighted>
-0.0000

> <Gold.Chemscore.Lipo.Weighted>
-12.9015

> <Gold.Chemscore.Internal_Hbond.Weighted>
0.0000

> <Gold.Chemscore.DEClash.Weighted>
0.2272

> <Gold.Chemscore.DEInternal.Weighted>
2.3307

> <Gold.Chemscore.Rot.Weighted>
13.9935

> <Gold.Chemscore.Internal.Correction.Weighted>
   9.000000E+99

> <Gold.Protein.RotatedTorsions>
[ 6907 6896 6895 6894 ] final  -96.37 input  -60.11 | X-H torsion
[ 7974 7965 7964 7962 ] final   98.80 input  175.53 | X-H torsion
[ 8008 7997 7996 7995 ] final  102.14 input   59.86 | X-H torsion
[ 10167 10162 10161 10158 ] final -167.62 input  -65.29 | X-H torsion
[ 10718 10713 10712 10709 ] final   87.55 input   66.30 | X-H torsion
[ 10763 10752 10751 10750 ] final  168.58 input  -60.55 | X-H torsion
[ 11005 11000 10999 10996 ] final -107.66 input  -57.11 | X-H torsion

> <Gold.Protein.ActiveResidues>
 VAL166  LYS551  ARG553  GLY616  TRP617  ASP618  TYR619  PRO620  LYS621  CYS622 
 ASP623  PHE694  ASN695  SER759  ASP760  ASP761  ALA762  ILE779  LEU786  VAL792 
 PHE793  MET794  SER795  GLU796  ALA797  LYS798  CYS799  TRP800  GLU811  SER814 

> <Gold.Protein.RotatedAtoms>
  150.6987  134.1513  159.4141 H   0  0  0  0  0  0  0  0  0  0  0  0  # atno 6907 bound_to 6896
  151.9496  135.0173  160.0550 H   0  0  0  0  0  0  0  0  0  0  0  0  # atno 6908 bound_to 6896
  152.2022  133.4814  159.5102 H   0  0  0  0  0  0  0  0  0  0  0  0  # atno 6909 bound_to 6896
  145.4073  139.2339  143.3267 H   0  0  0  0  0  0  0  0  0  0  0  0  # atno 7974 bound_to 7965
  156.1365  140.3186  155.8428 H   0  0  0  0  0  0  0  0  0  0  0  0  # atno 8008 bound_to 7997
  155.4235  140.0514  157.3041 H   0  0  0  0  0  0  0  0  0  0  0  0  # atno 8009 bound_to 7997
  154.4941  140.2104  155.9498 H   0  0  0  0  0  0  0  0  0  0  0  0  # atno 8010 bound_to 7997
  139.6037  144.0956  152.1771 H   0  0  0  0  0  0  0  0  0  0  0  0  # atno 10167 bound_to 10162
  157.6941  131.0260  150.3140 H   0  0  0  0  0  0  0  0  0  0  0  0  # atno 10718 bound_to 10713
  154.3706  135.2753  155.2268 H   0  0  0  0  0  0  0  0  0  0  0  0  # atno 10763 bound_to 10752
  154.4417  135.5952  153.6137 H   0  0  0  0  0  0  0  0  0  0  0  0  # atno 10764 bound_to 10752
  152.9838  135.6020  154.3937 H   0  0  0  0  0  0  0  0  0  0  0  0  # atno 10765 bound_to 10752
  141.0942  133.9001  157.2003 H   0  0  0  0  0  0  0  0  0  0  0  0  # atno 11005 bound_to 11000
  146.2722  140.4779  142.8810 LP  0  0  0  0  0  0  0  0  0  0  0  0  # atno 17320 bound_to 7965
  144.8333  140.6741  143.6277 LP  0  0  0  0  0  0  0  0  0  0  0  0  # atno 17321 bound_to 7965
  140.0559  144.5896  150.7300 LP  0  0  0  0  0  0  0  0  0  0  0  0  # atno 17342 bound_to 10162
  140.7269  143.2646  151.4088 LP  0  0  0  0  0  0  0  0  0  0  0  0  # atno 17343 bound_to 10162
  156.3637  130.3851  149.7231 LP  0  0  0  0  0  0  0  0  0  0  0  0  # atno 17370 bound_to 10713
  156.4668  130.7978  151.2997 LP  0  0  0  0  0  0  0  0  0  0  0  0  # atno 17371 bound_to 10713
  139.9775  135.0109  156.9667 LP  0  0  0  0  0  0  0  0  0  0  0  0  # atno 17394 bound_to 11000
  140.5180  134.0936  155.7285 LP  0  0  0  0  0  0  0  0  0  0  0  0  # atno 17395 bound_to 11000

$$$$
