AV-unprocessed.smi:704|AV-procd|sdf|3445|dock1
  -GOLD-   22720 0433D 1   1.00000     0.00000
 Structure written by MMmdl.
 38 39  0  0  0  0  0  0  0  0  1 V2000
  151.4953  138.1737  154.4109 C   0  0  0  0  0  0  0  0  0  0  0  0
  150.1461  138.2157  153.9594 O   0  0  0  0  0  0  0  0  0  0  0  0
  149.4216  139.3773  154.1493 C   0  0  0  0  0  0  0  0  0  0  0  0
  150.0494  140.4461  154.7007 N   0  0  0  0  0  0  0  0  0  0  0  0
  149.3454  141.5823  154.8812 C   0  0  0  0  0  0  0  0  0  0  0  0
  147.9923  141.7154  154.5197 C   0  0  0  0  0  0  0  0  0  0  0  0
  147.3388  140.6081  153.9479 C   0  0  0  0  0  0  0  0  0  0  0  0
  148.0604  139.4033  153.7656 C   0  0  0  0  0  0  0  0  0  0  0  0
  147.5079  138.2295  153.1828 N   0  0  0  0  0  0  0  0  0  0  0  0
  146.2189  137.9286  152.9531 C   0  0  0  0  0  0  0  0  0  0  0  0
  145.2585  138.6515  153.2167 O   0  0  0  0  0  0  0  0  0  0  0  0
  146.0999  136.7090  152.4102 N   0  0  0  0  0  0  0  0  0  0  0  0
  144.8401  136.0623  152.0480 C   0  0  1  0  0  0  0  0  0  0  0  0
  144.9798  135.3221  150.7080 C   0  0  0  0  0  0  0  0  0  0  0  0
  145.1026  133.8444  151.0677 C   0  0  0  0  0  0  0  0  0  0  0  0
  144.2221  133.6900  152.3043 C   0  0  0  0  0  0  0  0  0  0  0  0
  144.4151  134.9966  153.0956 C   0  0  2  0  0  0  0  0  0  0  0  0
  143.1586  135.4063  153.8800 C   0  0  0  0  0  0  0  0  0  0  0  0
  142.6298  134.4948  154.6999 N   0  0  0  0  0  0  0  0  0  0  0  0
  142.6724  136.5283  153.7510 O   0  0  0  0  0  0  0  0  0  0  0  0
  151.9194  137.1952  154.1866 H   0  0  0  0  0  0  0  0  0  0  0  0
  151.5611  138.3231  155.4896 H   0  0  0  0  0  0  0  0  0  0  0  0
  152.1076  138.9227  153.9066 H   0  0  0  0  0  0  0  0  0  0  0  0
  149.8785  142.4122  155.3208 H   0  0  0  0  0  0  0  0  0  0  0  0
  147.4683  142.6471  154.6726 H   0  0  0  0  0  0  0  0  0  0  0  0
  146.3074  140.7116  153.6497 H   0  0  0  0  0  0  0  0  0  0  0  0
  148.1745  137.4989  152.9800 H   0  0  0  0  0  0  0  0  0  0  0  0
  146.9439  136.1834  152.2358 H   0  0  0  0  0  0  0  0  0  0  0  0
  144.0845  136.8420  151.9283 H   0  0  0  0  0  0  0  0  0  0  0  0
  144.0720  135.4704  150.1215 H   0  0  0  0  0  0  0  0  0  0  0  0
  145.8150  135.6742  150.1012 H   0  0  0  0  0  0  0  0  0  0  0  0
  144.8019  133.1859  150.2524 H   0  0  0  0  0  0  0  0  0  0  0  0
  146.1380  133.6129  151.3212 H   0  0  0  0  0  0  0  0  0  0  0  0
  143.1846  133.5600  151.9920 H   0  0  0  0  0  0  0  0  0  0  0  0
  144.4988  132.8118  152.8885 H   0  0  0  0  0  0  0  0  0  0  0  0
  145.2343  134.8343  153.7993 H   0  0  0  0  0  0  0  0  0  0  0  0
  141.7963  134.7116  155.2265 H   0  0  0  0  0  0  0  0  0  0  0  0
  143.0595  133.5848  154.7797 H   0  0  0  0  0  0  0  0  0  0  0  0
  1  2  1  0  0  0  0
  1 21  1  0  0  0  0
  1 22  1  0  0  0  0
  1 23  1  0  0  0  0
  2  3  1  0  0  0  0
  3  8  1  0  0  0  0
  3  4  2  0  0  0  0
  4  5  1  0  0  0  0
  5  6  2  0  0  0  0
  5 24  1  0  0  0  0
  6  7  1  0  0  0  0
  6 25  1  0  0  0  0
  7  8  2  0  0  0  0
  7 26  1  0  0  0  0
  8  9  1  0  0  0  0
  9 10  1  0  0  0  0
  9 27  1  0  0  0  0
 10 11  2  0  0  0  0
 10 12  1  0  0  0  0
 12 13  1  0  0  0  0
 12 28  1  0  0  0  0
 13 17  1  0  0  0  0
 13 14  1  0  0  0  0
 13 29  1  0  0  0  0
 14 15  1  0  0  0  0
 14 30  1  0  0  0  0
 14 31  1  0  0  0  0
 15 16  1  0  0  0  0
 15 32  1  0  0  0  0
 15 33  1  0  0  0  0
 16 17  1  0  0  0  0
 16 34  1  0  0  0  0
 16 35  1  0  0  0  0
 17 18  1  0  0  0  0
 17 36  1  0  0  0  0
 18 19  1  0  0  0  0
 18 20  2  0  0  0  0
 19 37  1  0  0  0  0
 19 38  1  0  0  0  0
M  END
> <s_m_source_file>
AV-unprocessed.smi

> <i_m_source_file_index>
704

> <i_lp_mmshare_version>
43012

> <i_f3d_flags>
0

> <s_epik_input>
W0NIM11PYzFuW2NIXVtjSF1bY0hdYzFbTkhdQyg9TylbTkhdW0NAQEhdMltDSDJdW0NIMl1bQ0gyXVtDQEhdMkMoPU8pW05IMl0=

> <s_epik_cmdline>
J2VwaWtfcHl0aG9uJywgJy1waCcsICc3LjAnLCAnLXRuJywgJzgnLCAnLW1hJywgJzIwMCcsICctbWV0YWxfYmluZGluZycsICctaW1hZScsICc8aW5maWxlLm1hZT4nLCAnLW9tYWUnLCAnPG91dGZpbGUubWFlPic=

> <r_lp_tautomer_probability>
1

> <r_epik_Ionization_Penalty>
9.09123e-05

> <r_epik_Ionization_Penalty_Charging>
0

> <r_epik_Ionization_Penalty_Neutral>
9.09123e-05

> <r_epik_State_Penalty>
-0

> <r_epik_Charging_Adjusted_Penalty>
0

> <i_epik_Tot_Q>
0

> <i_epik_Tot_abs_Q>
0

> <r_epik_Metal_State_Penalty>
-0

> <b_epik_Metal_Only>
0

> <s_lp_Force_Field>
OPLS_2005

> <r_lp_Energy>
17.389

> <b_lp_Chiralities_Consistent>
1

> <s_lp_Variant>
AV-unprocessed.smi:704-4

> <Gold.Version>
5.8.1

> <Gold.Id.Protein>
6NUR|6NUR_protein|mol2

> <Gold.PLP.Fitness>
44.3981

> <Gold.PLP.PLP>
-28.9501

> <Gold.PLP.part.hbond>
-5.0000

> <Gold.PLP.part.metal>
0.0000

> <Gold.PLP.part.buried>
-5.2181

> <Gold.PLP.part.nonpolar>
-25.0823

> <Gold.PLP.part.repulsive>
4.8399

> <Gold.PLP.ligand.clash>
0.0000

> <Gold.PLP.ligand.torsion>
0.4008

> <Gold.PLP.Chemscore.Hbond>
4.5291

> <Gold.PLP.Chemscore.CHOScore>
0.8788

> <Gold.PLP.Chemscore.Metal>
0.0000

> <Gold.Chemscore.Hbonds>
donor molecule, donor type, donor heavy atom, donor atom, acceptor molecule, acceptor atom, score
      L1  H     9    27       P1  7948  1.00
      L1  H    12    28       P1  7948  0.96
      L1  H    19    37       P1 11000  0.78
      L1  H    19    38       P1 10957  0.83
      P1  H  7989  7998       L1     4  0.94
      L1  C     5    24       P1  8028  0.88

> <Gold.PLP.Chemscore.Internal.Correction>
0.0258

> <Gold.Rescore>
     Score         DG    S(hbond)    S(metal)    S(lipo)     H(rot)  DE(clash)    DE(int)     intcor
     15.98     -19.38       3.48        0.00      60.20       1.86       1.83       1.56       ----

> <Gold.Chemscore.Fitness>
15.9789

> <Gold.Chemscore.DG>
-19.3755

> <Gold.Chemscore.ZeroCoef>
-5.4800

> <Gold.Chemscore.Hbond>
3.4810

> <Gold.Chemscore.Metal>
0.0000

> <Gold.Chemscore.Lipo>
60.1951

> <Gold.Chemscore.Internal_Hbond>
0.0000

> <Gold.Chemscore.DEClash>
1.8342

> <Gold.Chemscore.DEInternal>
1.5624

> <Gold.Chemscore.Rot>
1.8648

> <Gold.Chemscore.Internal.Correction>
   9.000000E+99

> <Gold.Chemscore.Hbonds>
donor molecule, donor type, donor heavy atom, donor atom, acceptor molecule, acceptor atom, score
      L1  H     9    27       P1  7948  0.97
      L1  H    12    28       P1  7948  0.86
      L1  H    19    37       P1 11000  0.44
      L1  H    19    38       P1 10957  0.83
      P1  H  7989  7998       L1     4  0.31

> <Gold.Chemscore.Hbond.Weighted>
-11.6266

> <Gold.Chemscore.Metal.Weighted>
-0.0000

> <Gold.Chemscore.Lipo.Weighted>
-7.0428

> <Gold.Chemscore.Internal_Hbond.Weighted>
0.0000

> <Gold.Chemscore.DEClash.Weighted>
1.8342

> <Gold.Chemscore.DEInternal.Weighted>
1.5624

> <Gold.Chemscore.Rot.Weighted>
4.7739

> <Gold.Chemscore.Internal.Correction.Weighted>
   9.000000E+99

> <Gold.Protein.RotatedTorsions>
[ 6907 6896 6895 6894 ] final -141.81 input  -60.11 | X-H torsion
[ 7974 7965 7964 7962 ] final  -67.32 input  175.53 | X-H torsion
[ 8008 7997 7996 7995 ] final   71.33 input   59.86 | X-H torsion
[ 10167 10162 10161 10158 ] final  -44.86 input  -65.29 | X-H torsion
[ 10718 10713 10712 10709 ] final  -32.18 input   66.30 | X-H torsion
[ 10763 10752 10751 10750 ] final -161.82 input  -60.55 | X-H torsion
[ 11005 11000 10999 10996 ] final -175.94 input  -57.11 | X-H torsion

> <Gold.Protein.ActiveResidues>
 VAL166  LYS551  ARG553  GLY616  TRP617  ASP618  TYR619  PRO620  LYS621  CYS622 
 ASP623  PHE694  ASN695  SER759  ASP760  ASP761  ALA762  ILE779  LEU786  VAL792 
 PHE793  MET794  SER795  GLU796  ALA797  LYS798  CYS799  TRP800  GLU811  SER814 

> <Gold.Protein.RotatedAtoms>
  151.0787  133.5407  159.2621 H   0  0  0  0  0  0  0  0  0  0  0  0  # atno 6907 bound_to 6896
  151.2319  135.0557  159.9001 H   0  0  0  0  0  0  0  0  0  0  0  0  # atno 6908 bound_to 6896
  152.5421  134.0574  159.8191 H   0  0  0  0  0  0  0  0  0  0  0  0  # atno 6909 bound_to 6896
  145.7307  140.8998  143.0581 H   0  0  0  0  0  0  0  0  0  0  0  0  # atno 7974 bound_to 7965
  155.7523  140.3488  155.5156 H   0  0  0  0  0  0  0  0  0  0  0  0  # atno 8008 bound_to 7997
  155.8993  140.1031  157.1383 H   0  0  0  0  0  0  0  0  0  0  0  0  # atno 8009 bound_to 7997
  154.4042  140.1289  156.4402 H   0  0  0  0  0  0  0  0  0  0  0  0  # atno 8010 bound_to 7997
  140.6880  143.2908  151.3556 H   0  0  0  0  0  0  0  0  0  0  0  0  # atno 10167 bound_to 10162
  156.3780  130.4351  149.7491 H   0  0  0  0  0  0  0  0  0  0  0  0  # atno 10718 bound_to 10713
  154.7269  135.3038  154.8955 H   0  0  0  0  0  0  0  0  0  0  0  0  # atno 10763 bound_to 10752
  153.9810  135.6730  153.4754 H   0  0  0  0  0  0  0  0  0  0  0  0  # atno 10764 bound_to 10752
  153.0883  135.4972  154.8560 H   0  0  0  0  0  0  0  0  0  0  0  0  # atno 10765 bound_to 10752
  140.4577  134.6284  157.4829 H   0  0  0  0  0  0  0  0  0  0  0  0  # atno 11005 bound_to 11000
  144.6894  139.9327  143.7472 LP  0  0  0  0  0  0  0  0  0  0  0  0  # atno 17320 bound_to 7965
  146.0540  139.3539  143.0622 LP  0  0  0  0  0  0  0  0  0  0  0  0  # atno 17321 bound_to 7965
  139.6256  144.0820  152.2431 LP  0  0  0  0  0  0  0  0  0  0  0  0  # atno 17342 bound_to 10162
  140.0278  144.6104  150.7512 LP  0  0  0  0  0  0  0  0  0  0  0  0  # atno 17343 bound_to 10162
  156.4593  130.7944  151.2964 LP  0  0  0  0  0  0  0  0  0  0  0  0  # atno 17370 bound_to 10713
  157.7490  131.0071  150.3176 LP  0  0  0  0  0  0  0  0  0  0  0  0  # atno 17371 bound_to 10713
  139.9965  134.6902  155.9600 LP  0  0  0  0  0  0  0  0  0  0  0  0  # atno 17394 bound_to 11000
  141.1635  133.6538  156.4401 LP  0  0  0  0  0  0  0  0  0  0  0  0  # atno 17395 bound_to 11000

$$$$
