AV-unprocessed.smi:2441|AV-procd|sdf|9622|dock10
  -GOLD-   2272013253D 1   1.00000     0.00000
 Structure written by MMmdl.
 40 41  0  0  0  0  0  0  0  0  1 V2000
  147.5926  132.9312  152.3395 C   0  0  0  0  0  0  0  0  0  0  0  0
  146.3655  133.5363  151.6349 C   0  0  1  0  0  0  0  0  0  0  0  0
  145.3205  132.4410  151.3386 C   0  0  0  0  0  0  0  0  0  0  0  0
  144.0789  133.0063  150.6329 C   0  0  0  0  0  0  0  0  0  0  0  0
  143.4477  134.1393  151.4528 C   0  0  0  0  0  0  0  0  0  0  0  0
  144.4725  135.2467  151.7360 C   0  0  0  0  0  0  0  0  0  0  0  0
  145.7278  134.6965  152.4411 C   0  0  2  0  0  0  0  0  0  0  0  0
  146.6827  135.7898  152.6199 N   0  0  0  0  0  0  0  0  0  0  0  0
  146.4086  137.0031  153.1210 C   0  0  0  0  0  0  0  0  0  0  0  0
  145.2908  137.3414  153.5091 O   0  0  0  0  0  0  0  0  0  0  0  0
  147.5089  137.7783  153.1185 N   0  0  0  0  0  0  0  0  0  0  0  0
  147.6721  139.0968  153.5783 C   0  0  0  0  0  0  0  0  0  0  0  0
  146.8120  140.1136  153.3192 C   0  0  0  0  0  0  0  0  0  0  0  0
  147.0495  141.4370  153.8423 C   0  0  0  0  0  0  0  0  0  0  0  0
  148.1358  141.6347  154.6014 C   0  0  0  0  0  0  0  0  0  0  0  0
  149.0342  140.5963  154.8940 N   0  0  0  0  0  0  0  0  0  0  0  0
  150.1772  140.9623  155.7351 C   0  0  0  0  0  0  0  0  0  0  0  0
  148.8635  139.3243  154.4206 C   0  0  0  0  0  0  0  0  0  0  0  0
  149.6645  138.4249  154.6859 O   0  0  0  0  0  0  0  0  0  0  0  0
  147.3301  132.5457  153.3250 H   0  0  0  0  0  0  0  0  0  0  0  0
  148.3863  133.6666  152.4710 H   0  0  0  0  0  0  0  0  0  0  0  0
  148.0094  132.1067  151.7608 H   0  0  0  0  0  0  0  0  0  0  0  0
  146.7027  133.9354  150.6768 H   0  0  0  0  0  0  0  0  0  0  0  0
  145.7642  131.6607  150.7193 H   0  0  0  0  0  0  0  0  0  0  0  0
  145.0194  131.9594  152.2699 H   0  0  0  0  0  0  0  0  0  0  0  0
  144.3554  133.3779  149.6454 H   0  0  0  0  0  0  0  0  0  0  0  0
  143.3490  132.2126  150.4723 H   0  0  0  0  0  0  0  0  0  0  0  0
  142.5915  134.5523  150.9192 H   0  0  0  0  0  0  0  0  0  0  0  0
  143.0653  133.7437  152.3946 H   0  0  0  0  0  0  0  0  0  0  0  0
  144.7552  135.7230  150.7960 H   0  0  0  0  0  0  0  0  0  0  0  0
  144.0111  136.0230  152.3480 H   0  0  0  0  0  0  0  0  0  0  0  0
  145.4178  134.3038  153.4115 H   0  0  0  0  0  0  0  0  0  0  0  0
  147.6315  135.6072  152.3280 H   0  0  0  0  0  0  0  0  0  0  0  0
  148.3350  137.3787  152.6971 H   0  0  0  0  0  0  0  0  0  0  0  0
  145.9183  139.9692  152.7340 H   0  0  0  0  0  0  0  0  0  0  0  0
  146.3689  142.2475  153.6267 H   0  0  0  0  0  0  0  0  0  0  0  0
  148.3898  142.5929  155.0321 H   0  0  0  0  0  0  0  0  0  0  0  0
  150.8079  140.1222  156.0272 H   0  0  0  0  0  0  0  0  0  0  0  0
  149.8294  141.4347  156.6546 H   0  0  0  0  0  0  0  0  0  0  0  0
  150.8097  141.6788  155.2096 H   0  0  0  0  0  0  0  0  0  0  0  0
  1  2  1  0  0  0  0
  1 20  1  0  0  0  0
  1 21  1  0  0  0  0
  1 22  1  0  0  0  0
  2  7  1  0  0  0  0
  2  3  1  0  0  0  0
  2 23  1  0  0  0  0
  3  4  1  0  0  0  0
  3 24  1  0  0  0  0
  3 25  1  0  0  0  0
  4  5  1  0  0  0  0
  4 26  1  0  0  0  0
  4 27  1  0  0  0  0
  5  6  1  0  0  0  0
  5 28  1  0  0  0  0
  5 29  1  0  0  0  0
  6  7  1  0  0  0  0
  6 30  1  0  0  0  0
  6 31  1  0  0  0  0
  7  8  1  0  0  0  0
  7 32  1  0  0  0  0
  8  9  1  0  0  0  0
  8 33  1  0  0  0  0
  9 10  2  0  0  0  0
  9 11  1  0  0  0  0
 11 12  1  0  0  0  0
 11 34  1  0  0  0  0
 12 18  1  0  0  0  0
 12 13  2  0  0  0  0
 13 14  1  0  0  0  0
 13 35  1  0  0  0  0
 14 15  2  0  0  0  0
 14 36  1  0  0  0  0
 15 16  1  0  0  0  0
 15 37  1  0  0  0  0
 16 17  1  0  0  0  0
 16 18  1  0  0  0  0
 17 38  1  0  0  0  0
 17 39  1  0  0  0  0
 17 40  1  0  0  0  0
 18 19  2  0  0  0  0
M  END
> <s_m_source_file>
AV-unprocessed.smi

> <i_m_source_file_index>
2441

> <i_lp_mmshare_version>
43012

> <i_f3d_flags>
0

> <s_epik_input>
W0NIM11bQ0BASF0xW0NIMl1bQ0gyXVtDSDJdW0NIMl1bQ0BIXTFbTkhdQyg9TylbTkhdYzJbY0hdW2NIXVtjSF1uKFtDSDNdKWMyPU8=

> <s_epik_cmdline>
J2VwaWtfcHl0aG9uJywgJy1waCcsICc3LjAnLCAnLXRuJywgJzgnLCAnLW1hJywgJzIwMCcsICctbWV0YWxfYmluZGluZycsICctaW1hZScsICc8aW5maWxlLm1hZT4nLCAnLW9tYWUnLCAnPG91dGZpbGUubWFlPic=

> <r_lp_tautomer_probability>
1

> <r_epik_Ionization_Penalty>
2.64999e-05

> <r_epik_Ionization_Penalty_Charging>
5.09663e-06

> <r_epik_Ionization_Penalty_Neutral>
2.14032e-05

> <r_epik_State_Penalty>
-0

> <r_epik_Charging_Adjusted_Penalty>
5.09663e-06

> <i_epik_Tot_Q>
0

> <i_epik_Tot_abs_Q>
0

> <r_epik_Metal_State_Penalty>
-0

> <b_epik_Metal_Only>
0

> <s_lp_Force_Field>
OPLS_2005

> <r_lp_Energy>
23.8871

> <b_lp_Chiralities_Consistent>
1

> <s_lp_Variant>
AV-unprocessed.smi:2441-4

> <Gold.Version>
5.8.1

> <Gold.Id.Protein>
6NUR|6NUR_protein|mol2

> <Gold.PLP.Fitness>
40.1945

> <Gold.PLP.PLP>
-32.3612

> <Gold.PLP.part.hbond>
-1.5218

> <Gold.PLP.part.metal>
0.0000

> <Gold.PLP.part.buried>
-2.3497

> <Gold.PLP.part.nonpolar>
-29.7913

> <Gold.PLP.part.repulsive>
0.3836

> <Gold.PLP.ligand.clash>
0.0000

> <Gold.PLP.ligand.torsion>
0.4894

> <Gold.PLP.Chemscore.Hbond>
1.9360

> <Gold.PLP.Chemscore.CHOScore>
1.0000

> <Gold.PLP.Chemscore.Metal>
0.0000

> <Gold.Chemscore.Hbonds>
donor molecule, donor type, donor heavy atom, donor atom, acceptor molecule, acceptor atom, score
      L1  H     8    33       P1  7948  0.89
      L1  H    11    34       P1  7948  0.98
      L1  C    15    37       P1  8028  1.00

> <Gold.PLP.Chemscore.Internal.Correction>
0.0040

> <Gold.Rescore>
     Score         DG    S(hbond)    S(metal)    S(lipo)     H(rot)  DE(clash)    DE(int)     intcor
     16.12     -17.52       1.87        0.00      71.48       1.00       0.22       1.18       ----

> <Gold.Chemscore.Fitness>
16.1158

> <Gold.Chemscore.DG>
-17.5186

> <Gold.Chemscore.ZeroCoef>
-5.4800

> <Gold.Chemscore.Hbond>
1.8670

> <Gold.Chemscore.Metal>
0.0000

> <Gold.Chemscore.Lipo>
71.4762

> <Gold.Chemscore.Internal_Hbond>
0.0000

> <Gold.Chemscore.DEClash>
0.2208

> <Gold.Chemscore.DEInternal>
1.1819

> <Gold.Chemscore.Rot>
1.0000

> <Gold.Chemscore.Internal.Correction>
   9.000000E+99

> <Gold.Chemscore.Hbonds>
donor molecule, donor type, donor heavy atom, donor atom, acceptor molecule, acceptor atom, score
      L1  H     8    33       P1  7948  0.82
      L1  H    11    34       P1  7948  0.87

> <Gold.Chemscore.Hbond.Weighted>
-6.2358

> <Gold.Chemscore.Metal.Weighted>
-0.0000

> <Gold.Chemscore.Lipo.Weighted>
-8.3627

> <Gold.Chemscore.Internal_Hbond.Weighted>
0.0000

> <Gold.Chemscore.DEClash.Weighted>
0.2208

> <Gold.Chemscore.DEInternal.Weighted>
1.1819

> <Gold.Chemscore.Rot.Weighted>
2.5600

> <Gold.Chemscore.Internal.Correction.Weighted>
   9.000000E+99

> <Gold.Protein.RotatedTorsions>
[ 6907 6896 6895 6894 ] final  118.09 input  -60.11 | X-H torsion
[ 7974 7965 7964 7962 ] final -113.68 input  175.53 | X-H torsion
[ 8008 7997 7996 7995 ] final   35.79 input   59.86 | X-H torsion
[ 10167 10162 10161 10158 ] final   23.57 input  -65.29 | X-H torsion
[ 10718 10713 10712 10709 ] final -171.77 input   66.30 | X-H torsion
[ 10763 10752 10751 10750 ] final   43.85 input  -60.55 | X-H torsion
[ 11005 11000 10999 10996 ] final  115.02 input  -57.11 | X-H torsion

> <Gold.Protein.ActiveResidues>
 VAL166  LYS551  ARG553  GLY616  TRP617  ASP618  TYR619  PRO620  LYS621  CYS622 
 ASP623  PHE694  ASN695  SER759  ASP760  ASP761  ALA762  ILE779  LEU786  VAL792 
 PHE793  MET794  SER795  GLU796  ALA797  LYS798  CYS799  TRP800  GLU811  SER814 

> <Gold.Protein.RotatedAtoms>
  152.4567  133.7738  159.6813 H   0  0  0  0  0  0  0  0  0  0  0  0  # atno 6907 bound_to 6896
  150.8496  133.7797  159.3036 H   0  0  0  0  0  0  0  0  0  0  0  0  # atno 6908 bound_to 6896
  151.5397  135.1071  159.9975 H   0  0  0  0  0  0  0  0  0  0  0  0  # atno 6909 bound_to 6896
  145.1292  140.8714  143.3768 H   0  0  0  0  0  0  0  0  0  0  0  0  # atno 7974 bound_to 7965
  155.1768  140.3296  155.4382 H   0  0  0  0  0  0  0  0  0  0  0  0  # atno 8008 bound_to 7997
  156.2491  140.1934  156.6818 H   0  0  0  0  0  0  0  0  0  0  0  0  # atno 8009 bound_to 7997
  154.6299  140.0584  156.9705 H   0  0  0  0  0  0  0  0  0  0  0  0  # atno 8010 bound_to 7997
  140.5258  143.9926  150.6439 H   0  0  0  0  0  0  0  0  0  0  0  0  # atno 10167 bound_to 10162
  156.7457  130.9359  151.3112 H   0  0  0  0  0  0  0  0  0  0  0  0  # atno 10718 bound_to 10713
  152.9852  135.6088  154.3179 H   0  0  0  0  0  0  0  0  0  0  0  0  # atno 10763 bound_to 10752
  154.2890  135.2775  155.2665 H   0  0  0  0  0  0  0  0  0  0  0  0  # atno 10764 bound_to 10752
  154.4969  135.5877  153.6558 H   0  0  0  0  0  0  0  0  0  0  0  0  # atno 10765 bound_to 10752
  139.8997  134.9577  156.6981 H   0  0  0  0  0  0  0  0  0  0  0  0  # atno 11005 bound_to 11000
  145.0654  139.3072  143.5859 LP  0  0  0  0  0  0  0  0  0  0  0  0  # atno 17320 bound_to 7965
  146.3515  140.0111  142.8667 LP  0  0  0  0  0  0  0  0  0  0  0  0  # atno 17321 bound_to 7965
  140.3287  143.3091  152.0709 LP  0  0  0  0  0  0  0  0  0  0  0  0  # atno 17342 bound_to 10162
  139.4938  144.6524  151.6647 LP  0  0  0  0  0  0  0  0  0  0  0  0  # atno 17343 bound_to 10162
  157.6799  130.9130  150.0241 LP  0  0  0  0  0  0  0  0  0  0  0  0  # atno 17370 bound_to 10713
  156.1434  130.3642  149.9547 LP  0  0  0  0  0  0  0  0  0  0  0  0  # atno 17371 bound_to 10713
  140.7172  133.9172  155.8123 LP  0  0  0  0  0  0  0  0  0  0  0  0  # atno 17394 bound_to 11000
  141.0255  134.0829  157.4073 LP  0  0  0  0  0  0  0  0  0  0  0  0  # atno 17395 bound_to 11000

$$$$
