AV-unprocessed.smi:3342|AV-procd|sdf|12889|dock10
  -GOLD-   2272019293D 1   1.00000     0.00000
 Structure written by MMmdl.
 41 42  0  0  0  0  0  0  0  0  1 V2000
  149.5926  141.8231  158.0660 C   0  0  0  0  0  0  0  0  0  0  0  0
  151.1053  141.5627  158.1561 C   0  0  2  0  0  0  0  0  0  0  0  0
  151.9575  142.7913  157.7700 C   0  0  0  0  0  0  0  0  0  0  0  0
  151.7763  143.9085  158.6773 N   0  0  0  0  0  0  0  0  0  0  0  0
  152.3704  144.0810  159.9204 C   0  0  0  0  0  0  0  0  0  0  0  0
  151.9077  145.2798  160.4143 C   0  0  0  0  0  0  0  0  0  0  0  0
  151.0370  145.8609  159.4951 N   0  0  0  0  0  0  0  0  0  0  0  0
  151.0117  144.9934  158.4915 C   0  0  0  0  0  0  0  0  0  0  0  0
  151.4445  140.4288  157.3018 N   0  0  0  0  0  0  0  0  0  0  0  0
  151.2035  140.3399  155.9823 C   0  0  0  0  0  0  0  0  0  0  0  0
  150.6689  141.2533  155.3517 O   0  0  0  0  0  0  0  0  0  0  0  0
  151.6136  139.1804  155.4082 N   0  0  0  0  0  0  0  0  0  0  0  0
  152.3977  138.1162  156.0576 C   0  0  0  0  0  0  0  0  0  0  0  0
  151.4587  136.9400  156.3807 C   0  0  0  0  0  0  0  0  0  0  0  0
  150.7496  136.4254  155.1053 C   0  0  0  0  0  0  0  0  0  0  0  0
  149.7105  135.3501  155.4496 C   0  0  0  0  0  0  0  0  0  0  0  0
  148.9992  134.8455  154.4383 N   0  0  0  0  0  0  0  0  0  0  0  0
  149.5506  134.9780  156.6105 O   0  0  0  0  0  0  0  0  0  0  0  0
  150.1026  137.5933  154.3231 C   0  0  0  0  0  0  0  0  0  0  0  0
  151.1070  138.7393  154.1030 C   0  0  0  0  0  0  0  0  0  0  0  0
  149.2790  142.6036  158.7595 H   0  0  0  0  0  0  0  0  0  0  0  0
  149.0250  140.9257  158.3139 H   0  0  0  0  0  0  0  0  0  0  0  0
  149.3034  142.1336  157.0614 H   0  0  0  0  0  0  0  0  0  0  0  0
  151.3275  141.2957  159.1910 H   0  0  0  0  0  0  0  0  0  0  0  0
  153.0178  142.5346  157.7618 H   0  0  0  0  0  0  0  0  0  0  0  0
  151.7095  143.1213  156.7599 H   0  0  0  0  0  0  0  0  0  0  0  0
  153.0519  143.3553  160.3394 H   0  0  0  0  0  0  0  0  0  0  0  0
  152.1332  145.7655  161.3521 H   0  0  0  0  0  0  0  0  0  0  0  0
  150.4186  145.1488  157.6020 H   0  0  0  0  0  0  0  0  0  0  0  0
  151.8951  139.6437  157.7486 H   0  0  0  0  0  0  0  0  0  0  0  0
  153.1853  137.7864  155.3784 H   0  0  0  0  0  0  0  0  0  0  0  0
  152.9159  138.4351  156.9619 H   0  0  0  0  0  0  0  0  0  0  0  0
  152.0282  136.1322  156.8421 H   0  0  0  0  0  0  0  0  0  0  0  0
  150.7250  137.2627  157.1216 H   0  0  0  0  0  0  0  0  0  0  0  0
  151.5100  135.9784  154.4622 H   0  0  0  0  0  0  0  0  0  0  0  0
  148.3035  134.1354  154.6152 H   0  0  0  0  0  0  0  0  0  0  0  0
  149.1606  135.1770  153.4983 H   0  0  0  0  0  0  0  0  0  0  0  0
  149.7336  137.2395  153.3595 H   0  0  0  0  0  0  0  0  0  0  0  0
  149.2354  137.9785  154.8622 H   0  0  0  0  0  0  0  0  0  0  0  0
  150.6359  139.5458  153.5392 H   0  0  0  0  0  0  0  0  0  0  0  0
  151.9393  138.3974  153.4859 H   0  0  0  0  0  0  0  0  0  0  0  0
  1  2  1  0  0  0  0
  1 21  1  0  0  0  0
  1 22  1  0  0  0  0
  1 23  1  0  0  0  0
  2  3  1  0  0  0  0
  2  9  1  0  0  0  0
  2 24  1  0  0  0  0
  3  4  1  0  0  0  0
  3 25  1  0  0  0  0
  3 26  1  0  0  0  0
  4  8  1  0  0  0  0
  4  5  1  0  0  0  0
  5  6  2  0  0  0  0
  5 27  1  0  0  0  0
  6  7  1  0  0  0  0
  6 28  1  0  0  0  0
  7  8  2  0  0  0  0
  8 29  1  0  0  0  0
  9 10  1  0  0  0  0
  9 30  1  0  0  0  0
 10 11  2  0  0  0  0
 10 12  1  0  0  0  0
 12 20  1  0  0  0  0
 12 13  1  0  0  0  0
 13 14  1  0  0  0  0
 13 31  1  0  0  0  0
 13 32  1  0  0  0  0
 14 15  1  0  0  0  0
 14 33  1  0  0  0  0
 14 34  1  0  0  0  0
 15 16  1  0  0  0  0
 15 19  1  0  0  0  0
 15 35  1  0  0  0  0
 16 17  1  0  0  0  0
 16 18  2  0  0  0  0
 17 36  1  0  0  0  0
 17 37  1  0  0  0  0
 19 20  1  0  0  0  0
 19 38  1  0  0  0  0
 19 39  1  0  0  0  0
 20 40  1  0  0  0  0
 20 41  1  0  0  0  0
M  END
> <s_m_source_file>
AV-unprocessed.smi

> <i_m_source_file_index>
3342

> <i_lp_mmshare_version>
43012

> <i_f3d_flags>
0

> <s_epik_input>
W2NIXTFuW2NIXVtjSF1uMVtDSDJdW0NAQEhdKFtDSDNdKVtOSF1DKD1PKU4yW0NIMl1bQ0gyXVtDSF0oQyg9TylbTkgyXSlbQ0gyXVtDSDJdMg==

> <s_epik_cmdline>
J2VwaWtfcHl0aG9uJywgJy1waCcsICc3LjAnLCAnLXRuJywgJzgnLCAnLW1hJywgJzIwMCcsICctbWV0YWxfYmluZGluZycsICctaW1hZScsICc8aW5maWxlLm1hZT4nLCAnLW9tYWUnLCAnPG91dGZpbGUubWFlPic=

> <r_lp_tautomer_probability>
1

> <r_epik_Ionization_Penalty>
0.624431

> <r_epik_Ionization_Penalty_Charging>
0.624374

> <r_epik_Ionization_Penalty_Neutral>
5.67186e-05

> <r_epik_State_Penalty>
0.640677

> <r_epik_Charging_Adjusted_Penalty>
1.26505

> <i_epik_Tot_Q>
0

> <i_epik_Tot_abs_Q>
0

> <r_epik_Metal_State_Penalty>
0.307574

> <b_epik_Metal_Only>
0

> <s_lp_Force_Field>
OPLS_2005

> <r_lp_Energy>
29.2273

> <b_lp_Chiralities_Consistent>
1

> <s_lp_Variant>
AV-unprocessed.smi:3342-3

> <Gold.Version>
5.8.1

> <Gold.Id.Protein>
6NUR|6NUR_protein|mol2

> <Gold.PLP.Fitness>
41.8649

> <Gold.PLP.PLP>
-35.4298

> <Gold.PLP.part.hbond>
-4.0000

> <Gold.PLP.part.metal>
0.0000

> <Gold.PLP.part.buried>
-1.7633

> <Gold.PLP.part.nonpolar>
-29.1182

> <Gold.PLP.part.repulsive>
0.3659

> <Gold.PLP.ligand.clash>
0.0000

> <Gold.PLP.ligand.torsion>
0.4506

> <Gold.PLP.Chemscore.Hbond>
1.5730

> <Gold.PLP.Chemscore.CHOScore>
0.8450

> <Gold.PLP.Chemscore.Metal>
0.0000

> <Gold.Chemscore.Hbonds>
donor molecule, donor type, donor heavy atom, donor atom, acceptor molecule, acceptor atom, score
      L1  H    17    37       P1  7948  1.00
      P1  H  7989  7998       L1    11  0.41
      L1  C     8    29       P1  8028  0.65
      L1  C     8    29       P1  8029  0.19

> <Gold.PLP.Chemscore.Internal.Correction>
0.0822

> <Gold.Rescore>
     Score         DG    S(hbond)    S(metal)    S(lipo)     H(rot)  DE(clash)    DE(int)     intcor
     10.25     -11.85       1.22        0.00      69.32       2.28       0.01       1.60       ----

> <Gold.Chemscore.Fitness>
10.2468

> <Gold.Chemscore.DG>
-11.8497

> <Gold.Chemscore.ZeroCoef>
-5.4800

> <Gold.Chemscore.Hbond>
1.2232

> <Gold.Chemscore.Metal>
0.0000

> <Gold.Chemscore.Lipo>
69.3156

> <Gold.Chemscore.Internal_Hbond>
0.0000

> <Gold.Chemscore.DEClash>
0.0061

> <Gold.Chemscore.DEInternal>
1.5968

> <Gold.Chemscore.Rot>
2.2757

> <Gold.Chemscore.Internal.Correction>
   9.000000E+99

> <Gold.Chemscore.Hbonds>
donor molecule, donor type, donor heavy atom, donor atom, acceptor molecule, acceptor atom, score
      L1  H    17    37       P1  7948  0.30
      P1  H  7989  7998       L1    11  0.07

> <Gold.Chemscore.Hbond.Weighted>
-4.0856

> <Gold.Chemscore.Metal.Weighted>
-0.0000

> <Gold.Chemscore.Lipo.Weighted>
-8.1099

> <Gold.Chemscore.Internal_Hbond.Weighted>
0.0000

> <Gold.Chemscore.DEClash.Weighted>
0.0061

> <Gold.Chemscore.DEInternal.Weighted>
1.5968

> <Gold.Chemscore.Rot.Weighted>
5.8259

> <Gold.Chemscore.Internal.Correction.Weighted>
   9.000000E+99

> <Gold.Protein.RotatedTorsions>
[ 6907 6896 6895 6894 ] final -116.55 input  -60.11 | X-H torsion
[ 7974 7965 7964 7962 ] final -133.23 input  175.53 | X-H torsion
[ 8008 7997 7996 7995 ] final  -29.79 input   59.86 | X-H torsion
[ 10167 10162 10161 10158 ] final -177.34 input  -65.29 | X-H torsion
[ 10718 10713 10712 10709 ] final    7.08 input   66.30 | X-H torsion
[ 10763 10752 10751 10750 ] final  151.50 input  -60.55 | X-H torsion
[ 11005 11000 10999 10996 ] final -161.88 input  -57.11 | X-H torsion

> <Gold.Protein.ActiveResidues>
 VAL166  LYS551  ARG553  GLY616  TRP617  ASP618  TYR619  PRO620  LYS621  CYS622 
 ASP623  PHE694  ASN695  SER759  ASP760  ASP761  ALA762  ILE779  LEU786  VAL792 
 PHE793  MET794  SER795  GLU796  ALA797  LYS798  CYS799  TRP800  GLU811  SER814 

> <Gold.Protein.RotatedAtoms>
  150.8065  133.8500  159.3202 H   0  0  0  0  0  0  0  0  0  0  0  0  # atno 6907 bound_to 6896
  151.6298  135.1022  160.0129 H   0  0  0  0  0  0  0  0  0  0  0  0  # atno 6908 bound_to 6896
  152.4156  133.6993  159.6471 H   0  0  0  0  0  0  0  0  0  0  0  0  # atno 6909 bound_to 6896
  144.9212  140.7016  143.4964 H   0  0  0  0  0  0  0  0  0  0  0  0  # atno 7974 bound_to 7965
  154.4276  140.1808  156.1304 H   0  0  0  0  0  0  0  0  0  0  0  0  # atno 8008 bound_to 7997
  156.0072  140.3354  155.6879 H   0  0  0  0  0  0  0  0  0  0  0  0  # atno 8009 bound_to 7997
  155.6161  140.0655  157.2682 H   0  0  0  0  0  0  0  0  0  0  0  0  # atno 8010 bound_to 7997
  139.5485  144.2172  152.1033 H   0  0  0  0  0  0  0  0  0  0  0  0  # atno 10167 bound_to 10162
  156.9317  130.5828  149.5650 H   0  0  0  0  0  0  0  0  0  0  0  0  # atno 10718 bound_to 10713
  154.1048  135.2843  155.3243 H   0  0  0  0  0  0  0  0  0  0  0  0  # atno 10763 bound_to 10752
  154.6530  135.5362  153.7928 H   0  0  0  0  0  0  0  0  0  0  0  0  # atno 10764 bound_to 10752
  153.0366  135.6515  154.1210 H   0  0  0  0  0  0  0  0  0  0  0  0  # atno 10765 bound_to 10752
  140.6155  134.4805  157.5219 H   0  0  0  0  0  0  0  0  0  0  0  0  # atno 11005 bound_to 11000
  145.3293  139.1764  143.4546 LP  0  0  0  0  0  0  0  0  0  0  0  0  # atno 17320 bound_to 7965
  146.3205  140.3320  142.8641 LP  0  0  0  0  0  0  0  0  0  0  0  0  # atno 17321 bound_to 7965
  140.1663  144.4978  150.6604 LP  0  0  0  0  0  0  0  0  0  0  0  0  # atno 17342 bound_to 10162
  140.6740  143.2297  151.5553 LP  0  0  0  0  0  0  0  0  0  0  0  0  # atno 17343 bound_to 10162
  156.0444  130.5522  150.8847 LP  0  0  0  0  0  0  0  0  0  0  0  0  # atno 17370 bound_to 10713
  157.5842  131.0946  150.9222 LP  0  0  0  0  0  0  0  0  0  0  0  0  # atno 17371 bound_to 10713
  139.9174  134.8217  156.1320 LP  0  0  0  0  0  0  0  0  0  0  0  0  # atno 17394 bound_to 11000
  141.0779  133.6767  156.2274 LP  0  0  0  0  0  0  0  0  0  0  0  0  # atno 17395 bound_to 11000

$$$$
