AV-unprocessed.smi:2482|AV-procd|sdf|9780|dock2
  -GOLD-   2272013423D 1   1.00000     0.00000
 Structure written by MMmdl.
 34 35  0  0  0  0  0  0  0  0  1 V2000
  153.7045  140.7037  162.7253 C   0  0  0  0  0  0  0  0  0  0  0  0
  153.0234  141.7078  161.8142 C   0  0  0  0  0  0  0  0  0  0  0  0
  152.7725  142.9174  162.3609 N   0  0  0  0  0  0  0  0  0  0  0  0
  152.1614  143.8451  161.5964 C   0  0  0  0  0  0  0  0  0  0  0  0
  151.7792  143.6187  160.2605 C   0  0  0  0  0  0  0  0  0  0  0  0
  152.0555  142.3580  159.6790 C   0  0  0  0  0  0  0  0  0  0  0  0
  151.6938  142.0150  158.3470 N   0  0  0  0  0  0  0  0  0  0  0  0
  150.6008  142.3714  157.6468 C   0  0  0  0  0  0  0  0  0  0  0  0
  149.6955  143.0815  158.0851 O   0  0  0  0  0  0  0  0  0  0  0  0
  150.5267  141.8285  156.2122 C   0  0  1  0  0  0  0  0  0  0  0  0
  150.8803  140.3264  156.1175 C   0  0  0  0  0  0  0  0  0  0  0  0
  150.7370  139.8203  154.7581 N   0  0  0  0  0  0  0  0  0  0  0  0
  151.0678  138.4059  154.6749 C   0  0  0  0  0  0  0  0  0  0  0  0
  149.3890  140.0862  154.2751 C   0  0  0  0  0  0  0  0  0  0  0  0
  149.0393  141.5807  154.3676 C   0  0  0  0  0  0  0  0  0  0  0  0
  149.2035  142.0256  155.7104 O   0  0  0  0  0  0  0  0  0  0  0  0
  152.6810  141.3757  160.4823 C   0  0  0  0  0  0  0  0  0  0  0  0
  153.0270  139.8014  159.8477 Cl  0  0  0  0  0  0  0  0  0  0  0  0
  154.6599  140.3942  162.3014 H   0  0  0  0  0  0  0  0  0  0  0  0
  153.0791  139.8196  162.8508 H   0  0  0  0  0  0  0  0  0  0  0  0
  153.8955  141.1240  163.7137 H   0  0  0  0  0  0  0  0  0  0  0  0
  151.9637  144.7969  162.0664 H   0  0  0  0  0  0  0  0  0  0  0  0
  151.2750  144.4044  159.7198 H   0  0  0  0  0  0  0  0  0  0  0  0
  152.3925  141.5002  157.8300 H   0  0  0  0  0  0  0  0  0  0  0  0
  151.2247  142.4077  155.6051 H   0  0  0  0  0  0  0  0  0  0  0  0
  151.9055  140.1685  156.4553 H   0  0  0  0  0  0  0  0  0  0  0  0
  150.2386  139.7561  156.7917 H   0  0  0  0  0  0  0  0  0  0  0  0
  150.9909  138.0511  153.6468 H   0  0  0  0  0  0  0  0  0  0  0  0
  150.3970  137.8070  155.2924 H   0  0  0  0  0  0  0  0  0  0  0  0
  152.0894  138.2277  155.0120 H   0  0  0  0  0  0  0  0  0  0  0  0
  149.2934  139.7536  153.2409 H   0  0  0  0  0  0  0  0  0  0  0  0
  148.6673  139.5108  154.8570 H   0  0  0  0  0  0  0  0  0  0  0  0
  149.6733  142.1688  153.7023 H   0  0  0  0  0  0  0  0  0  0  0  0
  148.0073  141.7490  154.0596 H   0  0  0  0  0  0  0  0  0  0  0  0
  1  2  1  0  0  0  0
  1 19  1  0  0  0  0
  1 20  1  0  0  0  0
  1 21  1  0  0  0  0
  2 17  1  0  0  0  0
  2  3  2  0  0  0  0
  3  4  1  0  0  0  0
  4  5  2  0  0  0  0
  4 22  1  0  0  0  0
  5  6  1  0  0  0  0
  5 23  1  0  0  0  0
  6  7  1  0  0  0  0
  6 17  2  0  0  0  0
  7  8  1  0  0  0  0
  7 24  1  0  0  0  0
  8  9  2  0  0  0  0
  8 10  1  0  0  0  0
 10 16  1  0  0  0  0
 10 11  1  0  0  0  0
 10 25  1  0  0  0  0
 11 12  1  0  0  0  0
 11 26  1  0  0  0  0
 11 27  1  0  0  0  0
 12 13  1  0  0  0  0
 12 14  1  0  0  0  0
 13 28  1  0  0  0  0
 13 29  1  0  0  0  0
 13 30  1  0  0  0  0
 14 15  1  0  0  0  0
 14 31  1  0  0  0  0
 14 32  1  0  0  0  0
 15 16  1  0  0  0  0
 15 33  1  0  0  0  0
 15 34  1  0  0  0  0
 17 18  1  0  0  0  0
M  END
> <s_m_source_file>
AV-unprocessed.smi

> <i_m_source_file_index>
2482

> <i_lp_mmshare_version>
43012

> <i_f3d_flags>
0

> <s_epik_input>
W0NIM11jMW5bY0hdW2NIXWMoYzFDbClbTkhdQyg9TylbQ0BASF0yW0NIMl1OKFtDSDNdKVtDSDJdW0NIMl1PMg==

> <s_epik_cmdline>
J2VwaWtfcHl0aG9uJywgJy1waCcsICc3LjAnLCAnLXRuJywgJzgnLCAnLW1hJywgJzIwMCcsICctbWV0YWxfYmluZGluZycsICctaW1hZScsICc8aW5maWxlLm1hZT4nLCAnLW9tYWUnLCAnPG91dGZpbGUubWFlPic=

> <r_epik_Ionization_Penalty>
0.52656

> <r_epik_Ionization_Penalty_Charging>
0

> <r_epik_Ionization_Penalty_Neutral>
0.52656

> <r_epik_State_Penalty>
0.534659

> <r_epik_Charging_Adjusted_Penalty>
0.534659

> <i_epik_Tot_Q>
0

> <i_epik_Tot_abs_Q>
0

> <r_epik_Metal_State_Penalty>
0.54077

> <b_epik_Metal_Only>
0

> <s_lp_Force_Field>
OPLS_2005

> <r_lp_Energy>
25.124

> <b_lp_Chiralities_Consistent>
1

> <s_lp_Variant>
AV-unprocessed.smi:2482-6

> <Gold.Version>
5.8.1

> <Gold.Id.Protein>
6NUR|6NUR_protein|mol2

> <Gold.PLP.Fitness>
42.7511

> <Gold.PLP.PLP>
-40.9280

> <Gold.PLP.part.hbond>
-1.0000

> <Gold.PLP.part.metal>
0.0000

> <Gold.PLP.part.buried>
-3.1830

> <Gold.PLP.part.nonpolar>
-37.2236

> <Gold.PLP.part.repulsive>
1.0916

> <Gold.PLP.ligand.clash>
0.0000

> <Gold.PLP.ligand.torsion>
0.5894

> <Gold.PLP.Chemscore.Hbond>
1.0000

> <Gold.PLP.Chemscore.CHOScore>
0.0000

> <Gold.PLP.Chemscore.Metal>
0.0000

> <Gold.Chemscore.Hbonds>
donor molecule, donor type, donor heavy atom, donor atom, acceptor molecule, acceptor atom, score
      P1  H  7989  7998       L1    12  0.85

> <Gold.PLP.Chemscore.Internal.Correction>
0.0020

> <Gold.Rescore>
     Score         DG    S(hbond)    S(metal)    S(lipo)     H(rot)  DE(clash)    DE(int)     intcor
     14.50     -15.65       0.07        0.00     106.69       1.00       0.07       1.07       ----

> <Gold.Chemscore.Fitness>
14.5045

> <Gold.Chemscore.DG>
-15.6453

> <Gold.Chemscore.ZeroCoef>
-5.4800

> <Gold.Chemscore.Hbond>
0.0727

> <Gold.Chemscore.Metal>
0.0000

> <Gold.Chemscore.Lipo>
106.6879

> <Gold.Chemscore.Internal_Hbond>
0.0000

> <Gold.Chemscore.DEClash>
0.0748

> <Gold.Chemscore.DEInternal>
1.0660

> <Gold.Chemscore.Rot>
1.0000

> <Gold.Chemscore.Internal.Correction>
   9.000000E+99

> <Gold.Chemscore.Hbonds>
donor molecule, donor type, donor heavy atom, donor atom, acceptor molecule, acceptor atom, score
      P1  H  7989  7998       L1    12  0.11

> <Gold.Chemscore.Hbond.Weighted>
-0.2428

> <Gold.Chemscore.Metal.Weighted>
-0.0000

> <Gold.Chemscore.Lipo.Weighted>
-12.4825

> <Gold.Chemscore.Internal_Hbond.Weighted>
0.0000

> <Gold.Chemscore.DEClash.Weighted>
0.0748

> <Gold.Chemscore.DEInternal.Weighted>
1.0660

> <Gold.Chemscore.Rot.Weighted>
2.5600

> <Gold.Chemscore.Internal.Correction.Weighted>
   9.000000E+99

> <Gold.Protein.RotatedTorsions>
[ 6907 6896 6895 6894 ] final  142.78 input  -60.11 | X-H torsion
[ 7974 7965 7964 7962 ] final  146.74 input  175.53 | X-H torsion
[ 8008 7997 7996 7995 ] final  165.16 input   59.86 | X-H torsion
[ 10167 10162 10161 10158 ] final   93.98 input  -65.29 | X-H torsion
[ 10718 10713 10712 10709 ] final -147.44 input   66.30 | X-H torsion
[ 10763 10752 10751 10750 ] final -165.31 input  -60.55 | X-H torsion
[ 11005 11000 10999 10996 ] final  175.79 input  -57.11 | X-H torsion

> <Gold.Protein.ActiveResidues>
 VAL166  LYS551  ARG553  GLY616  TRP617  ASP618  TYR619  PRO620  LYS621  CYS622 
 ASP623  PHE694  ASN695  SER759  ASP760  ASP761  ALA762  ILE779  LEU786  VAL792 
 PHE793  MET794  SER795  GLU796  ALA797  LYS798  CYS799  TRP800  GLU811  SER814 

> <Gold.Protein.RotatedAtoms>
  152.2145  133.4936  159.5128 H   0  0  0  0  0  0  0  0  0  0  0  0  # atno 6907 bound_to 6896
  150.6998  134.1423  159.4119 H   0  0  0  0  0  0  0  0  0  0  0  0  # atno 6908 bound_to 6896
  151.9343  135.0242  160.0582 H   0  0  0  0  0  0  0  0  0  0  0  0  # atno 6909 bound_to 6896
  144.8647  139.5942  143.5914 H   0  0  0  0  0  0  0  0  0  0  0  0  # atno 7974 bound_to 7965
  156.1822  140.1677  156.8252 H   0  0  0  0  0  0  0  0  0  0  0  0  # atno 8008 bound_to 7997
  154.5373  140.0744  156.8483 H   0  0  0  0  0  0  0  0  0  0  0  0  # atno 8009 bound_to 7997
  155.3285  140.3377  155.4242 H   0  0  0  0  0  0  0  0  0  0  0  0  # atno 8010 bound_to 7997
  139.8128  144.6766  150.9618 H   0  0  0  0  0  0  0  0  0  0  0  0  # atno 10167 bound_to 10162
  156.4075  130.7965  151.2180 H   0  0  0  0  0  0  0  0  0  0  0  0  # atno 10718 bound_to 10713
  154.6944  135.2976  154.9433 H   0  0  0  0  0  0  0  0  0  0  0  0  # atno 10763 bound_to 10752
  154.0385  135.6660  153.4791 H   0  0  0  0  0  0  0  0  0  0  0  0  # atno 10764 bound_to 10752
  153.0635  135.5101  154.8054 H   0  0  0  0  0  0  0  0  0  0  0  0  # atno 10765 bound_to 10752
  140.3660  134.7071  157.4362 H   0  0  0  0  0  0  0  0  0  0  0  0  # atno 11005 bound_to 11000
  146.2887  139.7076  142.9177 LP  0  0  0  0  0  0  0  0  0  0  0  0  # atno 17320 bound_to 7965
  145.4245  141.0409  143.2945 LP  0  0  0  0  0  0  0  0  0  0  0  0  # atno 17321 bound_to 7965
  140.7817  143.4168  151.0904 LP  0  0  0  0  0  0  0  0  0  0  0  0  # atno 17342 bound_to 10162
  139.7834  143.8323  152.3141 LP  0  0  0  0  0  0  0  0  0  0  0  0  # atno 17343 bound_to 10162
  157.7506  131.0268  150.3976 LP  0  0  0  0  0  0  0  0  0  0  0  0  # atno 17370 bound_to 10713
  156.4268  130.3964  149.6787 LP  0  0  0  0  0  0  0  0  0  0  0  0  # atno 17371 bound_to 10713
  140.0589  134.6024  155.8772 LP  0  0  0  0  0  0  0  0  0  0  0  0  # atno 17394 bound_to 11000
  141.1969  133.6594  156.5716 LP  0  0  0  0  0  0  0  0  0  0  0  0  # atno 17395 bound_to 11000

$$$$
