AV-unprocessed.smi:1806|AV-procd|sdf|7300|dock10
  -GOLD-   22720 8553D 1   1.00000     0.00000
 Structure written by MMmdl.
 27 28  0  0  0  0  0  0  0  0  2 V2000
  152.1009  144.9783  158.5475 C   0  0  0  0  0  0  0  0  0  0  0  0
  152.5422  144.0379  159.6491 C   0  0  0  0  0  0  0  0  0  0  0  0
  152.1447  144.2540  160.9830 C   0  0  0  0  0  0  0  0  0  0  0  0
  152.5883  143.3446  161.9596 C   0  0  0  0  0  0  0  0  0  0  0  0
  153.4069  142.2693  161.5647 C   0  0  0  0  0  0  0  0  0  0  0  0
  153.7690  142.1289  160.2045 C   0  0  0  0  0  0  0  0  0  0  0  0
  154.5378  141.1006  159.8149 N   0  5  0  0  0  0  0  0  0  0  0  0
  154.3756  139.8654  160.3561 C   0  0  0  0  0  0  0  0  0  0  0  0
  154.7689  139.5455  161.4819 O   0  0  0  0  0  0  0  0  0  0  0  0
  153.6839  138.8949  159.5114 C   0  0  0  0  0  0  0  0  0  0  0  0
  153.1071  137.8015  160.0650 C   0  0  0  0  0  0  0  0  0  0  0  0
  152.4682  136.8253  159.3416 O   0  0  0  0  0  0  0  0  0  0  0  0
  152.6617  136.9063  157.9347 C   0  0  0  0  0  0  0  0  0  0  0  0
  152.6084  138.3685  157.4702 C   0  0  0  0  0  0  0  0  0  0  0  0
  153.5878  139.1373  158.1583 O   0  0  0  0  0  0  0  0  0  0  0  0
  153.3282  143.0062  159.2711 N   0  0  0  0  0  0  0  0  0  0  0  0
  151.1817  145.4964  158.8223 H   0  0  0  0  0  0  0  0  0  0  0  0
  151.9168  144.4322  157.6214 H   0  0  0  0  0  0  0  0  0  0  0  0
  152.8730  145.7245  158.3595 H   0  0  0  0  0  0  0  0  0  0  0  0
  151.5172  145.0907  161.2518 H   0  0  0  0  0  0  0  0  0  0  0  0
  152.3059  143.4678  162.9946 H   0  0  0  0  0  0  0  0  0  0  0  0
  153.7567  141.5601  162.3007 H   0  0  0  0  0  0  0  0  0  0  0  0
  153.1217  137.5632  161.1189 H   0  0  0  0  0  0  0  0  0  0  0  0
  153.6236  136.4607  157.6779 H   0  0  0  0  0  0  0  0  0  0  0  0
  151.8917  136.3189  157.4343 H   0  0  0  0  0  0  0  0  0  0  0  0
  152.7909  138.4357  156.3976 H   0  0  0  0  0  0  0  0  0  0  0  0
  151.6211  138.7937  157.6561 H   0  0  0  0  0  0  0  0  0  0  0  0
  1  2  1  0  0  0  0
  1 17  1  0  0  0  0
  1 18  1  0  0  0  0
  1 19  1  0  0  0  0
  2 16  1  0  0  0  0
  2  3  2  0  0  0  0
  3  4  1  0  0  0  0
  3 20  1  0  0  0  0
  4  5  2  0  0  0  0
  4 21  1  0  0  0  0
  5  6  1  0  0  0  0
  5 22  1  0  0  0  0
  6  7  1  0  0  0  0
  6 16  2  0  0  0  0
  7  8  1  0  0  0  0
  8  9  2  0  0  0  0
  8 10  1  0  0  0  0
 10 15  1  0  0  0  0
 10 11  2  0  0  0  0
 11 12  1  0  0  0  0
 11 23  1  0  0  0  0
 12 13  1  0  0  0  0
 13 14  1  0  0  0  0
 13 24  1  0  0  0  0
 13 25  1  0  0  0  0
 14 15  1  0  0  0  0
 14 26  1  0  0  0  0
 14 27  1  0  0  0  0
M  CHG  1   7  -1
M  END
> <s_m_source_file>
AV-unprocessed.smi

> <i_m_source_file_index>
1806

> <i_lp_mmshare_version>
43012

> <i_f3d_flags>
0

> <s_epik_input>
W0NIM11jMVtjSF1bY0hdW2NIXWMobjEpW05IXUMoPU8pQzI9W0NIXU9bQ0gyXVtDSDJdTzI=

> <s_epik_cmdline>
J2VwaWtfcHl0aG9uJywgJy1waCcsICc3LjAnLCAnLXRuJywgJzgnLCAnLW1hJywgJzIwMCcsICctbWV0YWxfYmluZGluZycsICctaW1hZScsICc8aW5maWxlLm1hZT4nLCAnLW9tYWUnLCAnPG91dGZpbGUubWFlPic=

> <r_lp_tautomer_probability>
1

> <r_epik_Ionization_Penalty>
11.2807

> <r_epik_Ionization_Penalty_Charging>
5.82682

> <r_epik_Ionization_Penalty_Neutral>
5.45386

> <r_epik_State_Penalty>
5.82679

> <r_epik_Charging_Adjusted_Penalty>
11.6536

> <i_epik_Tot_Q>
-1

> <i_epik_Tot_abs_Q>
1

> <r_epik_Metal_State_Penalty>
1.79445

> <b_epik_Metal_Only>
1

> <s_lp_Force_Field>
OPLS_2005

> <r_lp_Energy>
4.64637

> <b_lp_Chiralities_Consistent>
1

> <s_lp_Variant>
AV-unprocessed.smi:1806-2

> <Gold.Version>
5.8.1

> <Gold.Id.Protein>
6NUR|6NUR_protein|mol2

> <Gold.PLP.Fitness>
39.8648

> <Gold.PLP.PLP>
-36.0587

> <Gold.PLP.part.hbond>
-2.0000

> <Gold.PLP.part.metal>
0.0000

> <Gold.PLP.part.buried>
-5.8018

> <Gold.PLP.part.nonpolar>
-27.5219

> <Gold.PLP.part.repulsive>
0.0000

> <Gold.PLP.ligand.clash>
0.0000

> <Gold.PLP.ligand.torsion>
1.1678

> <Gold.PLP.Chemscore.Hbond>
2.0000

> <Gold.PLP.Chemscore.CHOScore>
0.0000

> <Gold.PLP.Chemscore.Metal>
0.0000

> <Gold.Chemscore.Hbonds>
donor molecule, donor type, donor heavy atom, donor atom, acceptor molecule, acceptor atom, score
      P1  H  6896  6908       L1    12  1.00
      P1  H  7997  8010       L1    15  1.00

> <Gold.PLP.Chemscore.Internal.Correction>
0.1418

> <Gold.Rescore>
     Score         DG    S(hbond)    S(metal)    S(lipo)     H(rot)  DE(clash)    DE(int)     intcor
     20.41     -21.53       1.91        0.00      82.70       0.00       0.01       1.11       ----

> <Gold.Chemscore.Fitness>
20.4106

> <Gold.Chemscore.DG>
-21.5317

> <Gold.Chemscore.ZeroCoef>
-5.4800

> <Gold.Chemscore.Hbond>
1.9089

> <Gold.Chemscore.Metal>
0.0000

> <Gold.Chemscore.Lipo>
82.6994

> <Gold.Chemscore.Internal_Hbond>
0.0000

> <Gold.Chemscore.DEClash>
0.0106

> <Gold.Chemscore.DEInternal>
1.1105

> <Gold.Chemscore.Rot>
0.0000

> <Gold.Chemscore.Internal.Correction>
   9.000000E+99

> <Gold.Chemscore.Hbonds>
donor molecule, donor type, donor heavy atom, donor atom, acceptor molecule, acceptor atom, score
      P1  H  6896  6908       L1    12  0.87
      P1  H  7997  8010       L1    15  0.88

> <Gold.Chemscore.Hbond.Weighted>
-6.3759

> <Gold.Chemscore.Metal.Weighted>
-0.0000

> <Gold.Chemscore.Lipo.Weighted>
-9.6758

> <Gold.Chemscore.Internal_Hbond.Weighted>
0.0000

> <Gold.Chemscore.DEClash.Weighted>
0.0106

> <Gold.Chemscore.DEInternal.Weighted>
1.1105

> <Gold.Chemscore.Rot.Weighted>
0.0000

> <Gold.Chemscore.Internal.Correction.Weighted>
   9.000000E+99

> <Gold.Protein.RotatedTorsions>
[ 6907 6896 6895 6894 ] final -114.15 input  -60.11 | X-H torsion
[ 7974 7965 7964 7962 ] final   27.06 input  175.53 | X-H torsion
[ 8008 7997 7996 7995 ] final   29.08 input   59.86 | X-H torsion
[ 10167 10162 10161 10158 ] final   73.69 input  -65.29 | X-H torsion
[ 10718 10713 10712 10709 ] final  -43.75 input   66.30 | X-H torsion
[ 10763 10752 10751 10750 ] final -170.79 input  -60.55 | X-H torsion
[ 11005 11000 10999 10996 ] final  138.19 input  -57.11 | X-H torsion

> <Gold.Protein.ActiveResidues>
 VAL166  LYS551  ARG553  GLY616  TRP617  ASP618  TYR619  PRO620  LYS621  CYS622 
 ASP623  PHE694  ASN695  SER759  ASP760  ASP761  ALA762  ILE779  LEU786  VAL792 
 PHE793  MET794  SER795  GLU796  ALA797  LYS798  CYS799  TRP800  GLU811  SER814 

> <Gold.Protein.RotatedAtoms>
  150.7881  133.8842  159.3294 H   0  0  0  0  0  0  0  0  0  0  0  0  # atno 6907 bound_to 6896
  151.6687  135.0977  160.0203 H   0  0  0  0  0  0  0  0  0  0  0  0  # atno 6908 bound_to 6896
  152.3950  133.6694  159.6304 H   0  0  0  0  0  0  0  0  0  0  0  0  # atno 6909 bound_to 6896
  146.1804  139.7243  142.8904 H   0  0  0  0  0  0  0  0  0  0  0  0  # atno 7974 bound_to 7965
  155.0689  140.3198  155.4637 H   0  0  0  0  0  0  0  0  0  0  0  0  # atno 8008 bound_to 7997
  156.2795  140.2115  156.5761 H   0  0  0  0  0  0  0  0  0  0  0  0  # atno 8009 bound_to 7997
  154.7071  140.0501  157.0502 H   0  0  0  0  0  0  0  0  0  0  0  0  # atno 8010 bound_to 7997
  140.0217  144.5535  150.7576 H   0  0  0  0  0  0  0  0  0  0  0  0  # atno 10167 bound_to 10162
  156.2457  130.4183  149.8707 H   0  0  0  0  0  0  0  0  0  0  0  0  # atno 10718 bound_to 10713
  154.6377  135.2894  155.0141 H   0  0  0  0  0  0  0  0  0  0  0  0  # atno 10763 bound_to 10752
  154.1279  135.6538  153.4920 H   0  0  0  0  0  0  0  0  0  0  0  0  # atno 10764 bound_to 10752
  153.0310  135.5303  154.7230 H   0  0  0  0  0  0  0  0  0  0  0  0  # atno 10765 bound_to 10752
  140.0167  134.9415  157.0389 H   0  0  0  0  0  0  0  0  0  0  0  0  # atno 11005 bound_to 11000
  145.4091  141.0394  143.3027 LP  0  0  0  0  0  0  0  0  0  0  0  0  # atno 17320 bound_to 7965
  144.8306  139.5635  143.6945 LP  0  0  0  0  0  0  0  0  0  0  0  0  # atno 17321 bound_to 7965
  140.7339  143.2723  151.3850 LP  0  0  0  0  0  0  0  0  0  0  0  0  # atno 17342 bound_to 10162
  139.6135  144.1050  152.2322 LP  0  0  0  0  0  0  0  0  0  0  0  0  # atno 17343 bound_to 10162
  156.6273  130.8651  151.3488 LP  0  0  0  0  0  0  0  0  0  0  0  0  # atno 17370 bound_to 10713
  157.7194  130.9539  150.1379 LP  0  0  0  0  0  0  0  0  0  0  0  0  # atno 17371 bound_to 10713
  140.4459  134.1632  155.7177 LP  0  0  0  0  0  0  0  0  0  0  0  0  # atno 17394 bound_to 11000
  141.1747  133.8538  157.1459 LP  0  0  0  0  0  0  0  0  0  0  0  0  # atno 17395 bound_to 11000

$$$$
