AV-unprocessed.smi:1946|AV-procd|sdf|7861|dock3
  -GOLD-   2272010 13D 1   1.00000     0.00000
 Structure written by MMmdl.
 38 40  0  0  0  0  0  0  0  0  1 V2000
  149.4436  133.3801  155.1670 C   0  0  0  0  0  0  0  0  0  0  0  0
  149.4151  133.9472  156.9155 S   0  0  0  0  0  0  0  0  0  0  0  0
  148.0099  134.0617  157.3356 O   0  0  0  0  0  0  0  0  0  0  0  0
  150.3383  133.0985  157.6852 O   0  0  0  0  0  0  0  0  0  0  0  0
  150.1066  135.5946  156.8340 C   0  0  0  0  0  0  0  0  0  0  0  0
  151.0374  135.9155  155.8260 C   0  0  0  0  0  0  0  0  0  0  0  0
  151.5547  137.2232  155.7473 C   0  0  0  0  0  0  0  0  0  0  0  0
  151.1334  138.2133  156.6634 C   0  0  0  0  0  0  0  0  0  0  0  0
  151.6931  139.6254  156.5915 C   0  0  2  0  0  0  0  0  0  0  0  0
  152.7876  139.7255  155.7005 O   0  0  0  0  0  0  0  0  0  0  0  0
  152.1077  140.1349  157.9851 C   0  0  0  0  0  0  0  0  0  0  0  0
  151.7784  141.5348  158.1814 N   0  0  0  0  0  0  0  0  0  0  0  0
  151.1727  142.3620  157.3076 C   0  0  0  0  0  0  0  0  0  0  0  0
  150.9654  143.6161  157.6998 N   0  0  0  0  0  0  0  0  0  0  0  0
  151.4988  143.6012  158.9774 C   0  0  0  0  0  0  0  0  0  0  0  0
  151.5950  144.6276  159.9443 C   0  0  0  0  0  0  0  0  0  0  0  0
  152.1893  144.3742  161.1982 C   0  0  0  0  0  0  0  0  0  0  0  0
  152.6954  143.0942  161.5049 C   0  0  0  0  0  0  0  0  0  0  0  0
  152.6102  142.0553  160.5581 C   0  0  0  0  0  0  0  0  0  0  0  0
  152.0168  142.3127  159.3083 C   0  0  0  0  0  0  0  0  0  0  0  0
  150.1920  137.8826  157.6624 C   0  0  0  0  0  0  0  0  0  0  0  0
  149.6730  136.5763  157.7463 C   0  0  0  0  0  0  0  0  0  0  0  0
  149.0332  132.3724  155.1061 H   0  0  0  0  0  0  0  0  0  0  0  0
  150.4705  133.3762  154.8020 H   0  0  0  0  0  0  0  0  0  0  0  0
  148.8431  134.0534  154.5556 H   0  0  0  0  0  0  0  0  0  0  0  0
  151.3580  135.1677  155.1159 H   0  0  0  0  0  0  0  0  0  0  0  0
  152.2765  137.4638  154.9804 H   0  0  0  0  0  0  0  0  0  0  0  0
  150.9128  140.2785  156.1980 H   0  0  0  0  0  0  0  0  0  0  0  0
  152.7508  138.9984  155.0979 H   0  0  0  0  0  0  0  0  0  0  0  0
  151.6014  139.5591  158.7609 H   0  0  0  0  0  0  0  0  0  0  0  0
  153.1786  139.9984  158.1435 H   0  0  0  0  0  0  0  0  0  0  0  0
  150.8635  142.0234  156.3295 H   0  0  0  0  0  0  0  0  0  0  0  0
  151.2107  145.6119  159.7209 H   0  0  0  0  0  0  0  0  0  0  0  0
  152.2576  145.1671  161.9286 H   0  0  0  0  0  0  0  0  0  0  0  0
  153.1490  142.9105  162.4678 H   0  0  0  0  0  0  0  0  0  0  0  0
  152.9958  141.0733  160.7886 H   0  0  0  0  0  0  0  0  0  0  0  0
  149.8630  138.6310  158.3686 H   0  0  0  0  0  0  0  0  0  0  0  0
  148.9467  136.3340  158.5082 H   0  0  0  0  0  0  0  0  0  0  0  0
  1  2  1  0  0  0  0
  1 23  1  0  0  0  0
  1 24  1  0  0  0  0
  1 25  1  0  0  0  0
  2  3  2  0  0  0  0
  2  4  2  0  0  0  0
  2  5  1  0  0  0  0
  5 22  1  0  0  0  0
  5  6  2  0  0  0  0
  6  7  1  0  0  0  0
  6 26  1  0  0  0  0
  7  8  2  0  0  0  0
  7 27  1  0  0  0  0
  8  9  1  0  0  0  0
  8 21  1  0  0  0  0
  9 10  1  0  0  0  0
  9 11  1  0  0  0  0
  9 28  1  0  0  0  0
 10 29  1  0  0  0  0
 11 12  1  0  0  0  0
 11 30  1  0  0  0  0
 11 31  1  0  0  0  0
 12 20  1  0  0  0  0
 12 13  1  0  0  0  0
 13 14  2  0  0  0  0
 13 32  1  0  0  0  0
 14 15  1  0  0  0  0
 15 20  2  0  0  0  0
 15 16  1  0  0  0  0
 16 17  2  0  0  0  0
 16 33  1  0  0  0  0
 17 18  1  0  0  0  0
 17 34  1  0  0  0  0
 18 19  2  0  0  0  0
 18 35  1  0  0  0  0
 19 20  1  0  0  0  0
 19 36  1  0  0  0  0
 21 22  2  0  0  0  0
 21 37  1  0  0  0  0
 22 38  1  0  0  0  0
M  END
> <s_m_source_file>
AV-unprocessed.smi

> <i_m_source_file_index>
1946

> <i_lp_mmshare_version>
43012

> <i_f3d_flags>
0

> <s_epik_input>
W0NIM11TKD1PKSg9TyljMVtjSF1bY0hdYyhbY0hdW2NIXTEpW0NASF0oW09IXSlbQ0gyXW4oW2NIXW4yKWMoYzIzKVtjSF1bY0hdW2NIXVtjSF0z

> <s_epik_cmdline>
J2VwaWtfcHl0aG9uJywgJy1waCcsICc3LjAnLCAnLXRuJywgJzgnLCAnLW1hJywgJzIwMCcsICctbWV0YWxfYmluZGluZycsICctaW1hZScsICc8aW5maWxlLm1hZT4nLCAnLW9tYWUnLCAnPG91dGZpbGUubWFlPic=

> <r_epik_Ionization_Penalty>
0.0696512

> <r_epik_Ionization_Penalty_Charging>
0

> <r_epik_Ionization_Penalty_Neutral>
0.0696512

> <r_epik_State_Penalty>
0.0610247

> <r_epik_Charging_Adjusted_Penalty>
0.0610247

> <i_epik_Tot_Q>
0

> <i_epik_Tot_abs_Q>
0

> <r_epik_Metal_State_Penalty>
6.42746e-05

> <b_epik_Metal_Only>
0

> <s_lp_Force_Field>
OPLS_2005

> <r_lp_Energy>
7.3467

> <b_lp_Chiralities_Consistent>
1

> <s_lp_Variant>
AV-unprocessed.smi:1946-1

> <Gold.Version>
5.8.1

> <Gold.Id.Protein>
6NUR|6NUR_protein|mol2

> <Gold.PLP.Fitness>
42.1646

> <Gold.PLP.PLP>
-38.0211

> <Gold.PLP.part.hbond>
-2.0000

> <Gold.PLP.part.metal>
0.0000

> <Gold.PLP.part.buried>
-5.6948

> <Gold.PLP.part.nonpolar>
-31.0652

> <Gold.PLP.part.repulsive>
0.4022

> <Gold.PLP.ligand.clash>
0.0000

> <Gold.PLP.ligand.torsion>
1.9490

> <Gold.PLP.Chemscore.Hbond>
2.0000

> <Gold.PLP.Chemscore.CHOScore>
0.0000

> <Gold.PLP.Chemscore.Metal>
0.0000

> <Gold.Chemscore.Hbonds>
donor molecule, donor type, donor heavy atom, donor atom, acceptor molecule, acceptor atom, score
      P1  H  6896  6908       L1     4  1.00
      P1  H  7997  8009       L1    10  1.00

> <Gold.PLP.Chemscore.Internal.Correction>
2.0414

> <Gold.Rescore>
     Score         DG    S(hbond)    S(metal)    S(lipo)     H(rot)  DE(clash)    DE(int)     intcor
     17.43     -19.28       1.98        0.00     104.70       1.98       0.03       1.82       ----

> <Gold.Chemscore.Fitness>
17.4277

> <Gold.Chemscore.DG>
-19.2791

> <Gold.Chemscore.ZeroCoef>
-5.4800

> <Gold.Chemscore.Hbond>
1.9846

> <Gold.Chemscore.Metal>
0.0000

> <Gold.Chemscore.Lipo>
104.6965

> <Gold.Chemscore.Internal_Hbond>
0.0000

> <Gold.Chemscore.DEClash>
0.0299

> <Gold.Chemscore.DEInternal>
1.8214

> <Gold.Chemscore.Rot>
1.9840

> <Gold.Chemscore.Internal.Correction>
   9.000000E+99

> <Gold.Chemscore.Hbonds>
donor molecule, donor type, donor heavy atom, donor atom, acceptor molecule, acceptor atom, score
      P1  H  6896  6908       L1     4  0.98
      P1  H  7997  8009       L1    10  0.70

> <Gold.Chemscore.Hbond.Weighted>
-6.6287

> <Gold.Chemscore.Metal.Weighted>
-0.0000

> <Gold.Chemscore.Lipo.Weighted>
-12.2495

> <Gold.Chemscore.Internal_Hbond.Weighted>
0.0000

> <Gold.Chemscore.DEClash.Weighted>
0.0299

> <Gold.Chemscore.DEInternal.Weighted>
1.8214

> <Gold.Chemscore.Rot.Weighted>
5.0791

> <Gold.Chemscore.Internal.Correction.Weighted>
   9.000000E+99

> <Gold.Protein.RotatedTorsions>
[ 6907 6896 6895 6894 ] final   90.93 input  -60.11 | X-H torsion
[ 7974 7965 7964 7962 ] final  -75.46 input  175.53 | X-H torsion
[ 8008 7997 7996 7995 ] final -137.26 input   59.86 | X-H torsion
[ 10167 10162 10161 10158 ] final  120.26 input  -65.29 | X-H torsion
[ 10718 10713 10712 10709 ] final  138.53 input   66.30 | X-H torsion
[ 10763 10752 10751 10750 ] final  -25.96 input  -60.55 | X-H torsion
[ 11005 11000 10999 10996 ] final   96.84 input  -57.11 | X-H torsion

> <Gold.Protein.ActiveResidues>
 VAL166  LYS551  ARG553  GLY616  TRP617  ASP618  TYR619  PRO620  LYS621  CYS622 
 ASP623  PHE694  ASN695  SER759  ASP760  ASP761  ALA762  ILE779  LEU786  VAL792 
 PHE793  MET794  SER795  GLU796  ALA797  LYS798  CYS799  TRP800  GLU811  SER814 

> <Gold.Protein.RotatedAtoms>
  152.5447  134.1735  159.8605 H   0  0  0  0  0  0  0  0  0  0  0  0  # atno 6907 bound_to 6896
  151.1743  133.4758  159.2601 H   0  0  0  0  0  0  0  0  0  0  0  0  # atno 6908 bound_to 6896
  151.1243  135.0108  159.8608 H   0  0  0  0  0  0  0  0  0  0  0  0  # atno 6909 bound_to 6896
  145.6257  140.9351  143.1114 H   0  0  0  0  0  0  0  0  0  0  0  0  # atno 7974 bound_to 7965
  155.4088  140.0511  157.3033 H   0  0  0  0  0  0  0  0  0  0  0  0  # atno 8008 bound_to 7997
  154.4956  140.2137  155.9414 H   0  0  0  0  0  0  0  0  0  0  0  0  # atno 8009 bound_to 7997
  156.1401  140.3156  155.8487 H   0  0  0  0  0  0  0  0  0  0  0  0  # atno 8010 bound_to 7997
  139.5993  144.7052  151.3101 H   0  0  0  0  0  0  0  0  0  0  0  0  # atno 10167 bound_to 10162
  157.4243  131.1042  151.0319 H   0  0  0  0  0  0  0  0  0  0  0  0  # atno 10718 bound_to 10713
  153.7082  135.6952  153.5044 H   0  0  0  0  0  0  0  0  0  0  0  0  # atno 10763 bound_to 10752
  153.2292  135.4343  155.0575 H   0  0  0  0  0  0  0  0  0  0  0  0  # atno 10764 bound_to 10752
  154.8323  135.3480  154.6619 H   0  0  0  0  0  0  0  0  0  0  0  0  # atno 10765 bound_to 10752
  139.8779  134.8971  156.4219 H   0  0  0  0  0  0  0  0  0  0  0  0  # atno 11005 bound_to 11000
  144.7213  139.8020  143.7381 LP  0  0  0  0  0  0  0  0  0  0  0  0  # atno 17320 bound_to 7965
  146.1396  139.4450  143.0117 LP  0  0  0  0  0  0  0  0  0  0  0  0  # atno 17321 bound_to 7965
  140.7237  143.7064  150.7804 LP  0  0  0  0  0  0  0  0  0  0  0  0  # atno 17342 bound_to 10162
  140.0637  143.5129  152.2615 LP  0  0  0  0  0  0  0  0  0  0  0  0  # atno 17343 bound_to 10162
  157.1238  130.6073  149.5512 LP  0  0  0  0  0  0  0  0  0  0  0  0  # atno 17370 bound_to 10713
  155.9891  130.4937  150.7200 LP  0  0  0  0  0  0  0  0  0  0  0  0  # atno 17371 bound_to 10713
  140.9128  133.7700  155.9812 LP  0  0  0  0  0  0  0  0  0  0  0  0  # atno 17394 bound_to 11000
  140.8527  134.2934  157.5268 LP  0  0  0  0  0  0  0  0  0  0  0  0  # atno 17395 bound_to 11000

$$$$
