#       Name:                AV-unprocessed.smi:1479
#       Creating user name   scv26
#       Creation time:       Fri Mar 27 06:07:51 2020


#       File generated by GOLD software.
#

@<TRIPOS>MOLECULE
AV-unprocessed.smi:1479
    45    46     1
SMALL
NO_CHARGES


@<TRIPOS>ATOM
      1 ****        -6.3499   2.3704  -1.4389 C.3            1 S1                 0.0000
      2 ****        -6.2243   1.6625   0.2559 S.o2           1 S1                 0.0000
      3 ****        -6.7730   2.6427   1.2044 O.2            1 S1                 0.0000
      4 ****        -6.7647   0.2951   0.2180 O.2            1 S1                 0.0000
      5 ****        -4.3995   1.5709   0.5176 C.3            1 S1                 0.0000
      6 ****        -3.7431   0.5119  -0.3790 C.3            1 S1                 0.0000
      7 ****        -2.2975   0.4065  -0.1027 N.4            1 S1                 1.0000
      8 ****        -1.6011  -0.5990  -0.9283 C.3            1 S1                 0.0000
      9 ****        -0.1342  -0.6700  -0.5594 C.ar           1 S1                 0.0000
     10 ****         0.3385  -1.5326   0.4496 C.ar           1 S1                 0.0000
     11 ****         1.6456  -1.5844   0.7804 N.ar           1 S1                 0.0000
     12 ****         2.4955  -0.7903   0.1137 C.ar           1 S1                 0.0000
     13 ****         3.8508  -0.8507   0.4633 N.pl3          1 S1                 0.0000
     14 ****         4.8310   0.1061  -0.0566 C.3            1 S1                 0.0000
     15 ****         6.2155  -0.5492  -0.1963 C.3            1 S1                 0.0000
     16 ****         6.6112  -1.1094   1.0493 O.3            1 S1                 0.0000
     17 ****         5.7135  -2.1277   1.4722 C.3            1 S1                 0.0000
     18 ****         4.3100  -1.5331   1.6760 C.3            1 S1                 0.0000
     19 ****         2.1414   0.0580  -0.8623 N.ar           1 S1                 0.0000
     20 ****         0.8375   0.1213  -1.2040 C.ar           1 S1                 0.0000
     21 ****        -7.4001   2.5317  -1.6826 H              1 S1                 0.0000
     22 ****        -5.9200   1.6819  -2.1653 H              1 S1                 0.0000
     23 ****        -5.8235   3.3237  -1.4793 H              1 S1                 0.0000
     24 ****        -3.9795   2.5609   0.3376 H              1 S1                 0.0000
     25 ****        -4.2351   1.3324   1.5691 H              1 S1                 0.0000
     26 ****        -4.2070  -0.4607  -0.2109 H              1 S1                 0.0000
     27 ****        -3.8866   0.7623  -1.4300 H              1 S1                 0.0000
     28 ****        -1.8706   1.3074  -0.2653 H              1 S1                 0.0000
     29 ****        -2.0597  -1.5783  -0.7849 H              1 S1                 0.0000
     30 ****        -1.7015  -0.3448  -1.9845 H              1 S1                 0.0000
     31 ****        -0.3321  -2.1773   0.9984 H              1 S1                 0.0000
     32 ****         4.5431   0.5014  -1.0301 H              1 S1                 0.0000
     33 ****         4.8859   0.9546   0.6261 H              1 S1                 0.0000
     34 ****         6.2047  -1.3199  -0.9687 H              1 S1                 0.0000
     35 ****         6.9524   0.1944  -0.4999 H              1 S1                 0.0000
     36 ****         5.6906  -2.9371   0.7408 H              1 S1                 0.0000
     37 ****         6.0777  -2.5545   2.4065 H              1 S1                 0.0000
     38 ****         4.3250  -0.8138   2.4955 H              1 S1                 0.0000
     39 ****         3.6399  -2.3382   1.9754 H              1 S1                 0.0000
     40 ****         0.5698   0.8118  -1.9902 H              1 S1                 0.0000
     41 ****        -2.1752   0.1617   0.8698 H              1 S1                 0.0000
     42 ****         1.9706  -2.1966   1.5011 LP             1 S1                 0.0000
     43 ****         6.6301  -0.3859   1.7394 LP             1 S1                 0.0000
     44 ****         7.5257  -1.5021   0.9529 LP             1 S1                 0.0000
     45 ****         2.8229   0.6266  -1.3231 LP             1 S1                 0.0000
@<TRIPOS>BOND
    1    1    2 1     
    2    1   21 1     
    3    1   22 1     
    4    1   23 1     
    5    2    3 2     
    6    2    4 2     
    7    2    5 1     
    8    5    6 1     
    9    5   24 1     
   10    5   25 1     
   11    6    7 1     
   12    6   26 1     
   13    6   27 1     
   14    7    8 1     
   15    7   28 1     
   16    7   41 1     
   17    8    9 1     
   18    8   29 1     
   19    8   30 1     
   20    9   20 ar    
   21    9   10 ar    
   22   10   11 ar    
   23   10   31 1     
   24   11   12 ar    
   25   12   13 1     
   26   12   19 ar    
   27   13   18 1     
   28   13   14 1     
   29   14   15 1     
   30   14   32 1     
   31   14   33 1     
   32   15   16 1     
   33   15   34 1     
   34   15   35 1     
   35   16   17 1     
   36   17   18 1     
   37   17   36 1     
   38   17   37 1     
   39   18   38 1     
   40   18   39 1     
   41   19   20 ar    
   42   20   40 1     
   43   11   42 1     
   44   16   43 1     
   45   16   44 1     
   46   19   45 1     
@<TRIPOS>SUBSTRUCTURE
      1 S1             1
@<TRIPOS>SET
LONE_PAIRS      STATIC     ATOMS    <user>   **** ""
6 3 4 42 43 44 45
DONOR_HYDROGENS      STATIC     ATOMS    <user>   **** ""
2 28 41
ATOM$BLUE        STATIC     ATOMS    COLORGROUP SYSTEM
6 3 4 42 43 44 45
ATOM$RED        STATIC     ATOMS    COLORGROUP SYSTEM
2 28 41
