AV-unprocessed.smi:322|AV-procd|sdf|2335|dock8
  -GOLD-   2262022243D 1   1.00000     0.00000
 Structure written by MMmdl.
 43 45  0  0  0  0  0  0  0  0  1 V2000
  153.1411  138.8736  154.9422 O   0  0  0  0  0  0  0  0  0  0  0  0
  151.8739  139.0956  155.5276 C   0  0  0  0  0  0  0  0  0  0  0  0
  151.8672  140.1678  156.5805 C   0  0  0  0  0  0  0  0  0  0  0  0
  152.6136  140.1071  157.6858 N   0  0  0  0  0  0  0  0  0  0  0  0
  152.2773  141.2710  158.3480 C   0  0  0  0  0  0  0  0  0  0  0  0
  152.7282  141.7873  159.5836 C   0  0  0  0  0  0  0  0  0  0  0  0
  152.2332  143.0162  160.0670 C   0  0  0  0  0  0  0  0  0  0  0  0
  151.2832  143.7452  159.3226 C   0  0  0  0  0  0  0  0  0  0  0  0
  150.8209  143.2486  158.0887 C   0  0  0  0  0  0  0  0  0  0  0  0
  151.3171  142.0205  157.6113 C   0  0  0  0  0  0  0  0  0  0  0  0
  151.0780  141.2660  156.4663 N   0  0  0  0  0  0  0  0  0  0  0  0
  150.1587  141.6001  155.3859 C   0  0  0  0  0  0  0  0  0  0  0  0
  149.0525  140.5432  155.1915 C   0  0  2  0  0  0  0  0  0  0  0  0
  149.1466  140.0111  153.8846 O   0  0  0  0  0  0  0  0  0  0  0  0
  147.6504  141.1463  155.3705 C   0  0  0  0  0  0  0  0  0  0  0  0
  147.5257  142.2841  154.5292 O   0  0  0  0  0  0  0  0  0  0  0  0
  146.3567  142.2773  153.7215 C   0  0  0  0  0  0  0  0  0  0  0  0
  145.4348  143.4563  153.9843 C   0  0  0  0  0  0  0  0  0  0  0  0
  144.8072  143.6005  155.2399 C   0  0  0  0  0  0  0  0  0  0  0  0
  143.9645  144.7014  155.4881 C   0  0  0  0  0  0  0  0  0  0  0  0
  143.7509  145.6661  154.4842 C   0  0  0  0  0  0  0  0  0  0  0  0
  142.7208  147.0163  154.7889 Cl  0  0  0  0  0  0  0  0  0  0  0  0
  144.3817  145.5293  153.2321 C   0  0  0  0  0  0  0  0  0  0  0  0
  145.2241  144.4280  152.9837 C   0  0  0  0  0  0  0  0  0  0  0  0
  153.4125  139.6649  154.5034 H   0  0  0  0  0  0  0  0  0  0  0  0
  151.1763  139.3607  154.7338 H   0  0  0  0  0  0  0  0  0  0  0  0
  151.5266  138.1620  155.9708 H   0  0  0  0  0  0  0  0  0  0  0  0
  153.4555  141.2359  160.1609 H   0  0  0  0  0  0  0  0  0  0  0  0
  152.5838  143.4015  161.0132 H   0  0  0  0  0  0  0  0  0  0  0  0
  150.9096  144.6861  159.6995 H   0  0  0  0  0  0  0  0  0  0  0  0
  150.0953  143.8064  157.5154 H   0  0  0  0  0  0  0  0  0  0  0  0
  149.7188  142.5759  155.5926 H   0  0  0  0  0  0  0  0  0  0  0  0
  150.7320  141.7203  154.4657 H   0  0  0  0  0  0  0  0  0  0  0  0
  149.1944  139.7357  155.9102 H   0  0  0  0  0  0  0  0  0  0  0  0
  149.7146  140.5680  153.3745 H   0  0  0  0  0  0  0  0  0  0  0  0
  146.8968  140.4180  155.0669 H   0  0  0  0  0  0  0  0  0  0  0  0
  147.4600  141.3876  156.4176 H   0  0  0  0  0  0  0  0  0  0  0  0
  146.6707  142.3271  152.6788 H   0  0  0  0  0  0  0  0  0  0  0  0
  145.8218  141.3333  153.8384 H   0  0  0  0  0  0  0  0  0  0  0  0
  144.9694  142.8653  156.0146 H   0  0  0  0  0  0  0  0  0  0  0  0
  143.4841  144.8054  156.4499 H   0  0  0  0  0  0  0  0  0  0  0  0
  144.2220  146.2692  152.4617 H   0  0  0  0  0  0  0  0  0  0  0  0
  145.7066  144.3325  152.0219 H   0  0  0  0  0  0  0  0  0  0  0  0
  1  2  1  0  0  0  0
  1 25  1  0  0  0  0
  2  3  1  0  0  0  0
  2 26  1  0  0  0  0
  2 27  1  0  0  0  0
  3 11  1  0  0  0  0
  3  4  2  0  0  0  0
  4  5  1  0  0  0  0
  5 10  2  0  0  0  0
  5  6  1  0  0  0  0
  6  7  2  0  0  0  0
  6 28  1  0  0  0  0
  7  8  1  0  0  0  0
  7 29  1  0  0  0  0
  8  9  2  0  0  0  0
  8 30  1  0  0  0  0
  9 10  1  0  0  0  0
  9 31  1  0  0  0  0
 10 11  1  0  0  0  0
 11 12  1  0  0  0  0
 12 13  1  0  0  0  0
 12 32  1  0  0  0  0
 12 33  1  0  0  0  0
 13 14  1  0  0  0  0
 13 15  1  0  0  0  0
 13 34  1  0  0  0  0
 14 35  1  0  0  0  0
 15 16  1  0  0  0  0
 15 36  1  0  0  0  0
 15 37  1  0  0  0  0
 16 17  1  0  0  0  0
 17 18  1  0  0  0  0
 17 38  1  0  0  0  0
 17 39  1  0  0  0  0
 18 24  1  0  0  0  0
 18 19  2  0  0  0  0
 19 20  1  0  0  0  0
 19 40  1  0  0  0  0
 20 21  2  0  0  0  0
 20 41  1  0  0  0  0
 21 22  1  0  0  0  0
 21 23  1  0  0  0  0
 23 24  2  0  0  0  0
 23 42  1  0  0  0  0
 24 43  1  0  0  0  0
M  END
> <s_m_source_file>
AV-unprocessed.smi

> <i_m_source_file_index>
322

> <i_lp_mmshare_version>
43012

> <i_f3d_flags>
0

> <s_epik_input>
W2NIXTFbY0hdW2NIXVtjSF1jKGMxMiluKGMobjIpW0NIMl1bT0hdKVtDSDJdW0NASF0oW09IXSlbQ0gyXU9bQ0gyXWMzW2NIXVtjSF1jKENsKVtjSF1bY0hdMw==

> <s_epik_cmdline>
J2VwaWtfcHl0aG9uJywgJy1waCcsICc3LjAnLCAnLXRuJywgJzgnLCAnLW1hJywgJzIwMCcsICctbWV0YWxfYmluZGluZycsICctaW1hZScsICc8aW5maWxlLm1hZT4nLCAnLW9tYWUnLCAnPG91dGZpbGUubWFlPic=

> <r_epik_Ionization_Penalty>
0.0649918

> <r_epik_Ionization_Penalty_Charging>
0

> <r_epik_Ionization_Penalty_Neutral>
0.0649918

> <r_epik_State_Penalty>
0.0565791

> <r_epik_Charging_Adjusted_Penalty>
0.0565791

> <i_epik_Tot_Q>
0

> <i_epik_Tot_abs_Q>
0

> <r_epik_Metal_State_Penalty>
5.93658e-05

> <b_epik_Metal_Only>
0

> <s_lp_Force_Field>
OPLS_2005

> <r_lp_Energy>
16.0387

> <b_lp_Chiralities_Consistent>
1

> <s_lp_Variant>
AV-unprocessed.smi:322-1

> <Gold.Version>
5.8.1

> <Gold.Id.Protein>
6NUR|6NUR_protein|mol2

> <Gold.PLP.Fitness>
53.9661

> <Gold.PLP.PLP>
-53.5939

> <Gold.PLP.part.hbond>
-2.6261

> <Gold.PLP.part.metal>
0.0000

> <Gold.PLP.part.buried>
-6.9330

> <Gold.PLP.part.nonpolar>
-45.0198

> <Gold.PLP.part.repulsive>
1.3698

> <Gold.PLP.ligand.clash>
0.0000

> <Gold.PLP.ligand.torsion>
1.5342

> <Gold.PLP.Chemscore.Hbond>
1.1123

> <Gold.PLP.Chemscore.CHOScore>
0.0000

> <Gold.PLP.Chemscore.Metal>
0.0000

> <Gold.Chemscore.Hbonds>
donor molecule, donor type, donor heavy atom, donor atom, acceptor molecule, acceptor atom, score
      L1  H    14    35       P1  7957  0.09
      P1  H  7997  8008       L1     4  0.85

> <Gold.PLP.Chemscore.Internal.Correction>
0.1036

> <Gold.Rescore>
     Score         DG    S(hbond)    S(metal)    S(lipo)     H(rot)  DE(clash)    DE(int)     intcor
     14.24     -15.99       0.74        0.00     137.29       3.13       0.26       1.50       ----

> <Gold.Chemscore.Fitness>
14.2367

> <Gold.Chemscore.DG>
-15.9918

> <Gold.Chemscore.ZeroCoef>
-5.4800

> <Gold.Chemscore.Hbond>
0.7398

> <Gold.Chemscore.Metal>
0.0000

> <Gold.Chemscore.Lipo>
137.2917

> <Gold.Chemscore.Internal_Hbond>
0.0000

> <Gold.Chemscore.DEClash>
0.2585

> <Gold.Chemscore.DEInternal>
1.4966

> <Gold.Chemscore.Rot>
3.1337

> <Gold.Chemscore.Internal.Correction>
   9.000000E+99

> <Gold.Chemscore.Hbonds>
donor molecule, donor type, donor heavy atom, donor atom, acceptor molecule, acceptor atom, score
      L1  H    14    35       P1  7957  0.10
      P1  H  7997  8008       L1     4  0.12

> <Gold.Chemscore.Hbond.Weighted>
-2.4710

> <Gold.Chemscore.Metal.Weighted>
-0.0000

> <Gold.Chemscore.Lipo.Weighted>
-16.0631

> <Gold.Chemscore.Internal_Hbond.Weighted>
0.0000

> <Gold.Chemscore.DEClash.Weighted>
0.2585

> <Gold.Chemscore.DEInternal.Weighted>
1.4966

> <Gold.Chemscore.Rot.Weighted>
8.0224

> <Gold.Chemscore.Internal.Correction.Weighted>
   9.000000E+99

> <Gold.Protein.RotatedTorsions>
[ 6907 6896 6895 6894 ] final -103.33 input  -60.11 | X-H torsion
[ 7974 7965 7964 7962 ] final -173.44 input  175.53 | X-H torsion
[ 8008 7997 7996 7995 ] final  -66.21 input   59.86 | X-H torsion
[ 10167 10162 10161 10158 ] final  156.89 input  -65.29 | X-H torsion
[ 10718 10713 10712 10709 ] final  -28.23 input   66.30 | X-H torsion
[ 10763 10752 10751 10750 ] final   39.87 input  -60.55 | X-H torsion
[ 11005 11000 10999 10996 ] final  150.98 input  -57.11 | X-H torsion

> <Gold.Protein.ActiveResidues>
 VAL166  LYS551  ARG553  GLY616  TRP617  ASP618  TYR619  PRO620  LYS621  CYS622 
 ASP623  PHE694  ASN695  SER759  ASP760  ASP761  ALA762  ILE779  LEU786  VAL792 
 PHE793  MET794  SER795  GLU796  ALA797  LYS798  CYS799  TRP800  GLU811  SER814 

> <Gold.Protein.RotatedAtoms>
  150.7235  134.0446  159.3776 H   0  0  0  0  0  0  0  0  0  0  0  0  # atno 6907 bound_to 6896
  151.8420  135.0585  160.0458 H   0  0  0  0  0  0  0  0  0  0  0  0  # atno 6908 bound_to 6896
  152.2855  133.5475  159.5561 H   0  0  0  0  0  0  0  0  0  0  0  0  # atno 6909 bound_to 6896
  144.7138  140.1622  143.6375 H   0  0  0  0  0  0  0  0  0  0  0  0  # atno 7974 bound_to 7965
  154.4720  140.0917  156.7169 H   0  0  0  0  0  0  0  0  0  0  0  0  # atno 8008 bound_to 7997
  155.4697  140.3464  155.4306 H   0  0  0  0  0  0  0  0  0  0  0  0  # atno 8009 bound_to 7997
  156.1055  140.1433  156.9398 H   0  0  0  0  0  0  0  0  0  0  0  0  # atno 8010 bound_to 7997
  139.4822  144.4968  151.8228 H   0  0  0  0  0  0  0  0  0  0  0  0  # atno 10167 bound_to 10162
  156.4279  130.4439  149.7137 H   0  0  0  0  0  0  0  0  0  0  0  0  # atno 10718 bound_to 10713
  152.9953  135.6208  154.2535 H   0  0  0  0  0  0  0  0  0  0  0  0  # atno 10763 bound_to 10752
  154.2273  135.2793  155.2905 H   0  0  0  0  0  0  0  0  0  0  0  0  # atno 10764 bound_to 10752
  154.5479  135.5742  153.6954 H   0  0  0  0  0  0  0  0  0  0  0  0  # atno 10765 bound_to 10752
  140.1178  134.8883  157.2029 H   0  0  0  0  0  0  0  0  0  0  0  0  # atno 11005 bound_to 11000
  145.9020  139.2436  143.1488 LP  0  0  0  0  0  0  0  0  0  0  0  0  # atno 17320 bound_to 7965
  145.9801  140.8689  143.0119 LP  0  0  0  0  0  0  0  0  0  0  0  0  # atno 17321 bound_to 7965
  140.4457  144.1925  150.5894 LP  0  0  0  0  0  0  0  0  0  0  0  0  # atno 17342 bound_to 10162
  140.4637  143.2439  151.9185 LP  0  0  0  0  0  0  0  0  0  0  0  0  # atno 17343 bound_to 10162
  156.4052  130.7694  151.2705 LP  0  0  0  0  0  0  0  0  0  0  0  0  # atno 17370 bound_to 10713
  157.7508  131.0228  150.3806 LP  0  0  0  0  0  0  0  0  0  0  0  0  # atno 17371 bound_to 10713
  140.3005  134.3137  155.7291 LP  0  0  0  0  0  0  0  0  0  0  0  0  # atno 17394 bound_to 11000
  141.2145  133.7589  156.9633 LP  0  0  0  0  0  0  0  0  0  0  0  0  # atno 17395 bound_to 11000

$$$$
