#       Name:                AV-unprocessed.smi:1662
#       Creating user name   scv26
#       Creation time:       Fri Mar 27 07:36:59 2020


#       File generated by GOLD software.
#

@<TRIPOS>MOLECULE
AV-unprocessed.smi:1662
    53    54     1
SMALL
NO_CHARGES


@<TRIPOS>ATOM
      1 ****        -5.2898  -0.9551   2.5583 C.3            1 S1                 0.0000
      2 ****        -3.8224  -1.2613   2.6909 C.2            1 S1                 0.0000
      3 ****        -3.0015  -0.3927   2.1985 N.2            1 S1                 0.0000
      4 ****        -1.6340  -0.5792   2.2610 N.am           1 S1                 0.0000
      5 ****        -0.8520   0.4999   1.6395 C.3            1 S1                 0.0000
      6 ****        -0.3585   0.1585   0.2260 C.2            1 S1                 0.0000
      7 ****        -0.9317  -0.6936  -0.4545 O.2            1 S1                 0.0000
      8 ****         0.7053   0.8524  -0.2064 N.am           1 S1                 0.0000
      9 ****         1.3417   0.7054  -1.5145 C.3            1 S1                 0.0000
     10 ****         2.3349  -0.4725  -1.4668 C.3            1 S1                 0.0000
     11 ****         3.0660  -0.6404  -2.8016 C.3            1 S1                 0.0000
     12 ****         3.7884   0.6548  -3.1859 C.3            1 S1                 0.0000
     13 ****         2.8185   1.8505  -3.2680 C.3            1 S1                 0.0000
     14 ****         3.5948   3.1121  -3.6895 C.3            1 S1                 0.0000
     15 ****         2.0347   2.0303  -1.9363 C.3            1 S1                 0.0000
     16 ****         1.0142   3.1871  -2.0193 C.3            1 S1                 0.0000
     17 ****        -1.0223  -1.6570   2.8320 C.2            1 S1                 0.0000
     18 ****         0.2029  -1.7822   2.8663 O.2            1 S1                 0.0000
     19 ****        -1.9585  -2.6353   3.3901 C.2            1 S1                 0.0000
     20 ****        -1.3601  -3.7814   3.9949 C.1            1 S1                 0.0000
     21 ****        -0.8945  -4.7174   4.4926 N.1            1 S1                 0.0000
     22 ****        -3.3030  -2.4634   3.3350 C.2            1 S1                 0.0000
     23 ****        -4.3160  -3.4502   3.8989 C.3            1 S1                 0.0000
     24 ****        -5.7388  -0.7861   3.5371 H              1 S1                 0.0000
     25 ****        -5.8173  -1.7816   2.0820 H              1 S1                 0.0000
     26 ****        -5.4666  -0.0634   1.9552 H              1 S1                 0.0000
     27 ****        -1.4493   1.4114   1.5763 H              1 S1                 0.0000
     28 ****         0.0006   0.7528   2.2729 H              1 S1                 0.0000
     29 ****         1.1082   1.5358   0.4183 H              1 S1                 0.0000
     30 ****         0.5741   0.4791  -2.2575 H              1 S1                 0.0000
     31 ****         3.0640  -0.3107  -0.6714 H              1 S1                 0.0000
     32 ****         1.8122  -1.3979  -1.2221 H              1 S1                 0.0000
     33 ****         3.7818  -1.4599  -2.7331 H              1 S1                 0.0000
     34 ****         2.3543  -0.9131  -3.5818 H              1 S1                 0.0000
     35 ****         4.5721   0.8643  -2.4564 H              1 S1                 0.0000
     36 ****         4.2905   0.5140  -4.1438 H              1 S1                 0.0000
     37 ****         2.0966   1.6331  -4.0568 H              1 S1                 0.0000
     38 ****         4.2765   3.4390  -2.9040 H              1 S1                 0.0000
     39 ****         2.9292   3.9415  -3.9253 H              1 S1                 0.0000
     40 ****         4.1886   2.9243  -4.5844 H              1 S1                 0.0000
     41 ****         2.7573   2.2876  -1.1597 H              1 S1                 0.0000
     42 ****         0.2918   3.0187  -2.8185 H              1 S1                 0.0000
     43 ****         1.5001   4.1443  -2.2037 H              1 S1                 0.0000
     44 ****         0.4555   3.3061  -1.0912 H              1 S1                 0.0000
     45 ****        -3.8397  -4.2570   4.4548 H              1 S1                 0.0000
     46 ****        -4.8955  -3.9013   3.0932 H              1 S1                 0.0000
     47 ****        -5.0048  -2.9505   4.5806 H              1 S1                 0.0000
     48 ****        -3.3638   0.4315   1.7632 LP             1 S1                 0.0000
     49 ****        -1.7291  -1.1729  -0.0879 LP             1 S1                 0.0000
     50 ****        -0.5995  -0.9060  -1.3735 LP             1 S1                 0.0000
     51 ****         0.7889  -1.0778   2.4657 LP             1 S1                 0.0000
     52 ****         0.6114  -2.5882   3.2946 LP             1 S1                 0.0000
     53 ****        -0.4923  -5.5258   4.9224 LP             1 S1                 0.0000
@<TRIPOS>BOND
    1    1    2 1     
    2    1   24 1     
    3    1   25 1     
    4    1   26 1     
    5    2   22 1     
    6    2    3 2     
    7    3    4 1     
    8    4    5 1     
    9    4   17 am    
   10    5    6 1     
   11    5   27 1     
   12    5   28 1     
   13    6    7 2     
   14    6    8 am    
   15    8    9 1     
   16    8   29 1     
   17    9   15 1     
   18    9   10 1     
   19    9   30 1     
   20   10   11 1     
   21   10   31 1     
   22   10   32 1     
   23   11   12 1     
   24   11   33 1     
   25   11   34 1     
   26   12   13 1     
   27   12   35 1     
   28   12   36 1     
   29   13   14 1     
   30   13   15 1     
   31   13   37 1     
   32   14   38 1     
   33   14   39 1     
   34   14   40 1     
   35   15   16 1     
   36   15   41 1     
   37   16   42 1     
   38   16   43 1     
   39   16   44 1     
   40   17   18 2     
   41   17   19 1     
   42   19   20 1     
   43   19   22 2     
   44   20   21 3     
   45   22   23 1     
   46   23   45 1     
   47   23   46 1     
   48   23   47 1     
   49    3   48 1     
   50    7   49 1     
   51    7   50 1     
   52   18   51 1     
   53   18   52 1     
   54   21   53 1     
@<TRIPOS>SUBSTRUCTURE
      1 S1             1
@<TRIPOS>SET
LONE_PAIRS      STATIC     ATOMS    <user>   **** ""
6 48 49 50 51 52 53
DONOR_HYDROGENS      STATIC     ATOMS    <user>   **** ""
1 29
ATOM$BLUE        STATIC     ATOMS    COLORGROUP SYSTEM
6 48 49 50 51 52 53
ATOM$RED        STATIC     ATOMS    COLORGROUP SYSTEM
1 29
