AV-unprocessed.smi:532|AV-procd|sdf|2848|dock8
  -GOLD-   2262023343D 1   1.00000     0.00000
 Structure written by MMmdl.
 49 51  0  0  0  0  0  0  0  0  1 V2000
  154.0462  137.2146  157.1741 C   0  0  0  0  0  0  0  0  0  0  0  0
  152.8141  136.8588  156.5721 O   0  0  0  0  0  0  0  0  0  0  0  0
  151.7935  137.8099  156.8213 C   0  0  0  0  0  0  0  0  0  0  0  0
  152.2809  139.1891  156.3485 C   0  0  0  0  0  0  0  0  0  0  0  0
  151.1782  140.0867  156.0171 N   0  0  0  0  0  0  0  0  0  0  0  0
  150.8543  141.3044  156.5455 C   0  0  0  0  0  0  0  0  0  0  0  0
  151.5997  141.9460  157.5460 N   0  0  0  0  0  0  0  0  0  0  0  0
  151.6072  143.3999  157.7262 C   0  0  0  0  0  0  0  0  0  0  0  0
  151.2898  143.8025  159.1799 C   0  0  2  0  0  0  0  0  0  0  0  0
  151.2467  145.3280  159.3424 C   0  0  0  0  0  0  0  0  0  0  0  0
  152.3093  143.1626  160.1366 C   0  0  0  0  0  0  0  0  0  0  0  0
  152.3908  141.6470  159.8945 C   0  0  2  0  0  0  0  0  0  0  0  0
  153.4636  140.9894  160.7726 C   0  0  0  0  0  0  0  0  0  0  0  0
  152.6451  141.3740  158.3982 C   0  0  0  0  0  0  0  0  0  0  0  0
  149.7313  141.8318  156.0458 N   0  0  0  0  0  0  0  0  0  0  0  0
  149.3127  140.8924  155.1192 C   0  0  0  0  0  0  0  0  0  0  0  0
  150.1612  139.8354  155.0920 C   0  0  0  0  0  0  0  0  0  0  0  0
  149.9397  138.6743  154.2176 C   0  0  0  0  0  0  0  0  0  0  0  0
  150.6805  137.6940  154.1884 O   0  0  0  0  0  0  0  0  0  0  0  0
  148.8319  138.7919  153.4462 N   0  0  0  0  0  0  0  0  0  0  0  0
  147.9439  139.8318  153.4193 C   0  0  0  0  0  0  0  0  0  0  0  0
  146.9797  139.7979  152.6549 O   0  0  0  0  0  0  0  0  0  0  0  0
  148.1741  140.8873  154.2637 N   0  0  0  0  0  0  0  0  0  0  0  0
  147.2540  142.0263  154.2808 C   0  0  0  0  0  0  0  0  0  0  0  0
  148.6379  138.0229  152.8215 H   0  0  0  0  0  0  0  0  0  0  0  0
  154.7952  136.4541  156.9535 H   0  0  0  0  0  0  0  0  0  0  0  0
  153.9490  137.2863  158.2583 H   0  0  0  0  0  0  0  0  0  0  0  0
  154.4116  138.1685  156.7915 H   0  0  0  0  0  0  0  0  0  0  0  0
  150.8800  137.5189  156.3026 H   0  0  0  0  0  0  0  0  0  0  0  0
  151.5580  137.8302  157.8856 H   0  0  0  0  0  0  0  0  0  0  0  0
  152.8896  139.6557  157.1228 H   0  0  0  0  0  0  0  0  0  0  0  0
  152.9459  139.0938  155.4945 H   0  0  0  0  0  0  0  0  0  0  0  0
  152.5782  143.7954  157.4242 H   0  0  0  0  0  0  0  0  0  0  0  0
  150.8719  143.8579  157.0638 H   0  0  0  0  0  0  0  0  0  0  0  0
  150.2999  143.4162  159.4281 H   0  0  0  0  0  0  0  0  0  0  0  0
  152.2104  145.7790  159.1042 H   0  0  0  0  0  0  0  0  0  0  0  0
  150.9920  145.6064  160.3653 H   0  0  0  0  0  0  0  0  0  0  0  0
  150.4996  145.7714  158.6838 H   0  0  0  0  0  0  0  0  0  0  0  0
  153.2912  143.6122  159.9813 H   0  0  0  0  0  0  0  0  0  0  0  0
  152.0332  143.3646  161.1721 H   0  0  0  0  0  0  0  0  0  0  0  0
  151.4298  141.2116  160.1697 H   0  0  0  0  0  0  0  0  0  0  0  0
  154.4562  141.3793  160.5450 H   0  0  0  0  0  0  0  0  0  0  0  0
  153.4861  139.9100  160.6195 H   0  0  0  0  0  0  0  0  0  0  0  0
  153.2693  141.1683  161.8305 H   0  0  0  0  0  0  0  0  0  0  0  0
  152.7462  140.3080  158.2220 H   0  0  0  0  0  0  0  0  0  0  0  0
  153.6044  141.8031  158.1049 H   0  0  0  0  0  0  0  0  0  0  0  0
  146.2281  141.6940  154.4451 H   0  0  0  0  0  0  0  0  0  0  0  0
  147.2916  142.5576  153.3291 H   0  0  0  0  0  0  0  0  0  0  0  0
  147.4897  142.7432  155.0670 H   0  0  0  0  0  0  0  0  0  0  0  0
  1  2  1  0  0  0  0
  1 26  1  0  0  0  0
  1 27  1  0  0  0  0
  1 28  1  0  0  0  0
  2  3  1  0  0  0  0
  3  4  1  0  0  0  0
  3 29  1  0  0  0  0
  3 30  1  0  0  0  0
  4  5  1  0  0  0  0
  4 31  1  0  0  0  0
  4 32  1  0  0  0  0
  5 17  1  0  0  0  0
  5  6  1  0  0  0  0
  6  7  1  0  0  0  0
  6 15  2  0  0  0  0
  7 14  1  0  0  0  0
  7  8  1  0  0  0  0
  8  9  1  0  0  0  0
  8 33  1  0  0  0  0
  8 34  1  0  0  0  0
  9 10  1  0  0  0  0
  9 11  1  0  0  0  0
  9 35  1  0  0  0  0
 10 36  1  0  0  0  0
 10 37  1  0  0  0  0
 10 38  1  0  0  0  0
 11 12  1  0  0  0  0
 11 39  1  0  0  0  0
 11 40  1  0  0  0  0
 12 13  1  0  0  0  0
 12 14  1  0  0  0  0
 12 41  1  0  0  0  0
 13 42  1  0  0  0  0
 13 43  1  0  0  0  0
 13 44  1  0  0  0  0
 14 45  1  0  0  0  0
 14 46  1  0  0  0  0
 15 16  1  0  0  0  0
 16 23  1  0  0  0  0
 16 17  2  0  0  0  0
 17 18  1  0  0  0  0
 18 19  2  0  0  0  0
 18 20  1  0  0  0  0
 20 25  1  0  0  0  0
 20 21  1  0  0  0  0
 21 22  2  0  0  0  0
 21 23  1  0  0  0  0
 23 24  1  0  0  0  0
 24 47  1  0  0  0  0
 24 48  1  0  0  0  0
 24 49  1  0  0  0  0
M  END
> <s_m_source_file>
AV-unprocessed.smi

> <i_m_source_file_index>
532

> <i_lp_mmshare_version>
43012

> <i_f3d_flags>
0

> <s_epik_input>
W0NIM11uMWMoPU8pW25IXWMoPU8pYyhjMTIpbihbQ0gyXVtDSDJdT1tDSDNdKWMobjIpTjNbQ0gyXVtDQEBIXShbQ0gzXSlbQ0gyXVtDQEBIXShbQ0gzXSlbQ0gyXTM=

> <s_epik_cmdline>
J2VwaWtfcHl0aG9uJywgJy1waCcsICc3LjAnLCAnLXRuJywgJzgnLCAnLW1hJywgJzIwMCcsICctbWV0YWxfYmluZGluZycsICctaW1hZScsICc8aW5maWxlLm1hZT4nLCAnLW9tYWUnLCAnPG91dGZpbGUubWFlPic=

> <r_lp_tautomer_probability>
1

> <r_epik_Ionization_Penalty>
0.000642525

> <r_epik_Ionization_Penalty_Charging>
0.000121571

> <r_epik_Ionization_Penalty_Neutral>
0.000520954

> <r_epik_State_Penalty>
-0

> <r_epik_Charging_Adjusted_Penalty>
0.000121571

> <i_epik_Tot_Q>
0

> <i_epik_Tot_abs_Q>
0

> <r_epik_Metal_State_Penalty>
0.0931709

> <b_epik_Metal_Only>
0

> <s_lp_Force_Field>
OPLS_2005

> <r_lp_Energy>
38.055

> <b_lp_Chiralities_Consistent>
1

> <s_lp_Variant>
AV-unprocessed.smi:532-1

> <Gold.Version>
5.8.1

> <Gold.Id.Protein>
6NUR|6NUR_protein|mol2

> <Gold.PLP.Fitness>
51.2204

> <Gold.PLP.PLP>
-46.1346

> <Gold.PLP.part.hbond>
-3.0000

> <Gold.PLP.part.metal>
0.0000

> <Gold.PLP.part.buried>
-5.6966

> <Gold.PLP.part.nonpolar>
-40.6928

> <Gold.PLP.part.repulsive>
2.2587

> <Gold.PLP.ligand.clash>
0.0000

> <Gold.PLP.ligand.torsion>
0.3490

> <Gold.PLP.Chemscore.Hbond>
1.9120

> <Gold.PLP.Chemscore.CHOScore>
0.0000

> <Gold.PLP.Chemscore.Metal>
0.0000

> <Gold.Chemscore.Hbonds>
donor molecule, donor type, donor heavy atom, donor atom, acceptor molecule, acceptor atom, score
      L1  H    20    25       P1  7948  0.99
      P1  H 10752 10765       L1     2  0.96

> <Gold.PLP.Chemscore.Internal.Correction>
0.0477

> <Gold.Rescore>
     Score         DG    S(hbond)    S(metal)    S(lipo)     H(rot)  DE(clash)    DE(int)     intcor
     16.32     -19.17       1.74        0.00      98.68       1.43       0.14       2.71       ----

> <Gold.Chemscore.Fitness>
16.3177

> <Gold.Chemscore.DG>
-19.1671

> <Gold.Chemscore.ZeroCoef>
-5.4800

> <Gold.Chemscore.Hbond>
1.7392

> <Gold.Chemscore.Metal>
0.0000

> <Gold.Chemscore.Lipo>
98.6753

> <Gold.Chemscore.Internal_Hbond>
0.0000

> <Gold.Chemscore.DEClash>
0.1356

> <Gold.Chemscore.DEInternal>
2.7138

> <Gold.Chemscore.Rot>
1.4324

> <Gold.Chemscore.Internal.Correction>
   9.000000E+99

> <Gold.Chemscore.Hbonds>
donor molecule, donor type, donor heavy atom, donor atom, acceptor molecule, acceptor atom, score
      L1  H    20    25       P1  7948  0.91
      P1  H 10752 10765       L1     2  0.30

> <Gold.Chemscore.Hbond.Weighted>
-5.8090

> <Gold.Chemscore.Metal.Weighted>
-0.0000

> <Gold.Chemscore.Lipo.Weighted>
-11.5450

> <Gold.Chemscore.Internal_Hbond.Weighted>
0.0000

> <Gold.Chemscore.DEClash.Weighted>
0.1356

> <Gold.Chemscore.DEInternal.Weighted>
2.7138

> <Gold.Chemscore.Rot.Weighted>
3.6669

> <Gold.Chemscore.Internal.Correction.Weighted>
   9.000000E+99

> <Gold.Protein.RotatedTorsions>
[ 6907 6896 6895 6894 ] final -114.00 input  -60.11 | X-H torsion
[ 7974 7965 7964 7962 ] final   77.41 input  175.53 | X-H torsion
[ 8008 7997 7996 7995 ] final -119.67 input   59.86 | X-H torsion
[ 10167 10162 10161 10158 ] final   -3.91 input  -65.29 | X-H torsion
[ 10718 10713 10712 10709 ] final  -91.86 input   66.30 | X-H torsion
[ 10763 10752 10751 10750 ] final -131.89 input  -60.55 | X-H torsion
[ 11005 11000 10999 10996 ] final   65.52 input  -57.11 | X-H torsion

> <Gold.Protein.ActiveResidues>
 VAL166  LYS551  ARG553  GLY616  TRP617  ASP618  TYR619  PRO620  LYS621  CYS622 
 ASP623  PHE694  ASN695  SER759  ASP760  ASP761  ALA762  ILE779  LEU786  VAL792 
 PHE793  MET794  SER795  GLU796  ALA797  LYS798  CYS799  TRP800  GLU811  SER814 

> <Gold.Protein.RotatedAtoms>
  150.7870  133.8863  159.3300 H   0  0  0  0  0  0  0  0  0  0  0  0  # atno 6907 bound_to 6896
  151.6711  135.0974  160.0207 H   0  0  0  0  0  0  0  0  0  0  0  0  # atno 6908 bound_to 6896
  152.3936  133.6676  159.6293 H   0  0  0  0  0  0  0  0  0  0  0  0  # atno 6909 bound_to 6896
  145.6904  139.2550  143.1763 H   0  0  0  0  0  0  0  0  0  0  0  0  # atno 7974 bound_to 7965
  155.1194  140.0398  157.2746 H   0  0  0  0  0  0  0  0  0  0  0  0  # atno 8008 bound_to 7997
  154.6625  140.2594  155.7068 H   0  0  0  0  0  0  0  0  0  0  0  0  # atno 8009 bound_to 7997
  156.2625  140.2814  156.1102 H   0  0  0  0  0  0  0  0  0  0  0  0  # atno 8010 bound_to 7997
  140.6908  143.6485  150.8371 H   0  0  0  0  0  0  0  0  0  0  0  0  # atno 10167 bound_to 10162
  155.9997  130.4964  150.5538 H   0  0  0  0  0  0  0  0  0  0  0  0  # atno 10718 bound_to 10713
  154.8747  135.3815  154.4320 H   0  0  0  0  0  0  0  0  0  0  0  0  # atno 10763 bound_to 10752
  153.5013  135.7030  153.5835 H   0  0  0  0  0  0  0  0  0  0  0  0  # atno 10764 bound_to 10752
  153.4166  135.3911  155.2051 H   0  0  0  0  0  0  0  0  0  0  0  0  # atno 10765 bound_to 10752
  139.9889  134.6623  156.0125 H   0  0  0  0  0  0  0  0  0  0  0  0  # atno 11005 bound_to 11000
  146.0887  140.7681  142.9606 LP  0  0  0  0  0  0  0  0  0  0  0  0  # atno 17320 bound_to 7965
  144.6998  140.3603  143.7165 LP  0  0  0  0  0  0  0  0  0  0  0  0  # atno 17321 bound_to 7965
  140.0198  143.5554  152.2805 LP  0  0  0  0  0  0  0  0  0  0  0  0  # atno 17342 bound_to 10162
  139.6308  144.7644  151.2539 LP  0  0  0  0  0  0  0  0  0  0  0  0  # atno 17343 bound_to 10162
  157.3457  131.0724  151.1753 LP  0  0  0  0  0  0  0  0  0  0  0  0  # atno 17370 bound_to 10713
  157.2586  130.6648  149.5964 LP  0  0  0  0  0  0  0  0  0  0  0  0  # atno 17371 bound_to 10713
  141.1549  133.6544  156.4130 LP  0  0  0  0  0  0  0  0  0  0  0  0  # atno 17394 bound_to 11000
  140.4947  134.6543  157.5225 LP  0  0  0  0  0  0  0  0  0  0  0  0  # atno 17395 bound_to 11000

$$$$
