AV-unprocessed.smi:2786|AV-procd|sdf|10749|dock10
  -GOLD-   2272015183D 1   1.00000     0.00000
 Structure written by MMmdl.
 27 28  0  0  0  0  0  0  0  0  2 V2000
  151.7021  144.7616  159.4723 C   0  0  0  0  0  0  0  0  0  0  0  0
  152.1076  143.3735  159.5793 N   0  0  0  0  0  0  0  0  0  0  0  0
  153.1355  142.8866  160.3761 C   0  0  0  0  0  0  0  0  0  0  0  0
  153.1849  141.5294  160.1705 C   0  0  0  0  0  0  0  0  0  0  0  0
  152.2017  141.1661  159.2568 N   0  0  0  0  0  0  0  0  0  0  0  0
  151.5854  142.3045  158.9463 C   0  0  0  0  0  0  0  0  0  0  0  0
  150.4488  142.4035  157.9700 C   0  0  1  0  0  0  0  0  0  0  0  0
  150.9054  142.0486  156.5376 C   0  0  0  0  0  0  0  0  0  0  0  0
  149.7830  142.1947  155.5876 N   0  3  0  0  0  0  0  0  0  0  0  0
  148.6171  141.3934  156.0109 C   0  0  0  0  0  0  0  0  0  0  0  0
  148.2145  141.7711  157.4482 C   0  0  0  0  0  0  0  0  0  0  0  0
  149.3368  141.5315  158.3501 N   0  0  0  0  0  0  0  0  0  0  0  0
  152.3822  145.3968  160.0408 H   0  0  0  0  0  0  0  0  0  0  0  0
  150.6936  144.8826  159.8683 H   0  0  0  0  0  0  0  0  0  0  0  0
  151.7204  145.0742  158.4279 H   0  0  0  0  0  0  0  0  0  0  0  0
  153.7330  143.5291  161.0062 H   0  0  0  0  0  0  0  0  0  0  0  0
  153.8458  140.7933  160.6041 H   0  0  0  0  0  0  0  0  0  0  0  0
  150.0791  143.4295  157.9843 H   0  0  0  0  0  0  0  0  0  0  0  0
  151.7163  142.7061  156.2229 H   0  0  0  0  0  0  0  0  0  0  0  0
  151.2877  141.0272  156.4943 H   0  0  0  0  0  0  0  0  0  0  0  0
  149.5115  143.1669  155.5561 H   0  0  0  0  0  0  0  0  0  0  0  0
  147.7905  141.5759  155.3241 H   0  0  0  0  0  0  0  0  0  0  0  0
  148.8602  140.3317  155.9452 H   0  0  0  0  0  0  0  0  0  0  0  0
  147.8985  142.8138  157.5084 H   0  0  0  0  0  0  0  0  0  0  0  0
  147.3696  141.1621  157.7704 H   0  0  0  0  0  0  0  0  0  0  0  0
  149.6315  140.5713  158.2388 H   0  0  0  0  0  0  0  0  0  0  0  0
  150.0783  141.9029  154.6670 H   0  0  0  0  0  0  0  0  0  0  0  0
  1  2  1  0  0  0  0
  1 13  1  0  0  0  0
  1 14  1  0  0  0  0
  1 15  1  0  0  0  0
  2  6  1  0  0  0  0
  2  3  1  0  0  0  0
  3  4  2  0  0  0  0
  3 16  1  0  0  0  0
  4  5  1  0  0  0  0
  4 17  1  0  0  0  0
  5  6  2  0  0  0  0
  6  7  1  0  0  0  0
  7 12  1  0  0  0  0
  7  8  1  0  0  0  0
  7 18  1  0  0  0  0
  8  9  1  0  0  0  0
  8 19  1  0  0  0  0
  8 20  1  0  0  0  0
  9 10  1  0  0  0  0
  9 21  1  0  0  0  0
  9 27  1  0  0  0  0
 10 11  1  0  0  0  0
 10 22  1  0  0  0  0
 10 23  1  0  0  0  0
 11 12  1  0  0  0  0
 11 24  1  0  0  0  0
 11 25  1  0  0  0  0
 12 26  1  0  0  0  0
M  CHG  1   9   1
M  END
> <s_m_source_file>
AV-unprocessed.smi

> <i_m_source_file_index>
2786

> <i_lp_mmshare_version>
43012

> <i_f3d_flags>
0

> <s_epik_input>
W0NIM11uMVtjSF1bY0hdbmMxW0NAQEhdMltDSDJdW05IXVtDSDJdW0NIMl1bTkhdMg==

> <s_epik_cmdline>
J2VwaWtfcHl0aG9uJywgJy1waCcsICc3LjAnLCAnLXRuJywgJzgnLCAnLW1hJywgJzIwMCcsICctbWV0YWxfYmluZGluZycsICctaW1hZScsICc8aW5maWxlLm1hZT4nLCAnLW9tYWUnLCAnPG91dGZpbGUubWFlPic=

> <r_lp_tautomer_probability>
1

> <r_epik_Ionization_Penalty>
0.130484

> <r_epik_Ionization_Penalty_Charging>
0.130409

> <r_epik_Ionization_Penalty_Neutral>
7.57914e-05

> <r_epik_State_Penalty>
0.270147

> <r_epik_Charging_Adjusted_Penalty>
0.400555

> <i_epik_Tot_Q>
1

> <i_epik_Tot_abs_Q>
1

> <r_epik_Metal_State_Penalty>
0.136376

> <b_epik_Metal_Only>
0

> <s_lp_Force_Field>
OPLS_2005

> <r_lp_Energy>
9.37099

> <b_lp_Chiralities_Consistent>
1

> <s_lp_Variant>
AV-unprocessed.smi:2786-2

> <Gold.Version>
5.8.1

> <Gold.Id.Protein>
6NUR|6NUR_protein|mol2

> <Gold.PLP.Fitness>
33.1523

> <Gold.PLP.PLP>
-27.2541

> <Gold.PLP.part.hbond>
-1.0000

> <Gold.PLP.part.metal>
0.0000

> <Gold.PLP.part.buried>
-4.3263

> <Gold.PLP.part.nonpolar>
-22.3600

> <Gold.PLP.part.repulsive>
0.1713

> <Gold.PLP.ligand.clash>
0.0000

> <Gold.PLP.ligand.torsion>
0.0546

> <Gold.PLP.Chemscore.Hbond>
2.0000

> <Gold.PLP.Chemscore.CHOScore>
0.0000

> <Gold.PLP.Chemscore.Metal>
0.0000

> <Gold.Chemscore.Hbonds>
donor molecule, donor type, donor heavy atom, donor atom, acceptor molecule, acceptor atom, score
      L1  H     9    21       P1  8028  2.00

> <Gold.PLP.Chemscore.Internal.Correction>
0.0075

> <Gold.Rescore>
     Score         DG    S(hbond)    S(metal)    S(lipo)     H(rot)  DE(clash)    DE(int)     intcor
     12.84     -12.86       1.00        0.00      56.43       1.00       0.01       0.01       ----

> <Gold.Chemscore.Fitness>
12.8390

> <Gold.Chemscore.DG>
-12.8591

> <Gold.Chemscore.ZeroCoef>
-5.4800

> <Gold.Chemscore.Hbond>
0.9989

> <Gold.Chemscore.Metal>
0.0000

> <Gold.Chemscore.Lipo>
56.4332

> <Gold.Chemscore.Internal_Hbond>
0.0000

> <Gold.Chemscore.DEClash>
0.0141

> <Gold.Chemscore.DEInternal>
0.0060

> <Gold.Chemscore.Rot>
1.0000

> <Gold.Chemscore.Internal.Correction>
   9.000000E+99

> <Gold.Chemscore.Hbonds>
donor molecule, donor type, donor heavy atom, donor atom, acceptor molecule, acceptor atom, score
      L1  H     9    21       P1  8028  1.00

> <Gold.Chemscore.Hbond.Weighted>
-3.3365

> <Gold.Chemscore.Metal.Weighted>
-0.0000

> <Gold.Chemscore.Lipo.Weighted>
-6.6027

> <Gold.Chemscore.Internal_Hbond.Weighted>
0.0000

> <Gold.Chemscore.DEClash.Weighted>
0.0141

> <Gold.Chemscore.DEInternal.Weighted>
0.0060

> <Gold.Chemscore.Rot.Weighted>
2.5600

> <Gold.Chemscore.Internal.Correction.Weighted>
   9.000000E+99

> <Gold.Protein.RotatedTorsions>
[ 6907 6896 6895 6894 ] final   -4.51 input  -60.11 | X-H torsion
[ 7974 7965 7964 7962 ] final  114.75 input  175.53 | X-H torsion
[ 8008 7997 7996 7995 ] final -164.75 input   59.86 | X-H torsion
[ 10167 10162 10161 10158 ] final  -64.20 input  -65.29 | X-H torsion
[ 10718 10713 10712 10709 ] final   67.97 input   66.30 | X-H torsion
[ 10763 10752 10751 10750 ] final   90.35 input  -60.55 | X-H torsion
[ 11005 11000 10999 10996 ] final -156.48 input  -57.11 | X-H torsion

> <Gold.Protein.ActiveResidues>
 VAL166  LYS551  ARG553  GLY616  TRP617  ASP618  TYR619  PRO620  LYS621  CYS622 
 ASP623  PHE694  ASN695  SER759  ASP760  ASP761  ALA762  ILE779  LEU786  VAL792 
 PHE793  MET794  SER795  GLU796  ALA797  LYS798  CYS799  TRP800  GLU811  SER814 

> <Gold.Protein.RotatedAtoms>
  151.4964  135.1060  159.9817 H   0  0  0  0  0  0  0  0  0  0  0  0  # atno 6907 bound_to 6896
  152.4720  133.8046  159.6982 H   0  0  0  0  0  0  0  0  0  0  0  0  # atno 6908 bound_to 6896
  150.8734  133.7410  159.2980 H   0  0  0  0  0  0  0  0  0  0  0  0  # atno 6909 bound_to 6896
  145.2005  139.2955  143.4321 H   0  0  0  0  0  0  0  0  0  0  0  0  # atno 7974 bound_to 7965
  155.8400  140.0947  157.1740 H   0  0  0  0  0  0  0  0  0  0  0  0  # atno 8008 bound_to 7997
  154.3981  140.1403  156.3778 H   0  0  0  0  0  0  0  0  0  0  0  0  # atno 8009 bound_to 7997
  155.8074  140.3451  155.5440 H   0  0  0  0  0  0  0  0  0  0  0  0  # atno 8010 bound_to 7997
  140.5817  143.2328  151.6328 H   0  0  0  0  0  0  0  0  0  0  0  0  # atno 10167 bound_to 10162
  157.6262  130.9349  150.0314 H   0  0  0  0  0  0  0  0  0  0  0  0  # atno 10718 bound_to 10713
  153.1967  135.4437  155.0216 H   0  0  0  0  0  0  0  0  0  0  0  0  # atno 10763 bound_to 10752
  154.8123  135.3299  154.7275 H   0  0  0  0  0  0  0  0  0  0  0  0  # atno 10764 bound_to 10752
  153.7724  135.6983  153.4959 H   0  0  0  0  0  0  0  0  0  0  0  0  # atno 10765 bound_to 10752
  140.6751  134.4205  157.5230 H   0  0  0  0  0  0  0  0  0  0  0  0  # atno 11005 bound_to 11000
  146.3418  140.2247  142.8592 LP  0  0  0  0  0  0  0  0  0  0  0  0  # atno 17320 bound_to 7965
  144.9953  140.8583  143.5315 LP  0  0  0  0  0  0  0  0  0  0  0  0  # atno 17321 bound_to 7965
  139.5174  144.3317  152.0820 LP  0  0  0  0  0  0  0  0  0  0  0  0  # atno 17342 bound_to 10162
  140.2468  144.4211  150.6237 LP  0  0  0  0  0  0  0  0  0  0  0  0  # atno 17343 bound_to 10162
  156.1435  130.3642  149.9546 LP  0  0  0  0  0  0  0  0  0  0  0  0  # atno 17370 bound_to 10713
  156.7581  130.9141  151.3640 LP  0  0  0  0  0  0  0  0  0  0  0  0  # atno 17371 bound_to 10713
  139.8969  134.8649  156.2067 LP  0  0  0  0  0  0  0  0  0  0  0  0  # atno 17394 bound_to 11000
  141.0361  133.6962  156.1515 LP  0  0  0  0  0  0  0  0  0  0  0  0  # atno 17395 bound_to 11000

$$$$
