AV-unprocessed.smi:1642|AV-procd|sdf|6570|dock5
  -GOLD-   22720 7253D 1   1.00000     0.00000
 Structure written by MMmdl.
 35 36  0  0  0  0  0  0  0  0  2 V2000
  150.7911  141.4756  155.6760 C   0  0  0  0  0  0  0  0  0  0  0  0
  149.7096  140.6435  155.0760 C   0  0  0  0  0  0  0  0  0  0  0  0
  148.4100  140.9290  155.2218 N   0  0  0  0  0  0  0  0  0  0  0  0
  147.5941  140.0131  154.5728 N   0  0  0  0  0  0  0  0  0  0  0  0
  148.3052  139.0611  153.9533 C   0  0  0  0  0  0  0  0  0  0  0  0
  147.7233  137.9980  153.2124 N   0  0  0  0  0  0  0  0  0  0  0  0
  146.4188  137.7161  153.0464 C   0  0  0  0  0  0  0  0  0  0  0  0
  145.4833  138.3561  153.5271 O   0  0  0  0  0  0  0  0  0  0  0  0
  146.2465  136.6311  152.2791 N   0  0  0  0  0  0  0  0  0  0  0  0
  144.9436  136.0834  151.9266 C   0  0  0  0  0  0  0  0  0  0  0  0
  144.8823  135.7365  150.4315 C   0  0  0  0  0  0  0  0  0  0  0  0
  145.2266  134.3175  150.1809 N   0  3  0  0  0  0  0  0  0  0  0  0
  146.3789  133.7979  150.9575 C   0  0  0  0  0  0  0  0  0  0  0  0
  145.9992  132.3876  151.4304 C   0  0  0  0  0  0  0  0  0  0  0  0
  144.7654  132.0239  150.6106 C   0  0  0  0  0  0  0  0  0  0  0  0
  144.1046  133.3775  150.3739 C   0  0  0  0  0  0  0  0  0  0  0  0
  150.0470  139.2094  154.1138 S   0  0  0  0  0  0  0  0  0  0  0  0
  150.3923  142.1100  156.4683 H   0  0  0  0  0  0  0  0  0  0  0  0
  151.2396  142.1096  154.9113 H   0  0  0  0  0  0  0  0  0  0  0  0
  151.5650  140.8354  156.0995 H   0  0  0  0  0  0  0  0  0  0  0  0
  148.3789  137.3802  152.7571 H   0  0  0  0  0  0  0  0  0  0  0  0
  147.0632  136.1586  151.9198 H   0  0  0  0  0  0  0  0  0  0  0  0
  144.7541  135.1906  152.5250 H   0  0  0  0  0  0  0  0  0  0  0  0
  144.1736  136.8126  152.1833 H   0  0  0  0  0  0  0  0  0  0  0  0
  143.8939  135.9544  150.0234 H   0  0  0  0  0  0  0  0  0  0  0  0
  145.5911  136.3665  149.8917 H   0  0  0  0  0  0  0  0  0  0  0  0
  147.2569  133.7745  150.3111 H   0  0  0  0  0  0  0  0  0  0  0  0
  146.6157  134.4321  151.8135 H   0  0  0  0  0  0  0  0  0  0  0  0
  146.8104  131.6694  151.3073 H   0  0  0  0  0  0  0  0  0  0  0  0
  145.7388  132.4143  152.4893 H   0  0  0  0  0  0  0  0  0  0  0  0
  145.0673  131.5857  149.6581 H   0  0  0  0  0  0  0  0  0  0  0  0
  144.1114  131.3138  151.1176 H   0  0  0  0  0  0  0  0  0  0  0  0
  143.5296  133.6639  151.2565 H   0  0  0  0  0  0  0  0  0  0  0  0
  143.4306  133.3719  149.5167 H   0  0  0  0  0  0  0  0  0  0  0  0
  145.4847  134.2395  149.2073 H   0  0  0  0  0  0  0  0  0  0  0  0
  1  2  1  0  0  0  0
  1 18  1  0  0  0  0
  1 19  1  0  0  0  0
  1 20  1  0  0  0  0
  2 17  1  0  0  0  0
  2  3  2  0  0  0  0
  3  4  1  0  0  0  0
  4  5  2  0  0  0  0
  5  6  1  0  0  0  0
  5 17  1  0  0  0  0
  6  7  1  0  0  0  0
  6 21  1  0  0  0  0
  7  8  2  0  0  0  0
  7  9  1  0  0  0  0
  9 10  1  0  0  0  0
  9 22  1  0  0  0  0
 10 11  1  0  0  0  0
 10 23  1  0  0  0  0
 10 24  1  0  0  0  0
 11 12  1  0  0  0  0
 11 25  1  0  0  0  0
 11 26  1  0  0  0  0
 12 16  1  0  0  0  0
 12 13  1  0  0  0  0
 12 35  1  0  0  0  0
 13 14  1  0  0  0  0
 13 27  1  0  0  0  0
 13 28  1  0  0  0  0
 14 15  1  0  0  0  0
 14 29  1  0  0  0  0
 14 30  1  0  0  0  0
 15 16  1  0  0  0  0
 15 31  1  0  0  0  0
 15 32  1  0  0  0  0
 16 33  1  0  0  0  0
 16 34  1  0  0  0  0
M  CHG  1  12   1
M  END
> <s_m_source_file>
AV-unprocessed.smi

> <i_m_source_file_index>
1642

> <i_lp_mmshare_version>
43012

> <i_f3d_flags>
0

> <s_epik_input>
W0NIM11jMW5uYyhzMSlbTkhdQyg9TylbTkhdW0NIMl1bQ0gyXU4yW0NIMl1bQ0gyXVtDSDJdW0NIMl0y

> <s_epik_cmdline>
J2VwaWtfcHl0aG9uJywgJy1waCcsICc3LjAnLCAnLXRuJywgJzgnLCAnLW1hJywgJzIwMCcsICctbWV0YWxfYmluZGluZycsICctaW1hZScsICc8aW5maWxlLm1hZT4nLCAnLW9tYWUnLCAnPG91dGZpbGUubWFlPic=

> <r_lp_tautomer_probability>
1

> <r_epik_Ionization_Penalty>
0.00661496

> <r_epik_Ionization_Penalty_Charging>
0.0023443

> <r_epik_Ionization_Penalty_Neutral>
0.00427066

> <r_epik_State_Penalty>
0.00184107

> <r_epik_Charging_Adjusted_Penalty>
0.00418537

> <i_epik_Tot_Q>
1

> <i_epik_Tot_abs_Q>
1

> <r_epik_Metal_State_Penalty>
0.375387

> <b_epik_Metal_Only>
0

> <s_lp_Force_Field>
OPLS_2005

> <r_lp_Energy>
26.1101

> <b_lp_Chiralities_Consistent>
1

> <s_lp_Variant>
AV-unprocessed.smi:1642-1

> <Gold.Version>
5.8.1

> <Gold.Id.Protein>
6NUR|6NUR_protein|mol2

> <Gold.PLP.Fitness>
36.2194

> <Gold.PLP.PLP>
-28.3987

> <Gold.PLP.part.hbond>
-3.0000

> <Gold.PLP.part.metal>
0.0000

> <Gold.PLP.part.buried>
-3.8491

> <Gold.PLP.part.nonpolar>
-22.2151

> <Gold.PLP.part.repulsive>
1.1404

> <Gold.PLP.ligand.clash>
0.0000

> <Gold.PLP.ligand.torsion>
0.5127

> <Gold.PLP.Chemscore.Hbond>
2.9440

> <Gold.PLP.Chemscore.CHOScore>
0.0000

> <Gold.PLP.Chemscore.Metal>
0.0000

> <Gold.Chemscore.Hbonds>
donor molecule, donor type, donor heavy atom, donor atom, acceptor molecule, acceptor atom, score
      L1  H     6    21       P1  7948  1.00
      L1  H     9    22       P1  7948  0.90
      L1  H    12    35       P1  7921  1.00

> <Gold.PLP.Chemscore.Internal.Correction>
0.0140

> <Gold.Rescore>
     Score         DG    S(hbond)    S(metal)    S(lipo)     H(rot)  DE(clash)    DE(int)     intcor
     16.01     -18.30       2.82        0.00      64.72       1.63       0.32       1.97       ----

> <Gold.Chemscore.Fitness>
16.0138

> <Gold.Chemscore.DG>
-18.2998

> <Gold.Chemscore.ZeroCoef>
-5.4800

> <Gold.Chemscore.Hbond>
2.8204

> <Gold.Chemscore.Metal>
0.0000

> <Gold.Chemscore.Lipo>
64.7153

> <Gold.Chemscore.Internal_Hbond>
0.0000

> <Gold.Chemscore.DEClash>
0.3200

> <Gold.Chemscore.DEInternal>
1.9660

> <Gold.Chemscore.Rot>
1.6297

> <Gold.Chemscore.Internal.Correction>
   9.000000E+99

> <Gold.Chemscore.Hbonds>
donor molecule, donor type, donor heavy atom, donor atom, acceptor molecule, acceptor atom, score
      L1  H     6    21       P1  7948  0.95
      L1  H     9    22       P1  7948  0.86
      L1  H    12    35       P1  7921  0.89

> <Gold.Chemscore.Hbond.Weighted>
-9.4202

> <Gold.Chemscore.Metal.Weighted>
-0.0000

> <Gold.Chemscore.Lipo.Weighted>
-7.5717

> <Gold.Chemscore.Internal_Hbond.Weighted>
0.0000

> <Gold.Chemscore.DEClash.Weighted>
0.3200

> <Gold.Chemscore.DEInternal.Weighted>
1.9660

> <Gold.Chemscore.Rot.Weighted>
4.1720

> <Gold.Chemscore.Internal.Correction.Weighted>
   9.000000E+99

> <Gold.Protein.RotatedTorsions>
[ 6907 6896 6895 6894 ] final  -21.89 input  -60.11 | X-H torsion
[ 7974 7965 7964 7962 ] final  -63.30 input  175.53 | X-H torsion
[ 8008 7997 7996 7995 ] final  118.61 input   59.86 | X-H torsion
[ 10167 10162 10161 10158 ] final -154.86 input  -65.29 | X-H torsion
[ 10718 10713 10712 10709 ] final -133.15 input   66.30 | X-H torsion
[ 10763 10752 10751 10750 ] final   -2.62 input  -60.55 | X-H torsion
[ 11005 11000 10999 10996 ] final -138.93 input  -57.11 | X-H torsion

> <Gold.Protein.ActiveResidues>
 VAL166  LYS551  ARG553  GLY616  TRP617  ASP618  TYR619  PRO620  LYS621  CYS622 
 ASP623  PHE694  ASN695  SER759  ASP760  ASP761  ALA762  ILE779  LEU786  VAL792 
 PHE793  MET794  SER795  GLU796  ALA797  LYS798  CYS799  TRP800  GLU811  SER814 

> <Gold.Protein.RotatedAtoms>
  151.2267  135.0539  159.8970 H   0  0  0  0  0  0  0  0  0  0  0  0  # atno 6907 bound_to 6896
  152.5409  134.0582  159.8150 H   0  0  0  0  0  0  0  0  0  0  0  0  # atno 6908 bound_to 6896
  151.0756  133.5383  159.2655 H   0  0  0  0  0  0  0  0  0  0  0  0  # atno 6909 bound_to 6896
  145.7808  140.8763  143.0331 H   0  0  0  0  0  0  0  0  0  0  0  0  # atno 7974 bound_to 7965
  156.2555  140.2871  156.0862 H   0  0  0  0  0  0  0  0  0  0  0  0  # atno 8008 bound_to 7997
  155.1512  140.0397  157.2839 H   0  0  0  0  0  0  0  0  0  0  0  0  # atno 8009 bound_to 7997
  154.6459  140.2533  155.7275 H   0  0  0  0  0  0  0  0  0  0  0  0  # atno 8010 bound_to 7997
  139.6979  143.9312  152.2415 H   0  0  0  0  0  0  0  0  0  0  0  0  # atno 10167 bound_to 10162
  156.2419  130.7101  151.0965 H   0  0  0  0  0  0  0  0  0  0  0  0  # atno 10718 bound_to 10713
  153.3604  135.6990  153.6717 H   0  0  0  0  0  0  0  0  0  0  0  0  # atno 10763 bound_to 10752
  153.5408  135.3573  155.2718 H   0  0  0  0  0  0  0  0  0  0  0  0  # atno 10764 bound_to 10752
  154.8667  135.4203  154.2860 H   0  0  0  0  0  0  0  0  0  0  0  0  # atno 10765 bound_to 10752
  140.8569  134.2217  157.4729 H   0  0  0  0  0  0  0  0  0  0  0  0  # atno 11005 bound_to 11000
  144.6797  139.9986  143.7484 LP  0  0  0  0  0  0  0  0  0  0  0  0  # atno 17320 bound_to 7965
  146.0076  139.3143  143.0890 LP  0  0  0  0  0  0  0  0  0  0  0  0  # atno 17321 bound_to 7965
  139.9146  144.6836  150.8525 LP  0  0  0  0  0  0  0  0  0  0  0  0  # atno 17342 bound_to 10162
  140.7701  143.3418  151.2192 LP  0  0  0  0  0  0  0  0  0  0  0  0  # atno 17343 bound_to 10162
  157.7179  131.0699  150.6255 LP  0  0  0  0  0  0  0  0  0  0  0  0  # atno 17370 bound_to 10713
  156.6329  130.4437  149.5780 LP  0  0  0  0  0  0  0  0  0  0  0  0  # atno 17371 bound_to 10713
  139.8705  134.9710  156.4723 LP  0  0  0  0  0  0  0  0  0  0  0  0  # atno 17394 bound_to 11000
  140.8727  133.7976  155.9382 LP  0  0  0  0  0  0  0  0  0  0  0  0  # atno 17395 bound_to 11000

$$$$
