AV-unprocessed.smi:1254|AV-procd|sdf|5277|dock4
  -GOLD-   22720 4393D 1   1.00000     0.00000
 Structure written by MMmdl.
 45 46  0  0  0  0  0  0  0  0  3 V2000
  151.6111  141.5704  157.4152 C   0  0  0  0  0  0  0  0  0  0  0  0
  151.3489  140.4538  156.4638 C   0  0  0  0  0  0  0  0  0  0  0  0
  150.2017  139.8500  156.0329 C   0  0  0  0  0  0  0  0  0  0  0  0
  150.6749  138.8661  155.1223 C   0  0  0  0  0  0  0  0  0  0  0  0
  149.9174  137.9954  154.4374 N   0  5  0  0  0  0  0  0  0  0  0  0
  148.7797  137.5075  154.9824 C   0  0  0  0  0  0  0  0  0  0  0  0
  148.4150  137.6307  156.1540 O   0  0  0  0  0  0  0  0  0  0  0  0
  148.0146  136.8343  154.1144 N   0  0  0  0  0  0  0  0  0  0  0  0
  146.7364  136.2121  154.4310 C   0  0  0  0  0  0  0  0  0  0  0  0
  146.7149  134.7530  153.9572 C   0  0  2  0  0  0  0  0  0  0  0  0
  145.2939  134.1543  154.0055 C   0  0  0  0  0  0  0  0  0  0  0  0
  145.2969  132.7247  153.6091 N   0  3  1  0  0  0  0  0  0  0  0  0
  145.4054  132.5131  152.1400 C   0  0  0  0  0  0  0  0  0  0  0  0
  144.2804  133.2127  151.3471 C   0  0  0  0  0  0  0  0  0  0  0  0
  143.9896  132.4562  150.0422 C   0  0  0  0  0  0  0  0  0  0  0  0
  144.6170  134.6838  151.0503 C   0  0  0  0  0  0  0  0  0  0  0  0
  146.2802  131.9631  154.4211 C   0  0  0  0  0  0  0  0  0  0  0  0
  147.6680  132.6323  154.4027 C   0  0  0  0  0  0  0  0  0  0  0  0
  147.5533  133.9872  154.8177 O   0  0  0  0  0  0  0  0  0  0  0  0
  151.9937  138.8616  155.0231 N   0  0  0  0  0  0  0  0  0  0  0  0
  152.4332  139.8823  155.8747 O   0  0  0  0  0  0  0  0  0  0  0  0
  150.8040  141.6575  158.1427 H   0  0  0  0  0  0  0  0  0  0  0  0
  151.6913  142.5184  156.8827 H   0  0  0  0  0  0  0  0  0  0  0  0
  152.5412  141.4077  157.9604 H   0  0  0  0  0  0  0  0  0  0  0  0
  149.1858  140.0776  156.3184 H   0  0  0  0  0  0  0  0  0  0  0  0
  148.3481  136.7500  153.1653 H   0  0  0  0  0  0  0  0  0  0  0  0
  146.5574  136.2688  155.5059 H   0  0  0  0  0  0  0  0  0  0  0  0
  145.9380  136.7714  153.9403 H   0  0  0  0  0  0  0  0  0  0  0  0
  147.0999  134.7108  152.9364 H   0  0  0  0  0  0  0  0  0  0  0  0
  144.9040  134.2261  155.0220 H   0  0  0  0  0  0  0  0  0  0  0  0
  144.6082  134.7231  153.3763 H   0  0  0  0  0  0  0  0  0  0  0  0
  146.3610  132.9031  151.7860 H   0  0  0  0  0  0  0  0  0  0  0  0
  145.4198  131.4460  151.9185 H   0  0  0  0  0  0  0  0  0  0  0  0
  143.3619  133.1914  151.9327 H   0  0  0  0  0  0  0  0  0  0  0  0
  144.8639  132.4364  149.3907 H   0  0  0  0  0  0  0  0  0  0  0  0
  143.1740  132.9237  149.4896 H   0  0  0  0  0  0  0  0  0  0  0  0
  143.6993  131.4241  150.2412 H   0  0  0  0  0  0  0  0  0  0  0  0
  145.5320  134.7714  150.4635 H   0  0  0  0  0  0  0  0  0  0  0  0
  144.7532  135.2563  151.9679 H   0  0  0  0  0  0  0  0  0  0  0  0
  143.8158  135.1627  150.4868 H   0  0  0  0  0  0  0  0  0  0  0  0
  145.9153  131.9305  155.4485 H   0  0  0  0  0  0  0  0  0  0  0  0
  146.3500  130.9271  154.0919 H   0  0  0  0  0  0  0  0  0  0  0  0
  148.3400  132.1134  155.0865 H   0  0  0  0  0  0  0  0  0  0  0  0
  148.1267  132.5793  153.4147 H   0  0  0  0  0  0  0  0  0  0  0  0
  144.3830  132.3718  153.8554 H   0  0  0  0  0  0  0  0  0  0  0  0
  1  2  1  0  0  0  0
  1 22  1  0  0  0  0
  1 23  1  0  0  0  0
  1 24  1  0  0  0  0
  2 21  1  0  0  0  0
  2  3  2  0  0  0  0
  3  4  1  0  0  0  0
  3 25  1  0  0  0  0
  4  5  1  0  0  0  0
  4 20  2  0  0  0  0
  5  6  1  0  0  0  0
  6  7  2  0  0  0  0
  6  8  1  0  0  0  0
  8  9  1  0  0  0  0
  8 26  1  0  0  0  0
  9 10  1  0  0  0  0
  9 27  1  0  0  0  0
  9 28  1  0  0  0  0
 10 19  1  0  0  0  0
 10 11  1  0  0  0  0
 10 29  1  0  0  0  0
 11 12  1  0  0  0  0
 11 30  1  0  0  0  0
 11 31  1  0  0  0  0
 12 13  1  0  0  0  0
 12 17  1  0  0  0  0
 12 45  1  0  0  0  0
 13 14  1  0  0  0  0
 13 32  1  0  0  0  0
 13 33  1  0  0  0  0
 14 15  1  0  0  0  0
 14 16  1  0  0  0  0
 14 34  1  0  0  0  0
 15 35  1  0  0  0  0
 15 36  1  0  0  0  0
 15 37  1  0  0  0  0
 16 38  1  0  0  0  0
 16 39  1  0  0  0  0
 16 40  1  0  0  0  0
 17 18  1  0  0  0  0
 17 41  1  0  0  0  0
 17 42  1  0  0  0  0
 18 19  1  0  0  0  0
 18 43  1  0  0  0  0
 18 44  1  0  0  0  0
 20 21  1  0  0  0  0
M  CHG  1   5  -1
M  CHG  1  12   1
M  END
> <s_m_source_file>
AV-unprocessed.smi

> <i_m_source_file_index>
1254

> <i_lp_mmshare_version>
43012

> <i_f3d_flags>
0

> <s_epik_input>
W0NIM11jMVtjSF1jKG5vMSlbTkhdQyg9TylbTkhdW0NIMl1bQ0BASF0yW0NIMl1OKFtDSDJdW0NIMl1PMilbQ0gyXVtDSF0oW0NIM10pW0NIM10=

> <s_epik_cmdline>
J2VwaWtfcHl0aG9uJywgJy1waCcsICc3LjAnLCAnLXRuJywgJzgnLCAnLW1hJywgJzIwMCcsICctbWV0YWxfYmluZGluZycsICctaW1hZScsICc8aW5maWxlLm1hZT4nLCAnLW9tYWUnLCAnPG91dGZpbGUubWFlPic=

> <r_epik_Ionization_Penalty>
6.33139

> <r_epik_Ionization_Penalty_Charging>
6.33128

> <r_epik_Ionization_Penalty_Neutral>
0.000104968

> <r_epik_State_Penalty>
6.32522

> <r_epik_Charging_Adjusted_Penalty>
12.6565

> <i_epik_Tot_Q>
0

> <i_epik_Tot_abs_Q>
2

> <r_epik_Metal_State_Penalty>
2.26285

> <b_epik_Metal_Only>
1

> <s_lp_Force_Field>
OPLS_2005

> <r_lp_Energy>
8.92976

> <b_lp_Chiralities_Consistent>
1

> <s_lp_Variant>
AV-unprocessed.smi:1254-9

> <Gold.Version>
5.8.1

> <Gold.Id.Protein>
6NUR|6NUR_protein|mol2

> <Gold.PLP.Fitness>
35.6629

> <Gold.PLP.PLP>
-24.8826

> <Gold.PLP.part.hbond>
-2.9291

> <Gold.PLP.part.metal>
0.0000

> <Gold.PLP.part.buried>
-5.8267

> <Gold.PLP.part.nonpolar>
-17.1406

> <Gold.PLP.part.repulsive>
0.3275

> <Gold.PLP.ligand.clash>
0.0000

> <Gold.PLP.ligand.torsion>
0.6954

> <Gold.PLP.Chemscore.Hbond>
3.9913

> <Gold.PLP.Chemscore.CHOScore>
0.0000

> <Gold.PLP.Chemscore.Metal>
0.0000

> <Gold.Chemscore.Hbonds>
donor molecule, donor type, donor heavy atom, donor atom, acceptor molecule, acceptor atom, score
      L1  H     8    26       P1  7948  0.99
      L1  H    12    45       P1 10957  2.00
      P1  H  7997  8008       L1    21  1.00

> <Gold.PLP.Chemscore.Internal.Correction>
0.1972

> <Gold.Rescore>
     Score         DG    S(hbond)    S(metal)    S(lipo)     H(rot)  DE(clash)    DE(int)     intcor
     14.81     -16.92       2.89        0.00      52.27       1.69       0.09       2.02       ----

> <Gold.Chemscore.Fitness>
14.8125

> <Gold.Chemscore.DG>
-16.9232

> <Gold.Chemscore.ZeroCoef>
-5.4800

> <Gold.Chemscore.Hbond>
2.8925

> <Gold.Chemscore.Metal>
0.0000

> <Gold.Chemscore.Lipo>
52.2678

> <Gold.Chemscore.Internal_Hbond>
0.0000

> <Gold.Chemscore.DEClash>
0.0859

> <Gold.Chemscore.DEInternal>
2.0248

> <Gold.Chemscore.Rot>
1.6926

> <Gold.Chemscore.Internal.Correction>
   9.000000E+99

> <Gold.Chemscore.Hbonds>
donor molecule, donor type, donor heavy atom, donor atom, acceptor molecule, acceptor atom, score
      L1  H     8    26       P1  7948  0.92
      L1  H    12    45       P1 10957  0.28
      P1  H  7997  8008       L1    21  0.96

> <Gold.Chemscore.Hbond.Weighted>
-9.6609

> <Gold.Chemscore.Metal.Weighted>
-0.0000

> <Gold.Chemscore.Lipo.Weighted>
-6.1153

> <Gold.Chemscore.Internal_Hbond.Weighted>
0.0000

> <Gold.Chemscore.DEClash.Weighted>
0.0859

> <Gold.Chemscore.DEInternal.Weighted>
2.0248

> <Gold.Chemscore.Rot.Weighted>
4.3330

> <Gold.Chemscore.Internal.Correction.Weighted>
   9.000000E+99

> <Gold.Protein.RotatedTorsions>
[ 6907 6896 6895 6894 ] final  -81.44 input  -60.11 | X-H torsion
[ 7974 7965 7964 7962 ] final -118.55 input  175.53 | X-H torsion
[ 8008 7997 7996 7995 ] final  -30.32 input   59.86 | X-H torsion
[ 10167 10162 10161 10158 ] final  116.95 input  -65.29 | X-H torsion
[ 10718 10713 10712 10709 ] final  -39.13 input   66.30 | X-H torsion
[ 10763 10752 10751 10750 ] final  -13.92 input  -60.55 | X-H torsion
[ 11005 11000 10999 10996 ] final  106.10 input  -57.11 | X-H torsion

> <Gold.Protein.ActiveResidues>
 VAL166  LYS551  ARG553  GLY616  TRP617  ASP618  TYR619  PRO620  LYS621  CYS622 
 ASP623  PHE694  ASN695  SER759  ASP760  ASP761  ALA762  ILE779  LEU786  VAL792 
 PHE793  MET794  SER795  GLU796  ALA797  LYS798  CYS799  TRP800  GLU811  SER814 

> <Gold.Protein.RotatedAtoms>
  150.6912  134.3817  159.5036 H   0  0  0  0  0  0  0  0  0  0  0  0  # atno 6907 bound_to 6896
  152.1618  134.8903  160.0550 H   0  0  0  0  0  0  0  0  0  0  0  0  # atno 6908 bound_to 6896
  151.9962  133.3774  159.4201 H   0  0  0  0  0  0  0  0  0  0  0  0  # atno 6909 bound_to 6896
  145.0726  140.8369  143.4087 H   0  0  0  0  0  0  0  0  0  0  0  0  # atno 7974 bound_to 7965
  154.4255  140.1794  156.1389 H   0  0  0  0  0  0  0  0  0  0  0  0  # atno 8008 bound_to 7997
  156.0008  140.3360  155.6818 H   0  0  0  0  0  0  0  0  0  0  0  0  # atno 8009 bound_to 7997
  155.6246  140.0663  157.2658 H   0  0  0  0  0  0  0  0  0  0  0  0  # atno 8010 bound_to 7997
  139.6212  144.7101  151.2631 H   0  0  0  0  0  0  0  0  0  0  0  0  # atno 10167 bound_to 10162
  156.2959  130.4234  149.8191 H   0  0  0  0  0  0  0  0  0  0  0  0  # atno 10718 bound_to 10713
  153.5205  135.7016  153.5734 H   0  0  0  0  0  0  0  0  0  0  0  0  # atno 10763 bound_to 10752
  153.3785  135.3926  155.1840 H   0  0  0  0  0  0  0  0  0  0  0  0  # atno 10764 bound_to 10752
  154.8695  135.3829  154.4693 H   0  0  0  0  0  0  0  0  0  0  0  0  # atno 10765 bound_to 10752
  139.8810  134.9358  156.5615 H   0  0  0  0  0  0  0  0  0  0  0  0  # atno 11005 bound_to 11000
  145.1274  139.2654  143.5557 LP  0  0  0  0  0  0  0  0  0  0  0  0  # atno 17320 bound_to 7965
  146.3529  140.0916  142.8612 LP  0  0  0  0  0  0  0  0  0  0  0  0  # atno 17321 bound_to 7965
  140.7383  143.6653  150.8128 LP  0  0  0  0  0  0  0  0  0  0  0  0  # atno 17342 bound_to 10162
  140.0264  143.5489  152.2779 LP  0  0  0  0  0  0  0  0  0  0  0  0  # atno 17343 bound_to 10162
  156.5587  130.8374  151.3322 LP  0  0  0  0  0  0  0  0  0  0  0  0  # atno 17370 bound_to 10713
  157.7355  130.9763  150.2086 LP  0  0  0  0  0  0  0  0  0  0  0  0  # atno 17371 bound_to 10713
  140.8165  133.8387  155.8857 LP  0  0  0  0  0  0  0  0  0  0  0  0  # atno 17394 bound_to 11000
  140.9458  134.1843  157.4765 LP  0  0  0  0  0  0  0  0  0  0  0  0  # atno 17395 bound_to 11000

$$$$
