AV-unprocessed.smi:3307|AV-procd|sdf|12707|dock1
  -GOLD-   2272019 43D 1   1.00000     0.00000
 Structure written by MMmdl.
 31 32  0  0  0  0  0  0  0  0  2 V2000
  153.7311  141.0626  160.9753 C   0  0  0  0  0  0  0  0  0  0  0  0
  153.0468  142.2531  160.3710 C   0  0  0  0  0  0  0  0  0  0  0  0
  152.8388  143.5374  160.9471 C   0  0  0  0  0  0  0  0  0  0  0  0
  152.1725  144.2371  159.9809 C   0  0  0  0  0  0  0  0  0  0  0  0
  151.6718  145.6441  159.9847 C   0  0  0  0  0  0  0  0  0  0  0  0
  152.0141  143.3827  158.9045 N   0  0  0  0  0  0  0  0  0  0  0  0
  151.3808  143.6324  157.6198 C   0  0  0  0  0  0  0  0  0  0  0  0
  151.0878  142.3332  156.8463 C   0  0  1  0  0  0  0  0  0  0  0  0
  150.3671  141.2437  157.6473 C   0  0  0  0  0  0  0  0  0  0  0  0
  149.7109  140.4033  156.5587 C   0  0  0  0  0  0  0  0  0  0  0  0
  149.3080  141.4404  155.5080 C   0  0  0  0  0  0  0  0  0  0  0  0
  150.2388  142.5769  155.6631 N   0  3  0  0  0  0  0  0  0  0  0  0
  152.5500  142.1673  159.1482 N   0  0  0  0  0  0  0  0  0  0  0  0
  154.0647  141.2733  161.9915 H   0  0  0  0  0  0  0  0  0  0  0  0
  154.6062  140.7746  160.3925 H   0  0  0  0  0  0  0  0  0  0  0  0
  153.0605  140.2041  161.0186 H   0  0  0  0  0  0  0  0  0  0  0  0
  153.1341  143.8912  161.9239 H   0  0  0  0  0  0  0  0  0  0  0  0
  151.9014  146.1354  160.9303 H   0  0  0  0  0  0  0  0  0  0  0  0
  150.5907  145.6729  159.8483 H   0  0  0  0  0  0  0  0  0  0  0  0
  152.1327  146.2247  159.1861 H   0  0  0  0  0  0  0  0  0  0  0  0
  150.4565  144.1874  157.7891 H   0  0  0  0  0  0  0  0  0  0  0  0
  152.0274  144.2858  157.0333 H   0  0  0  0  0  0  0  0  0  0  0  0
  152.0253  141.9153  156.4771 H   0  0  0  0  0  0  0  0  0  0  0  0
  151.0417  140.6660  158.2803 H   0  0  0  0  0  0  0  0  0  0  0  0
  149.5998  141.6846  158.2855 H   0  0  0  0  0  0  0  0  0  0  0  0
  150.4415  139.7120  156.1366 H   0  0  0  0  0  0  0  0  0  0  0  0
  148.8660  139.8187  156.9239 H   0  0  0  0  0  0  0  0  0  0  0  0
  149.3384  141.0362  154.4959 H   0  0  0  0  0  0  0  0  0  0  0  0
  148.2955  141.7979  155.6979 H   0  0  0  0  0  0  0  0  0  0  0  0
  149.6972  143.4173  155.8055 H   0  0  0  0  0  0  0  0  0  0  0  0
  150.8162  142.6809  154.8409 H   0  0  0  0  0  0  0  0  0  0  0  0
  1  2  1  0  0  0  0
  1 14  1  0  0  0  0
  1 15  1  0  0  0  0
  1 16  1  0  0  0  0
  2 13  2  0  0  0  0
  2  3  1  0  0  0  0
  3  4  2  0  0  0  0
  3 17  1  0  0  0  0
  4  5  1  0  0  0  0
  4  6  1  0  0  0  0
  5 18  1  0  0  0  0
  5 19  1  0  0  0  0
  5 20  1  0  0  0  0
  6  7  1  0  0  0  0
  6 13  1  0  0  0  0
  7  8  1  0  0  0  0
  7 21  1  0  0  0  0
  7 22  1  0  0  0  0
  8 12  1  0  0  0  0
  8  9  1  0  0  0  0
  8 23  1  0  0  0  0
  9 10  1  0  0  0  0
  9 24  1  0  0  0  0
  9 25  1  0  0  0  0
 10 11  1  0  0  0  0
 10 26  1  0  0  0  0
 10 27  1  0  0  0  0
 11 12  1  0  0  0  0
 11 28  1  0  0  0  0
 11 29  1  0  0  0  0
 12 30  1  0  0  0  0
 12 31  1  0  0  0  0
M  CHG  1  12   1
M  END
> <s_m_source_file>
AV-unprocessed.smi

> <i_m_source_file_index>
3307

> <i_lp_mmshare_version>
43012

> <i_f3d_flags>
0

> <s_epik_input>
W0NIM11jMVtjSF1jKFtDSDNdKW4objEpW0NIMl1bQ0BASF0yW0NIMl1bQ0gyXVtDSDJdW05IXTI=

> <s_epik_cmdline>
J2VwaWtfcHl0aG9uJywgJy1waCcsICc3LjAnLCAnLXRuJywgJzgnLCAnLW1hJywgJzIwMCcsICctbWV0YWxfYmluZGluZycsICctaW1hZScsICc8aW5maWxlLm1hZT4nLCAnLW9tYWUnLCAnPG91dGZpbGUubWFlPic=

> <r_lp_tautomer_probability>
1

> <r_epik_Ionization_Penalty>
0.000974324

> <r_epik_Ionization_Penalty_Charging>
0.000863359

> <r_epik_Ionization_Penalty_Neutral>
0.000110964

> <r_epik_State_Penalty>
-0

> <r_epik_Charging_Adjusted_Penalty>
0.000863359

> <i_epik_Tot_Q>
1

> <i_epik_Tot_abs_Q>
1

> <r_epik_Metal_State_Penalty>
-0

> <b_epik_Metal_Only>
0

> <s_lp_Force_Field>
OPLS_2005

> <r_lp_Energy>
22.7328

> <b_lp_Chiralities_Consistent>
1

> <s_lp_Variant>
AV-unprocessed.smi:3307-2

> <Gold.Version>
5.8.1

> <Gold.Id.Protein>
6NUR|6NUR_protein|mol2

> <Gold.PLP.Fitness>
39.0661

> <Gold.PLP.PLP>
-33.5505

> <Gold.PLP.part.hbond>
-0.9419

> <Gold.PLP.part.metal>
0.0000

> <Gold.PLP.part.buried>
-4.4318

> <Gold.PLP.part.nonpolar>
-28.6485

> <Gold.PLP.part.repulsive>
0.1694

> <Gold.PLP.ligand.clash>
0.0000

> <Gold.PLP.ligand.torsion>
0.2424

> <Gold.PLP.Chemscore.Hbond>
2.0000

> <Gold.PLP.Chemscore.CHOScore>
0.0000

> <Gold.PLP.Chemscore.Metal>
0.0000

> <Gold.Chemscore.Hbonds>
donor molecule, donor type, donor heavy atom, donor atom, acceptor molecule, acceptor atom, score
      L1  H    12    30       P1  8028  2.00

> <Gold.PLP.Chemscore.Internal.Correction>
0.0003

> <Gold.Rescore>
     Score         DG    S(hbond)    S(metal)    S(lipo)     H(rot)  DE(clash)    DE(int)     intcor
     14.95     -16.60       1.00        0.00      91.97       1.16       0.14       1.51       ----

> <Gold.Chemscore.Fitness>
14.9501

> <Gold.Chemscore.DG>
-16.5958

> <Gold.Chemscore.ZeroCoef>
-5.4800

> <Gold.Chemscore.Hbond>
0.9976

> <Gold.Chemscore.Metal>
0.0000

> <Gold.Chemscore.Lipo>
91.9728

> <Gold.Chemscore.Internal_Hbond>
0.0000

> <Gold.Chemscore.DEClash>
0.1385

> <Gold.Chemscore.DEInternal>
1.5072

> <Gold.Chemscore.Rot>
1.1628

> <Gold.Chemscore.Internal.Correction>
   9.000000E+99

> <Gold.Chemscore.Hbonds>
donor molecule, donor type, donor heavy atom, donor atom, acceptor molecule, acceptor atom, score
      L1  H    12    30       P1  8028  0.94

> <Gold.Chemscore.Hbond.Weighted>
-3.3318

> <Gold.Chemscore.Metal.Weighted>
-0.0000

> <Gold.Chemscore.Lipo.Weighted>
-10.7608

> <Gold.Chemscore.Internal_Hbond.Weighted>
0.0000

> <Gold.Chemscore.DEClash.Weighted>
0.1385

> <Gold.Chemscore.DEInternal.Weighted>
1.5072

> <Gold.Chemscore.Rot.Weighted>
2.9768

> <Gold.Chemscore.Internal.Correction.Weighted>
   9.000000E+99

> <Gold.Protein.RotatedTorsions>
[ 6907 6896 6895 6894 ] final   62.13 input  -60.11 | X-H torsion
[ 7974 7965 7964 7962 ] final  -55.20 input  175.53 | X-H torsion
[ 8008 7997 7996 7995 ] final -159.07 input   59.86 | X-H torsion
[ 10167 10162 10161 10158 ] final   10.32 input  -65.29 | X-H torsion
[ 10718 10713 10712 10709 ] final -112.53 input   66.30 | X-H torsion
[ 10763 10752 10751 10750 ] final   15.90 input  -60.55 | X-H torsion
[ 11005 11000 10999 10996 ] final  -76.91 input  -57.11 | X-H torsion

> <Gold.Protein.ActiveResidues>
 VAL166  LYS551  ARG553  GLY616  TRP617  ASP618  TYR619  PRO620  LYS621  CYS622 
 ASP623  PHE694  ASN695  SER759  ASP760  ASP761  ALA762  ILE779  LEU786  VAL792 
 PHE793  MET794  SER795  GLU796  ALA797  LYS798  CYS799  TRP800  GLU811  SER814 

> <Gold.Protein.RotatedAtoms>
  152.4146  134.6064  160.0013 H   0  0  0  0  0  0  0  0  0  0  0  0  # atno 6907 bound_to 6896
  151.6231  133.3332  159.3100 H   0  0  0  0  0  0  0  0  0  0  0  0  # atno 6908 bound_to 6896
  150.8035  134.7185  159.6689 H   0  0  0  0  0  0  0  0  0  0  0  0  # atno 6909 bound_to 6896
  145.8769  140.8174  142.9860 H   0  0  0  0  0  0  0  0  0  0  0  0  # atno 7974 bound_to 7965
  155.7571  140.0834  157.2173 H   0  0  0  0  0  0  0  0  0  0  0  0  # atno 8008 bound_to 7997
  154.4007  140.1550  156.2846 H   0  0  0  0  0  0  0  0  0  0  0  0  # atno 8009 bound_to 7997
  155.8875  140.3417  155.5935 H   0  0  0  0  0  0  0  0  0  0  0  0  # atno 8010 bound_to 7997
  140.6201  143.8222  150.7165 H   0  0  0  0  0  0  0  0  0  0  0  0  # atno 10167 bound_to 10162
  156.0711  130.5925  150.8521 H   0  0  0  0  0  0  0  0  0  0  0  0  # atno 10718 bound_to 10713
  153.1482  135.6773  153.8923 H   0  0  0  0  0  0  0  0  0  0  0  0  # atno 10763 bound_to 10752
  153.8358  135.3112  155.3423 H   0  0  0  0  0  0  0  0  0  0  0  0  # atno 10764 bound_to 10752
  154.7841  135.4872  153.9994 H   0  0  0  0  0  0  0  0  0  0  0  0  # atno 10765 bound_to 10752
  141.1657  133.7002  156.7741 H   0  0  0  0  0  0  0  0  0  0  0  0  # atno 11005 bound_to 11000
  144.6726  140.1324  143.7443 LP  0  0  0  0  0  0  0  0  0  0  0  0  # atno 17320 bound_to 7965
  145.9070  139.2464  143.1460 LP  0  0  0  0  0  0  0  0  0  0  0  0  # atno 17321 bound_to 7965
  140.1810  143.4114  152.1932 LP  0  0  0  0  0  0  0  0  0  0  0  0  # atno 17342 bound_to 10162
  139.5432  144.7275  151.4668 LP  0  0  0  0  0  0  0  0  0  0  0  0  # atno 17343 bound_to 10162
  157.5783  131.0946  150.9311 LP  0  0  0  0  0  0  0  0  0  0  0  0  # atno 17370 bound_to 10713
  156.9513  130.5420  149.5282 LP  0  0  0  0  0  0  0  0  0  0  0  0  # atno 17371 bound_to 10713
  140.2443  134.8590  157.3604 LP  0  0  0  0  0  0  0  0  0  0  0  0  # atno 17394 bound_to 11000
  140.1765  134.4543  155.7798 LP  0  0  0  0  0  0  0  0  0  0  0  0  # atno 17395 bound_to 11000

$$$$
