AV-unprocessed.smi:2773|AV-procd|sdf|10679|dock1
  -GOLD-   2272015123D 1   1.00000     0.00000
 Structure written by MMmdl.
 30 31  0  0  0  0  0  0  0  0  1 V2000
  152.5461  143.9460  161.1705 C   0  0  0  0  0  0  0  0  0  0  0  0
  151.4098  143.9893  160.1718 C   0  0  1  0  0  0  0  0  0  0  0  0
  150.7401  145.2989  159.8524 C   0  0  0  0  0  0  0  0  0  0  0  0
  151.5969  144.6197  158.8067 C   0  0  2  0  0  0  0  0  0  0  0  0
  150.9058  144.0436  157.6922 N   0  0  0  0  0  0  0  0  0  0  0  0
  150.9619  142.7749  157.2475 C   0  0  0  0  0  0  0  0  0  0  0  0
  151.6926  141.9467  157.7884 O   0  0  0  0  0  0  0  0  0  0  0  0
  150.1926  142.5289  156.1679 N   0  0  0  0  0  0  0  0  0  0  0  0
  150.0026  141.3001  155.4822 C   0  0  0  0  0  0  0  0  0  0  0  0
  148.8244  141.2230  154.7072 C   0  0  0  0  0  0  0  0  0  0  0  0
  148.5433  140.0440  153.9911 C   0  0  0  0  0  0  0  0  0  0  0  0
  149.4469  138.9696  154.0692 C   0  0  0  0  0  0  0  0  0  0  0  0
  150.6011  139.1231  154.8666 C   0  0  0  0  0  0  0  0  0  0  0  0
  151.6266  138.0073  155.0103 C   0  0  0  0  0  0  0  0  0  0  0  0
  151.2530  136.9066  154.3565 F   0  0  0  0  0  0  0  0  0  0  0  0
  152.8004  138.4087  154.5225 F   0  0  0  0  0  0  0  0  0  0  0  0
  151.7783  137.7005  156.2987 F   0  0  0  0  0  0  0  0  0  0  0  0
  150.8669  140.2582  155.5518 N   0  0  0  0  0  0  0  0  0  0  0  0
  153.1704  144.8363  161.0876 H   0  0  0  0  0  0  0  0  0  0  0  0
  153.1676  143.0686  160.9917 H   0  0  0  0  0  0  0  0  0  0  0  0
  152.1507  143.8918  162.1849 H   0  0  0  0  0  0  0  0  0  0  0  0
  150.7577  143.1187  160.2158 H   0  0  0  0  0  0  0  0  0  0  0  0
  149.6603  145.2870  159.7154 H   0  0  0  0  0  0  0  0  0  0  0  0
  151.1383  146.1998  160.3151 H   0  0  0  0  0  0  0  0  0  0  0  0
  152.5533  145.1046  158.6162 H   0  0  0  0  0  0  0  0  0  0  0  0
  150.3561  144.6863  157.1403 H   0  0  0  0  0  0  0  0  0  0  0  0
  149.6710  143.3133  155.8057 H   0  0  0  0  0  0  0  0  0  0  0  0
  148.1399  142.0575  154.6583 H   0  0  0  0  0  0  0  0  0  0  0  0
  147.6479  139.9657  153.3924 H   0  0  0  0  0  0  0  0  0  0  0  0
  149.2509  138.0551  153.5294 H   0  0  0  0  0  0  0  0  0  0  0  0
  1  2  1  0  0  0  0
  1 19  1  0  0  0  0
  1 20  1  0  0  0  0
  1 21  1  0  0  0  0
  2  4  1  0  0  0  0
  2  3  1  0  0  0  0
  2 22  1  0  0  0  0
  3  4  1  0  0  0  0
  3 23  1  0  0  0  0
  3 24  1  0  0  0  0
  4  5  1  0  0  0  0
  4 25  1  0  0  0  0
  5  6  1  0  0  0  0
  5 26  1  0  0  0  0
  6  7  2  0  0  0  0
  6  8  1  0  0  0  0
  8  9  1  0  0  0  0
  8 27  1  0  0  0  0
  9 18  1  0  0  0  0
  9 10  2  0  0  0  0
 10 11  1  0  0  0  0
 10 28  1  0  0  0  0
 11 12  2  0  0  0  0
 11 29  1  0  0  0  0
 12 13  1  0  0  0  0
 12 30  1  0  0  0  0
 13 14  1  0  0  0  0
 13 18  2  0  0  0  0
 14 15  1  0  0  0  0
 14 16  1  0  0  0  0
 14 17  1  0  0  0  0
M  END
> <s_m_source_file>
AV-unprocessed.smi

> <i_m_source_file_index>
2773

> <i_lp_mmshare_version>
43012

> <i_f3d_flags>
0

> <s_epik_input>
W0NIM11bQ0BASF0xW0NIMl1bQ0BIXTFbTkhdQyg9TylbTkhdYzJbY0hdW2NIXVtjSF1jKG4yKUMoRikoRilG

> <s_epik_cmdline>
J2VwaWtfcHl0aG9uJywgJy1waCcsICc3LjAnLCAnLXRuJywgJzgnLCAnLW1hJywgJzIwMCcsICctbWV0YWxfYmluZGluZycsICctaW1hZScsICc8aW5maWxlLm1hZT4nLCAnLW9tYWUnLCAnPG91dGZpbGUubWFlPic=

> <r_lp_tautomer_probability>
1

> <r_epik_Ionization_Penalty>
4.04275e-05

> <r_epik_Ionization_Penalty_Charging>
0

> <r_epik_Ionization_Penalty_Neutral>
4.04275e-05

> <r_epik_State_Penalty>
-0

> <r_epik_Charging_Adjusted_Penalty>
0

> <i_epik_Tot_Q>
0

> <i_epik_Tot_abs_Q>
0

> <r_epik_Metal_State_Penalty>
-0

> <b_epik_Metal_Only>
0

> <s_lp_Force_Field>
OPLS_2005

> <r_lp_Energy>
31.9266

> <b_lp_Chiralities_Consistent>
1

> <s_lp_Variant>
AV-unprocessed.smi:2773-4

> <Gold.Version>
5.8.1

> <Gold.Id.Protein>
6NUR|6NUR_protein|mol2

> <Gold.PLP.Fitness>
43.6201

> <Gold.PLP.PLP>
-38.2779

> <Gold.PLP.part.hbond>
-2.3443

> <Gold.PLP.part.metal>
0.0000

> <Gold.PLP.part.buried>
-1.3543

> <Gold.PLP.part.nonpolar>
-34.8974

> <Gold.PLP.part.repulsive>
0.1843

> <Gold.PLP.ligand.clash>
0.0000

> <Gold.PLP.ligand.torsion>
0.1406

> <Gold.PLP.Chemscore.Hbond>
1.8621

> <Gold.PLP.Chemscore.CHOScore>
0.0000

> <Gold.PLP.Chemscore.Metal>
0.0000

> <Gold.Chemscore.Hbonds>
donor molecule, donor type, donor heavy atom, donor atom, acceptor molecule, acceptor atom, score
      L1  H     5    26       P1  8028  0.83
      L1  H     8    27       P1  8028  1.00
      P1  H  7989  7998       L1    18  0.01

> <Gold.PLP.Chemscore.Internal.Correction>
0.0372

> <Gold.Rescore>
     Score         DG    S(hbond)    S(metal)    S(lipo)     H(rot)  DE(clash)    DE(int)     intcor
     16.24     -18.00       1.66        0.00      81.61       1.00       0.36       1.40       ----

> <Gold.Chemscore.Fitness>
16.2383

> <Gold.Chemscore.DG>
-18.0037

> <Gold.Chemscore.ZeroCoef>
-5.4800

> <Gold.Chemscore.Hbond>
1.6571

> <Gold.Chemscore.Metal>
0.0000

> <Gold.Chemscore.Lipo>
81.6135

> <Gold.Chemscore.Internal_Hbond>
0.0000

> <Gold.Chemscore.DEClash>
0.3624

> <Gold.Chemscore.DEInternal>
1.4030

> <Gold.Chemscore.Rot>
1.0000

> <Gold.Chemscore.Internal.Correction>
   9.000000E+99

> <Gold.Chemscore.Hbonds>
donor molecule, donor type, donor heavy atom, donor atom, acceptor molecule, acceptor atom, score
      L1  H     5    26       P1  8028  0.39
      L1  H     8    27       P1  8028  0.99

> <Gold.Chemscore.Hbond.Weighted>
-5.5349

> <Gold.Chemscore.Metal.Weighted>
-0.0000

> <Gold.Chemscore.Lipo.Weighted>
-9.5488

> <Gold.Chemscore.Internal_Hbond.Weighted>
0.0000

> <Gold.Chemscore.DEClash.Weighted>
0.3624

> <Gold.Chemscore.DEInternal.Weighted>
1.4030

> <Gold.Chemscore.Rot.Weighted>
2.5600

> <Gold.Chemscore.Internal.Correction.Weighted>
   9.000000E+99

> <Gold.Protein.RotatedTorsions>
[ 6907 6896 6895 6894 ] final    0.61 input  -60.11 | X-H torsion
[ 7974 7965 7964 7962 ] final    4.44 input  175.53 | X-H torsion
[ 8008 7997 7996 7995 ] final  -28.78 input   59.86 | X-H torsion
[ 10167 10162 10161 10158 ] final   45.91 input  -65.29 | X-H torsion
[ 10718 10713 10712 10709 ] final   32.24 input   66.30 | X-H torsion
[ 10763 10752 10751 10750 ] final   56.75 input  -60.55 | X-H torsion
[ 11005 11000 10999 10996 ] final   73.74 input  -57.11 | X-H torsion

> <Gold.Protein.ActiveResidues>
 VAL166  LYS551  ARG553  GLY616  TRP617  ASP618  TYR619  PRO620  LYS621  CYS622 
 ASP623  PHE694  ASN695  SER759  ASP760  ASP761  ALA762  ILE779  LEU786  VAL792 
 PHE793  MET794  SER795  GLU796  ALA797  LYS798  CYS799  TRP800  GLU811  SER814 

> <Gold.Protein.RotatedAtoms>
  151.5792  135.1059  160.0013 H   0  0  0  0  0  0  0  0  0  0  0  0  # atno 6907 bound_to 6896
  152.4362  133.7361  159.6625 H   0  0  0  0  0  0  0  0  0  0  0  0  # atno 6908 bound_to 6896
  150.8261  133.8100  159.3141 H   0  0  0  0  0  0  0  0  0  0  0  0  # atno 6909 bound_to 6896
  146.2444  140.0533  142.8373 H   0  0  0  0  0  0  0  0  0  0  0  0  # atno 7974 bound_to 7965
  154.4317  140.1836  156.1143 H   0  0  0  0  0  0  0  0  0  0  0  0  # atno 8008 bound_to 7997
  156.0193  140.3342  155.6996 H   0  0  0  0  0  0  0  0  0  0  0  0  # atno 8009 bound_to 7997
  155.5999  140.0639  157.2726 H   0  0  0  0  0  0  0  0  0  0  0  0  # atno 8010 bound_to 7997
  140.3193  144.2725  150.6185 H   0  0  0  0  0  0  0  0  0  0  0  0  # atno 10167 bound_to 10162
  157.2827  130.7263  149.6566 H   0  0  0  0  0  0  0  0  0  0  0  0  # atno 10718 bound_to 10713
  152.9837  135.5665  154.5279 H   0  0  0  0  0  0  0  0  0  0  0  0  # atno 10763 bound_to 10752
  154.4756  135.2786  155.1612 H   0  0  0  0  0  0  0  0  0  0  0  0  # atno 10764 bound_to 10752
  154.3142  135.6282  153.5532 H   0  0  0  0  0  0  0  0  0  0  0  0  # atno 10765 bound_to 10752
  139.9425  134.7373  156.1063 H   0  0  0  0  0  0  0  0  0  0  0  0  # atno 11005 bound_to 11000
  145.0964  140.9318  143.4738 LP  0  0  0  0  0  0  0  0  0  0  0  0  # atno 17320 bound_to 7965
  145.0717  139.3026  143.5828 LP  0  0  0  0  0  0  0  0  0  0  0  0  # atno 17321 bound_to 7965
  140.5498  143.2208  151.7946 LP  0  0  0  0  0  0  0  0  0  0  0  0  # atno 17342 bound_to 10162
  139.4877  144.4492  151.9674 LP  0  0  0  0  0  0  0  0  0  0  0  0  # atno 17343 bound_to 10162
  155.9665  130.4333  150.5000 LP  0  0  0  0  0  0  0  0  0  0  0  0  # atno 17370 bound_to 10713
  157.2947  131.0633  151.2110 LP  0  0  0  0  0  0  0  0  0  0  0  0  # atno 17371 bound_to 10713
  141.1064  133.6658  156.2875 LP  0  0  0  0  0  0  0  0  0  0  0  0  # atno 17394 bound_to 11000
  140.5916  134.5645  157.5500 LP  0  0  0  0  0  0  0  0  0  0  0  0  # atno 17395 bound_to 11000

$$$$
