AV-unprocessed.smi:283|AV-procd|sdf|2131|dock3
  -GOLD-   2262021443D 1   1.00000     0.00000
 Structure written by MMmdl.
 48 51  0  0  0  0  0  0  0  0  1 V2000
  151.6352  138.1501  154.4946 C   0  0  0  0  0  0  0  0  0  0  0  0
  151.0384  138.1756  155.9079 C   0  0  2  0  0  0  0  0  0  0  0  0
  149.6734  137.6524  155.8840 N   0  0  0  0  0  0  0  0  0  0  0  0
  149.4207  136.3793  155.5033 C   0  0  0  0  0  0  0  0  0  0  0  0
  150.3524  135.4017  155.6541 N   0  0  0  0  0  0  0  0  0  0  0  0
  150.0790  134.1519  155.2702 C   0  0  0  0  0  0  0  0  0  0  0  0
  148.9617  133.6758  154.7173 N   0  0  0  0  0  0  0  0  0  0  0  0
  148.0241  134.6537  154.5548 C   0  0  0  0  0  0  0  0  0  0  0  0
  148.1767  136.0203  154.9227 C   0  0  0  0  0  0  0  0  0  0  0  0
  147.0185  136.7223  154.6166 N   0  0  0  0  0  0  0  0  0  0  0  0
  146.2313  135.8201  154.0952 C   0  0  0  0  0  0  0  0  0  0  0  0
  146.7552  134.5487  154.0191 N   0  0  0  0  0  0  0  0  0  0  0  0
  146.0877  133.3249  153.4708 C   0  0  1  0  0  0  0  0  0  0  0  0
  144.8649  133.6729  152.8930 O   0  0  0  0  0  0  0  0  0  0  0  0
  144.6411  132.9381  151.6869 C   0  0  1  0  0  0  0  0  0  0  0  0
  144.5420  133.9499  150.5268 C   0  0  0  0  0  0  0  0  0  0  0  0
  144.3887  133.2817  149.2920 O   0  0  0  0  0  0  0  0  0  0  0  0
  145.8063  131.9333  151.6135 C   0  0  1  0  0  0  0  0  0  0  0  0
  146.1997  131.5342  150.3138 O   0  0  0  0  0  0  0  0  0  0  0  0
  146.9181  132.6087  152.3988 C   0  0  1  0  0  0  0  0  0  0  0  0
  147.7018  133.4882  151.6086 O   0  0  0  0  0  0  0  0  0  0  0  0
  151.1608  139.5745  156.5153 C   0  0  0  0  0  0  0  0  0  0  0  0
  151.9501  139.7635  157.6730 C   0  0  0  0  0  0  0  0  0  0  0  0
  152.0800  141.0392  158.2532 C   0  0  0  0  0  0  0  0  0  0  0  0
  151.4182  142.1408  157.6820 C   0  0  0  0  0  0  0  0  0  0  0  0
  150.6237  141.9629  156.5345 C   0  0  0  0  0  0  0  0  0  0  0  0
  150.4881  140.6875  155.9505 C   0  0  0  0  0  0  0  0  0  0  0  0
  149.4892  140.5289  154.5479 Cl  0  0  0  0  0  0  0  0  0  0  0  0
  145.8980  132.6943  154.3404 H   0  0  0  0  0  0  0  0  0  0  0  0
  143.6921  132.4089  151.7827 H   0  0  0  0  0  0  0  0  0  0  0  0
  145.5067  131.0348  152.1552 H   0  0  0  0  0  0  0  0  0  0  0  0
  147.5835  131.8859  152.8721 H   0  0  0  0  0  0  0  0  0  0  0  0
  152.6798  138.4624  154.5064 H   0  0  0  0  0  0  0  0  0  0  0  0
  151.0956  138.8178  153.8221 H   0  0  0  0  0  0  0  0  0  0  0  0
  151.5974  137.1466  154.0698 H   0  0  0  0  0  0  0  0  0  0  0  0
  151.6153  137.4734  156.5081 H   0  0  0  0  0  0  0  0  0  0  0  0
  148.9631  138.2626  156.2619 H   0  0  0  0  0  0  0  0  0  0  0  0
  150.8674  133.4308  155.4276 H   0  0  0  0  0  0  0  0  0  0  0  0
  145.2363  136.0597  153.7489 H   0  0  0  0  0  0  0  0  0  0  0  0
  143.6660  134.5845  150.6636 H   0  0  0  0  0  0  0  0  0  0  0  0
  145.4082  134.6100  150.4883 H   0  0  0  0  0  0  0  0  0  0  0  0
  144.7649  133.8191  148.6115 H   0  0  0  0  0  0  0  0  0  0  0  0
  147.1178  131.3100  150.3391 H   0  0  0  0  0  0  0  0  0  0  0  0
  147.8748  134.2687  152.1128 H   0  0  0  0  0  0  0  0  0  0  0  0
  152.4616  138.9259  158.1242 H   0  0  0  0  0  0  0  0  0  0  0  0
  152.6867  141.1716  159.1368 H   0  0  0  0  0  0  0  0  0  0  0  0
  151.5173  143.1209  158.1249 H   0  0  0  0  0  0  0  0  0  0  0  0
  150.1140  142.8106  156.1009 H   0  0  0  0  0  0  0  0  0  0  0  0
  1  2  1  0  0  0  0
  1 33  1  0  0  0  0
  1 34  1  0  0  0  0
  1 35  1  0  0  0  0
  2  3  1  0  0  0  0
  2 22  1  0  0  0  0
  2 36  1  0  0  0  0
  3  4  1  0  0  0  0
  3 37  1  0  0  0  0
  4  9  1  0  0  0  0
  4  5  2  0  0  0  0
  5  6  1  0  0  0  0
  6  7  2  0  0  0  0
  6 38  1  0  0  0  0
  7  8  1  0  0  0  0
  8 12  1  0  0  0  0
  8  9  2  0  0  0  0
  9 10  1  0  0  0  0
 10 11  2  0  0  0  0
 11 12  1  0  0  0  0
 11 39  1  0  0  0  0
 12 13  1  0  0  0  0
 13 29  1  0  0  0  0
 13 20  1  0  0  0  0
 13 14  1  0  0  0  0
 14 15  1  0  0  0  0
 15 30  1  0  0  0  0
 15 16  1  0  0  0  0
 15 18  1  0  0  0  0
 16 17  1  0  0  0  0
 16 40  1  0  0  0  0
 16 41  1  0  0  0  0
 17 42  1  0  0  0  0
 18 31  1  0  0  0  0
 18 19  1  0  0  0  0
 18 20  1  0  0  0  0
 19 43  1  0  0  0  0
 20 32  1  0  0  0  0
 20 21  1  0  0  0  0
 21 44  1  0  0  0  0
 22 27  1  0  0  0  0
 22 23  2  0  0  0  0
 23 24  1  0  0  0  0
 23 45  1  0  0  0  0
 24 25  2  0  0  0  0
 24 46  1  0  0  0  0
 25 26  1  0  0  0  0
 25 47  1  0  0  0  0
 26 27  2  0  0  0  0
 26 48  1  0  0  0  0
 27 28  1  0  0  0  0
M  END
> <s_m_source_file>
AV-unprocessed.smi

> <i_m_source_file_index>
283

> <i_lp_mmshare_version>
43012

> <i_f3d_flags>
0

> <s_epik_input>
Q2xjMVtjSF1bY0hdW2NIXVtjSF1jMVtDQEhdKFtDSDNdKVtOSF1jKG5bY0hdbjIpYyhjMjMpbltjSF1uM1tDQEBIXTRPW0NASF0oW0NIMl1bT0hdKVtDQEBIXShbT0hdKVtDQEhdNFtPSF0=

> <s_epik_cmdline>
J2VwaWtfcHl0aG9uJywgJy1waCcsICc3LjAnLCAnLXRuJywgJzgnLCAnLW1hJywgJzIwMCcsICctbWV0YWxfYmluZGluZycsICctaW1hZScsICc8aW5maWxlLm1hZT4nLCAnLW9tYWUnLCAnPG91dGZpbGUubWFlPic=

> <r_lp_tautomer_probability>
1

> <r_epik_Ionization_Penalty>
0.000266407

> <r_epik_Ionization_Penalty_Charging>
0

> <r_epik_Ionization_Penalty_Neutral>
0.000266407

> <r_epik_State_Penalty>
-0

> <r_epik_Charging_Adjusted_Penalty>
0

> <i_epik_Tot_Q>
0

> <i_epik_Tot_abs_Q>
0

> <r_epik_Metal_State_Penalty>
-0

> <b_epik_Metal_Only>
0

> <s_epik_Chemistry_Notes>
This compound contains an acetal/aminal-like group ( X-CH(R)-Y where X, Y are N, S, or O) that may be acid/base labile, releasing an aldehyde.

> <s_lp_Force_Field>
OPLS_2005

> <r_lp_Energy>
56.5757

> <b_lp_Chiralities_Consistent>
1

> <s_lp_Variant>
AV-unprocessed.smi:283-7

> <Gold.Version>
5.8.1

> <Gold.Id.Protein>
6NUR|6NUR_protein|mol2

> <Gold.PLP.Fitness>
43.1546

> <Gold.PLP.PLP>
-36.5348

> <Gold.PLP.part.hbond>
-3.5044

> <Gold.PLP.part.metal>
0.0000

> <Gold.PLP.part.buried>
-2.0975

> <Gold.PLP.part.nonpolar>
-30.0096

> <Gold.PLP.part.repulsive>
0.3539

> <Gold.PLP.ligand.clash>
0.0000

> <Gold.PLP.ligand.torsion>
0.2847

> <Gold.PLP.Chemscore.Hbond>
2.3819

> <Gold.PLP.Chemscore.CHOScore>
0.0000

> <Gold.PLP.Chemscore.Metal>
0.0000

> <Gold.Chemscore.Hbonds>
donor molecule, donor type, donor heavy atom, donor atom, acceptor molecule, acceptor atom, score
      L1  H    17    42       P1  7921  1.00
      L1  H    19    43       P1 10747  1.00
      L1  H    21    44       P1  7948  0.39

> <Gold.PLP.Chemscore.Internal.Correction>
0.0436

> <Gold.Rescore>
     Score         DG    S(hbond)    S(metal)    S(lipo)     H(rot)  DE(clash)    DE(int)     intcor
     11.01     -12.22       2.15        0.00      85.74       4.10       0.91       0.29       ----

> <Gold.Chemscore.Fitness>
11.0137

> <Gold.Chemscore.DG>
-12.2166

> <Gold.Chemscore.ZeroCoef>
-5.4800

> <Gold.Chemscore.Hbond>
2.1537

> <Gold.Chemscore.Metal>
0.0000

> <Gold.Chemscore.Lipo>
85.7362

> <Gold.Chemscore.Internal_Hbond>
0.0000

> <Gold.Chemscore.DEClash>
0.9113

> <Gold.Chemscore.DEInternal>
0.2917

> <Gold.Chemscore.Rot>
4.0968

> <Gold.Chemscore.Internal.Correction>
   9.000000E+99

> <Gold.Chemscore.Hbonds>
donor molecule, donor type, donor heavy atom, donor atom, acceptor molecule, acceptor atom, score
      L1  H    17    42       P1  7921  0.97
      L1  H    19    43       P1 10747  1.00
      L1  H    21    44       P1  7948  0.08

> <Gold.Chemscore.Hbond.Weighted>
-7.1934

> <Gold.Chemscore.Metal.Weighted>
-0.0000

> <Gold.Chemscore.Lipo.Weighted>
-10.0311

> <Gold.Chemscore.Internal_Hbond.Weighted>
0.0000

> <Gold.Chemscore.DEClash.Weighted>
0.9113

> <Gold.Chemscore.DEInternal.Weighted>
0.2917

> <Gold.Chemscore.Rot.Weighted>
10.4879

> <Gold.Chemscore.Internal.Correction.Weighted>
   9.000000E+99

> <Gold.Protein.RotatedTorsions>
[ 6907 6896 6895 6894 ] final  -26.10 input  -60.11 | X-H torsion
[ 7974 7965 7964 7962 ] final -179.57 input  175.53 | X-H torsion
[ 8008 7997 7996 7995 ] final  -18.28 input   59.86 | X-H torsion
[ 10167 10162 10161 10158 ] final  -35.64 input  -65.29 | X-H torsion
[ 10718 10713 10712 10709 ] final -131.31 input   66.30 | X-H torsion
[ 10763 10752 10751 10750 ] final -102.36 input  -60.55 | X-H torsion
[ 11005 11000 10999 10996 ] final   20.37 input  -57.11 | X-H torsion

> <Gold.Protein.ActiveResidues>
 VAL166  LYS551  ARG553  GLY616  TRP617  ASP618  TYR619  PRO620  LYS621  CYS622 
 ASP623  PHE694  ASN695  SER759  ASP760  ASP761  ALA762  ILE779  LEU786  VAL792 
 PHE793  MET794  SER795  GLU796  ALA797  LYS798  CYS799  TRP800  GLU811  SER814 

> <Gold.Protein.RotatedAtoms>
  151.1657  135.0294  159.8729 H   0  0  0  0  0  0  0  0  0  0  0  0  # atno 6907 bound_to 6896
  152.5450  134.1228  159.8416 H   0  0  0  0  0  0  0  0  0  0  0  0  # atno 6908 bound_to 6896
  151.1328  133.4978  159.2631 H   0  0  0  0  0  0  0  0  0  0  0  0  # atno 6909 bound_to 6896
  144.7137  140.0698  143.6430 H   0  0  0  0  0  0  0  0  0  0  0  0  # atno 7974 bound_to 7965
  154.4917  140.2120  155.9534 H   0  0  0  0  0  0  0  0  0  0  0  0  # atno 8008 bound_to 7997
  156.1314  140.3196  155.8324 H   0  0  0  0  0  0  0  0  0  0  0  0  # atno 8009 bound_to 7997
  155.4289  140.0502  157.3011 H   0  0  0  0  0  0  0  0  0  0  0  0  # atno 8010 bound_to 7997
  140.7161  143.3464  151.2248 H   0  0  0  0  0  0  0  0  0  0  0  0  # atno 10167 bound_to 10162
  156.2231  130.6991  151.0778 H   0  0  0  0  0  0  0  0  0  0  0  0  # atno 10718 bound_to 10713
  154.7728  135.4863  153.9683 H   0  0  0  0  0  0  0  0  0  0  0  0  # atno 10763 bound_to 10752
  153.1389  135.6768  153.9065 H   0  0  0  0  0  0  0  0  0  0  0  0  # atno 10764 bound_to 10752
  153.8746  135.3139  155.3422 H   0  0  0  0  0  0  0  0  0  0  0  0  # atno 10765 bound_to 10752
  140.4034  134.1694  155.7664 H   0  0  0  0  0  0  0  0  0  0  0  0  # atno 11005 bound_to 11000
  145.9793  139.2929  143.1051 LP  0  0  0  0  0  0  0  0  0  0  0  0  # atno 17320 bound_to 7965
  145.9029  140.9231  143.0494 LP  0  0  0  0  0  0  0  0  0  0  0  0  # atno 17321 bound_to 7965
  139.6984  143.9574  152.2893 LP  0  0  0  0  0  0  0  0  0  0  0  0  # atno 17342 bound_to 10162
  139.9259  144.6771  150.8413 LP  0  0  0  0  0  0  0  0  0  0  0  0  # atno 17343 bound_to 10162
  157.7097  131.0740  150.6543 LP  0  0  0  0  0  0  0  0  0  0  0  0  # atno 17370 bound_to 10713
  156.6607  130.4511  149.5688 LP  0  0  0  0  0  0  0  0  0  0  0  0  # atno 17371 bound_to 10713
  141.1848  133.8336  157.1126 LP  0  0  0  0  0  0  0  0  0  0  0  0  # atno 17394 bound_to 11000
  140.0320  134.9897  157.0798 LP  0  0  0  0  0  0  0  0  0  0  0  0  # atno 17395 bound_to 11000

$$$$
