#       Name:                AV-unprocessed.smi:110
#       Creating user name   scv26
#       Creation time:       Thu Mar 26 18:14:44 2020


#       File generated by GOLD software.
#

@<TRIPOS>MOLECULE
AV-unprocessed.smi:110
    57    61     1
SMALL
NO_CHARGES


@<TRIPOS>ATOM
      1 ****        -0.7418   3.7278   5.0849 O.3            1 S1                 0.0000
      2 ****        -0.7452   2.3267   4.9114 C.3            1 S1                 0.0000
      3 ****         0.6016   1.8634   4.3284 C.3            1 S1                 0.0000
      4 ****         0.6236   2.0155   2.9142 O.3            1 S1                 0.0000
      5 ****         1.6423   1.2260   2.3872 C.3            1 S1                 0.0000
      6 ****         1.2016   0.7044   1.0546 N.pl3          1 S1                 0.0000
      7 ****         1.9623   0.5693  -0.0842 C.2            1 S1                 0.0000
      8 ****         1.3387   0.0701  -1.1161 N.2            1 S1                 0.0000
      9 ****         0.0406  -0.1400  -0.6649 C.ar           1 S1                 0.0000
     10 ****        -1.1505  -0.6573  -1.2514 C.ar           1 S1                 0.0000
     11 ****        -1.2542  -1.0961  -2.5279 N.pl3          1 S1                 0.0000
     12 ****        -1.8231  -2.4278  -2.7807 C.3            1 S1                 0.0000
     13 ****        -1.3677  -2.8704  -4.1840 C.3            1 S1                 0.0000
     14 ****        -0.6561  -1.6428  -4.6528 C.ar           1 S1                 0.0000
     15 ****        -0.0807  -1.4219  -5.9161 C.ar           1 S1                 0.0000
     16 ****         0.5270  -0.1718  -6.1607 C.ar           1 S1                 0.0000
     17 ****         0.5409   0.8244  -5.1569 C.ar           1 S1                 0.0000
     18 ****        -0.0454   0.5804  -3.8952 C.ar           1 S1                 0.0000
     19 ****        -0.6319  -0.6783  -3.6504 C.ar           1 S1                 0.0000
     20 ****        -2.2462  -0.7668  -0.4576 N.ar           1 S1                 0.0000
     21 ****        -2.1975  -0.3604   0.8136 C.ar           1 S1                 0.0000
     22 ****        -1.1683   0.1600   1.4826 N.ar           1 S1                 0.0000
     23 ****        -0.0525   0.2462   0.7029 C.ar           1 S1                 0.0000
     24 ****         1.9438   0.1089   3.4090 C.3            1 S1                 0.0000
     25 ****         1.8981  -1.2180   2.9081 O.3            1 S1                 0.0000
     26 ****         0.9363   0.3769   4.5261 C.3            1 S1                 0.0000
     27 ****        -0.2257  -0.4280   4.4203 O.3            1 S1                 0.0000
     28 ****         1.4173   2.4535   4.7514 H              1 S1                 0.0000
     29 ****         2.5164   1.8404   2.1668 H              1 S1                 0.0000
     30 ****         2.9503   0.2925   3.7867 H              1 S1                 0.0000
     31 ****         1.3758   0.1937   5.5072 H              1 S1                 0.0000
     32 ****        -1.5799   3.9884   5.4354 H              1 S1                 0.0000
     33 ****        -0.9051   1.8781   5.8922 H              1 S1                 0.0000
     34 ****        -1.5783   2.0261   4.2749 H              1 S1                 0.0000
     35 ****         3.0057   0.8458  -0.1238 H              1 S1                 0.0000
     36 ****        -1.4989  -3.1409  -2.0215 H              1 S1                 0.0000
     37 ****        -2.9109  -2.3643  -2.7359 H              1 S1                 0.0000
     38 ****        -0.6799  -3.7154  -4.1431 H              1 S1                 0.0000
     39 ****        -2.2076  -3.1162  -4.8342 H              1 S1                 0.0000
     40 ****        -0.1071  -2.1852  -6.6797 H              1 S1                 0.0000
     41 ****         0.9763   0.0280  -7.1223 H              1 S1                 0.0000
     42 ****         0.9993   1.7815  -5.3573 H              1 S1                 0.0000
     43 ****        -0.0448   1.3512  -3.1389 H              1 S1                 0.0000
     44 ****        -3.1129  -0.4687   1.3762 H              1 S1                 0.0000
     45 ****         2.4700  -1.2754   2.1581 H              1 S1                 0.0000
     46 ****         0.0435  -1.3325   4.3656 H              1 S1                 0.0000
     47 ****        -0.5902   4.1764   4.2041 LP             1 S1                 0.0000
     48 ****        -0.0148   3.9872   5.7206 LP             1 S1                 0.0000
     49 ****         0.7892   2.9742   2.6829 LP             1 S1                 0.0000
     50 ****        -0.2547   1.7275   2.5326 LP             1 S1                 0.0000
     51 ****         1.7103  -0.1185  -2.0252 LP             1 S1                 0.0000
     52 ****        -3.0921  -1.1528  -0.8257 LP             1 S1                 0.0000
     53 ****        -1.2094   0.4512   2.4383 LP             1 S1                 0.0000
     54 ****         0.9625  -1.4441   2.6369 LP             1 S1                 0.0000
     55 ****         2.2037  -1.8560   3.6148 LP             1 S1                 0.0000
     56 ****        -0.7370  -0.1772   3.5983 LP             1 S1                 0.0000
     57 ****        -0.8034  -0.2953   5.2257 LP             1 S1                 0.0000
@<TRIPOS>BOND
    1    1    2 1     
    2    1   32 1     
    3    2    3 1     
    4    2   33 1     
    5    2   34 1     
    6    3   28 1     
    7    3   26 1     
    8    3    4 1     
    9    4    5 1     
   10    5   29 1     
   11    5    6 1     
   12    5   24 1     
   13    6   23 1     
   14    6    7 1     
   15    7    8 2     
   16    7   35 1     
   17    8    9 1     
   18    9   23 ar    
   19    9   10 ar    
   20   10   11 1     
   21   10   20 ar    
   22   11   19 1     
   23   11   12 1     
   24   12   13 1     
   25   12   36 1     
   26   12   37 1     
   27   13   14 1     
   28   13   38 1     
   29   13   39 1     
   30   14   19 ar    
   31   14   15 ar    
   32   15   16 ar    
   33   15   40 1     
   34   16   17 ar    
   35   16   41 1     
   36   17   18 ar    
   37   17   42 1     
   38   18   19 ar    
   39   18   43 1     
   40   20   21 ar    
   41   21   22 ar    
   42   21   44 1     
   43   22   23 ar    
   44   24   30 1     
   45   24   25 1     
   46   24   26 1     
   47   25   45 1     
   48   26   31 1     
   49   26   27 1     
   50   27   46 1     
   51    1   47 1     
   52    1   48 1     
   53    4   49 1     
   54    4   50 1     
   55    8   51 1     
   56   20   52 1     
   57   22   53 1     
   58   25   54 1     
   59   25   55 1     
   60   27   56 1     
   61   27   57 1     
@<TRIPOS>SUBSTRUCTURE
      1 S1             1
@<TRIPOS>SET
LONE_PAIRS      STATIC     ATOMS    <user>   **** ""
11 47 48 49 50 51 52 53 54 55 56 57
DONOR_HYDROGENS      STATIC     ATOMS    <user>   **** ""
3 32 45 46
ATOM$BLUE        STATIC     ATOMS    COLORGROUP SYSTEM
11 47 48 49 50 51 52 53 54 55 56 57
ATOM$RED        STATIC     ATOMS    COLORGROUP SYSTEM
3 32 45 46
