AV-unprocessed.smi:1693|AV-procd|sdf|6785|dock3
  -GOLD-   22720 7543D 1   1.00000     0.00000
 Structure written by MMmdl.
 36 37  0  0  0  0  0  0  0  0  1 V2000
  150.8631  141.3570  156.0848 C   0  0  0  0  0  0  0  0  0  0  0  0
  149.7696  140.5987  155.4135 C   0  0  0  0  0  0  0  0  0  0  0  0
  148.4911  140.9949  155.4359 N   0  0  0  0  0  0  0  0  0  0  0  0
  147.6597  140.1291  154.7391 N   0  0  0  0  0  0  0  0  0  0  0  0
  148.3388  139.1019  154.2101 C   0  0  0  0  0  0  0  0  0  0  0  0
  147.7374  138.0686  153.4442 N   0  0  0  0  0  0  0  0  0  0  0  0
  146.4335  137.7569  153.3424 C   0  0  0  0  0  0  0  0  0  0  0  0
  145.5154  138.3359  153.9231 O   0  0  0  0  0  0  0  0  0  0  0  0
  146.2501  136.7159  152.5181 N   0  0  0  0  0  0  0  0  0  0  0  0
  144.9626  136.0923  152.2217 C   0  0  0  0  0  0  0  0  0  0  0  0
  145.0455  135.0040  151.1207 C   0  0  0  0  0  0  0  0  0  0  0  0
  144.9788  135.6694  149.8725 O   0  0  0  0  0  0  0  0  0  0  0  0
  146.4245  134.3036  151.1881 C   0  0  0  0  0  0  0  0  0  0  0  0
  146.5655  133.1434  150.1867 C   0  0  0  0  0  0  0  0  0  0  0  0
  145.4327  132.1226  150.3564 C   0  0  0  0  0  0  0  0  0  0  0  0
  144.0634  132.7999  150.2127 C   0  0  0  0  0  0  0  0  0  0  0  0
  143.9005  133.9615  151.2092 C   0  0  0  0  0  0  0  0  0  0  0  0
  150.0656  139.1090  154.5257 S   0  0  0  0  0  0  0  0  0  0  0  0
  150.4640  142.2261  156.6091 H   0  0  0  0  0  0  0  0  0  0  0  0
  151.5880  141.6976  155.3455 H   0  0  0  0  0  0  0  0  0  0  0  0
  151.3715  140.7173  156.8062 H   0  0  0  0  0  0  0  0  0  0  0  0
  148.3763  137.4989  152.9097 H   0  0  0  0  0  0  0  0  0  0  0  0
  147.0628  136.3044  152.0836 H   0  0  0  0  0  0  0  0  0  0  0  0
  144.4919  135.7017  153.1261 H   0  0  0  0  0  0  0  0  0  0  0  0
  144.3144  136.8991  151.8788 H   0  0  0  0  0  0  0  0  0  0  0  0
  145.4928  135.1836  149.2462 H   0  0  0  0  0  0  0  0  0  0  0  0
  147.2250  135.0270  151.0265 H   0  0  0  0  0  0  0  0  0  0  0  0
  146.5777  133.9080  152.1931 H   0  0  0  0  0  0  0  0  0  0  0  0
  146.5624  133.5292  149.1666 H   0  0  0  0  0  0  0  0  0  0  0  0
  147.5293  132.6527  150.3246 H   0  0  0  0  0  0  0  0  0  0  0  0
  145.5339  131.3274  149.6175 H   0  0  0  0  0  0  0  0  0  0  0  0
  145.5080  131.6485  151.3358 H   0  0  0  0  0  0  0  0  0  0  0  0
  143.9434  133.1688  149.1934 H   0  0  0  0  0  0  0  0  0  0  0  0
  143.2707  132.0675  150.3676 H   0  0  0  0  0  0  0  0  0  0  0  0
  143.8673  133.5535  152.2203 H   0  0  0  0  0  0  0  0  0  0  0  0
  142.9329  134.4357  151.0409 H   0  0  0  0  0  0  0  0  0  0  0  0
  1  2  1  0  0  0  0
  1 19  1  0  0  0  0
  1 20  1  0  0  0  0
  1 21  1  0  0  0  0
  2 18  1  0  0  0  0
  2  3  2  0  0  0  0
  3  4  1  0  0  0  0
  4  5  2  0  0  0  0
  5  6  1  0  0  0  0
  5 18  1  0  0  0  0
  6  7  1  0  0  0  0
  6 22  1  0  0  0  0
  7  8  2  0  0  0  0
  7  9  1  0  0  0  0
  9 10  1  0  0  0  0
  9 23  1  0  0  0  0
 10 11  1  0  0  0  0
 10 24  1  0  0  0  0
 10 25  1  0  0  0  0
 11 17  1  0  0  0  0
 11 12  1  0  0  0  0
 11 13  1  0  0  0  0
 12 26  1  0  0  0  0
 13 14  1  0  0  0  0
 13 27  1  0  0  0  0
 13 28  1  0  0  0  0
 14 15  1  0  0  0  0
 14 29  1  0  0  0  0
 14 30  1  0  0  0  0
 15 16  1  0  0  0  0
 15 31  1  0  0  0  0
 15 32  1  0  0  0  0
 16 17  1  0  0  0  0
 16 33  1  0  0  0  0
 16 34  1  0  0  0  0
 17 35  1  0  0  0  0
 17 36  1  0  0  0  0
M  END
> <s_m_source_file>
AV-unprocessed.smi

> <i_m_source_file_index>
1693

> <i_lp_mmshare_version>
43012

> <i_f3d_flags>
0

> <s_epik_input>
W0NIM11jMW5uYyhzMSlbTkhdQyg9TylbTkhdW0NIMl1DMihbT0hdKVtDSDJdW0NIMl1bQ0gyXVtDSDJdW0NIMl0y

> <s_epik_cmdline>
J2VwaWtfcHl0aG9uJywgJy1waCcsICc3LjAnLCAnLXRuJywgJzgnLCAnLW1hJywgJzIwMCcsICctbWV0YWxfYmluZGluZycsICctaW1hZScsICc8aW5maWxlLm1hZT4nLCAnLW9tYWUnLCAnPG91dGZpbGUubWFlPic=

> <r_lp_tautomer_probability>
1

> <r_epik_Ionization_Penalty>
0.000488803

> <r_epik_Ionization_Penalty_Charging>
0

> <r_epik_Ionization_Penalty_Neutral>
0.000488803

> <r_epik_State_Penalty>
-0

> <r_epik_Charging_Adjusted_Penalty>
0

> <i_epik_Tot_Q>
0

> <i_epik_Tot_abs_Q>
0

> <r_epik_Metal_State_Penalty>
0.215163

> <b_epik_Metal_Only>
0

> <s_lp_Force_Field>
OPLS_2005

> <r_lp_Energy>
12.5822

> <b_lp_Chiralities_Consistent>
1

> <s_lp_Variant>
AV-unprocessed.smi:1693-1

> <Gold.Version>
5.8.1

> <Gold.Id.Protein>
6NUR|6NUR_protein|mol2

> <Gold.PLP.Fitness>
40.0900

> <Gold.PLP.PLP>
-32.3156

> <Gold.PLP.part.hbond>
-3.4591

> <Gold.PLP.part.metal>
0.0000

> <Gold.PLP.part.buried>
-4.8707

> <Gold.PLP.part.nonpolar>
-24.0283

> <Gold.PLP.part.repulsive>
0.3897

> <Gold.PLP.ligand.clash>
0.0000

> <Gold.PLP.ligand.torsion>
0.4963

> <Gold.PLP.Chemscore.Hbond>
2.9200

> <Gold.PLP.Chemscore.CHOScore>
0.0000

> <Gold.PLP.Chemscore.Metal>
0.0000

> <Gold.Chemscore.Hbonds>
donor molecule, donor type, donor heavy atom, donor atom, acceptor molecule, acceptor atom, score
      L1  H     6    22       P1  7948  1.00
      L1  H     9    23       P1  7948  1.00
      L1  H    12    26       P1  7921  1.00

> <Gold.PLP.Chemscore.Internal.Correction>
0.0069

> <Gold.Rescore>
     Score         DG    S(hbond)    S(metal)    S(lipo)     H(rot)  DE(clash)    DE(int)     intcor
     17.04     -18.85       2.88        0.00      72.81       1.86       0.09       1.73       ----

> <Gold.Chemscore.Fitness>
17.0376

> <Gold.Chemscore.DG>
-18.8540

> <Gold.Chemscore.ZeroCoef>
-5.4800

> <Gold.Chemscore.Hbond>
2.8769

> <Gold.Chemscore.Metal>
0.0000

> <Gold.Chemscore.Lipo>
72.8121

> <Gold.Chemscore.Internal_Hbond>
0.0000

> <Gold.Chemscore.DEClash>
0.0879

> <Gold.Chemscore.DEInternal>
1.7285

> <Gold.Chemscore.Rot>
1.8570

> <Gold.Chemscore.Internal.Correction>
   9.000000E+99

> <Gold.Chemscore.Hbonds>
donor molecule, donor type, donor heavy atom, donor atom, acceptor molecule, acceptor atom, score
      L1  H     6    22       P1  7948  1.00
      L1  H     9    23       P1  7948  0.95
      L1  H    12    26       P1  7921  0.98

> <Gold.Chemscore.Hbond.Weighted>
-9.6089

> <Gold.Chemscore.Metal.Weighted>
-0.0000

> <Gold.Chemscore.Lipo.Weighted>
-8.5190

> <Gold.Chemscore.Internal_Hbond.Weighted>
0.0000

> <Gold.Chemscore.DEClash.Weighted>
0.0879

> <Gold.Chemscore.DEInternal.Weighted>
1.7285

> <Gold.Chemscore.Rot.Weighted>
4.7540

> <Gold.Chemscore.Internal.Correction.Weighted>
   9.000000E+99

> <Gold.Protein.RotatedTorsions>
[ 6907 6896 6895 6894 ] final   36.35 input  -60.11 | X-H torsion
[ 7974 7965 7964 7962 ] final  119.70 input  175.53 | X-H torsion
[ 8008 7997 7996 7995 ] final   58.07 input   59.86 | X-H torsion
[ 10167 10162 10161 10158 ] final  129.81 input  -65.29 | X-H torsion
[ 10718 10713 10712 10709 ] final   71.25 input   66.30 | X-H torsion
[ 10763 10752 10751 10750 ] final  -56.97 input  -60.55 | X-H torsion
[ 11005 11000 10999 10996 ] final  103.29 input  -57.11 | X-H torsion

> <Gold.Protein.ActiveResidues>
 VAL166  LYS551  ARG553  GLY616  TRP617  ASP618  TYR619  PRO620  LYS621  CYS622 
 ASP623  PHE694  ASN695  SER759  ASP760  ASP761  ALA762  ILE779  LEU786  VAL792 
 PHE793  MET794  SER795  GLU796  ALA797  LYS798  CYS799  TRP800  GLU811  SER814 

> <Gold.Protein.RotatedAtoms>
  152.1286  134.9152  160.0559 H   0  0  0  0  0  0  0  0  0  0  0  0  # atno 6907 bound_to 6896
  152.0265  133.3915  159.4288 H   0  0  0  0  0  0  0  0  0  0  0  0  # atno 6908 bound_to 6896
  150.6854  134.3489  159.4944 H   0  0  0  0  0  0  0  0  0  0  0  0  # atno 6909 bound_to 6896
  145.1400  139.3274  143.4621 H   0  0  0  0  0  0  0  0  0  0  0  0  # atno 7974 bound_to 7965
  155.5440  140.3485  155.4453 H   0  0  0  0  0  0  0  0  0  0  0  0  # atno 8008 bound_to 7997
  156.0631  140.1345  156.9944 H   0  0  0  0  0  0  0  0  0  0  0  0  # atno 8009 bound_to 7997
  154.4489  140.0981  156.6531 H   0  0  0  0  0  0  0  0  0  0  0  0  # atno 8010 bound_to 7997
  139.5460  144.6773  151.4473 H   0  0  0  0  0  0  0  0  0  0  0  0  # atno 10167 bound_to 10162
  157.6442  130.9519  150.0763 H   0  0  0  0  0  0  0  0  0  0  0  0  # atno 10718 bound_to 10713
  154.2151  135.6387  153.5127 H   0  0  0  0  0  0  0  0  0  0  0  0  # atno 10763 bound_to 10752
  152.9981  135.5483  154.6173 H   0  0  0  0  0  0  0  0  0  0  0  0  # atno 10764 bound_to 10752
  154.5620  135.2909  155.0884 H   0  0  0  0  0  0  0  0  0  0  0  0  # atno 10765 bound_to 10752
  139.8783  134.9257  156.5187 H   0  0  0  0  0  0  0  0  0  0  0  0  # atno 11005 bound_to 11000
  146.3506  140.1433  142.8594 LP  0  0  0  0  0  0  0  0  0  0  0  0  # atno 17320 bound_to 7965
  145.0543  140.9041  143.4977 LP  0  0  0  0  0  0  0  0  0  0  0  0  # atno 17321 bound_to 7965
  140.6708  143.8298  150.6997 LP  0  0  0  0  0  0  0  0  0  0  0  0  # atno 17342 bound_to 10162
  140.1722  143.4185  152.1993 LP  0  0  0  0  0  0  0  0  0  0  0  0  # atno 17343 bound_to 10162
  156.1753  130.3648  149.9109 LP  0  0  0  0  0  0  0  0  0  0  0  0  # atno 17370 bound_to 10713
  156.7075  130.8957  151.3606 LP  0  0  0  0  0  0  0  0  0  0  0  0  # atno 17371 bound_to 10713
  140.8466  133.8164  155.9127 LP  0  0  0  0  0  0  0  0  0  0  0  0  # atno 17394 bound_to 11000
  140.9185  134.2172  157.4941 LP  0  0  0  0  0  0  0  0  0  0  0  0  # atno 17395 bound_to 11000

$$$$
