#       Name:                AV-unprocessed.smi:2724
#       Creating user name   scv26
#       Creation time:       Fri Mar 27 14:55:04 2020


#       File generated by GOLD software.
#

@<TRIPOS>MOLECULE
AV-unprocessed.smi:2724
    28    29     1
SMALL
NO_CHARGES


@<TRIPOS>ATOM
      1 ****        -2.2352  -0.0168  -1.4638 O.3            1 S1                 0.0000
      2 ****        -0.8233  -0.0012  -1.4279 C.3            1 S1                 0.0000
      3 ****        -0.2293  -0.7702  -2.6069 C.3            1 S1                 0.0000
      4 ****         1.1876  -1.1127  -2.1486 C.3            1 S1                 0.0000
      5 ****         1.1030  -1.2868  -0.6252 C.3            1 S1                 0.0000
      6 ****        -0.2665  -0.7254  -0.1910 C.3            1 S1                 0.0000
      7 ****        -0.1964   0.1467   1.0560 C.ar           1 S1                 0.0000
      8 ****         0.5684   1.3334   1.0860 C.ar           1 S1                 0.0000
      9 ****         0.5940   2.0985   2.2675 C.ar           1 S1                 0.0000
     10 ****        -0.1491   1.6457   3.3754 C.ar           1 S1                 0.0000
     11 ****        -0.8846   0.5136   3.3611 N.ar           1 S1                 0.0000
     12 ****        -0.9027  -0.2145   2.2239 C.ar           1 S1                 0.0000
     13 ****        -2.5586   0.4545  -0.7111 H              1 S1                 0.0000
     14 ****        -0.4694   1.0293  -1.4710 H              1 S1                 0.0000
     15 ****        -0.7875  -1.6928  -2.7743 H              1 S1                 0.0000
     16 ****        -0.2448  -0.1979  -3.5350 H              1 S1                 0.0000
     17 ****         1.5800  -1.9990  -2.6479 H              1 S1                 0.0000
     18 ****         1.8546  -0.2820  -2.3824 H              1 S1                 0.0000
     19 ****         1.1878  -2.3361  -0.3409 H              1 S1                 0.0000
     20 ****         1.9353  -0.7639  -0.1527 H              1 S1                 0.0000
     21 ****        -0.9106  -1.5817   0.0185 H              1 S1                 0.0000
     22 ****         1.1287   1.6539   0.2199 H              1 S1                 0.0000
     23 ****         1.1699   3.0103   2.3235 H              1 S1                 0.0000
     24 ****        -0.1517   2.2076   4.2977 H              1 S1                 0.0000
     25 ****        -1.5008  -1.1136   2.2504 H              1 S1                 0.0000
     26 ****        -2.5631  -0.9611  -1.4373 LP             1 S1                 0.0000
     27 ****        -2.5564   0.4242  -2.3019 LP             1 S1                 0.0000
     28 ****        -1.3998   0.2233   4.1674 LP             1 S1                 0.0000
@<TRIPOS>BOND
    1    1    2 1     
    2    1   13 1     
    3    2    6 1     
    4    2    3 1     
    5    2   14 1     
    6    3    4 1     
    7    3   15 1     
    8    3   16 1     
    9    4    5 1     
   10    4   17 1     
   11    4   18 1     
   12    5    6 1     
   13    5   19 1     
   14    5   20 1     
   15    6    7 1     
   16    6   21 1     
   17    7   12 ar    
   18    7    8 ar    
   19    8    9 ar    
   20    8   22 1     
   21    9   10 ar    
   22    9   23 1     
   23   10   11 ar    
   24   10   24 1     
   25   11   12 ar    
   26   12   25 1     
   27    1   26 1     
   28    1   27 1     
   29   11   28 1     
@<TRIPOS>SUBSTRUCTURE
      1 S1             1
@<TRIPOS>SET
LONE_PAIRS      STATIC     ATOMS    <user>   **** ""
3 26 27 28
DONOR_HYDROGENS      STATIC     ATOMS    <user>   **** ""
1 13
ATOM$BLUE        STATIC     ATOMS    COLORGROUP SYSTEM
3 26 27 28
ATOM$RED        STATIC     ATOMS    COLORGROUP SYSTEM
1 13
