AV-unprocessed.smi:346|AV-procd|sdf|2393|dock3
  -GOLD-   2262022323D 1   1.00000     0.00000
 Structure written by MMmdl.
 34 35  0  0  0  0  0  0  0  0  2 V2000
  150.7900  137.1266  154.7552 C   0  0  0  0  0  0  0  0  0  0  0  0
  152.1457  137.4192  155.0433 O   0  0  0  0  0  0  0  0  0  0  0  0
  152.3630  138.7982  155.2937 C   0  0  0  0  0  0  0  0  0  0  0  0
  151.7512  139.1895  156.6463 C   0  0  0  0  0  0  0  0  0  0  0  0
  151.2205  140.5614  156.6439 N   0  0  0  0  0  0  0  0  0  0  0  0
  150.3352  141.1634  155.8014 C   0  0  0  0  0  0  0  0  0  0  0  0
  149.5493  140.4345  154.4050 S   0  0  0  0  0  0  0  0  0  0  0  0
  147.7968  140.8462  154.6129 C   0  0  0  0  0  0  0  0  0  0  0  0
  146.8799  139.8775  153.8719 C   0  0  0  0  0  0  0  0  0  0  0  0
  147.1730  139.6181  152.5951 N   0  0  0  0  0  0  0  0  0  0  0  0
  145.9171  139.3712  154.4435 O   0  0  0  0  0  0  0  0  0  0  0  0
  150.1547  142.4418  156.2308 N   0  3  0  0  0  0  0  0  0  0  0  0
  150.9349  142.6647  157.3668 C   0  0  0  0  0  0  0  0  0  0  0  0
  151.0883  143.7992  158.1578 C   0  0  0  0  0  0  0  0  0  0  0  0
  151.9617  143.6918  159.2603 C   0  0  0  0  0  0  0  0  0  0  0  0
  152.1995  145.0577  160.2865 Cl  0  0  0  0  0  0  0  0  0  0  0  0
  152.6427  142.4889  159.5394 C   0  0  0  0  0  0  0  0  0  0  0  0
  152.4831  141.3458  158.7290 C   0  0  0  0  0  0  0  0  0  0  0  0
  151.6190  141.4611  157.6404 C   0  0  0  0  0  0  0  0  0  0  0  0
  150.6775  136.0583  154.5708 H   0  0  0  0  0  0  0  0  0  0  0  0
  150.4519  137.6597  153.8656 H   0  0  0  0  0  0  0  0  0  0  0  0
  150.1425  137.3942  155.5913 H   0  0  0  0  0  0  0  0  0  0  0  0
  153.4329  139.0118  155.2986 H   0  0  0  0  0  0  0  0  0  0  0  0
  151.9155  139.3960  154.4981 H   0  0  0  0  0  0  0  0  0  0  0  0
  150.9596  138.4976  156.9338 H   0  0  0  0  0  0  0  0  0  0  0  0
  152.5092  139.1252  157.4265 H   0  0  0  0  0  0  0  0  0  0  0  0
  147.5566  140.8344  155.6766 H   0  0  0  0  0  0  0  0  0  0  0  0
  147.6172  141.8617  154.2594 H   0  0  0  0  0  0  0  0  0  0  0  0
  146.5947  138.9859  152.0608 H   0  0  0  0  0  0  0  0  0  0  0  0
  147.9736  140.0595  152.1661 H   0  0  0  0  0  0  0  0  0  0  0  0
  150.5653  144.7203  157.9455 H   0  0  0  0  0  0  0  0  0  0  0  0
  153.3018  142.4396  160.3943 H   0  0  0  0  0  0  0  0  0  0  0  0
  153.0065  140.4292  158.9573 H   0  0  0  0  0  0  0  0  0  0  0  0
  149.5415  143.1084  155.7794 H   0  0  0  0  0  0  0  0  0  0  0  0
  1  2  1  0  0  0  0
  1 20  1  0  0  0  0
  1 21  1  0  0  0  0
  1 22  1  0  0  0  0
  2  3  1  0  0  0  0
  3  4  1  0  0  0  0
  3 23  1  0  0  0  0
  3 24  1  0  0  0  0
  4  5  1  0  0  0  0
  4 25  1  0  0  0  0
  4 26  1  0  0  0  0
  5 19  1  0  0  0  0
  5  6  1  0  0  0  0
  6  7  1  0  0  0  0
  6 12  2  0  0  0  0
  7  8  1  0  0  0  0
  8  9  1  0  0  0  0
  8 27  1  0  0  0  0
  8 28  1  0  0  0  0
  9 10  1  0  0  0  0
  9 11  2  0  0  0  0
 10 29  1  0  0  0  0
 10 30  1  0  0  0  0
 12 13  1  0  0  0  0
 12 34  1  0  0  0  0
 13 19  2  0  0  0  0
 13 14  1  0  0  0  0
 14 15  2  0  0  0  0
 14 31  1  0  0  0  0
 15 16  1  0  0  0  0
 15 17  1  0  0  0  0
 17 18  2  0  0  0  0
 17 32  1  0  0  0  0
 18 19  1  0  0  0  0
 18 33  1  0  0  0  0
M  CHG  1  12   1
M  END
> <s_m_source_file>
AV-unprocessed.smi

> <i_m_source_file_index>
346

> <i_lp_mmshare_version>
43012

> <i_f3d_flags>
0

> <s_epik_input>
W2NIXTFjKENsKVtjSF1bY0hdYyhjMTIpbihbQ0gyXVtDSDJdT1tDSDNdKWMobjIpU1tDSDJdQyg9TylbTkgyXQ==

> <s_epik_cmdline>
J2VwaWtfcHl0aG9uJywgJy1waCcsICc3LjAnLCAnLXRuJywgJzgnLCAnLW1hJywgJzIwMCcsICctbWV0YWxfYmluZGluZycsICctaW1hZScsICc8aW5maWxlLm1hZT4nLCAnLW9tYWUnLCAnPG91dGZpbGUubWFlPic=

> <r_epik_Ionization_Penalty>
2.55352

> <r_epik_Ionization_Penalty_Charging>
2.55352

> <r_epik_Ionization_Penalty_Neutral>
3.318e-07

> <r_epik_State_Penalty>
2.72228

> <r_epik_Charging_Adjusted_Penalty>
5.2758

> <i_epik_Tot_Q>
1

> <i_epik_Tot_abs_Q>
1

> <r_epik_Metal_State_Penalty>
2.73053

> <b_epik_Metal_Only>
0

> <s_lp_Force_Field>
OPLS_2005

> <r_lp_Energy>
7.77785

> <b_lp_Chiralities_Consistent>
1

> <s_lp_Variant>
AV-unprocessed.smi:346-2

> <Gold.Version>
5.8.1

> <Gold.Id.Protein>
6NUR|6NUR_protein|mol2

> <Gold.PLP.Fitness>
51.4971

> <Gold.PLP.PLP>
-41.4927

> <Gold.PLP.part.hbond>
-3.0000

> <Gold.PLP.part.metal>
0.0000

> <Gold.PLP.part.buried>
-5.4598

> <Gold.PLP.part.nonpolar>
-34.5708

> <Gold.PLP.part.repulsive>
0.3419

> <Gold.PLP.ligand.clash>
0.0000

> <Gold.PLP.ligand.torsion>
0.6521

> <Gold.PLP.Chemscore.Hbond>
3.7517

> <Gold.PLP.Chemscore.CHOScore>
0.0000

> <Gold.PLP.Chemscore.Metal>
0.0000

> <Gold.Chemscore.Hbonds>
donor molecule, donor type, donor heavy atom, donor atom, acceptor molecule, acceptor atom, score
      L1  H    10    30       P1  7957  1.00
      L1  H    12    34       P1  8028  2.00
      P1  H 10752 10765       L1     2  0.74

> <Gold.PLP.Chemscore.Internal.Correction>
0.0535

> <Gold.Rescore>
     Score         DG    S(hbond)    S(metal)    S(lipo)     H(rot)  DE(clash)    DE(int)     intcor
     16.53     -17.41       2.15        0.00     100.97       2.75       0.26       0.62       ----

> <Gold.Chemscore.Fitness>
16.5299

> <Gold.Chemscore.DG>
-17.4108

> <Gold.Chemscore.ZeroCoef>
-5.4800

> <Gold.Chemscore.Hbond>
2.1457

> <Gold.Chemscore.Metal>
0.0000

> <Gold.Chemscore.Lipo>
100.9730

> <Gold.Chemscore.Internal_Hbond>
0.0000

> <Gold.Chemscore.DEClash>
0.2649

> <Gold.Chemscore.DEInternal>
0.6159

> <Gold.Chemscore.Rot>
2.7537

> <Gold.Chemscore.Internal.Correction>
   9.000000E+99

> <Gold.Chemscore.Hbonds>
donor molecule, donor type, donor heavy atom, donor atom, acceptor molecule, acceptor atom, score
      L1  H    10    30       P1  7957  0.97
      L1  H    12    34       P1  8028  0.94
      P1  H 10752 10765       L1     2  0.16

> <Gold.Chemscore.Hbond.Weighted>
-7.1665

> <Gold.Chemscore.Metal.Weighted>
-0.0000

> <Gold.Chemscore.Lipo.Weighted>
-11.8138

> <Gold.Chemscore.Internal_Hbond.Weighted>
0.0000

> <Gold.Chemscore.DEClash.Weighted>
0.2649

> <Gold.Chemscore.DEInternal.Weighted>
0.6159

> <Gold.Chemscore.Rot.Weighted>
7.0496

> <Gold.Chemscore.Internal.Correction.Weighted>
   9.000000E+99

> <Gold.Protein.RotatedTorsions>
[ 6907 6896 6895 6894 ] final  -53.67 input  -60.11 | X-H torsion
[ 7974 7965 7964 7962 ] final  102.22 input  175.53 | X-H torsion
[ 8008 7997 7996 7995 ] final   43.65 input   59.86 | X-H torsion
[ 10167 10162 10161 10158 ] final   33.86 input  -65.29 | X-H torsion
[ 10718 10713 10712 10709 ] final  -76.72 input   66.30 | X-H torsion
[ 10763 10752 10751 10750 ] final -178.08 input  -60.55 | X-H torsion
[ 11005 11000 10999 10996 ] final -144.20 input  -57.11 | X-H torsion

> <Gold.Protein.ActiveResidues>
 VAL166  LYS551  ARG553  GLY616  TRP617  ASP618  TYR619  PRO620  LYS621  CYS622 
 ASP623  PHE694  ASN695  SER759  ASP760  ASP761  ALA762  ILE779  LEU786  VAL792 
 PHE793  MET794  SER795  GLU796  ALA797  LYS798  CYS799  TRP800  GLU811  SER814 

> <Gold.Protein.RotatedAtoms>
  150.8406  134.7696  159.6928 H   0  0  0  0  0  0  0  0  0  0  0  0  # atno 6907 bound_to 6896
  152.4494  134.5423  159.9852 H   0  0  0  0  0  0  0  0  0  0  0  0  # atno 6908 bound_to 6896
  151.5564  133.3372  159.2998 H   0  0  0  0  0  0  0  0  0  0  0  0  # atno 6909 bound_to 6896
  145.3619  139.2416  143.3502 H   0  0  0  0  0  0  0  0  0  0  0  0  # atno 7974 bound_to 7965
  155.3063  140.3388  155.4245 H   0  0  0  0  0  0  0  0  0  0  0  0  # atno 8008 bound_to 7997
  156.1977  140.1721  156.8002 H   0  0  0  0  0  0  0  0  0  0  0  0  # atno 8009 bound_to 7997
  154.5520  140.0704  156.8666 H   0  0  0  0  0  0  0  0  0  0  0  0  # atno 8010 bound_to 7997
  140.4368  144.1245  150.6167 H   0  0  0  0  0  0  0  0  0  0  0  0  # atno 10167 bound_to 10162
  156.0166  130.4473  150.3237 H   0  0  0  0  0  0  0  0  0  0  0  0  # atno 10718 bound_to 10713
  154.5521  135.2813  155.0999 H   0  0  0  0  0  0  0  0  0  0  0  0  # atno 10763 bound_to 10752
  154.2440  135.6351  153.5221 H   0  0  0  0  0  0  0  0  0  0  0  0  # atno 10764 bound_to 10752
  153.0006  135.5567  154.6090 H   0  0  0  0  0  0  0  0  0  0  0  0  # atno 10765 bound_to 10752
  140.8048  134.2814  157.4964 H   0  0  0  0  0  0  0  0  0  0  0  0  # atno 11005 bound_to 11000
  146.2923  140.4255  142.8735 LP  0  0  0  0  0  0  0  0  0  0  0  0  # atno 17320 bound_to 7965
  144.8640  140.7179  143.6089 LP  0  0  0  0  0  0  0  0  0  0  0  0  # atno 17321 bound_to 7965
  140.4364  143.2545  151.9529 LP  0  0  0  0  0  0  0  0  0  0  0  0  # atno 17342 bound_to 10162
  139.4787  144.5696  151.8110 LP  0  0  0  0  0  0  0  0  0  0  0  0  # atno 17343 bound_to 10162
  157.1336  131.0278  151.2958 LP  0  0  0  0  0  0  0  0  0  0  0  0  # atno 17370 bound_to 10713
  157.4530  130.7609  149.7168 LP  0  0  0  0  0  0  0  0  0  0  0  0  # atno 17371 bound_to 10713
  139.8718  134.9450  156.3897 LP  0  0  0  0  0  0  0  0  0  0  0  0  # atno 17394 bound_to 11000
  140.9258  133.7613  155.9963 LP  0  0  0  0  0  0  0  0  0  0  0  0  # atno 17395 bound_to 11000

$$$$
