AV-unprocessed.smi:2814|AV-procd|sdf|10840|dock6
  -GOLD-   2272015283D 1   1.00000     0.00000
 Structure written by MMmdl.
 38 39  0  0  0  0  0  0  0  0  2 V2000
  146.2336  143.2040  153.9930 C   0  0  0  0  0  0  0  0  0  0  0  0
  147.1457  141.9980  154.0737 C   0  0  0  0  0  0  0  0  0  0  0  0
  146.7552  140.7251  153.6049 C   0  0  0  0  0  0  0  0  0  0  0  0
  147.6599  139.6378  153.7075 C   0  0  0  0  0  0  0  0  0  0  0  0
  147.3568  138.3160  153.2826 N   0  0  0  0  0  0  0  0  0  0  0  0
  146.1941  137.6512  153.3928 C   0  0  0  0  0  0  0  0  0  0  0  0
  145.1576  138.1102  153.8725 O   0  0  0  0  0  0  0  0  0  0  0  0
  146.2971  136.4110  152.8948 N   0  0  0  0  0  0  0  0  0  0  0  0
  145.2279  135.4151  152.8516 C   0  0  0  0  0  0  0  0  0  0  0  0
  145.5764  134.2136  151.9441 C   0  0  0  0  0  0  0  0  0  0  0  0
  146.9872  134.0929  151.8943 O   0  0  0  0  0  0  0  0  0  0  0  0
  144.9606  132.8699  152.3607 C   0  0  0  0  0  0  0  0  0  0  0  0
  144.9450  132.0067  151.0930 C   0  0  0  0  0  0  0  0  0  0  0  0
  145.0246  132.9780  149.9055 C   0  0  0  0  0  0  0  0  0  0  0  0
  145.0768  134.3900  150.5039 C   0  0  0  0  0  0  0  0  0  0  0  0
  148.9199  139.8613  154.3048 C   0  0  0  0  0  0  0  0  0  0  0  0
  149.2561  141.1541  154.7541 C   0  0  0  0  0  0  0  0  0  0  0  0
  148.3697  142.1637  154.6215 N   0  3  0  0  0  0  0  0  0  0  0  0
  145.2789  142.9453  153.5339 H   0  0  0  0  0  0  0  0  0  0  0  0
  146.6957  143.9910  153.3963 H   0  0  0  0  0  0  0  0  0  0  0  0
  146.0356  143.5984  154.9901 H   0  0  0  0  0  0  0  0  0  0  0  0
  145.7674  140.6002  153.1878 H   0  0  0  0  0  0  0  0  0  0  0  0
  148.0932  137.8396  152.7827 H   0  0  0  0  0  0  0  0  0  0  0  0
  147.1900  136.1208  152.5240 H   0  0  0  0  0  0  0  0  0  0  0  0
  145.0038  135.0679  153.8617 H   0  0  0  0  0  0  0  0  0  0  0  0
  144.3179  135.9012  152.4980 H   0  0  0  0  0  0  0  0  0  0  0  0
  147.3605  134.9611  151.8797 H   0  0  0  0  0  0  0  0  0  0  0  0
  145.4907  132.3927  153.1860 H   0  0  0  0  0  0  0  0  0  0  0  0
  143.9315  133.0282  152.6857 H   0  0  0  0  0  0  0  0  0  0  0  0
  145.8079  131.3398  151.0823 H   0  0  0  0  0  0  0  0  0  0  0  0
  144.0519  131.3826  151.0496 H   0  0  0  0  0  0  0  0  0  0  0  0
  145.9292  132.7809  149.3287 H   0  0  0  0  0  0  0  0  0  0  0  0
  144.1771  132.8647  149.2286 H   0  0  0  0  0  0  0  0  0  0  0  0
  144.0662  134.8011  150.5149 H   0  0  0  0  0  0  0  0  0  0  0  0
  145.6928  135.0726  149.9165 H   0  0  0  0  0  0  0  0  0  0  0  0
  149.6285  139.0527  154.4130 H   0  0  0  0  0  0  0  0  0  0  0  0
  150.1999  141.4083  155.2138 H   0  0  0  0  0  0  0  0  0  0  0  0
  148.6334  143.0914  154.9546 H   0  0  0  0  0  0  0  0  0  0  0  0
  1  2  1  0  0  0  0
  1 19  1  0  0  0  0
  1 20  1  0  0  0  0
  1 21  1  0  0  0  0
  2 18  1  0  0  0  0
  2  3  2  0  0  0  0
  3  4  1  0  0  0  0
  3 22  1  0  0  0  0
  4  5  1  0  0  0  0
  4 16  2  0  0  0  0
  5  6  1  0  0  0  0
  5 23  1  0  0  0  0
  6  7  2  0  0  0  0
  6  8  1  0  0  0  0
  8  9  1  0  0  0  0
  8 24  1  0  0  0  0
  9 10  1  0  0  0  0
  9 25  1  0  0  0  0
  9 26  1  0  0  0  0
 10 15  1  0  0  0  0
 10 11  1  0  0  0  0
 10 12  1  0  0  0  0
 11 27  1  0  0  0  0
 12 13  1  0  0  0  0
 12 28  1  0  0  0  0
 12 29  1  0  0  0  0
 13 14  1  0  0  0  0
 13 30  1  0  0  0  0
 13 31  1  0  0  0  0
 14 15  1  0  0  0  0
 14 32  1  0  0  0  0
 14 33  1  0  0  0  0
 15 34  1  0  0  0  0
 15 35  1  0  0  0  0
 16 17  1  0  0  0  0
 16 36  1  0  0  0  0
 17 18  2  0  0  0  0
 17 37  1  0  0  0  0
 18 38  1  0  0  0  0
M  CHG  1  18   1
M  END
> <s_m_source_file>
AV-unprocessed.smi

> <i_m_source_file_index>
2814

> <i_lp_mmshare_version>
43012

> <i_f3d_flags>
0

> <s_epik_input>
W0NIM11jMVtjSF1jKFtjSF1bY0hdbjEpW05IXUMoPU8pW05IXVtDSDJdQzIoW09IXSlbQ0gyXVtDSDJdW0NIMl1bQ0gyXTI=

> <s_epik_cmdline>
J2VwaWtfcHl0aG9uJywgJy1waCcsICc3LjAnLCAnLXRuJywgJzgnLCAnLW1hJywgJzIwMCcsICctbWV0YWxfYmluZGluZycsICctaW1hZScsICc8aW5maWxlLm1hZT4nLCAnLW9tYWUnLCAnPG91dGZpbGUubWFlPic=

> <r_epik_Ionization_Penalty>
0.41638

> <r_epik_Ionization_Penalty_Charging>
0.416357

> <r_epik_Ionization_Penalty_Neutral>
2.25049e-05

> <r_epik_State_Penalty>
0.41674

> <r_epik_Charging_Adjusted_Penalty>
0.833097

> <i_epik_Tot_Q>
1

> <i_epik_Tot_abs_Q>
1

> <r_epik_Metal_State_Penalty>
0.654825

> <b_epik_Metal_Only>
0

> <s_lp_Force_Field>
OPLS_2005

> <r_lp_Energy>
34.0796

> <b_lp_Chiralities_Consistent>
1

> <s_lp_Variant>
AV-unprocessed.smi:2814-2

> <Gold.Version>
5.8.1

> <Gold.Id.Protein>
6NUR|6NUR_protein|mol2

> <Gold.PLP.Fitness>
44.5186

> <Gold.PLP.PLP>
-31.5544

> <Gold.PLP.part.hbond>
-4.0000

> <Gold.PLP.part.metal>
0.0000

> <Gold.PLP.part.buried>
-2.5392

> <Gold.PLP.part.nonpolar>
-25.4398

> <Gold.PLP.part.repulsive>
0.3905

> <Gold.PLP.ligand.clash>
0.0000

> <Gold.PLP.ligand.torsion>
1.0080

> <Gold.PLP.Chemscore.Hbond>
4.9920

> <Gold.PLP.Chemscore.CHOScore>
0.0000

> <Gold.PLP.Chemscore.Metal>
0.0000

> <Gold.Chemscore.Hbonds>
donor molecule, donor type, donor heavy atom, donor atom, acceptor molecule, acceptor atom, score
      L1  H     5    23       P1  7948  1.00
      L1  H     8    24       P1  7948  1.00
      L1  H    11    27       P1  7948  1.00
      L1  H    18    38       P1  8028  2.00

> <Gold.PLP.Chemscore.Internal.Correction>
0.0042

> <Gold.Rescore>
     Score         DG    S(hbond)    S(metal)    S(lipo)     H(rot)  DE(clash)    DE(int)     intcor
     21.04     -22.67       3.77        0.00      77.40       1.74       0.16       1.47       ----

> <Gold.Chemscore.Fitness>
21.0394

> <Gold.Chemscore.DG>
-22.6731

> <Gold.Chemscore.ZeroCoef>
-5.4800

> <Gold.Chemscore.Hbond>
3.7685

> <Gold.Chemscore.Metal>
0.0000

> <Gold.Chemscore.Lipo>
77.4021

> <Gold.Chemscore.Internal_Hbond>
0.0000

> <Gold.Chemscore.DEClash>
0.1648

> <Gold.Chemscore.DEInternal>
1.4689

> <Gold.Chemscore.Rot>
1.7382

> <Gold.Chemscore.Internal.Correction>
   9.000000E+99

> <Gold.Chemscore.Hbonds>
donor molecule, donor type, donor heavy atom, donor atom, acceptor molecule, acceptor atom, score
      L1  H     5    23       P1  7948  0.92
      L1  H     8    24       P1  7948  1.00
      L1  H    11    27       P1  7948  0.81
      L1  H    18    38       P1  8028  1.00

> <Gold.Chemscore.Hbond.Weighted>
-12.5867

> <Gold.Chemscore.Metal.Weighted>
-0.0000

> <Gold.Chemscore.Lipo.Weighted>
-9.0560

> <Gold.Chemscore.Internal_Hbond.Weighted>
0.0000

> <Gold.Chemscore.DEClash.Weighted>
0.1648

> <Gold.Chemscore.DEInternal.Weighted>
1.4689

> <Gold.Chemscore.Rot.Weighted>
4.4497

> <Gold.Chemscore.Internal.Correction.Weighted>
   9.000000E+99

> <Gold.Protein.RotatedTorsions>
[ 6907 6896 6895 6894 ] final -133.73 input  -60.11 | X-H torsion
[ 7974 7965 7964 7962 ] final  -71.53 input  175.53 | X-H torsion
[ 8008 7997 7996 7995 ] final -123.91 input   59.86 | X-H torsion
[ 10167 10162 10161 10158 ] final   39.22 input  -65.29 | X-H torsion
[ 10718 10713 10712 10709 ] final  104.71 input   66.30 | X-H torsion
[ 10763 10752 10751 10750 ] final  125.52 input  -60.55 | X-H torsion
[ 11005 11000 10999 10996 ] final   53.02 input  -57.11 | X-H torsion

> <Gold.Protein.ActiveResidues>
 VAL166  LYS551  ARG553  GLY616  TRP617  ASP618  TYR619  PRO620  LYS621  CYS622 
 ASP623  PHE694  ASN695  SER759  ASP760  ASP761  ALA762  ILE779  LEU786  VAL792 
 PHE793  MET794  SER795  GLU796  ALA797  LYS798  CYS799  TRP800  GLU811  SER814 

> <Gold.Protein.RotatedAtoms>
  150.9775  133.6280  159.2727 H   0  0  0  0  0  0  0  0  0  0  0  0  # atno 6907 bound_to 6896
  151.3547  135.0890  159.9424 H   0  0  0  0  0  0  0  0  0  0  0  0  # atno 6908 bound_to 6896
  152.5204  133.9360  159.7658 H   0  0  0  0  0  0  0  0  0  0  0  0  # atno 6909 bound_to 6896
  145.6769  140.9201  143.0853 H   0  0  0  0  0  0  0  0  0  0  0  0  # atno 7974 bound_to 7965
  155.1883  140.0412  157.2895 H   0  0  0  0  0  0  0  0  0  0  0  0  # atno 8008 bound_to 7997
  154.6156  140.2488  155.7586 H   0  0  0  0  0  0  0  0  0  0  0  0  # atno 8009 bound_to 7997
  156.2404  140.2905  156.0439 H   0  0  0  0  0  0  0  0  0  0  0  0  # atno 8010 bound_to 7997
  140.3861  144.1915  150.6130 H   0  0  0  0  0  0  0  0  0  0  0  0  # atno 10167 bound_to 10162
  157.6731  131.0810  150.5747 H   0  0  0  0  0  0  0  0  0  0  0  0  # atno 10718 bound_to 10713
  153.6786  135.3318  155.3172 H   0  0  0  0  0  0  0  0  0  0  0  0  # atno 10763 bound_to 10752
  154.8472  135.4403  154.1630 H   0  0  0  0  0  0  0  0  0  0  0  0  # atno 10764 bound_to 10752
  153.2641  135.6994  153.7625 H   0  0  0  0  0  0  0  0  0  0  0  0  # atno 10765 bound_to 10752
  140.0801  134.5350  155.8955 H   0  0  0  0  0  0  0  0  0  0  0  0  # atno 11005 bound_to 11000
  144.7038  139.8645  143.7436 LP  0  0  0  0  0  0  0  0  0  0  0  0  # atno 17320 bound_to 7965
  146.0998  139.3992  143.0354 LP  0  0  0  0  0  0  0  0  0  0  0  0  # atno 17321 bound_to 7965
  140.4888  143.2354  151.8849 LP  0  0  0  0  0  0  0  0  0  0  0  0  # atno 17342 bound_to 10162
  139.4792  144.5189  151.8829 LP  0  0  0  0  0  0  0  0  0  0  0  0  # atno 17343 bound_to 10162
  156.6048  130.4364  149.5882 LP  0  0  0  0  0  0  0  0  0  0  0  0  # atno 17370 bound_to 10713
  156.2477  130.6889  151.1616 LP  0  0  0  0  0  0  0  0  0  0  0  0  # atno 17371 bound_to 10713
  141.2043  133.6638  156.6116 LP  0  0  0  0  0  0  0  0  0  0  0  0  # atno 17394 bound_to 11000
  140.3500  134.7776  157.4460 LP  0  0  0  0  0  0  0  0  0  0  0  0  # atno 17395 bound_to 11000

$$$$
