AV-unprocessed.smi:1674|AV-procd|sdf|6714|dock10
  -GOLD-   22720 7463D 1   1.00000     0.00000
 Structure written by MMmdl.
 47 48  0  0  0  0  0  0  0  0  1 V2000
  149.4679  134.7470  155.2559 C   0  0  0  0  0  0  0  0  0  0  0  0
  148.8820  135.9531  155.9385 C   0  0  0  0  0  0  0  0  0  0  0  0
  148.8971  137.0607  155.2731 N   0  0  0  0  0  0  0  0  0  0  0  0
  148.3699  138.2238  155.8000 N   0  0  0  0  0  0  0  0  0  0  0  0
  148.4107  139.3731  154.8845 C   0  0  0  0  0  0  0  0  0  0  0  0
  149.8497  139.8683  154.6076 C   0  0  1  0  0  0  0  0  0  0  0  0
  149.8182  140.7342  153.4916 O   0  0  0  0  0  0  0  0  0  0  0  0
  150.4953  140.5194  155.8245 C   0  0  0  0  0  0  0  0  0  0  0  0
  151.5520  139.8682  156.4958 C   0  0  0  0  0  0  0  0  0  0  0  0
  152.1300  140.4472  157.6415 C   0  0  0  0  0  0  0  0  0  0  0  0
  151.6587  141.6855  158.1247 C   0  0  0  0  0  0  0  0  0  0  0  0
  152.2809  142.3136  159.3601 C   0  0  0  0  0  0  0  0  0  0  0  0
  151.6282  143.6513  159.7653 C   0  0  0  0  0  0  0  0  0  0  0  0
  151.9632  144.7885  158.7852 C   0  0  0  0  0  0  0  0  0  0  0  0
  152.0171  144.0357  161.2005 C   0  0  0  0  0  0  0  0  0  0  0  0
  150.6027  142.3381  157.4559 C   0  0  0  0  0  0  0  0  0  0  0  0
  150.0231  141.7576  156.3116 C   0  0  0  0  0  0  0  0  0  0  0  0
  147.8195  138.3338  157.0422 C   0  0  0  0  0  0  0  0  0  0  0  0
  147.3645  139.3942  157.4731 O   0  0  0  0  0  0  0  0  0  0  0  0
  147.8127  137.0768  157.7941 C   0  0  0  0  0  0  0  0  0  0  0  0
  147.2377  137.1456  159.0988 C   0  0  0  0  0  0  0  0  0  0  0  0
  146.7849  137.2161  160.1620 N   0  0  0  0  0  0  0  0  0  0  0  0
  148.3135  135.9248  157.2820 C   0  0  0  0  0  0  0  0  0  0  0  0
  148.3247  134.5921  158.0179 C   0  0  0  0  0  0  0  0  0  0  0  0
  150.3026  134.3449  155.8301 H   0  0  0  0  0  0  0  0  0  0  0  0
  149.8391  134.9843  154.2576 H   0  0  0  0  0  0  0  0  0  0  0  0
  148.7192  133.9618  155.1498 H   0  0  0  0  0  0  0  0  0  0  0  0
  147.9099  139.1246  153.9470 H   0  0  0  0  0  0  0  0  0  0  0  0
  147.8269  140.1910  155.3123 H   0  0  0  0  0  0  0  0  0  0  0  0
  150.4635  139.0155  154.3152 H   0  0  0  0  0  0  0  0  0  0  0  0
  149.6331  140.2202  152.7203 H   0  0  0  0  0  0  0  0  0  0  0  0
  151.9164  138.9153  156.1405 H   0  0  0  0  0  0  0  0  0  0  0  0
  152.9374  139.9378  158.1468 H   0  0  0  0  0  0  0  0  0  0  0  0
  152.1930  141.5980  160.1788 H   0  0  0  0  0  0  0  0  0  0  0  0
  153.3505  142.4538  159.1974 H   0  0  0  0  0  0  0  0  0  0  0  0
  150.5461  143.5143  159.7546 H   0  0  0  0  0  0  0  0  0  0  0  0
  153.0393  144.9551  158.7256 H   0  0  0  0  0  0  0  0  0  0  0  0
  151.4986  145.7244  159.0970 H   0  0  0  0  0  0  0  0  0  0  0  0
  151.6033  144.5703  157.7796 H   0  0  0  0  0  0  0  0  0  0  0  0
  153.0933  144.1858  161.2927 H   0  0  0  0  0  0  0  0  0  0  0  0
  151.7276  143.2585  161.9085 H   0  0  0  0  0  0  0  0  0  0  0  0
  151.5246  144.9584  161.5086 H   0  0  0  0  0  0  0  0  0  0  0  0
  150.2331  143.2855  157.8204 H   0  0  0  0  0  0  0  0  0  0  0  0
  149.2082  142.2621  155.8135 H   0  0  0  0  0  0  0  0  0  0  0  0
  147.8886  134.6658  159.0135 H   0  0  0  0  0  0  0  0  0  0  0  0
  149.3458  134.2276  158.1342 H   0  0  0  0  0  0  0  0  0  0  0  0
  147.7536  133.8455  157.4649 H   0  0  0  0  0  0  0  0  0  0  0  0
  1  2  1  0  0  0  0
  1 25  1  0  0  0  0
  1 26  1  0  0  0  0
  1 27  1  0  0  0  0
  2 23  1  0  0  0  0
  2  3  2  0  0  0  0
  3  4  1  0  0  0  0
  4  5  1  0  0  0  0
  4 18  1  0  0  0  0
  5  6  1  0  0  0  0
  5 28  1  0  0  0  0
  5 29  1  0  0  0  0
  6  7  1  0  0  0  0
  6  8  1  0  0  0  0
  6 30  1  0  0  0  0
  7 31  1  0  0  0  0
  8 17  1  0  0  0  0
  8  9  2  0  0  0  0
  9 10  1  0  0  0  0
  9 32  1  0  0  0  0
 10 11  2  0  0  0  0
 10 33  1  0  0  0  0
 11 12  1  0  0  0  0
 11 16  1  0  0  0  0
 12 13  1  0  0  0  0
 12 34  1  0  0  0  0
 12 35  1  0  0  0  0
 13 14  1  0  0  0  0
 13 15  1  0  0  0  0
 13 36  1  0  0  0  0
 14 37  1  0  0  0  0
 14 38  1  0  0  0  0
 14 39  1  0  0  0  0
 15 40  1  0  0  0  0
 15 41  1  0  0  0  0
 15 42  1  0  0  0  0
 16 17  2  0  0  0  0
 16 43  1  0  0  0  0
 17 44  1  0  0  0  0
 18 19  2  0  0  0  0
 18 20  1  0  0  0  0
 20 21  1  0  0  0  0
 20 23  2  0  0  0  0
 21 22  3  0  0  0  0
 23 24  1  0  0  0  0
 24 45  1  0  0  0  0
 24 46  1  0  0  0  0
 24 47  1  0  0  0  0
M  END
> <s_m_source_file>
AV-unprocessed.smi

> <i_m_source_file_index>
1674

> <i_lp_mmshare_version>
43012

> <i_f3d_flags>
0

> <s_epik_input>
TiNDYyhjMVtDSDNdKWMoPU8pbihuYzFbQ0gzXSlbQ0gyXVtDQEhdKFtPSF0pYzJbY0hdW2NIXWMoW2NIXVtjSF0yKVtDSDJdW0NIXShbQ0gzXSlbQ0gzXQ==

> <s_epik_cmdline>
J2VwaWtfcHl0aG9uJywgJy1waCcsICc3LjAnLCAnLXRuJywgJzgnLCAnLW1hJywgJzIwMCcsICctbWV0YWxfYmluZGluZycsICctaW1hZScsICc8aW5maWxlLm1hZT4nLCAnLW9tYWUnLCAnPG91dGZpbGUubWFlPic=

> <r_lp_tautomer_probability>
1

> <r_epik_Ionization_Penalty>
4.60566e-08

> <r_epik_Ionization_Penalty_Charging>
1.40848e-10

> <r_epik_Ionization_Penalty_Neutral>
4.59158e-08

> <r_epik_State_Penalty>
-0

> <r_epik_Charging_Adjusted_Penalty>
1.40848e-10

> <i_epik_Tot_Q>
0

> <i_epik_Tot_abs_Q>
0

> <r_epik_Metal_State_Penalty>
-0

> <b_epik_Metal_Only>
0

> <s_lp_Force_Field>
OPLS_2005

> <r_lp_Energy>
26.1271

> <b_lp_Chiralities_Consistent>
1

> <s_lp_Variant>
AV-unprocessed.smi:1674-2

> <Gold.Version>
5.8.1

> <Gold.Id.Protein>
6NUR|6NUR_protein|mol2

> <Gold.PLP.Fitness>
46.8355

> <Gold.PLP.PLP>
-39.3525

> <Gold.PLP.part.hbond>
-3.3520

> <Gold.PLP.part.metal>
0.0000

> <Gold.PLP.part.buried>
-3.1161

> <Gold.PLP.part.nonpolar>
-31.7907

> <Gold.PLP.part.repulsive>
0.0998

> <Gold.PLP.ligand.clash>
0.0000

> <Gold.PLP.ligand.torsion>
0.3407

> <Gold.PLP.Chemscore.Hbond>
2.6944

> <Gold.PLP.Chemscore.CHOScore>
0.0000

> <Gold.PLP.Chemscore.Metal>
0.0000

> <Gold.Chemscore.Hbonds>
donor molecule, donor type, donor heavy atom, donor atom, acceptor molecule, acceptor atom, score
      L1  H     7    31       P1  7957  1.00
      P1  H  6934  6947       L1    22  1.00
      P1  H  7989  7998       L1     7  0.24
      P1  H  8011  8017       L1     7  0.45

> <Gold.PLP.Chemscore.Internal.Correction>
0.0812

> <Gold.Rescore>
     Score         DG    S(hbond)    S(metal)    S(lipo)     H(rot)  DE(clash)    DE(int)     intcor
     20.07     -20.68       2.22        0.00     113.18       2.13       0.15       0.45       ----

> <Gold.Chemscore.Fitness>
20.0739

> <Gold.Chemscore.DG>
-20.6823

> <Gold.Chemscore.ZeroCoef>
-5.4800

> <Gold.Chemscore.Hbond>
2.2195

> <Gold.Chemscore.Metal>
0.0000

> <Gold.Chemscore.Lipo>
113.1781

> <Gold.Chemscore.Internal_Hbond>
0.0000

> <Gold.Chemscore.DEClash>
0.1541

> <Gold.Chemscore.DEInternal>
0.4544

> <Gold.Chemscore.Rot>
2.1299

> <Gold.Chemscore.Internal.Correction>
   9.000000E+99

> <Gold.Chemscore.Hbonds>
donor molecule, donor type, donor heavy atom, donor atom, acceptor molecule, acceptor atom, score
      L1  H     7    31       P1  7957  0.92
      P1  H  6934  6947       L1    22  0.68
      P1  H  7989  7998       L1     7  0.01
      P1  H  8011  8017       L1     7  0.01

> <Gold.Chemscore.Hbond.Weighted>
-7.4131

> <Gold.Chemscore.Metal.Weighted>
-0.0000

> <Gold.Chemscore.Lipo.Weighted>
-13.2418

> <Gold.Chemscore.Internal_Hbond.Weighted>
0.0000

> <Gold.Chemscore.DEClash.Weighted>
0.1541

> <Gold.Chemscore.DEInternal.Weighted>
0.4544

> <Gold.Chemscore.Rot.Weighted>
5.4526

> <Gold.Chemscore.Internal.Correction.Weighted>
   9.000000E+99

> <Gold.Protein.RotatedTorsions>
[ 6907 6896 6895 6894 ] final -112.23 input  -60.11 | X-H torsion
[ 7974 7965 7964 7962 ] final  172.76 input  175.53 | X-H torsion
[ 8008 7997 7996 7995 ] final   -5.11 input   59.86 | X-H torsion
[ 10167 10162 10161 10158 ] final   66.40 input  -65.29 | X-H torsion
[ 10718 10713 10712 10709 ] final   70.51 input   66.30 | X-H torsion
[ 10763 10752 10751 10750 ] final   32.11 input  -60.55 | X-H torsion
[ 11005 11000 10999 10996 ] final  143.10 input  -57.11 | X-H torsion

> <Gold.Protein.ActiveResidues>
 VAL166  LYS551  ARG553  GLY616  TRP617  ASP618  TYR619  PRO620  LYS621  CYS622 
 ASP623  PHE694  ASN695  SER759  ASP760  ASP761  ALA762  ILE779  LEU786  VAL792 
 PHE793  MET794  SER795  GLU796  ALA797  LYS798  CYS799  TRP800  GLU811  SER814 

> <Gold.Protein.RotatedAtoms>
  150.7744  133.9120  159.3371 H   0  0  0  0  0  0  0  0  0  0  0  0  # atno 6907 bound_to 6896
  151.6998  135.0930  160.0258 H   0  0  0  0  0  0  0  0  0  0  0  0  # atno 6908 bound_to 6896
  152.3774  133.6462  159.6170 H   0  0  0  0  0  0  0  0  0  0  0  0  # atno 6909 bound_to 6896
  144.7260  139.9547  143.6433 H   0  0  0  0  0  0  0  0  0  0  0  0  # atno 7974 bound_to 7965
  154.6072  140.2466  155.7715 H   0  0  0  0  0  0  0  0  0  0  0  0  # atno 8008 bound_to 7997
  156.2348  140.2954  156.0235 H   0  0  0  0  0  0  0  0  0  0  0  0  # atno 8009 bound_to 7997
  155.2112  140.0397  157.2924 H   0  0  0  0  0  0  0  0  0  0  0  0  # atno 8010 bound_to 7997
  140.1008  144.4905  150.7039 H   0  0  0  0  0  0  0  0  0  0  0  0  # atno 10167 bound_to 10162
  157.6403  130.9481  150.0660 H   0  0  0  0  0  0  0  0  0  0  0  0  # atno 10718 bound_to 10713
  153.0280  135.6421  154.1304 H   0  0  0  0  0  0  0  0  0  0  0  0  # atno 10763 bound_to 10752
  154.1030  135.2858  155.3249 H   0  0  0  0  0  0  0  0  0  0  0  0  # atno 10764 bound_to 10752
  154.6385  135.5468  153.7825 H   0  0  0  0  0  0  0  0  0  0  0  0  # atno 10765 bound_to 10752
  140.0527  134.9247  157.1046 H   0  0  0  0  0  0  0  0  0  0  0  0  # atno 11005 bound_to 11000
  146.0684  139.3674  143.0538 LP  0  0  0  0  0  0  0  0  0  0  0  0  # atno 17320 bound_to 7965
  145.8001  140.9775  143.1003 LP  0  0  0  0  0  0  0  0  0  0  0  0  # atno 17321 bound_to 7965
  140.6979  143.2415  151.4949 LP  0  0  0  0  0  0  0  0  0  0  0  0  # atno 17342 bound_to 10162
  139.5672  144.2014  152.1783 LP  0  0  0  0  0  0  0  0  0  0  0  0  # atno 17343 bound_to 10162
  156.1678  130.3645  149.9207 LP  0  0  0  0  0  0  0  0  0  0  0  0  # atno 17370 bound_to 10713
  156.7190  130.8999  151.3616 LP  0  0  0  0  0  0  0  0  0  0  0  0  # atno 17371 bound_to 10713
  140.3892  134.2203  155.7167 LP  0  0  0  0  0  0  0  0  0  0  0  0  # atno 17394 bound_to 11000
  141.1938  133.8143  157.0784 LP  0  0  0  0  0  0  0  0  0  0  0  0  # atno 17395 bound_to 11000

$$$$
