#       Name:                AV-unprocessed.smi:178
#       Creating user name   scv26
#       Creation time:       Thu Mar 26 19:24:20 2020


#       File generated by GOLD software.
#

@<TRIPOS>MOLECULE
AV-unprocessed.smi:178
    61    63     1
SMALL
NO_CHARGES


@<TRIPOS>ATOM
      1 ****        -1.6410  -2.7409   0.6623 C.3            1 S1                 0.0000
      2 ****        -1.7097  -1.9304   1.8247 O.3            1 S1                 0.0000
      3 ****        -3.0286  -1.5548   2.2048 C.3            1 S1                 0.0000
      4 ****        -3.6366  -0.4514   1.3093 C.3            1 S1                 0.0000
      5 ****        -3.1076   0.8887   1.5687 N.3            1 S1                 0.0000
      6 ****        -3.8428   1.9761   0.9266 C.3            1 S1                 0.0000
      7 ****        -3.4076   3.3707   1.4043 C.3            1 S1                 0.0000
      8 ****        -4.2234   4.4424   0.8150 C.1            1 S1                 0.0000
      9 ****        -4.8657   5.2854   0.3510 N.1            1 S1                 0.0000
     10 ****        -1.7700   0.9836   1.3963 C.ar           1 S1                 0.0000
     11 ****        -1.0206   1.2457   2.4953 N.ar           1 S1                 0.0000
     12 ****         0.3097   1.3193   2.3924 C.ar           1 S1                 0.0000
     13 ****         1.0737   1.1643   1.3087 N.ar           1 S1                 0.0000
     14 ****         0.3197   0.9064   0.2014 C.ar           1 S1                 0.0000
     15 ****        -1.0985   0.8078   0.1536 C.ar           1 S1                 0.0000
     16 ****        -1.5132   0.5419  -1.1457 N.2            1 S1                 0.0000
     17 ****        -0.4015   0.4789  -1.8263 C.2            1 S1                 0.0000
     18 ****         0.7479   0.6748  -1.0939 N.pl3          1 S1                 0.0000
     19 ****         2.1147   0.6459  -1.5917 C.3            1 S1                 0.0000
     20 ****         2.7047  -0.7863  -1.6796 C.3            1 S1                 0.0000
     21 ****         1.9361  -1.5132  -2.6243 O.3            1 S1                 0.0000
     22 ****         2.6652  -1.5505  -0.3598 C.3            1 S1                 0.0000
     23 ****         3.8186  -2.5316  -0.5027 C.3            1 S1                 0.0000
     24 ****         4.8129  -1.7491  -1.1405 O.3            1 S1                 0.0000
     25 ****         4.1963  -0.8972  -2.1042 C.3            1 S1                 0.0000
     26 ****         5.0031   0.4103  -2.1386 C.3            1 S1                 0.0000
     27 ****        -0.6013  -3.0039   0.4681 H              1 S1                 0.0000
     28 ****        -2.0189  -2.2248  -0.2196 H              1 S1                 0.0000
     29 ****        -2.2014  -3.6672   0.7933 H              1 S1                 0.0000
     30 ****        -3.6703  -2.4371   2.1980 H              1 S1                 0.0000
     31 ****        -3.0034  -1.2100   3.2391 H              1 S1                 0.0000
     32 ****        -3.5493  -0.6994   0.2521 H              1 S1                 0.0000
     33 ****        -4.7072  -0.4152   1.5133 H              1 S1                 0.0000
     34 ****        -3.7384   1.9039  -0.1567 H              1 S1                 0.0000
     35 ****        -4.9043   1.8473   1.1406 H              1 S1                 0.0000
     36 ****        -3.4925   3.4466   2.4885 H              1 S1                 0.0000
     37 ****        -2.3686   3.5722   1.1427 H              1 S1                 0.0000
     38 ****         0.8383   1.5273   3.3109 H              1 S1                 0.0000
     39 ****        -0.3875   0.2769  -2.8876 H              1 S1                 0.0000
     40 ****         2.1313   1.1263  -2.5709 H              1 S1                 0.0000
     41 ****         2.7176   1.2697  -0.9317 H              1 S1                 0.0000
     42 ****         2.2882  -2.3881  -2.6855 H              1 S1                 0.0000
     43 ****         2.8801  -0.8767   0.4704 H              1 S1                 0.0000
     44 ****         1.7090  -2.0347  -0.1565 H              1 S1                 0.0000
     45 ****         4.1648  -2.9204   0.4551 H              1 S1                 0.0000
     46 ****         3.5450  -3.3732  -1.1410 H              1 S1                 0.0000
     47 ****         4.2810  -1.3783  -3.0804 H              1 S1                 0.0000
     48 ****         4.5954   1.1118  -2.8665 H              1 S1                 0.0000
     49 ****         6.0384   0.2152  -2.4194 H              1 S1                 0.0000
     50 ****         5.0168   0.8974  -1.1632 H              1 S1                 0.0000
     51 ****        -1.1839  -1.0968   1.6558 LP             1 S1                 0.0000
     52 ****        -1.2981  -2.4362   2.5829 LP             1 S1                 0.0000
     53 ****        -3.2716   1.0214   2.5462 LP             1 S1                 0.0000
     54 ****        -5.4208   6.0140  -0.0501 LP             1 S1                 0.0000
     55 ****        -1.4627   1.3837   3.3816 LP             1 S1                 0.0000
     56 ****         2.0716   1.2289   1.3086 LP             1 S1                 0.0000
     57 ****        -2.4478   0.4256  -1.4817 LP             1 S1                 0.0000
     58 ****         1.9869  -1.0656  -3.5171 LP             1 S1                 0.0000
     59 ****         0.9828  -1.5530  -2.3251 LP             1 S1                 0.0000
     60 ****         5.4690  -2.3501  -1.5971 LP             1 S1                 0.0000
     61 ****         5.2886  -1.1931  -0.4589 LP             1 S1                 0.0000
@<TRIPOS>BOND
    1    1    2 1     
    2    1   27 1     
    3    1   28 1     
    4    1   29 1     
    5    2    3 1     
    6    3    4 1     
    7    3   30 1     
    8    3   31 1     
    9    4    5 1     
   10    4   32 1     
   11    4   33 1     
   12    5    6 1     
   13    5   10 1     
   14    6    7 1     
   15    6   34 1     
   16    6   35 1     
   17    7    8 1     
   18    7   36 1     
   19    7   37 1     
   20    8    9 3     
   21   10   15 ar    
   22   10   11 ar    
   23   11   12 ar    
   24   12   13 ar    
   25   12   38 1     
   26   13   14 ar    
   27   14   18 1     
   28   14   15 ar    
   29   15   16 1     
   30   16   17 2     
   31   17   18 1     
   32   17   39 1     
   33   18   19 1     
   34   19   20 1     
   35   19   40 1     
   36   19   41 1     
   37   20   25 1     
   38   20   21 1     
   39   20   22 1     
   40   21   42 1     
   41   22   23 1     
   42   22   43 1     
   43   22   44 1     
   44   23   24 1     
   45   23   45 1     
   46   23   46 1     
   47   24   25 1     
   48   25   26 1     
   49   25   47 1     
   50   26   48 1     
   51   26   49 1     
   52   26   50 1     
   53    2   51 1     
   54    2   52 1     
   55    5   53 1     
   56    9   54 1     
   57   11   55 1     
   58   13   56 1     
   59   16   57 1     
   60   21   58 1     
   61   21   59 1     
   62   24   60 1     
   63   24   61 1     
@<TRIPOS>SUBSTRUCTURE
      1 S1             1
@<TRIPOS>SET
LONE_PAIRS      STATIC     ATOMS    <user>   **** ""
11 51 52 53 54 55 56 57 58 59 60 61
DONOR_HYDROGENS      STATIC     ATOMS    <user>   **** ""
1 42
ATOM$BLUE        STATIC     ATOMS    COLORGROUP SYSTEM
11 51 52 53 54 55 56 57 58 59 60 61
ATOM$RED        STATIC     ATOMS    COLORGROUP SYSTEM
1 42
