AV-unprocessed.smi:817|AV-procd|sdf|3828|dock1
  -GOLD-   22720 1273D 1   1.00000     0.00000
 Structure written by MMmdl.
 48 49  0  0  0  0  0  0  0  0  2 V2000
  151.5871  138.7539  154.7387 C   0  0  0  0  0  0  0  0  0  0  0  0
  150.1328  139.0002  155.1644 C   0  0  2  0  0  0  0  0  0  0  0  0
  149.6974  138.0103  156.2603 C   0  0  0  0  0  0  0  0  0  0  0  0
  148.2238  138.2023  156.6472 C   0  0  0  0  0  0  0  0  0  0  0  0
  147.3127  138.1369  155.4080 C   0  0  0  0  0  0  0  0  0  0  0  0
  147.6850  139.2000  154.3305 C   0  0  1  0  0  0  0  0  0  0  0  0
  146.7797  139.0173  153.0740 C   0  0  0  0  0  0  0  0  0  0  0  0
  146.7883  137.6506  152.5481 N   0  0  0  0  0  0  0  0  0  0  0  0
  145.7314  136.8486  152.3323 C   0  0  0  0  0  0  0  0  0  0  0  0
  144.5902  137.2203  152.5945 O   0  0  0  0  0  0  0  0  0  0  0  0
  146.0536  135.6367  151.8385 N   0  0  0  0  0  0  0  0  0  0  0  0
  145.1943  134.5599  151.4906 C   0  0  0  0  0  0  0  0  0  0  0  0
  145.6540  133.6332  150.5322 C   0  0  0  0  0  0  0  0  0  0  0  0
  144.8198  132.5641  150.1547 C   0  0  0  0  0  0  0  0  0  0  0  0
  143.5466  132.4671  150.7482 C   0  0  0  0  0  0  0  0  0  0  0  0
  143.0839  133.3530  151.6550 N   0  0  0  0  0  0  0  0  0  0  0  0
  143.8898  134.3756  152.0135 C   0  0  0  0  0  0  0  0  0  0  0  0
  147.5308  140.5946  154.8924 N   0  3  0  0  0  0  0  0  0  0  0  0
  146.1719  140.9549  155.3770 C   0  0  0  0  0  0  0  0  0  0  0  0
  148.0908  141.6953  154.0636 C   0  0  0  0  0  0  0  0  0  0  0  0
  149.1735  138.9206  153.9557 C   0  0  0  0  0  0  0  0  0  0  0  0
  151.7115  137.7609  154.3051 H   0  0  0  0  0  0  0  0  0  0  0  0
  152.2642  138.8320  155.5898 H   0  0  0  0  0  0  0  0  0  0  0  0
  151.9080  139.4838  153.9949 H   0  0  0  0  0  0  0  0  0  0  0  0
  150.0883  140.0068  155.5816 H   0  0  0  0  0  0  0  0  0  0  0  0
  149.8457  136.9878  155.9100 H   0  0  0  0  0  0  0  0  0  0  0  0
  150.3272  138.1264  157.1432 H   0  0  0  0  0  0  0  0  0  0  0  0
  147.9306  137.4309  157.3598 H   0  0  0  0  0  0  0  0  0  0  0  0
  148.0964  139.1552  157.1618 H   0  0  0  0  0  0  0  0  0  0  0  0
  147.4083  137.1354  154.9871 H   0  0  0  0  0  0  0  0  0  0  0  0
  146.2665  138.2066  155.7024 H   0  0  0  0  0  0  0  0  0  0  0  0
  145.7462  139.2730  153.3084 H   0  0  0  0  0  0  0  0  0  0  0  0
  147.1007  139.6836  152.2733 H   0  0  0  0  0  0  0  0  0  0  0  0
  147.6958  137.2671  152.3258 H   0  0  0  0  0  0  0  0  0  0  0  0
  147.0405  135.4460  151.7486 H   0  0  0  0  0  0  0  0  0  0  0  0
  146.6352  133.7353  150.0923 H   0  0  0  0  0  0  0  0  0  0  0  0
  145.1473  131.8355  149.4281 H   0  0  0  0  0  0  0  0  0  0  0  0
  142.8800  131.6597  150.4838 H   0  0  0  0  0  0  0  0  0  0  0  0
  143.4533  135.0621  152.7216 H   0  0  0  0  0  0  0  0  0  0  0  0
  145.4468  140.9938  154.5648 H   0  0  0  0  0  0  0  0  0  0  0  0
  146.1884  141.9421  155.8400 H   0  0  0  0  0  0  0  0  0  0  0  0
  145.8044  140.2744  156.1425 H   0  0  0  0  0  0  0  0  0  0  0  0
  147.5791  141.7861  153.1060 H   0  0  0  0  0  0  0  0  0  0  0  0
  149.1579  141.5805  153.8811 H   0  0  0  0  0  0  0  0  0  0  0  0
  147.9799  142.6496  154.5798 H   0  0  0  0  0  0  0  0  0  0  0  0
  149.5105  139.5786  153.1554 H   0  0  0  0  0  0  0  0  0  0  0  0
  149.2635  137.9184  153.5344 H   0  0  0  0  0  0  0  0  0  0  0  0
  148.1031  140.5906  155.7250 H   0  0  0  0  0  0  0  0  0  0  0  0
  1  2  1  0  0  0  0
  1 22  1  0  0  0  0
  1 23  1  0  0  0  0
  1 24  1  0  0  0  0
  2 21  1  0  0  0  0
  2  3  1  0  0  0  0
  2 25  1  0  0  0  0
  3  4  1  0  0  0  0
  3 26  1  0  0  0  0
  3 27  1  0  0  0  0
  4  5  1  0  0  0  0
  4 28  1  0  0  0  0
  4 29  1  0  0  0  0
  5  6  1  0  0  0  0
  5 30  1  0  0  0  0
  5 31  1  0  0  0  0
  6  7  1  0  0  0  0
  6 18  1  0  0  0  0
  6 21  1  0  0  0  0
  7  8  1  0  0  0  0
  7 32  1  0  0  0  0
  7 33  1  0  0  0  0
  8  9  1  0  0  0  0
  8 34  1  0  0  0  0
  9 10  2  0  0  0  0
  9 11  1  0  0  0  0
 11 12  1  0  0  0  0
 11 35  1  0  0  0  0
 12 17  1  0  0  0  0
 12 13  2  0  0  0  0
 13 14  1  0  0  0  0
 13 36  1  0  0  0  0
 14 15  2  0  0  0  0
 14 37  1  0  0  0  0
 15 16  1  0  0  0  0
 15 38  1  0  0  0  0
 16 17  2  0  0  0  0
 17 39  1  0  0  0  0
 18 19  1  0  0  0  0
 18 20  1  0  0  0  0
 18 48  1  0  0  0  0
 19 40  1  0  0  0  0
 19 41  1  0  0  0  0
 19 42  1  0  0  0  0
 20 43  1  0  0  0  0
 20 44  1  0  0  0  0
 20 45  1  0  0  0  0
 21 46  1  0  0  0  0
 21 47  1  0  0  0  0
M  CHG  1  18   1
M  END
> <s_m_source_file>
AV-unprocessed.smi

> <i_m_source_file_index>
817

> <i_lp_mmshare_version>
43012

> <i_f3d_flags>
0

> <s_epik_input>
W0NIM11bQ0BASF0oW0NIMl0xKVtDSDJdW0NIMl1bQ0gyXVtDQF0xKE4oW0NIM10pW0NIM10pW0NIMl1bTkhdQyg9TylbTkhdYzJbY0hdW2NIXVtjSF1uW2NIXTI=

> <s_epik_cmdline>
J2VwaWtfcHl0aG9uJywgJy1waCcsICc3LjAnLCAnLXRuJywgJzgnLCAnLW1hJywgJzIwMCcsICctbWV0YWxfYmluZGluZycsICctaW1hZScsICc8aW5maWxlLm1hZT4nLCAnLW9tYWUnLCAnPG91dGZpbGUubWFlPic=

> <r_lp_tautomer_probability>
1

> <r_epik_Ionization_Penalty>
0.00584939

> <r_epik_Ionization_Penalty_Charging>
0.00160539

> <r_epik_Ionization_Penalty_Neutral>
0.004244

> <r_epik_State_Penalty>
-0

> <r_epik_Charging_Adjusted_Penalty>
0.00160539

> <i_epik_Tot_Q>
1

> <i_epik_Tot_abs_Q>
1

> <r_epik_Metal_State_Penalty>
-0

> <b_epik_Metal_Only>
0

> <s_lp_Force_Field>
OPLS_2005

> <r_lp_Energy>
44.2375

> <b_lp_Chiralities_Consistent>
1

> <s_lp_Variant>
AV-unprocessed.smi:817-1

> <Gold.Version>
5.8.1

> <Gold.Id.Protein>
6NUR|6NUR_protein|mol2

> <Gold.PLP.Fitness>
38.4969

> <Gold.PLP.PLP>
-30.6046

> <Gold.PLP.part.hbond>
-2.0000

> <Gold.PLP.part.metal>
0.0000

> <Gold.PLP.part.buried>
-4.5995

> <Gold.PLP.part.nonpolar>
-25.0325

> <Gold.PLP.part.repulsive>
0.5647

> <Gold.PLP.ligand.clash>
0.0000

> <Gold.PLP.ligand.torsion>
0.2302

> <Gold.PLP.Chemscore.Hbond>
1.9357

> <Gold.PLP.Chemscore.CHOScore>
0.8067

> <Gold.PLP.Chemscore.Metal>
0.0000

> <Gold.Chemscore.Hbonds>
donor molecule, donor type, donor heavy atom, donor atom, acceptor molecule, acceptor atom, score
      L1  H     8    34       P1  7948  1.00
      L1  H    11    35       P1  7948  0.94
      L1  C    15    38       P1 10952  0.81

> <Gold.PLP.Chemscore.Internal.Correction>
0.1256

> <Gold.Rescore>
     Score         DG    S(hbond)    S(metal)    S(lipo)     H(rot)  DE(clash)    DE(int)     intcor
     15.95     -17.29       1.95        0.00      76.81       1.44       0.05       1.29       ----

> <Gold.Chemscore.Fitness>
15.9525

> <Gold.Chemscore.DG>
-17.2919

> <Gold.Chemscore.ZeroCoef>
-5.4800

> <Gold.Chemscore.Hbond>
1.9499

> <Gold.Chemscore.Metal>
0.0000

> <Gold.Chemscore.Lipo>
76.8124

> <Gold.Chemscore.Internal_Hbond>
0.0000

> <Gold.Chemscore.DEClash>
0.0477

> <Gold.Chemscore.DEInternal>
1.2917

> <Gold.Chemscore.Rot>
1.4405

> <Gold.Chemscore.Internal.Correction>
   9.000000E+99

> <Gold.Chemscore.Hbonds>
donor molecule, donor type, donor heavy atom, donor atom, acceptor molecule, acceptor atom, score
      L1  H     8    34       P1  7948  1.00
      L1  H    11    35       P1  7948  0.84

> <Gold.Chemscore.Hbond.Weighted>
-6.5126

> <Gold.Chemscore.Metal.Weighted>
-0.0000

> <Gold.Chemscore.Lipo.Weighted>
-8.9870

> <Gold.Chemscore.Internal_Hbond.Weighted>
0.0000

> <Gold.Chemscore.DEClash.Weighted>
0.0477

> <Gold.Chemscore.DEInternal.Weighted>
1.2917

> <Gold.Chemscore.Rot.Weighted>
3.6878

> <Gold.Chemscore.Internal.Correction.Weighted>
   9.000000E+99

> <Gold.Protein.RotatedTorsions>
[ 6907 6896 6895 6894 ] final  -86.16 input  -60.11 | X-H torsion
[ 7974 7965 7964 7962 ] final   -4.43 input  175.53 | X-H torsion
[ 8008 7997 7996 7995 ] final  131.28 input   59.86 | X-H torsion
[ 10167 10162 10161 10158 ] final -136.81 input  -65.29 | X-H torsion
[ 10718 10713 10712 10709 ] final  102.96 input   66.30 | X-H torsion
[ 10763 10752 10751 10750 ] final -132.41 input  -60.55 | X-H torsion
[ 11005 11000 10999 10996 ] final   24.19 input  -57.11 | X-H torsion

> <Gold.Protein.ActiveResidues>
 VAL166  LYS551  ARG553  GLY616  TRP617  ASP618  TYR619  PRO620  LYS621  CYS622 
 ASP623  PHE694  ASN695  SER759  ASP760  ASP761  ALA762  ILE779  LEU786  VAL792 
 PHE793  MET794  SER795  GLU796  ALA797  LYS798  CYS799  TRP800  GLU811  SER814 

> <Gold.Protein.RotatedAtoms>
  150.6867  134.3094  159.4739 H   0  0  0  0  0  0  0  0  0  0  0  0  # atno 6907 bound_to 6896
  152.0981  134.9358  160.0579 H   0  0  0  0  0  0  0  0  0  0  0  0  # atno 6908 bound_to 6896
  152.0647  133.4044  159.4470 H   0  0  0  0  0  0  0  0  0  0  0  0  # atno 6909 bound_to 6896
  146.2372  140.1871  142.8332 H   0  0  0  0  0  0  0  0  0  0  0  0  # atno 7974 bound_to 7965
  156.2967  140.2575  156.2900 H   0  0  0  0  0  0  0  0  0  0  0  0  # atno 8008 bound_to 7997
  154.9518  140.0394  157.2166 H   0  0  0  0  0  0  0  0  0  0  0  0  # atno 8009 bound_to 7997
  154.8028  140.2831  155.5913 H   0  0  0  0  0  0  0  0  0  0  0  0  # atno 8010 bound_to 7997
  139.8641  143.7040  152.2647 H   0  0  0  0  0  0  0  0  0  0  0  0  # atno 10167 bound_to 10162
  157.6787  131.0767  150.5484 H   0  0  0  0  0  0  0  0  0  0  0  0  # atno 10718 bound_to 10713
  154.8743  135.3799  154.4405 H   0  0  0  0  0  0  0  0  0  0  0  0  # atno 10763 bound_to 10752
  153.5090  135.7030  153.5796 H   0  0  0  0  0  0  0  0  0  0  0  0  # atno 10764 bound_to 10752
  153.4094  135.3928  155.2006 H   0  0  0  0  0  0  0  0  0  0  0  0  # atno 10765 bound_to 10752
  140.3614  134.2121  155.7672 H   0  0  0  0  0  0  0  0  0  0  0  0  # atno 11005 bound_to 11000
  144.9888  140.8528  143.5352 LP  0  0  0  0  0  0  0  0  0  0  0  0  # atno 17320 bound_to 7965
  145.1874  139.2319  143.5261 LP  0  0  0  0  0  0  0  0  0  0  0  0  # atno 17321 bound_to 7965
  139.7346  144.7574  151.0748 LP  0  0  0  0  0  0  0  0  0  0  0  0  # atno 17342 bound_to 10162
  140.7771  143.5046  150.9728 LP  0  0  0  0  0  0  0  0  0  0  0  0  # atno 17343 bound_to 10162
  156.5789  130.4299  149.5986 LP  0  0  0  0  0  0  0  0  0  0  0  0  # atno 17370 bound_to 10713
  156.2678  130.6999  151.1788 LP  0  0  0  0  0  0  0  0  0  0  0  0  # atno 17371 bound_to 10713
  141.1983  133.8039  157.0590 LP  0  0  0  0  0  0  0  0  0  0  0  0  # atno 17394 bound_to 11000
  140.0623  134.9748  157.1327 LP  0  0  0  0  0  0  0  0  0  0  0  0  # atno 17395 bound_to 11000

$$$$
