AV-unprocessed.smi:155|AV-procd|sdf|1278|dock9
  -GOLD-   2262018543D 1   1.00000     0.00000
 Structure written by MMmdl.
 63 66  0  0  0  0  0  0  0  0  2 V2000
  146.3204  133.2637  151.2501 C   0  0  0  0  0  0  0  0  0  0  0  0
  144.8736  133.0488  151.0135 N   0  3  0  0  0  0  0  0  0  0  0  0
  144.6439  132.0802  149.9185 C   0  0  0  0  0  0  0  0  0  0  0  0
  144.1196  134.3118  150.8128 C   0  0  0  0  0  0  0  0  0  0  0  0
  144.2058  135.2455  152.0387 C   0  0  0  0  0  0  0  0  0  0  0  0
  145.5648  135.7453  152.2503 N   0  0  0  0  0  0  0  0  0  0  0  0
  146.1772  136.2578  151.0152 C   0  0  0  0  0  0  0  0  0  0  0  0
  145.8798  137.7401  150.7049 C   0  0  0  0  0  0  0  0  0  0  0  0
  146.9061  138.6958  151.3435 C   0  0  0  0  0  0  0  0  0  0  0  0
  146.8269  138.7362  152.8047 N   0  0  0  0  0  0  0  0  0  0  0  0
  147.3710  139.8048  153.4412 C   0  0  0  0  0  0  0  0  0  0  0  0
  146.7199  140.9986  153.4322 N   0  0  0  0  0  0  0  0  0  0  0  0
  147.2522  142.0626  154.0405 C   0  0  0  0  0  0  0  0  0  0  0  0
  148.4031  142.1525  154.7093 N   0  0  0  0  0  0  0  0  0  0  0  0
  149.0555  140.9553  154.7344 C   0  0  0  0  0  0  0  0  0  0  0  0
  148.6145  139.7428  154.1322 C   0  0  0  0  0  0  0  0  0  0  0  0
  149.5370  138.7317  154.3756 N   0  0  0  0  0  0  0  0  0  0  0  0
  150.4749  139.3158  155.0700 C   0  0  0  0  0  0  0  0  0  0  0  0
  150.2595  140.6477  155.3445 N   0  0  0  0  0  0  0  0  0  0  0  0
  151.1418  141.5352  156.0833 C   0  0  0  0  0  0  0  0  0  0  0  0
  150.5128  142.1082  157.3738 C   0  0  1  0  0  0  0  0  0  0  0  0
  150.1299  140.9878  158.1448 O   0  0  0  0  0  0  0  0  0  0  0  0
  151.4615  142.9550  158.2521 C   0  0  1  0  0  0  0  0  0  0  0  0
  151.9186  144.2903  157.6578 C   0  0  0  0  0  0  0  0  0  0  0  0
  152.2135  145.1558  158.8726 C   0  0  0  0  0  0  0  0  0  0  0  0
  151.5526  144.4042  160.0283 C   0  0  0  0  0  0  0  0  0  0  0  0
  150.7602  143.4064  159.4023 O   0  0  0  0  0  0  0  0  0  0  0  0
  146.8726  137.4692  153.5336 C   0  0  0  0  0  0  0  0  0  0  0  0
  145.5525  136.7003  153.3627 C   0  0  0  0  0  0  0  0  0  0  0  0
  146.7946  133.7216  150.3809 H   0  0  0  0  0  0  0  0  0  0  0  0
  146.8204  132.3146  151.4464 H   0  0  0  0  0  0  0  0  0  0  0  0
  146.4982  133.9069  152.1111 H   0  0  0  0  0  0  0  0  0  0  0  0
  144.9953  132.4775  148.9652 H   0  0  0  0  0  0  0  0  0  0  0  0
  143.5829  131.8467  149.8226 H   0  0  0  0  0  0  0  0  0  0  0  0
  145.1690  131.1443  150.1134 H   0  0  0  0  0  0  0  0  0  0  0  0
  144.4922  134.8097  149.9157 H   0  0  0  0  0  0  0  0  0  0  0  0
  143.0724  134.0763  150.6218 H   0  0  0  0  0  0  0  0  0  0  0  0
  143.4963  136.0699  151.9553 H   0  0  0  0  0  0  0  0  0  0  0  0
  143.9175  134.6840  152.9270 H   0  0  0  0  0  0  0  0  0  0  0  0
  147.2566  136.1213  151.0862 H   0  0  0  0  0  0  0  0  0  0  0  0
  145.8786  135.6446  150.1668 H   0  0  0  0  0  0  0  0  0  0  0  0
  145.9437  137.8725  149.6245 H   0  0  0  0  0  0  0  0  0  0  0  0
  144.8589  138.0154  150.9719 H   0  0  0  0  0  0  0  0  0  0  0  0
  147.9168  138.4142  151.0450 H   0  0  0  0  0  0  0  0  0  0  0  0
  146.7303  139.6983  150.9506 H   0  0  0  0  0  0  0  0  0  0  0  0
  146.6733  142.9725  153.9818 H   0  0  0  0  0  0  0  0  0  0  0  0
  151.3535  138.7853  155.4074 H   0  0  0  0  0  0  0  0  0  0  0  0
  152.0337  140.9572  156.3302 H   0  0  0  0  0  0  0  0  0  0  0  0
  151.4719  142.3439  155.4302 H   0  0  0  0  0  0  0  0  0  0  0  0
  149.6143  142.6774  157.1328 H   0  0  0  0  0  0  0  0  0  0  0  0
  150.9123  140.5255  158.4050 H   0  0  0  0  0  0  0  0  0  0  0  0
  152.3326  142.3717  158.5586 H   0  0  0  0  0  0  0  0  0  0  0  0
  152.7862  144.1860  157.0069 H   0  0  0  0  0  0  0  0  0  0  0  0
  151.1123  144.7438  157.0802 H   0  0  0  0  0  0  0  0  0  0  0  0
  153.2860  145.2584  159.0425 H   0  0  0  0  0  0  0  0  0  0  0  0
  151.7944  146.1550  158.7483 H   0  0  0  0  0  0  0  0  0  0  0  0
  152.3054  143.9245  160.6558 H   0  0  0  0  0  0  0  0  0  0  0  0
  150.9444  145.0530  160.6591 H   0  0  0  0  0  0  0  0  0  0  0  0
  147.7272  136.8752  153.2076 H   0  0  0  0  0  0  0  0  0  0  0  0
  147.0347  137.6448  154.5967 H   0  0  0  0  0  0  0  0  0  0  0  0
  144.7221  137.4026  153.2690 H   0  0  0  0  0  0  0  0  0  0  0  0
  145.3622  136.1299  154.2727 H   0  0  0  0  0  0  0  0  0  0  0  0
  144.4987  132.6201  151.8477 H   0  0  0  0  0  0  0  0  0  0  0  0
  1  2  1  0  0  0  0
  1 30  1  0  0  0  0
  1 31  1  0  0  0  0
  1 32  1  0  0  0  0
  2  3  1  0  0  0  0
  2  4  1  0  0  0  0
  2 63  1  0  0  0  0
  3 33  1  0  0  0  0
  3 34  1  0  0  0  0
  3 35  1  0  0  0  0
  4  5  1  0  0  0  0
  4 36  1  0  0  0  0
  4 37  1  0  0  0  0
  5  6  1  0  0  0  0
  5 38  1  0  0  0  0
  5 39  1  0  0  0  0
  6 29  1  0  0  0  0
  6  7  1  0  0  0  0
  7  8  1  0  0  0  0
  7 40  1  0  0  0  0
  7 41  1  0  0  0  0
  8  9  1  0  0  0  0
  8 42  1  0  0  0  0
  8 43  1  0  0  0  0
  9 10  1  0  0  0  0
  9 44  1  0  0  0  0
  9 45  1  0  0  0  0
 10 11  1  0  0  0  0
 10 28  1  0  0  0  0
 11 16  1  0  0  0  0
 11 12  2  0  0  0  0
 12 13  1  0  0  0  0
 13 14  2  0  0  0  0
 13 46  1  0  0  0  0
 14 15  1  0  0  0  0
 15 19  1  0  0  0  0
 15 16  2  0  0  0  0
 16 17  1  0  0  0  0
 17 18  2  0  0  0  0
 18 19  1  0  0  0  0
 18 47  1  0  0  0  0
 19 20  1  0  0  0  0
 20 21  1  0  0  0  0
 20 48  1  0  0  0  0
 20 49  1  0  0  0  0
 21 22  1  0  0  0  0
 21 23  1  0  0  0  0
 21 50  1  0  0  0  0
 22 51  1  0  0  0  0
 23 27  1  0  0  0  0
 23 24  1  0  0  0  0
 23 52  1  0  0  0  0
 24 25  1  0  0  0  0
 24 53  1  0  0  0  0
 24 54  1  0  0  0  0
 25 26  1  0  0  0  0
 25 55  1  0  0  0  0
 25 56  1  0  0  0  0
 26 27  1  0  0  0  0
 26 57  1  0  0  0  0
 26 58  1  0  0  0  0
 28 29  1  0  0  0  0
 28 59  1  0  0  0  0
 28 60  1  0  0  0  0
 29 61  1  0  0  0  0
 29 62  1  0  0  0  0
M  CHG  1   2   1
M  END
> <s_m_source_file>
AV-unprocessed.smi

> <i_m_source_file_index>
155

> <i_lp_mmshare_version>
43012

> <i_f3d_flags>
0

> <s_epik_input>
W0NIM11OKFtDSDNdKVtDSDJdW0NIMl1OMVtDSDJdW0NIMl1bQ0gyXU4oW0NIMl1bQ0gyXTEpYyhuW2NIXW4yKWMoYzIzKW5bY0hdbjNbQ0gyXVtDQEhdKFtPSF0pW0NAQEhdNFtDSDJdW0NIMl1bQ0gyXU80

> <s_epik_cmdline>
J2VwaWtfcHl0aG9uJywgJy1waCcsICc3LjAnLCAnLXRuJywgJzgnLCAnLW1hJywgJzIwMCcsICctbWV0YWxfYmluZGluZycsICctaW1hZScsICc8aW5maWxlLm1hZT4nLCAnLW9tYWUnLCAnPG91dGZpbGUubWFlPic=

> <r_lp_tautomer_probability>
1

> <r_epik_Ionization_Penalty>
0.0599493

> <r_epik_Ionization_Penalty_Charging>
0.00816363

> <r_epik_Ionization_Penalty_Neutral>
0.0517857

> <r_epik_State_Penalty>
0.460607

> <r_epik_Charging_Adjusted_Penalty>
0.468771

> <i_epik_Tot_Q>
1

> <i_epik_Tot_abs_Q>
1

> <r_epik_Metal_State_Penalty>
0.45965

> <b_epik_Metal_Only>
0

> <s_lp_Force_Field>
OPLS_2005

> <r_lp_Energy>
60.0635

> <b_lp_Chiralities_Consistent>
1

> <s_lp_Variant>
AV-unprocessed.smi:155-12

> <Gold.Version>
5.8.1

> <Gold.Id.Protein>
6NUR|6NUR_protein|mol2

> <Gold.PLP.Fitness>
47.9576

> <Gold.PLP.PLP>
-49.9414

> <Gold.PLP.part.hbond>
-0.1790

> <Gold.PLP.part.metal>
0.0000

> <Gold.PLP.part.buried>
2.7011

> <Gold.PLP.part.nonpolar>
-55.6991

> <Gold.PLP.part.repulsive>
2.9809

> <Gold.PLP.ligand.clash>
0.0000

> <Gold.PLP.ligand.torsion>
1.1752

> <Gold.PLP.Chemscore.Hbond>
0.0000

> <Gold.PLP.Chemscore.CHOScore>
0.0000

> <Gold.PLP.Chemscore.Metal>
0.0000

> <Gold.PLP.Chemscore.Internal.Correction>
0.3667

> <Gold.Rescore>
     Score         DG    S(hbond)    S(metal)    S(lipo)     H(rot)  DE(clash)    DE(int)     intcor
      7.53     -13.91       0.00        0.00     131.32       2.71       3.85       2.53       ----

> <Gold.Chemscore.Fitness>
7.5281

> <Gold.Chemscore.DG>
-13.9120

> <Gold.Chemscore.ZeroCoef>
-5.4800

> <Gold.Chemscore.Hbond>
0.0000

> <Gold.Chemscore.Metal>
0.0000

> <Gold.Chemscore.Lipo>
131.3209

> <Gold.Chemscore.Internal_Hbond>
0.0000

> <Gold.Chemscore.DEClash>
3.8521

> <Gold.Chemscore.DEInternal>
2.5318

> <Gold.Chemscore.Rot>
2.7080

> <Gold.Chemscore.Internal.Correction>
   9.000000E+99

> <Gold.Chemscore.Hbond.Weighted>
-0.0000

> <Gold.Chemscore.Metal.Weighted>
-0.0000

> <Gold.Chemscore.Lipo.Weighted>
-15.3646

> <Gold.Chemscore.Internal_Hbond.Weighted>
0.0000

> <Gold.Chemscore.DEClash.Weighted>
3.8521

> <Gold.Chemscore.DEInternal.Weighted>
2.5318

> <Gold.Chemscore.Rot.Weighted>
6.9326

> <Gold.Chemscore.Internal.Correction.Weighted>
   9.000000E+99

> <Gold.Protein.RotatedTorsions>
[ 6907 6896 6895 6894 ] final -111.99 input  -60.11 | X-H torsion
[ 7974 7965 7964 7962 ] final -112.78 input  175.53 | X-H torsion
[ 8008 7997 7996 7995 ] final  130.18 input   59.86 | X-H torsion
[ 10167 10162 10161 10158 ] final    2.06 input  -65.29 | X-H torsion
[ 10718 10713 10712 10709 ] final  -86.72 input   66.30 | X-H torsion
[ 10763 10752 10751 10750 ] final  144.85 input  -60.55 | X-H torsion
[ 11005 11000 10999 10996 ] final   64.45 input  -57.11 | X-H torsion

> <Gold.Protein.ActiveResidues>
 VAL166  LYS551  ARG553  GLY616  TRP617  ASP618  TYR619  PRO620  LYS621  CYS622 
 ASP623  PHE694  ASN695  SER759  ASP760  ASP761  ALA762  ILE779  LEU786  VAL792 
 PHE793  MET794  SER795  GLU796  ALA797  LYS798  CYS799  TRP800  GLU811  SER814 

> <Gold.Protein.RotatedAtoms>
  150.7727  133.9155  159.3382 H   0  0  0  0  0  0  0  0  0  0  0  0  # atno 6907 bound_to 6896
  151.7037  135.0923  160.0265 H   0  0  0  0  0  0  0  0  0  0  0  0  # atno 6908 bound_to 6896
  152.3752  133.6433  159.6153 H   0  0  0  0  0  0  0  0  0  0  0  0  # atno 6909 bound_to 6896
  145.1399  140.8772  143.3708 H   0  0  0  0  0  0  0  0  0  0  0  0  # atno 7974 bound_to 7965
  156.2950  140.2602  156.2720 H   0  0  0  0  0  0  0  0  0  0  0  0  # atno 8008 bound_to 7997
  154.9686  140.0391  157.2242 H   0  0  0  0  0  0  0  0  0  0  0  0  # atno 8009 bound_to 7997
  154.7880  140.2807  155.6018 H   0  0  0  0  0  0  0  0  0  0  0  0  # atno 8010 bound_to 7997
  140.6653  143.7195  150.7815 H   0  0  0  0  0  0  0  0  0  0  0  0  # atno 10167 bound_to 10162
  155.9988  130.4775  150.4758 H   0  0  0  0  0  0  0  0  0  0  0  0  # atno 10718 bound_to 10713
  153.9957  135.2928  155.3407 H   0  0  0  0  0  0  0  0  0  0  0  0  # atno 10763 bound_to 10752
  154.7188  135.5118  153.8783 H   0  0  0  0  0  0  0  0  0  0  0  0  # atno 10764 bound_to 10752
  153.0789  135.6672  154.0205 H   0  0  0  0  0  0  0  0  0  0  0  0  # atno 10765 bound_to 10752
  139.9958  134.6519  156.0013 H   0  0  0  0  0  0  0  0  0  0  0  0  # atno 11005 bound_to 11000
  145.0544  139.3155  143.5912 LP  0  0  0  0  0  0  0  0  0  0  0  0  # atno 17320 bound_to 7965
  146.3506  139.9963  142.8680 LP  0  0  0  0  0  0  0  0  0  0  0  0  # atno 17321 bound_to 7965
  140.0872  143.4912  152.2498 LP  0  0  0  0  0  0  0  0  0  0  0  0  # atno 17342 bound_to 10162
  139.5900  144.7546  151.3425 LP  0  0  0  0  0  0  0  0  0  0  0  0  # atno 17343 bound_to 10162
  157.2768  131.0598  151.2224 LP  0  0  0  0  0  0  0  0  0  0  0  0  # atno 17370 bound_to 10713
  157.3284  130.6972  149.6310 LP  0  0  0  0  0  0  0  0  0  0  0  0  # atno 17371 bound_to 10713
  141.1603  133.6539  156.4297 LP  0  0  0  0  0  0  0  0  0  0  0  0  # atno 17394 bound_to 11000
  140.4821  134.6655  157.5175 LP  0  0  0  0  0  0  0  0  0  0  0  0  # atno 17395 bound_to 11000

$$$$
