AV-unprocessed.smi:86|AV-procd|sdf|816|dock3
  -GOLD-   2262017213D 1   1.00000     0.00000
 Structure written by MMmdl.
 51 55  0  0  0  0  0  0  0  0  1 V2000
  144.9389  139.5918  154.7021 O   0  0  0  0  0  0  0  0  0  0  0  0
  146.1853  139.1184  155.1714 C   0  0  0  0  0  0  0  0  0  0  0  0
  146.9337  138.3278  154.0834 C   0  0  0  0  0  0  0  0  0  0  0  0
  148.2689  137.7723  154.6227 C   0  0  0  0  0  0  0  0  0  0  0  0
  149.1350  138.7735  155.2273 N   0  0  0  0  0  0  0  0  0  0  0  0
  149.6082  139.9166  154.6256 C   0  0  0  0  0  0  0  0  0  0  0  0
  150.3742  140.6610  155.3738 N   0  0  0  0  0  0  0  0  0  0  0  0
  150.4259  139.9928  156.5928 C   0  0  0  0  0  0  0  0  0  0  0  0
  151.0660  140.2377  157.8455 C   0  0  0  0  0  0  0  0  0  0  0  0
  151.8576  141.3085  158.1158 N   0  0  0  0  0  0  0  0  0  0  0  0
  152.9448  141.2479  159.0900 C   0  0  0  0  0  0  0  0  0  0  0  0
  153.1304  142.6869  159.5956 C   0  0  2  0  0  0  0  0  0  0  0  0
  152.3352  142.9267  160.8983 C   0  0  0  0  0  0  0  0  0  0  0  0
  152.1796  144.4192  161.2173 C   0  0  0  0  0  0  0  0  0  0  0  0
  151.4809  145.1435  160.0568 C   0  0  1  0  0  0  0  0  0  0  0  0
  151.3466  146.5137  160.3694 O   0  0  0  0  0  0  0  0  0  0  0  0
  152.2849  144.9924  158.7549 C   0  0  0  0  0  0  0  0  0  0  0  0
  152.6047  143.5231  158.4165 C   0  0  2  0  0  0  0  0  0  0  0  0
  151.4419  142.6831  157.8849 C   0  0  0  0  0  0  0  0  0  0  0  0
  150.8738  139.3192  158.8288 N   0  0  0  0  0  0  0  0  0  0  0  0
  150.1078  138.2459  158.6183 C   0  0  0  0  0  0  0  0  0  0  0  0
  149.4515  137.8955  157.5124 N   0  0  0  0  0  0  0  0  0  0  0  0
  149.6437  138.8032  156.5143 C   0  0  0  0  0  0  0  0  0  0  0  0
  146.0664  137.3305  153.3026 C   0  0  0  0  0  0  0  0  0  0  0  0
  145.9185  138.2414  152.1935 O   0  0  0  0  0  0  0  0  0  0  0  0
  147.0002  139.0363  152.7226 C   0  0  0  0  0  0  0  0  0  0  0  0
  145.0501  139.8999  153.8154 H   0  0  0  0  0  0  0  0  0  0  0  0
  146.7711  139.9825  155.4868 H   0  0  0  0  0  0  0  0  0  0  0  0
  146.0279  138.5205  156.0693 H   0  0  0  0  0  0  0  0  0  0  0  0
  148.0824  136.9938  155.3634 H   0  0  0  0  0  0  0  0  0  0  0  0
  148.8311  137.2839  153.8259 H   0  0  0  0  0  0  0  0  0  0  0  0
  149.3723  140.1788  153.6045 H   0  0  0  0  0  0  0  0  0  0  0  0
  152.7363  140.5611  159.9115 H   0  0  0  0  0  0  0  0  0  0  0  0
  153.8450  140.9004  158.5822 H   0  0  0  0  0  0  0  0  0  0  0  0
  154.1833  142.9042  159.7792 H   0  0  0  0  0  0  0  0  0  0  0  0
  151.3424  142.4820  160.8162 H   0  0  0  0  0  0  0  0  0  0  0  0
  152.8259  142.4184  161.7288 H   0  0  0  0  0  0  0  0  0  0  0  0
  151.6029  144.5394  162.1352 H   0  0  0  0  0  0  0  0  0  0  0  0
  153.1599  144.8605  161.4034 H   0  0  0  0  0  0  0  0  0  0  0  0
  150.4793  144.7344  159.9211 H   0  0  0  0  0  0  0  0  0  0  0  0
  152.1609  146.8187  160.7393 H   0  0  0  0  0  0  0  0  0  0  0  0
  151.7552  145.4596  157.9239 H   0  0  0  0  0  0  0  0  0  0  0  0
  153.2271  145.5331  158.8567 H   0  0  0  0  0  0  0  0  0  0  0  0
  153.3733  143.5232  157.6417 H   0  0  0  0  0  0  0  0  0  0  0  0
  151.2660  142.8787  156.8269 H   0  0  0  0  0  0  0  0  0  0  0  0
  150.5217  142.8827  158.4347 H   0  0  0  0  0  0  0  0  0  0  0  0
  150.0075  137.5711  159.4556 H   0  0  0  0  0  0  0  0  0  0  0  0
  146.5921  136.4196  153.0112 H   0  0  0  0  0  0  0  0  0  0  0  0
  145.1159  137.0939  153.7822 H   0  0  0  0  0  0  0  0  0  0  0  0
  146.7627  140.0999  152.7624 H   0  0  0  0  0  0  0  0  0  0  0  0
  147.9256  138.8645  152.1716 H   0  0  0  0  0  0  0  0  0  0  0  0
  1  2  1  0  0  0  0
  1 27  1  0  0  0  0
  2  3  1  0  0  0  0
  2 28  1  0  0  0  0
  2 29  1  0  0  0  0
  3 26  1  0  0  0  0
  3  4  1  0  0  0  0
  3 24  1  0  0  0  0
  4  5  1  0  0  0  0
  4 30  1  0  0  0  0
  4 31  1  0  0  0  0
  5 23  1  0  0  0  0
  5  6  1  0  0  0  0
  6  7  2  0  0  0  0
  6 32  1  0  0  0  0
  7  8  1  0  0  0  0
  8 23  2  0  0  0  0
  8  9  1  0  0  0  0
  9 10  1  0  0  0  0
  9 20  2  0  0  0  0
 10 19  1  0  0  0  0
 10 11  1  0  0  0  0
 11 12  1  0  0  0  0
 11 33  1  0  0  0  0
 11 34  1  0  0  0  0
 12 18  1  0  0  0  0
 12 13  1  0  0  0  0
 12 35  1  0  0  0  0
 13 14  1  0  0  0  0
 13 36  1  0  0  0  0
 13 37  1  0  0  0  0
 14 15  1  0  0  0  0
 14 38  1  0  0  0  0
 14 39  1  0  0  0  0
 15 16  1  0  0  0  0
 15 17  1  0  0  0  0
 15 40  1  0  0  0  0
 16 41  1  0  0  0  0
 17 18  1  0  0  0  0
 17 42  1  0  0  0  0
 17 43  1  0  0  0  0
 18 19  1  0  0  0  0
 18 44  1  0  0  0  0
 19 45  1  0  0  0  0
 19 46  1  0  0  0  0
 20 21  1  0  0  0  0
 21 22  2  0  0  0  0
 21 47  1  0  0  0  0
 22 23  1  0  0  0  0
 24 25  1  0  0  0  0
 24 48  1  0  0  0  0
 24 49  1  0  0  0  0
 25 26  1  0  0  0  0
 26 50  1  0  0  0  0
 26 51  1  0  0  0  0
M  END
> <s_m_source_file>
AV-unprocessed.smi

> <i_m_source_file_index>
86

> <i_lp_mmshare_version>
43012

> <i_f3d_flags>
0

> <s_epik_input>
W0NIMl0xT1tDSDJdQzEoW0NIMl1bT0hdKVtDSDJdbihbY0hdbjIpYyhjMjMpbltjSF1uYzNOKFtDSDJdNClbQ0gyXVtDQEBIXShbQ0BIXTQ1KVtDSDJdW0NASF0oW09IXSlbQ0gyXVtDSDJdNQ==

> <s_epik_cmdline>
J2VwaWtfcHl0aG9uJywgJy1waCcsICc3LjAnLCAnLXRuJywgJzgnLCAnLW1hJywgJzIwMCcsICctbWV0YWxfYmluZGluZycsICctaW1hZScsICc8aW5maWxlLm1hZT4nLCAnLW9tYWUnLCAnPG91dGZpbGUubWFlPic=

> <r_lp_tautomer_probability>
1

> <r_epik_Ionization_Penalty>
0.00425795

> <r_epik_Ionization_Penalty_Charging>
0

> <r_epik_Ionization_Penalty_Neutral>
0.00425795

> <r_epik_State_Penalty>
0.00299946

> <r_epik_Charging_Adjusted_Penalty>
0.00299946

> <i_epik_Tot_Q>
0

> <i_epik_Tot_abs_Q>
0

> <r_epik_Metal_State_Penalty>
-0

> <b_epik_Metal_Only>
0

> <s_lp_Force_Field>
OPLS_2005

> <r_lp_Energy>
53.5956

> <b_lp_Chiralities_Consistent>
1

> <s_lp_Variant>
AV-unprocessed.smi:86-5

> <Gold.Version>
5.8.1

> <Gold.Id.Protein>
6NUR|6NUR_protein|mol2

> <Gold.PLP.Fitness>
49.6267

> <Gold.PLP.PLP>
-45.6976

> <Gold.PLP.part.hbond>
-4.9362

> <Gold.PLP.part.metal>
0.0000

> <Gold.PLP.part.buried>
-5.7163

> <Gold.PLP.part.nonpolar>
-36.4252

> <Gold.PLP.part.repulsive>
0.3757

> <Gold.PLP.ligand.clash>
0.0000

> <Gold.PLP.ligand.torsion>
0.8473

> <Gold.PLP.Chemscore.Hbond>
0.7186

> <Gold.PLP.Chemscore.CHOScore>
1.0000

> <Gold.PLP.Chemscore.Metal>
0.0000

> <Gold.Chemscore.Hbonds>
donor molecule, donor type, donor heavy atom, donor atom, acceptor molecule, acceptor atom, score
      L1  H     1    27       P1 10175  0.59
      P1  H  7989  7998       L1     7  0.09
      L1  C     6    32       P1  7957  1.00

> <Gold.PLP.Chemscore.Internal.Correction>
0.4677

> <Gold.Rescore>
     Score         DG    S(hbond)    S(metal)    S(lipo)     H(rot)  DE(clash)    DE(int)     intcor
      9.92     -14.44       0.78        0.00     114.71       2.76       2.65       1.88       ----

> <Gold.Chemscore.Fitness>
9.9175

> <Gold.Chemscore.DG>
-14.4450

> <Gold.Chemscore.ZeroCoef>
-5.4800

> <Gold.Chemscore.Hbond>
0.7837

> <Gold.Chemscore.Metal>
0.0000

> <Gold.Chemscore.Lipo>
114.7076

> <Gold.Chemscore.Internal_Hbond>
0.0000

> <Gold.Chemscore.DEClash>
2.6452

> <Gold.Chemscore.DEInternal>
1.8823

> <Gold.Chemscore.Rot>
2.7630

> <Gold.Chemscore.Internal.Correction>
   9.000000E+99

> <Gold.Chemscore.Hbonds>
donor molecule, donor type, donor heavy atom, donor atom, acceptor molecule, acceptor atom, score
      L1  H     1    27       P1 10175  0.58

> <Gold.Chemscore.Hbond.Weighted>
-2.6176

> <Gold.Chemscore.Metal.Weighted>
-0.0000

> <Gold.Chemscore.Lipo.Weighted>
-13.4208

> <Gold.Chemscore.Internal_Hbond.Weighted>
0.0000

> <Gold.Chemscore.DEClash.Weighted>
2.6452

> <Gold.Chemscore.DEInternal.Weighted>
1.8823

> <Gold.Chemscore.Rot.Weighted>
7.0734

> <Gold.Chemscore.Internal.Correction.Weighted>
   9.000000E+99

> <Gold.Protein.RotatedTorsions>
[ 6907 6896 6895 6894 ] final  -75.24 input  -60.11 | X-H torsion
[ 7974 7965 7964 7962 ] final   30.66 input  175.53 | X-H torsion
[ 8008 7997 7996 7995 ] final   -5.14 input   59.86 | X-H torsion
[ 10167 10162 10161 10158 ] final   17.57 input  -65.29 | X-H torsion
[ 10718 10713 10712 10709 ] final -140.48 input   66.30 | X-H torsion
[ 10763 10752 10751 10750 ] final -149.15 input  -60.55 | X-H torsion
[ 11005 11000 10999 10996 ] final   48.82 input  -57.11 | X-H torsion

> <Gold.Protein.ActiveResidues>
 VAL166  LYS551  ARG553  GLY616  TRP617  ASP618  TYR619  PRO620  LYS621  CYS622 
 ASP623  PHE694  ASN695  SER759  ASP760  ASP761  ALA762  ILE779  LEU786  VAL792 
 PHE793  MET794  SER795  GLU796  ALA797  LYS798  CYS799  TRP800  GLU811  SER814 

> <Gold.Protein.RotatedAtoms>
  150.7065  134.4750  159.5443 H   0  0  0  0  0  0  0  0  0  0  0  0  # atno 6907 bound_to 6896
  152.2399  134.8236  160.0471 H   0  0  0  0  0  0  0  0  0  0  0  0  # atno 6908 bound_to 6896
  151.9021  133.3505  159.3871 H   0  0  0  0  0  0  0  0  0  0  0  0  # atno 6909 bound_to 6896
  146.1598  139.6759  142.9041 H   0  0  0  0  0  0  0  0  0  0  0  0  # atno 7974 bound_to 7965
  154.6070  140.2466  155.7718 H   0  0  0  0  0  0  0  0  0  0  0  0  # atno 8008 bound_to 7997
  156.2347  140.2954  156.0231 H   0  0  0  0  0  0  0  0  0  0  0  0  # atno 8009 bound_to 7997
  155.2116  140.0397  157.2924 H   0  0  0  0  0  0  0  0  0  0  0  0  # atno 8010 bound_to 7997
  140.5716  143.9150  150.6718 H   0  0  0  0  0  0  0  0  0  0  0  0  # atno 10167 bound_to 10162
  156.3228  130.7544  151.1645 H   0  0  0  0  0  0  0  0  0  0  0  0  # atno 10718 bound_to 10713
  154.8193  135.3316  154.7085 H   0  0  0  0  0  0  0  0  0  0  0  0  # atno 10763 bound_to 10752
  153.7720  135.6925  153.4909 H   0  0  0  0  0  0  0  0  0  0  0  0  # atno 10764 bound_to 10752
  153.2038  135.4506  155.0247 H   0  0  0  0  0  0  0  0  0  0  0  0  # atno 10765 bound_to 10752
  140.1157  134.4896  155.8640 H   0  0  0  0  0  0  0  0  0  0  0  0  # atno 11005 bound_to 11000
  145.4616  141.0433  143.2748 LP  0  0  0  0  0  0  0  0  0  0  0  0  # atno 17320 bound_to 7965
  144.8012  139.6137  143.7071 LP  0  0  0  0  0  0  0  0  0  0  0  0  # atno 17321 bound_to 7965
  140.2626  143.3513  152.1309 LP  0  0  0  0  0  0  0  0  0  0  0  0  # atno 17342 bound_to 10162
  139.5121  144.6911  151.5758 LP  0  0  0  0  0  0  0  0  0  0  0  0  # atno 17343 bound_to 10162
  157.7415  131.0503  150.5090 LP  0  0  0  0  0  0  0  0  0  0  0  0  # atno 17370 bound_to 10713
  156.5245  130.4170  149.6233 LP  0  0  0  0  0  0  0  0  0  0  0  0  # atno 17371 bound_to 10713
  141.2140  133.6742  156.6791 LP  0  0  0  0  0  0  0  0  0  0  0  0  # atno 17394 bound_to 11000
  140.3032  134.8147  157.4115 LP  0  0  0  0  0  0  0  0  0  0  0  0  # atno 17395 bound_to 11000

$$$$
