AV-unprocessed.smi:3303|AV-procd|sdf|12671|dock1
  -GOLD-   2272019 03D 1   1.00000     0.00000
 Structure written by MMmdl.
 45 46  0  0  0  0  0  0  0  0  3 V2000
  146.2239  142.6015  153.9015 C   0  0  0  0  0  0  0  0  0  0  0  0
  147.5101  141.7485  153.8917 C   0  0  2  0  0  0  0  0  0  0  0  0
  147.4842  140.7114  152.7520 C   0  0  0  0  0  0  0  0  0  0  0  0
  146.4953  139.6276  153.0001 N   0  3  1  0  0  0  0  0  0  0  0  0
  146.3922  138.7300  151.8237 C   0  0  0  0  0  0  0  0  0  0  0  0
  146.7482  138.9135  154.2890 C   0  0  2  0  0  0  0  0  0  0  0  0
  145.6944  137.8272  154.5804 C   0  0  0  0  0  0  0  0  0  0  0  0
  146.7997  139.9089  155.4698 C   0  0  0  0  0  0  0  0  0  0  0  0
  147.8184  141.0388  155.2275 C   0  0  2  0  0  0  0  0  0  0  0  0
  147.8726  142.0065  156.3489 N   0  3  0  0  0  0  0  0  0  0  0  0
  148.9345  141.7624  157.3479 C   0  0  0  0  0  0  0  0  0  0  0  0
  150.2824  142.3125  156.8610 C   0  0  0  0  0  0  0  0  0  0  0  0
  151.0909  142.9338  157.9842 C   0  0  0  0  0  0  0  0  0  0  0  0
  151.4063  144.3096  157.9722 C   0  0  0  0  0  0  0  0  0  0  0  0
  152.1565  144.8346  159.0424 C   0  0  0  0  0  0  0  0  0  0  0  0
  152.5626  143.9681  160.0755 C   0  0  0  0  0  0  0  0  0  0  0  0
  152.1981  142.6093  159.9932 C   0  0  0  0  0  0  0  0  0  0  0  0
  151.4781  142.0957  158.9719 N   0  0  0  0  0  0  0  0  0  0  0  0
  145.3327  142.0008  154.0821 H   0  0  0  0  0  0  0  0  0  0  0  0
  146.0864  143.1038  152.9433 H   0  0  0  0  0  0  0  0  0  0  0  0
  146.2607  143.3789  154.6647 H   0  0  0  0  0  0  0  0  0  0  0  0
  148.3346  142.4329  153.6859 H   0  0  0  0  0  0  0  0  0  0  0  0
  147.2554  141.2124  151.8101 H   0  0  0  0  0  0  0  0  0  0  0  0
  148.4744  140.2684  152.6319 H   0  0  0  0  0  0  0  0  0  0  0  0
  147.2923  138.1237  151.7134 H   0  0  0  0  0  0  0  0  0  0  0  0
  146.2591  139.3067  150.9075 H   0  0  0  0  0  0  0  0  0  0  0  0
  145.5323  138.0652  151.8983 H   0  0  0  0  0  0  0  0  0  0  0  0
  147.7216  138.4255  154.2137 H   0  0  0  0  0  0  0  0  0  0  0  0
  145.8465  137.3928  155.5689 H   0  0  0  0  0  0  0  0  0  0  0  0
  145.7472  137.0021  153.8705 H   0  0  0  0  0  0  0  0  0  0  0  0
  144.6833  138.2348  154.5527 H   0  0  0  0  0  0  0  0  0  0  0  0
  145.8086  140.3292  155.6455 H   0  0  0  0  0  0  0  0  0  0  0  0
  147.0586  139.3625  156.3768 H   0  0  0  0  0  0  0  0  0  0  0  0
  148.8105  140.5924  155.1372 H   0  0  0  0  0  0  0  0  0  0  0  0
  148.0398  142.9220  155.9558 H   0  0  0  0  0  0  0  0  0  0  0  0
  148.6675  142.2339  158.2935 H   0  0  0  0  0  0  0  0  0  0  0  0
  149.0180  140.6906  157.5323 H   0  0  0  0  0  0  0  0  0  0  0  0
  150.8654  141.5154  156.3977 H   0  0  0  0  0  0  0  0  0  0  0  0
  150.1224  143.0652  156.0875 H   0  0  0  0  0  0  0  0  0  0  0  0
  151.0812  144.9510  157.1663 H   0  0  0  0  0  0  0  0  0  0  0  0
  152.4154  145.8829  159.0703 H   0  0  0  0  0  0  0  0  0  0  0  0
  153.1391  144.3361  160.9114 H   0  0  0  0  0  0  0  0  0  0  0  0
  152.4925  141.9170  160.7680 H   0  0  0  0  0  0  0  0  0  0  0  0
  146.9762  142.0203  156.8148 H   0  0  0  0  0  0  0  0  0  0  0  0
  145.5956  140.0784  153.0895 H   0  0  0  0  0  0  0  0  0  0  0  0
  1  2  1  0  0  0  0
  1 19  1  0  0  0  0
  1 20  1  0  0  0  0
  1 21  1  0  0  0  0
  2  9  1  0  0  0  0
  2  3  1  0  0  0  0
  2 22  1  0  0  0  0
  3  4  1  0  0  0  0
  3 23  1  0  0  0  0
  3 24  1  0  0  0  0
  4  5  1  0  0  0  0
  4  6  1  0  0  0  0
  4 45  1  0  0  0  0
  5 25  1  0  0  0  0
  5 26  1  0  0  0  0
  5 27  1  0  0  0  0
  6  7  1  0  0  0  0
  6  8  1  0  0  0  0
  6 28  1  0  0  0  0
  7 29  1  0  0  0  0
  7 30  1  0  0  0  0
  7 31  1  0  0  0  0
  8  9  1  0  0  0  0
  8 32  1  0  0  0  0
  8 33  1  0  0  0  0
  9 10  1  0  0  0  0
  9 34  1  0  0  0  0
 10 11  1  0  0  0  0
 10 35  1  0  0  0  0
 10 44  1  0  0  0  0
 11 12  1  0  0  0  0
 11 36  1  0  0  0  0
 11 37  1  0  0  0  0
 12 13  1  0  0  0  0
 12 38  1  0  0  0  0
 12 39  1  0  0  0  0
 13 18  1  0  0  0  0
 13 14  2  0  0  0  0
 14 15  1  0  0  0  0
 14 40  1  0  0  0  0
 15 16  2  0  0  0  0
 15 41  1  0  0  0  0
 16 17  1  0  0  0  0
 16 42  1  0  0  0  0
 17 18  2  0  0  0  0
 17 43  1  0  0  0  0
M  CHG  1   4   1
M  CHG  1  10   1
M  END
> <s_m_source_file>
AV-unprocessed.smi

> <i_m_source_file_index>
3303

> <i_lp_mmshare_version>
43012

> <i_f3d_flags>
0

> <s_epik_input>
W0NIM11bQ0BASF0xW0NIMl1OKFtDSDNdKVtDQEBIXShbQ0gzXSlbQ0gyXVtDQEhdMVtOSF1bQ0gyXVtDSDJdYzJbY0hdW2NIXVtjSF1bY0hdbjI=

> <s_epik_cmdline>
J2VwaWtfcHl0aG9uJywgJy1waCcsICc3LjAnLCAnLXRuJywgJzgnLCAnLW1hJywgJzIwMCcsICctbWV0YWxfYmluZGluZycsICctaW1hZScsICc8aW5maWxlLm1hZT4nLCAnLW9tYWUnLCAnPG91dGZpbGUubWFlPic=

> <r_epik_Ionization_Penalty>
0.0769462

> <r_epik_Ionization_Penalty_Charging>
0.0759813

> <r_epik_Ionization_Penalty_Neutral>
0.000964829

> <r_epik_State_Penalty>
0.0654373

> <r_epik_Charging_Adjusted_Penalty>
0.141419

> <i_epik_Tot_Q>
2

> <i_epik_Tot_abs_Q>
2

> <r_epik_Metal_State_Penalty>
0.0656439

> <b_epik_Metal_Only>
0

> <s_lp_Force_Field>
OPLS_2005

> <r_lp_Energy>
31.1482

> <b_lp_Chiralities_Consistent>
1

> <s_lp_Variant>
AV-unprocessed.smi:3303-15

> <Gold.Version>
5.8.1

> <Gold.Id.Protein>
6NUR|6NUR_protein|mol2

> <Gold.PLP.Fitness>
46.6584

> <Gold.PLP.PLP>
-36.4313

> <Gold.PLP.part.hbond>
-2.0000

> <Gold.PLP.part.metal>
0.0000

> <Gold.PLP.part.buried>
0.1860

> <Gold.PLP.part.nonpolar>
-34.3345

> <Gold.PLP.part.repulsive>
0.0196

> <Gold.PLP.ligand.clash>
0.0000

> <Gold.PLP.ligand.torsion>
0.9010

> <Gold.PLP.Chemscore.Hbond>
4.0000

> <Gold.PLP.Chemscore.CHOScore>
0.0000

> <Gold.PLP.Chemscore.Metal>
0.0000

> <Gold.Chemscore.Hbonds>
donor molecule, donor type, donor heavy atom, donor atom, acceptor molecule, acceptor atom, score
      L1  H     4    45       P1 10175  1.92
      L1  H    10    35       P1  8028  2.00

> <Gold.PLP.Chemscore.Internal.Correction>
0.0292

> <Gold.Rescore>
     Score         DG    S(hbond)    S(metal)    S(lipo)     H(rot)  DE(clash)    DE(int)     intcor
     19.26     -21.57       1.83        0.00     115.45       1.37       1.40       0.92       ----

> <Gold.Chemscore.Fitness>
19.2567

> <Gold.Chemscore.DG>
-21.5723

> <Gold.Chemscore.ZeroCoef>
-5.4800

> <Gold.Chemscore.Hbond>
1.8274

> <Gold.Chemscore.Metal>
0.0000

> <Gold.Chemscore.Lipo>
115.4464

> <Gold.Chemscore.Internal_Hbond>
0.0000

> <Gold.Chemscore.DEClash>
1.3982

> <Gold.Chemscore.DEInternal>
0.9175

> <Gold.Chemscore.Rot>
1.3744

> <Gold.Chemscore.Internal.Correction>
   9.000000E+99

> <Gold.Chemscore.Hbonds>
donor molecule, donor type, donor heavy atom, donor atom, acceptor molecule, acceptor atom, score
      L1  H     4    45       P1 10175  0.88
      L1  H    10    35       P1  8028  0.68

> <Gold.Chemscore.Hbond.Weighted>
-6.1035

> <Gold.Chemscore.Metal.Weighted>
-0.0000

> <Gold.Chemscore.Lipo.Weighted>
-13.5072

> <Gold.Chemscore.Internal_Hbond.Weighted>
0.0000

> <Gold.Chemscore.DEClash.Weighted>
1.3982

> <Gold.Chemscore.DEInternal.Weighted>
0.9175

> <Gold.Chemscore.Rot.Weighted>
3.5185

> <Gold.Chemscore.Internal.Correction.Weighted>
   9.000000E+99

> <Gold.Protein.RotatedTorsions>
[ 6907 6896 6895 6894 ] final -178.21 input  -60.11 | X-H torsion
[ 7974 7965 7964 7962 ] final  -97.72 input  175.53 | X-H torsion
[ 8008 7997 7996 7995 ] final   42.62 input   59.86 | X-H torsion
[ 10167 10162 10161 10158 ] final  -13.11 input  -65.29 | X-H torsion
[ 10718 10713 10712 10709 ] final  128.74 input   66.30 | X-H torsion
[ 10763 10752 10751 10750 ] final   77.43 input  -60.55 | X-H torsion
[ 11005 11000 10999 10996 ] final   23.01 input  -57.11 | X-H torsion

> <Gold.Protein.ActiveResidues>
 VAL166  LYS551  ARG553  GLY616  TRP617  ASP618  TYR619  PRO620  LYS621  CYS622 
 ASP623  PHE694  ASN695  SER759  ASP760  ASP761  ALA762  ILE779  LEU786  VAL792 
 PHE793  MET794  SER795  GLU796  ALA797  LYS798  CYS799  TRP800  GLU811  SER814 

> <Gold.Protein.RotatedAtoms>
  151.6336  133.3330  159.3114 H   0  0  0  0  0  0  0  0  0  0  0  0  # atno 6907 bound_to 6896
  150.8044  134.7163  159.6642 H   0  0  0  0  0  0  0  0  0  0  0  0  # atno 6908 bound_to 6896
  152.4138  134.6082  160.0070 H   0  0  0  0  0  0  0  0  0  0  0  0  # atno 6909 bound_to 6896
  145.3300  140.9439  143.2667 H   0  0  0  0  0  0  0  0  0  0  0  0  # atno 7974 bound_to 7965
  155.2892  140.3377  155.4253 H   0  0  0  0  0  0  0  0  0  0  0  0  # atno 8008 bound_to 7997
  156.2054  140.1749  156.7851 H   0  0  0  0  0  0  0  0  0  0  0  0  # atno 8009 bound_to 7997
  154.5614  140.0687  156.8808 H   0  0  0  0  0  0  0  0  0  0  0  0  # atno 8010 bound_to 7997
  140.7175  143.5461  150.9353 H   0  0  0  0  0  0  0  0  0  0  0  0  # atno 10167 bound_to 10162
  157.5217  131.1098  150.9143 H   0  0  0  0  0  0  0  0  0  0  0  0  # atno 10718 bound_to 10713
  153.0798  135.4914  154.8479 H   0  0  0  0  0  0  0  0  0  0  0  0  # atno 10763 bound_to 10752
  154.7135  135.3025  154.9162 H   0  0  0  0  0  0  0  0  0  0  0  0  # atno 10764 bound_to 10752
  153.9848  135.6785  153.4804 H   0  0  0  0  0  0  0  0  0  0  0  0  # atno 10765 bound_to 10752
  140.3743  134.1989  155.7665 H   0  0  0  0  0  0  0  0  0  0  0  0  # atno 11005 bound_to 11000
  144.8871  139.4824  143.6695 LP  0  0  0  0  0  0  0  0  0  0  0  0  # atno 17320 bound_to 7965
  146.3049  139.7547  142.9064 LP  0  0  0  0  0  0  0  0  0  0  0  0  # atno 17321 bound_to 7965
  139.9185  143.6634  152.3101 LP  0  0  0  0  0  0  0  0  0  0  0  0  # atno 17342 bound_to 10162
  139.7043  144.7630  151.1220 LP  0  0  0  0  0  0  0  0  0  0  0  0  # atno 17343 bound_to 10162
  156.9752  130.5506  149.5293 LP  0  0  0  0  0  0  0  0  0  0  0  0  # atno 17370 bound_to 10713
  156.0358  130.5446  150.8650 LP  0  0  0  0  0  0  0  0  0  0  0  0  # atno 17371 bound_to 10713
  141.1944  133.8128  157.0757 LP  0  0  0  0  0  0  0  0  0  0  0  0  # atno 17394 bound_to 11000
  140.0527  134.9797  157.1166 LP  0  0  0  0  0  0  0  0  0  0  0  0  # atno 17395 bound_to 11000

$$$$
