AV-unprocessed.smi:3278|AV-procd|sdf|12543|dock9
  -GOLD-   2272018463D 1   1.00000     0.00000
 Structure written by MMmdl.
 39 40  0  0  0  0  0  0  0  0  2 V2000
  148.3492  136.7375  157.1329 C   0  0  0  0  0  0  0  0  0  0  0  0
  148.5814  137.7431  156.1184 N   0  0  0  0  0  0  0  0  0  0  0  0
  148.6737  139.1094  156.2663 C   0  0  0  0  0  0  0  0  0  0  0  0
  148.9025  139.6470  155.0290 C   0  0  0  0  0  0  0  0  0  0  0  0
  149.0913  141.1021  154.6550 C   0  0  2  0  0  0  0  0  0  0  0  0
  147.8237  141.9013  155.0028 C   0  0  0  0  0  0  0  0  0  0  0  0
  149.2874  141.2693  153.2629 O   0  0  0  0  0  0  0  0  0  0  0  0
  150.3234  141.7009  155.3677 C   0  0  0  0  0  0  0  0  0  0  0  0
  149.9667  142.2770  156.6846 N   0  3  0  0  0  0  0  0  0  0  0  0
  151.1051  142.7247  157.5163 C   0  0  1  0  0  0  0  0  0  0  0  0
  150.7093  143.9315  158.3963 C   0  0  0  0  0  0  0  0  0  0  0  0
  151.8776  144.4613  159.2445 C   0  0  0  0  0  0  0  0  0  0  0  0
  152.4281  143.4074  160.2145 C   0  0  0  0  0  0  0  0  0  0  0  0
  153.0849  141.9769  159.3167 S   0  0  0  0  0  0  0  0  0  0  0  0
  151.5954  141.5462  158.3766 C   0  0  0  0  0  0  0  0  0  0  0  0
  148.9242  138.5018  154.1792 C   0  0  0  0  0  0  0  0  0  0  0  0
  148.7382  137.3676  154.8336 N   0  0  0  0  0  0  0  0  0  0  0  0
  148.2511  137.2089  158.1113 H   0  0  0  0  0  0  0  0  0  0  0  0
  149.1855  136.0383  157.1585 H   0  0  0  0  0  0  0  0  0  0  0  0
  147.4319  136.1920  156.9089 H   0  0  0  0  0  0  0  0  0  0  0  0
  148.5729  139.5837  157.2314 H   0  0  0  0  0  0  0  0  0  0  0  0
  147.6064  141.8575  156.0707 H   0  0  0  0  0  0  0  0  0  0  0  0
  146.9522  141.5106  154.4756 H   0  0  0  0  0  0  0  0  0  0  0  0
  147.9269  142.9534  154.7339 H   0  0  0  0  0  0  0  0  0  0  0  0
  149.3117  140.4168  152.8545 H   0  0  0  0  0  0  0  0  0  0  0  0
  151.0938  140.9401  155.5023 H   0  0  0  0  0  0  0  0  0  0  0  0
  150.7593  142.4788  154.7410 H   0  0  0  0  0  0  0  0  0  0  0  0
  149.3353  143.0533  156.5465 H   0  0  0  0  0  0  0  0  0  0  0  0
  151.9177  143.0147  156.8483 H   0  0  0  0  0  0  0  0  0  0  0  0
  150.3457  144.7496  157.7752 H   0  0  0  0  0  0  0  0  0  0  0  0
  149.8800  143.6568  159.0496 H   0  0  0  0  0  0  0  0  0  0  0  0
  152.6776  144.8136  158.5922 H   0  0  0  0  0  0  0  0  0  0  0  0
  151.5434  145.3300  159.8123 H   0  0  0  0  0  0  0  0  0  0  0  0
  153.2250  143.8339  160.8240 H   0  0  0  0  0  0  0  0  0  0  0  0
  151.6471  143.0723  160.8979 H   0  0  0  0  0  0  0  0  0  0  0  0
  150.8189  141.2283  159.0735 H   0  0  0  0  0  0  0  0  0  0  0  0
  151.8300  140.6870  157.7472 H   0  0  0  0  0  0  0  0  0  0  0  0
  149.0753  138.4609  153.1103 H   0  0  0  0  0  0  0  0  0  0  0  0
  149.4746  141.5574  157.1949 H   0  0  0  0  0  0  0  0  0  0  0  0
  1  2  1  0  0  0  0
  1 18  1  0  0  0  0
  1 19  1  0  0  0  0
  1 20  1  0  0  0  0
  2 17  1  0  0  0  0
  2  3  1  0  0  0  0
  3  4  2  0  0  0  0
  3 21  1  0  0  0  0
  4  5  1  0  0  0  0
  4 16  1  0  0  0  0
  5  6  1  0  0  0  0
  5  7  1  0  0  0  0
  5  8  1  0  0  0  0
  6 22  1  0  0  0  0
  6 23  1  0  0  0  0
  6 24  1  0  0  0  0
  7 25  1  0  0  0  0
  8  9  1  0  0  0  0
  8 26  1  0  0  0  0
  8 27  1  0  0  0  0
  9 10  1  0  0  0  0
  9 28  1  0  0  0  0
  9 39  1  0  0  0  0
 10 15  1  0  0  0  0
 10 11  1  0  0  0  0
 10 29  1  0  0  0  0
 11 12  1  0  0  0  0
 11 30  1  0  0  0  0
 11 31  1  0  0  0  0
 12 13  1  0  0  0  0
 12 32  1  0  0  0  0
 12 33  1  0  0  0  0
 13 14  1  0  0  0  0
 13 34  1  0  0  0  0
 13 35  1  0  0  0  0
 14 15  1  0  0  0  0
 15 36  1  0  0  0  0
 15 37  1  0  0  0  0
 16 17  2  0  0  0  0
 16 38  1  0  0  0  0
M  CHG  1   9   1
M  END
> <s_m_source_file>
AV-unprocessed.smi

> <i_m_source_file_index>
3278

> <i_lp_mmshare_version>
43012

> <i_f3d_flags>
0

> <s_epik_input>
W0NIM11uMVtjSF1jKFtjSF1uMSlbQ0BAXShbQ0gzXSkoW09IXSlbQ0gyXVtOSF1bQ0BASF0yW0NIMl1bQ0gyXVtDSDJdU1tDSDJdMg==

> <s_epik_cmdline>
J2VwaWtfcHl0aG9uJywgJy1waCcsICc3LjAnLCAnLXRuJywgJzgnLCAnLW1hJywgJzIwMCcsICctbWV0YWxfYmluZGluZycsICctaW1hZScsICc8aW5maWxlLm1hZT4nLCAnLW9tYWUnLCAnPG91dGZpbGUubWFlPic=

> <r_lp_tautomer_probability>
1

> <r_epik_Ionization_Penalty>
0.0185703

> <r_epik_Ionization_Penalty_Charging>
0.0185619

> <r_epik_Ionization_Penalty_Neutral>
8.47286e-06

> <r_epik_State_Penalty>
0.0147768

> <r_epik_Charging_Adjusted_Penalty>
0.0333386

> <i_epik_Tot_Q>
1

> <i_epik_Tot_abs_Q>
1

> <r_epik_Metal_State_Penalty>
0.0147782

> <b_epik_Metal_Only>
0

> <s_lp_Force_Field>
OPLS_2005

> <r_lp_Energy>
8.58851

> <b_lp_Chiralities_Consistent>
1

> <s_lp_Variant>
AV-unprocessed.smi:3278-4

> <Gold.Version>
5.8.1

> <Gold.Id.Protein>
6NUR|6NUR_protein|mol2

> <Gold.PLP.Fitness>
44.6814

> <Gold.PLP.PLP>
-30.5340

> <Gold.PLP.part.hbond>
-3.6536

> <Gold.PLP.part.metal>
0.0000

> <Gold.PLP.part.buried>
-0.8205

> <Gold.PLP.part.nonpolar>
-25.6299

> <Gold.PLP.part.repulsive>
0.1926

> <Gold.PLP.ligand.clash>
0.0035

> <Gold.PLP.ligand.torsion>
0.9486

> <Gold.PLP.Chemscore.Hbond>
3.5453

> <Gold.PLP.Chemscore.CHOScore>
1.7961

> <Gold.PLP.Chemscore.Metal>
0.0000

> <Gold.Chemscore.Hbonds>
donor molecule, donor type, donor heavy atom, donor atom, acceptor molecule, acceptor atom, score
      L1  H     7    25       P1  7957  0.54
      L1  H     9    28       P1  8028  2.00
      P1  H  8011  8017       L1     7  1.00
      L1  C    16    38       P1  7948  0.83
      L1  C    16    38       P1  7957  0.95

> <Gold.PLP.Chemscore.Internal.Correction>
0.0238

> <Gold.Rescore>
     Score         DG    S(hbond)    S(metal)    S(lipo)     H(rot)  DE(clash)    DE(int)     intcor
     18.19     -19.31       2.29        0.00      96.58       2.00       0.21       0.91       ----

> <Gold.Chemscore.Fitness>
18.1910

> <Gold.Chemscore.DG>
-19.3111

> <Gold.Chemscore.ZeroCoef>
-5.4800

> <Gold.Chemscore.Hbond>
2.2936

> <Gold.Chemscore.Metal>
0.0000

> <Gold.Chemscore.Lipo>
96.5816

> <Gold.Chemscore.Internal_Hbond>
0.0000

> <Gold.Chemscore.DEClash>
0.2115

> <Gold.Chemscore.DEInternal>
0.9086

> <Gold.Chemscore.Rot>
2.0038

> <Gold.Chemscore.Internal.Correction>
   9.000000E+99

> <Gold.Chemscore.Hbonds>
donor molecule, donor type, donor heavy atom, donor atom, acceptor molecule, acceptor atom, score
      L1  H     7    25       P1  7957  0.54
      L1  H     9    28       P1  8028  0.95
      P1  H  8011  8017       L1     7  0.80

> <Gold.Chemscore.Hbond.Weighted>
-7.6606

> <Gold.Chemscore.Metal.Weighted>
-0.0000

> <Gold.Chemscore.Lipo.Weighted>
-11.3000

> <Gold.Chemscore.Internal_Hbond.Weighted>
0.0000

> <Gold.Chemscore.DEClash.Weighted>
0.2115

> <Gold.Chemscore.DEInternal.Weighted>
0.9086

> <Gold.Chemscore.Rot.Weighted>
5.1296

> <Gold.Chemscore.Internal.Correction.Weighted>
   9.000000E+99

> <Gold.Protein.RotatedTorsions>
[ 6907 6896 6895 6894 ] final   45.34 input  -60.11 | X-H torsion
[ 7974 7965 7964 7962 ] final  111.18 input  175.53 | X-H torsion
[ 8008 7997 7996 7995 ] final   60.07 input   59.86 | X-H torsion
[ 10167 10162 10161 10158 ] final  -61.02 input  -65.29 | X-H torsion
[ 10718 10713 10712 10709 ] final  -79.11 input   66.30 | X-H torsion
[ 10763 10752 10751 10750 ] final  -74.42 input  -60.55 | X-H torsion
[ 11005 11000 10999 10996 ] final  -50.74 input  -57.11 | X-H torsion

> <Gold.Protein.ActiveResidues>
 VAL166  LYS551  ARG553  GLY616  TRP617  ASP618  TYR619  PRO620  LYS621  CYS622 
 ASP623  PHE694  ASN695  SER759  ASP760  ASP761  ALA762  ILE779  LEU786  VAL792 
 PHE793  MET794  SER795  GLU796  ALA797  LYS798  CYS799  TRP800  GLU811  SER814 

> <Gold.Protein.RotatedAtoms>
  152.2433  134.8206  160.0456 H   0  0  0  0  0  0  0  0  0  0  0  0  # atno 6907 bound_to 6896
  151.8913  133.3511  159.3807 H   0  0  0  0  0  0  0  0  0  0  0  0  # atno 6908 bound_to 6896
  150.7060  134.4847  159.5531 H   0  0  0  0  0  0  0  0  0  0  0  0  # atno 6909 bound_to 6896
  145.2455  139.2761  143.4095 H   0  0  0  0  0  0  0  0  0  0  0  0  # atno 7974 bound_to 7965
  155.5764  140.3491  155.4529 H   0  0  0  0  0  0  0  0  0  0  0  0  # atno 8008 bound_to 7997
  156.0406  140.1295  157.0185 H   0  0  0  0  0  0  0  0  0  0  0  0  # atno 8009 bound_to 7997
  154.4390  140.1025  156.6216 H   0  0  0  0  0  0  0  0  0  0  0  0  # atno 8010 bound_to 7997
  140.6033  143.2367  151.5878 H   0  0  0  0  0  0  0  0  0  0  0  0  # atno 10167 bound_to 10162
  156.0100  130.4536  150.3599 H   0  0  0  0  0  0  0  0  0  0  0  0  # atno 10718 bound_to 10713
  154.4729  135.5865  153.6334 H   0  0  0  0  0  0  0  0  0  0  0  0  # atno 10763 bound_to 10752
  152.9837  135.6071  154.3344 H   0  0  0  0  0  0  0  0  0  0  0  0  # atno 10764 bound_to 10752
  154.3228  135.2843  155.2490 H   0  0  0  0  0  0  0  0  0  0  0  0  # atno 10765 bound_to 10752
  141.0833  133.6648  156.3775 H   0  0  0  0  0  0  0  0  0  0  0  0  # atno 11005 bound_to 11000
  146.3317  140.2831  142.8611 LP  0  0  0  0  0  0  0  0  0  0  0  0  # atno 17320 bound_to 7965
  144.9550  140.8217  143.5549 LP  0  0  0  0  0  0  0  0  0  0  0  0  # atno 17321 bound_to 7965
  139.5307  144.2925  152.1140 LP  0  0  0  0  0  0  0  0  0  0  0  0  # atno 17342 bound_to 10162
  140.2110  144.4563  150.6386 LP  0  0  0  0  0  0  0  0  0  0  0  0  # atno 17343 bound_to 10162
  157.1688  131.0363  151.2806 LP  0  0  0  0  0  0  0  0  0  0  0  0  # atno 17370 bound_to 10713
  157.4247  130.7457  149.6942 LP  0  0  0  0  0  0  0  0  0  0  0  0  # atno 17371 bound_to 10713
  140.5420  134.6111  157.5383 LP  0  0  0  0  0  0  0  0  0  0  0  0  # atno 17394 bound_to 11000
  139.9648  134.7391  156.0161 LP  0  0  0  0  0  0  0  0  0  0  0  0  # atno 17395 bound_to 11000

$$$$
