AV-unprocessed.smi:2153|AV-procd|sdf|8767|dock4
  -GOLD-   2272011543D 1   1.00000     0.00000
 Structure written by MMmdl.
 48 49  0  0  0  0  0  0  0  0  1 V2000
  151.4222  145.2359  158.9602 C   0  0  0  0  0  0  0  0  0  0  0  0
  152.4123  144.3222  159.6998 C   0  0  1  0  0  0  0  0  0  0  0  0
  151.9132  143.9667  161.1165 C   0  0  0  0  0  0  0  0  0  0  0  0
  152.9250  143.0849  161.8663 C   0  0  0  0  0  0  0  0  0  0  0  0
  153.2749  141.8224  161.0640 C   0  0  0  0  0  0  0  0  0  0  0  0
  153.7704  142.1810  159.6548 C   0  0  0  0  0  0  0  0  0  0  0  0
  152.7399  143.0446  158.8940 C   0  0  1  0  0  0  0  0  0  0  0  0
  151.5131  142.3559  158.6823 O   0  0  0  0  0  0  0  0  0  0  0  0
  150.7965  142.6873  157.5032 C   0  0  0  0  0  0  0  0  0  0  0  0
  151.0254  141.5840  156.4590 C   0  0  0  0  0  0  0  0  0  0  0  0
  149.8098  141.2968  155.7028 N   0  0  0  0  0  0  0  0  0  0  0  0
  149.7126  140.3852  154.7222 C   0  0  0  0  0  0  0  0  0  0  0  0
  150.6472  139.6586  154.3807 O   0  0  0  0  0  0  0  0  0  0  0  0
  148.3456  140.2621  154.0372 C   0  0  0  0  0  0  0  0  0  0  0  0
  147.3607  141.2027  154.5870 N   0  0  0  0  0  0  0  0  0  0  0  0
  146.9762  142.3028  153.8421 C   0  0  0  0  0  0  0  0  0  0  0  0
  146.1079  143.2372  154.2867 C   0  0  0  0  0  0  0  0  0  0  0  0
  145.5115  143.1310  155.6123 C   0  0  0  0  0  0  0  0  0  0  0  0
  144.7302  143.9656  156.0714 O   0  0  0  0  0  0  0  0  0  0  0  0
  145.9078  141.9900  156.3470 N   0  0  0  0  0  0  0  0  0  0  0  0
  145.3558  141.8468  157.6781 C   0  0  0  0  0  0  0  0  0  0  0  0
  146.8268  141.0210  155.8812 C   0  0  0  0  0  0  0  0  0  0  0  0
  147.1671  140.0532  156.5646 O   0  0  0  0  0  0  0  0  0  0  0  0
  150.4519  144.7545  158.8338 H   0  0  0  0  0  0  0  0  0  0  0  0
  151.7948  145.4989  157.9701 H   0  0  0  0  0  0  0  0  0  0  0  0
  151.2607  146.1635  159.5093 H   0  0  0  0  0  0  0  0  0  0  0  0
  153.3401  144.8857  159.8110 H   0  0  0  0  0  0  0  0  0  0  0  0
  151.7315  144.8771  161.6884 H   0  0  0  0  0  0  0  0  0  0  0  0
  150.9547  143.4494  161.0538 H   0  0  0  0  0  0  0  0  0  0  0  0
  153.8331  143.6573  162.0587 H   0  0  0  0  0  0  0  0  0  0  0  0
  152.5260  142.8053  162.8409 H   0  0  0  0  0  0  0  0  0  0  0  0
  154.0353  141.2464  161.5916 H   0  0  0  0  0  0  0  0  0  0  0  0
  152.3988  141.1783  160.9866 H   0  0  0  0  0  0  0  0  0  0  0  0
  154.7063  142.7350  159.7378 H   0  0  0  0  0  0  0  0  0  0  0  0
  154.0155  141.2765  159.0996 H   0  0  0  0  0  0  0  0  0  0  0  0
  153.1541  143.3324  157.9262 H   0  0  0  0  0  0  0  0  0  0  0  0
  149.7310  142.7681  157.7219 H   0  0  0  0  0  0  0  0  0  0  0  0
  151.1270  143.6468  157.1056 H   0  0  0  0  0  0  0  0  0  0  0  0
  151.8429  141.8573  155.7895 H   0  0  0  0  0  0  0  0  0  0  0  0
  151.3342  140.6669  156.9605 H   0  0  0  0  0  0  0  0  0  0  0  0
  148.9925  141.8470  155.9235 H   0  0  0  0  0  0  0  0  0  0  0  0
  148.4819  140.4504  152.9715 H   0  0  0  0  0  0  0  0  0  0  0  0
  147.9781  139.2367  154.1100 H   0  0  0  0  0  0  0  0  0  0  0  0
  147.3983  142.4293  152.8555 H   0  0  0  0  0  0  0  0  0  0  0  0
  145.8552  144.0764  153.6556 H   0  0  0  0  0  0  0  0  0  0  0  0
  145.4846  140.8281  158.0439 H   0  0  0  0  0  0  0  0  0  0  0  0
  144.2867  142.0614  157.6298 H   0  0  0  0  0  0  0  0  0  0  0  0
  145.8785  142.5612  158.3161 H   0  0  0  0  0  0  0  0  0  0  0  0
  1  2  1  0  0  0  0
  1 24  1  0  0  0  0
  1 25  1  0  0  0  0
  1 26  1  0  0  0  0
  2  7  1  0  0  0  0
  2  3  1  0  0  0  0
  2 27  1  0  0  0  0
  3  4  1  0  0  0  0
  3 28  1  0  0  0  0
  3 29  1  0  0  0  0
  4  5  1  0  0  0  0
  4 30  1  0  0  0  0
  4 31  1  0  0  0  0
  5  6  1  0  0  0  0
  5 32  1  0  0  0  0
  5 33  1  0  0  0  0
  6  7  1  0  0  0  0
  6 34  1  0  0  0  0
  6 35  1  0  0  0  0
  7  8  1  0  0  0  0
  7 36  1  0  0  0  0
  8  9  1  0  0  0  0
  9 10  1  0  0  0  0
  9 37  1  0  0  0  0
  9 38  1  0  0  0  0
 10 11  1  0  0  0  0
 10 39  1  0  0  0  0
 10 40  1  0  0  0  0
 11 12  1  0  0  0  0
 11 41  1  0  0  0  0
 12 13  2  0  0  0  0
 12 14  1  0  0  0  0
 14 15  1  0  0  0  0
 14 42  1  0  0  0  0
 14 43  1  0  0  0  0
 15 22  1  0  0  0  0
 15 16  1  0  0  0  0
 16 17  2  0  0  0  0
 16 44  1  0  0  0  0
 17 18  1  0  0  0  0
 17 45  1  0  0  0  0
 18 19  2  0  0  0  0
 18 20  1  0  0  0  0
 20 21  1  0  0  0  0
 20 22  1  0  0  0  0
 21 46  1  0  0  0  0
 21 47  1  0  0  0  0
 21 48  1  0  0  0  0
 22 23  2  0  0  0  0
M  END
> <s_m_source_file>
AV-unprocessed.smi

> <i_m_source_file_index>
2153

> <i_lp_mmshare_version>
43012

> <i_f3d_flags>
0

> <s_epik_input>
W0NIM11bQ0BASF0xW0NIMl1bQ0gyXVtDSDJdW0NIMl1bQ0BIXTFPW0NIMl1bQ0gyXVtOSF1DKD1PKVtDSDJdbjJbY0hdW2NIXWMoPU8pbihbQ0gzXSljMj1P

> <s_epik_cmdline>
J2VwaWtfcHl0aG9uJywgJy1waCcsICc3LjAnLCAnLXRuJywgJzgnLCAnLW1hJywgJzIwMCcsICctbWV0YWxfYmluZGluZycsICctaW1hZScsICc8aW5maWxlLm1hZT4nLCAnLW9tYWUnLCAnPG91dGZpbGUubWFlPic=

> <r_lp_tautomer_probability>
1

> <r_epik_Ionization_Penalty>
4.02205e-08

> <r_epik_Ionization_Penalty_Charging>
1.23606e-08

> <r_epik_Ionization_Penalty_Neutral>
2.78599e-08

> <r_epik_State_Penalty>
-0

> <r_epik_Charging_Adjusted_Penalty>
1.23606e-08

> <i_epik_Tot_Q>
0

> <i_epik_Tot_abs_Q>
0

> <r_epik_Metal_State_Penalty>
-0

> <b_epik_Metal_Only>
0

> <s_lp_Force_Field>
OPLS_2005

> <r_lp_Energy>
16.8304

> <b_lp_Chiralities_Consistent>
1

> <s_lp_Variant>
AV-unprocessed.smi:2153-2

> <Gold.Version>
5.8.1

> <Gold.Id.Protein>
6NUR|6NUR_protein|mol2

> <Gold.PLP.Fitness>
52.9278

> <Gold.PLP.PLP>
-51.9237

> <Gold.PLP.part.hbond>
-1.0000

> <Gold.PLP.part.metal>
0.0000

> <Gold.PLP.part.buried>
-6.4846

> <Gold.PLP.part.nonpolar>
-43.7939

> <Gold.PLP.part.repulsive>
0.3720

> <Gold.PLP.ligand.clash>
0.0000

> <Gold.PLP.ligand.torsion>
1.0890

> <Gold.PLP.Chemscore.Hbond>
1.0000

> <Gold.PLP.Chemscore.CHOScore>
0.0000

> <Gold.PLP.Chemscore.Metal>
0.0000

> <Gold.Chemscore.Hbonds>
donor molecule, donor type, donor heavy atom, donor atom, acceptor molecule, acceptor atom, score
      P1  H  7989  7998       L1    13  0.95

> <Gold.PLP.Chemscore.Internal.Correction>
0.1821

> <Gold.Rescore>
     Score         DG    S(hbond)    S(metal)    S(lipo)     H(rot)  DE(clash)    DE(int)     intcor
     15.38     -16.78       0.87        0.00     119.74       2.20       0.06       1.33       ----

> <Gold.Chemscore.Fitness>
15.3843

> <Gold.Chemscore.DG>
-16.7824

> <Gold.Chemscore.ZeroCoef>
-5.4800

> <Gold.Chemscore.Hbond>
0.8733

> <Gold.Chemscore.Metal>
0.0000

> <Gold.Chemscore.Lipo>
119.7365

> <Gold.Chemscore.Internal_Hbond>
0.0000

> <Gold.Chemscore.DEClash>
0.0633

> <Gold.Chemscore.DEInternal>
1.3347

> <Gold.Chemscore.Rot>
2.1968

> <Gold.Chemscore.Internal.Correction>
   9.000000E+99

> <Gold.Chemscore.Hbonds>
donor molecule, donor type, donor heavy atom, donor atom, acceptor molecule, acceptor atom, score
      P1  H  7989  7998       L1    13  0.22

> <Gold.Chemscore.Hbond.Weighted>
-2.9169

> <Gold.Chemscore.Metal.Weighted>
-0.0000

> <Gold.Chemscore.Lipo.Weighted>
-14.0092

> <Gold.Chemscore.Internal_Hbond.Weighted>
0.0000

> <Gold.Chemscore.DEClash.Weighted>
0.0633

> <Gold.Chemscore.DEInternal.Weighted>
1.3347

> <Gold.Chemscore.Rot.Weighted>
5.6238

> <Gold.Chemscore.Internal.Correction.Weighted>
   9.000000E+99

> <Gold.Protein.RotatedTorsions>
[ 6907 6896 6895 6894 ] final   -7.47 input  -60.11 | X-H torsion
[ 7974 7965 7964 7962 ] final   14.74 input  175.53 | X-H torsion
[ 8008 7997 7996 7995 ] final -114.46 input   59.86 | X-H torsion
[ 10167 10162 10161 10158 ] final  -51.22 input  -65.29 | X-H torsion
[ 10718 10713 10712 10709 ] final -118.50 input   66.30 | X-H torsion
[ 10763 10752 10751 10750 ] final -132.10 input  -60.55 | X-H torsion
[ 11005 11000 10999 10996 ] final  -43.56 input  -57.11 | X-H torsion

> <Gold.Protein.ActiveResidues>
 VAL166  LYS551  ARG553  GLY616  TRP617  ASP618  TYR619  PRO620  LYS621  CYS622 
 ASP623  PHE694  ASN695  SER759  ASP760  ASP761  ALA762  ILE779  LEU786  VAL792 
 PHE793  MET794  SER795  GLU796  ALA797  LYS798  CYS799  TRP800  GLU811  SER814 

> <Gold.Protein.RotatedAtoms>
  151.4491  135.1028  159.9692 H   0  0  0  0  0  0  0  0  0  0  0  0  # atno 6907 bound_to 6896
  152.4895  133.8457  159.7186 H   0  0  0  0  0  0  0  0  0  0  0  0  # atno 6908 bound_to 6896
  150.9034  133.7029  159.2900 H   0  0  0  0  0  0  0  0  0  0  0  0  # atno 6909 bound_to 6896
  146.2297  139.8997  142.8541 H   0  0  0  0  0  0  0  0  0  0  0  0  # atno 7974 bound_to 7965
  155.0366  140.0392  157.2494 H   0  0  0  0  0  0  0  0  0  0  0  0  # atno 8008 bound_to 7997
  154.7252  140.2719  155.6482 H   0  0  0  0  0  0  0  0  0  0  0  0  # atno 8009 bound_to 7997
  156.2827  140.2695  156.1935 H   0  0  0  0  0  0  0  0  0  0  0  0  # atno 8010 bound_to 7997
  140.6599  143.2628  151.4472 H   0  0  0  0  0  0  0  0  0  0  0  0  # atno 10167 bound_to 10162
  156.1111  130.6249  150.9298 H   0  0  0  0  0  0  0  0  0  0  0  0  # atno 10718 bound_to 10713
  154.8746  135.3809  154.4354 H   0  0  0  0  0  0  0  0  0  0  0  0  # atno 10763 bound_to 10752
  153.5044  135.7030  153.5819 H   0  0  0  0  0  0  0  0  0  0  0  0  # atno 10764 bound_to 10752
  153.4136  135.3918  155.2033 H   0  0  0  0  0  0  0  0  0  0  0  0  # atno 10765 bound_to 10752
  141.0392  133.6787  156.2750 H   0  0  0  0  0  0  0  0  0  0  0  0  # atno 11005 bound_to 11000
  145.2335  140.9982  143.3977 LP  0  0  0  0  0  0  0  0  0  0  0  0  # atno 17320 bound_to 7965
  144.9510  139.4083  143.6402 LP  0  0  0  0  0  0  0  0  0  0  0  0  # atno 17321 bound_to 7965
  139.5830  144.1666  152.1993 LP  0  0  0  0  0  0  0  0  0  0  0  0  # atno 17342 bound_to 10162
  140.0997  144.5550  150.6997 LP  0  0  0  0  0  0  0  0  0  0  0  0  # atno 17343 bound_to 10162
  157.6292  131.0923  150.8475 LP  0  0  0  0  0  0  0  0  0  0  0  0  # atno 17370 bound_to 10713
  156.8586  130.5105  149.5305 LP  0  0  0  0  0  0  0  0  0  0  0  0  # atno 17371 bound_to 10713
  140.6266  134.5307  157.5554 LP  0  0  0  0  0  0  0  0  0  0  0  0  # atno 17394 bound_to 11000
  139.9263  134.8050  156.1059 LP  0  0  0  0  0  0  0  0  0  0  0  0  # atno 17395 bound_to 11000

$$$$
