AV-unprocessed.smi:2152|AV-procd|sdf|8764|dock6
  -GOLD-   2272011543D 1   1.00000     0.00000
 Structure written by MMmdl.
 41 42  0  0  0  0  0  0  0  0  1 V2000
  154.1200  140.8883  160.5188 C   0  0  0  0  0  0  0  0  0  0  0  0
  153.6663  142.3582  160.5382 C   0  0  2  0  0  0  0  0  0  0  0  0
  152.6038  142.6086  161.6286 C   0  0  0  0  0  0  0  0  0  0  0  0
  152.1972  144.0897  161.6923 C   0  0  0  0  0  0  0  0  0  0  0  0
  151.7061  144.5942  160.3274 C   0  0  0  0  0  0  0  0  0  0  0  0
  152.7583  144.3494  159.2315 C   0  0  0  0  0  0  0  0  0  0  0  0
  153.1879  142.8704  159.1544 C   0  0  2  0  0  0  0  0  0  0  0  0
  152.0881  142.0643  158.6206 N   0  0  0  0  0  0  0  0  0  0  0  0
  151.2409  142.4256  157.6447 C   0  0  0  0  0  0  0  0  0  0  0  0
  151.3110  143.5010  157.0483 O   0  0  0  0  0  0  0  0  0  0  0  0
  150.1684  141.3915  157.2765 C   0  0  0  0  0  0  0  0  0  0  0  0
  150.7218  140.0630  156.9845 N   0  0  0  0  0  0  0  0  0  0  0  0
  151.1041  139.2360  158.0249 C   0  0  0  0  0  0  0  0  0  0  0  0
  151.6371  138.0079  157.8431 C   0  0  0  0  0  0  0  0  0  0  0  0
  151.8422  137.4708  156.5033 C   0  0  0  0  0  0  0  0  0  0  0  0
  152.3381  136.3632  156.2945 O   0  0  0  0  0  0  0  0  0  0  0  0
  151.4318  138.3328  155.4575 N   0  0  0  0  0  0  0  0  0  0  0  0
  151.6047  137.9027  154.0855 C   0  0  0  0  0  0  0  0  0  0  0  0
  150.8866  139.6209  155.6543 C   0  0  0  0  0  0  0  0  0  0  0  0
  150.5683  140.3440  154.7067 O   0  0  0  0  0  0  0  0  0  0  0  0
  153.2884  140.2104  160.3251 H   0  0  0  0  0  0  0  0  0  0  0  0
  154.5587  140.6032  161.4753 H   0  0  0  0  0  0  0  0  0  0  0  0
  154.8735  140.7210  159.7488 H   0  0  0  0  0  0  0  0  0  0  0  0
  154.5442  142.9481  160.8064 H   0  0  0  0  0  0  0  0  0  0  0  0
  151.7222  141.9951  161.4382 H   0  0  0  0  0  0  0  0  0  0  0  0
  152.9881  142.2974  162.6007 H   0  0  0  0  0  0  0  0  0  0  0  0
  151.4180  144.2290  162.4423 H   0  0  0  0  0  0  0  0  0  0  0  0
  153.0491  144.6885  162.0171 H   0  0  0  0  0  0  0  0  0  0  0  0
  150.7741  144.0920  160.0653 H   0  0  0  0  0  0  0  0  0  0  0  0
  151.4742  145.6580  160.3874 H   0  0  0  0  0  0  0  0  0  0  0  0
  152.3765  144.6822  158.2655 H   0  0  0  0  0  0  0  0  0  0  0  0
  153.6348  144.9653  159.4372 H   0  0  0  0  0  0  0  0  0  0  0  0
  154.0331  142.8202  158.4654 H   0  0  0  0  0  0  0  0  0  0  0  0
  151.9544  141.1566  159.0419 H   0  0  0  0  0  0  0  0  0  0  0  0
  149.4619  141.3262  158.1051 H   0  0  0  0  0  0  0  0  0  0  0  0
  149.5890  141.7501  156.4236 H   0  0  0  0  0  0  0  0  0  0  0  0
  150.9773  139.5900  159.0377 H   0  0  0  0  0  0  0  0  0  0  0  0
  151.9185  137.4154  158.7014 H   0  0  0  0  0  0  0  0  0  0  0  0
  150.6751  138.1040  153.5497 H   0  0  0  0  0  0  0  0  0  0  0  0
  151.8113  136.8339  154.0336 H   0  0  0  0  0  0  0  0  0  0  0  0
  152.4350  138.4792  153.6745 H   0  0  0  0  0  0  0  0  0  0  0  0
  1  2  1  0  0  0  0
  1 21  1  0  0  0  0
  1 22  1  0  0  0  0
  1 23  1  0  0  0  0
  2  7  1  0  0  0  0
  2  3  1  0  0  0  0
  2 24  1  0  0  0  0
  3  4  1  0  0  0  0
  3 25  1  0  0  0  0
  3 26  1  0  0  0  0
  4  5  1  0  0  0  0
  4 27  1  0  0  0  0
  4 28  1  0  0  0  0
  5  6  1  0  0  0  0
  5 29  1  0  0  0  0
  5 30  1  0  0  0  0
  6  7  1  0  0  0  0
  6 31  1  0  0  0  0
  6 32  1  0  0  0  0
  7  8  1  0  0  0  0
  7 33  1  0  0  0  0
  8  9  1  0  0  0  0
  8 34  1  0  0  0  0
  9 10  2  0  0  0  0
  9 11  1  0  0  0  0
 11 12  1  0  0  0  0
 11 35  1  0  0  0  0
 11 36  1  0  0  0  0
 12 19  1  0  0  0  0
 12 13  1  0  0  0  0
 13 14  2  0  0  0  0
 13 37  1  0  0  0  0
 14 15  1  0  0  0  0
 14 38  1  0  0  0  0
 15 16  2  0  0  0  0
 15 17  1  0  0  0  0
 17 18  1  0  0  0  0
 17 19  1  0  0  0  0
 18 39  1  0  0  0  0
 18 40  1  0  0  0  0
 18 41  1  0  0  0  0
 19 20  2  0  0  0  0
M  END
> <s_m_source_file>
AV-unprocessed.smi

> <i_m_source_file_index>
2152

> <i_lp_mmshare_version>
43012

> <i_f3d_flags>
0

> <s_epik_input>
W0NIM11bQ0BASF0xW0NIMl1bQ0gyXVtDSDJdW0NIMl1bQ0BIXTFbTkhdQyg9TylbQ0gyXW4yW2NIXVtjSF1jKD1PKW4oW0NIM10pYzI9Tw==

> <s_epik_cmdline>
J2VwaWtfcHl0aG9uJywgJy1waCcsICc3LjAnLCAnLXRuJywgJzgnLCAnLW1hJywgJzIwMCcsICctbWV0YWxfYmluZGluZycsICctaW1hZScsICc8aW5maWxlLm1hZT4nLCAnLW9tYWUnLCAnPG91dGZpbGUubWFlPic=

> <r_lp_tautomer_probability>
1

> <r_epik_Ionization_Penalty>
3.20555e-08

> <r_epik_Ionization_Penalty_Charging>
1.30086e-08

> <r_epik_Ionization_Penalty_Neutral>
1.90469e-08

> <r_epik_State_Penalty>
-0

> <r_epik_Charging_Adjusted_Penalty>
1.30086e-08

> <i_epik_Tot_Q>
0

> <i_epik_Tot_abs_Q>
0

> <r_epik_Metal_State_Penalty>
-0

> <b_epik_Metal_Only>
0

> <s_lp_Force_Field>
OPLS_2005

> <r_lp_Energy>
17.3754

> <b_lp_Chiralities_Consistent>
1

> <s_lp_Variant>
AV-unprocessed.smi:2152-3

> <Gold.Version>
5.8.1

> <Gold.Id.Protein>
6NUR|6NUR_protein|mol2

> <Gold.PLP.Fitness>
47.7783

> <Gold.PLP.PLP>
-42.9275

> <Gold.PLP.part.hbond>
-2.0000

> <Gold.PLP.part.metal>
0.0000

> <Gold.PLP.part.buried>
-6.5360

> <Gold.PLP.part.nonpolar>
-34.3430

> <Gold.PLP.part.repulsive>
0.8956

> <Gold.PLP.ligand.clash>
0.0000

> <Gold.PLP.ligand.torsion>
0.5791

> <Gold.PLP.Chemscore.Hbond>
2.0000

> <Gold.PLP.Chemscore.CHOScore>
0.0000

> <Gold.PLP.Chemscore.Metal>
0.0000

> <Gold.Chemscore.Hbonds>
donor molecule, donor type, donor heavy atom, donor atom, acceptor molecule, acceptor atom, score
      P1  H  7989  7998       L1    20  1.00
      P1  H 10752 10765       L1    16  1.00

> <Gold.PLP.Chemscore.Internal.Correction>
0.0090

> <Gold.Rescore>
     Score         DG    S(hbond)    S(metal)    S(lipo)     H(rot)  DE(clash)    DE(int)     intcor
     18.20     -20.57       1.99        0.00     105.56       1.52       0.36       2.01       ----

> <Gold.Chemscore.Fitness>
18.2010

> <Gold.Chemscore.DG>
-20.5723

> <Gold.Chemscore.ZeroCoef>
-5.4800

> <Gold.Chemscore.Hbond>
1.9891

> <Gold.Chemscore.Metal>
0.0000

> <Gold.Chemscore.Lipo>
105.5590

> <Gold.Chemscore.Internal_Hbond>
0.0000

> <Gold.Chemscore.DEClash>
0.3570

> <Gold.Chemscore.DEInternal>
2.0143

> <Gold.Chemscore.Rot>
1.5242

> <Gold.Chemscore.Internal.Correction>
   9.000000E+99

> <Gold.Chemscore.Hbonds>
donor molecule, donor type, donor heavy atom, donor atom, acceptor molecule, acceptor atom, score
      P1  H  7989  7998       L1    20  0.98
      P1  H 10752 10765       L1    16  1.00

> <Gold.Chemscore.Hbond.Weighted>
-6.6438

> <Gold.Chemscore.Metal.Weighted>
-0.0000

> <Gold.Chemscore.Lipo.Weighted>
-12.3504

> <Gold.Chemscore.Internal_Hbond.Weighted>
0.0000

> <Gold.Chemscore.DEClash.Weighted>
0.3570

> <Gold.Chemscore.DEInternal.Weighted>
2.0143

> <Gold.Chemscore.Rot.Weighted>
3.9019

> <Gold.Chemscore.Internal.Correction.Weighted>
   9.000000E+99

> <Gold.Protein.RotatedTorsions>
[ 6907 6896 6895 6894 ] final  -43.83 input  -60.11 | X-H torsion
[ 7974 7965 7964 7962 ] final  -84.92 input  175.53 | X-H torsion
[ 8008 7997 7996 7995 ] final  155.10 input   59.86 | X-H torsion
[ 10167 10162 10161 10158 ] final    0.23 input  -65.29 | X-H torsion
[ 10718 10713 10712 10709 ] final  175.57 input   66.30 | X-H torsion
[ 10763 10752 10751 10750 ] final -148.98 input  -60.55 | X-H torsion
[ 11005 11000 10999 10996 ] final -107.46 input  -57.11 | X-H torsion

> <Gold.Protein.ActiveResidues>
 VAL166  LYS551  ARG553  GLY616  TRP617  ASP618  TYR619  PRO620  LYS621  CYS622 
 ASP623  PHE694  ASN695  SER759  ASP760  ASP761  ALA762  ILE779  LEU786  VAL792 
 PHE793  MET794  SER795  GLU796  ALA797  LYS798  CYS799  TRP800  GLU811  SER814 

> <Gold.Protein.RotatedAtoms>
  150.9395  134.8805  159.7603 H   0  0  0  0  0  0  0  0  0  0  0  0  # atno 6907 bound_to 6896
  152.5074  134.3962  159.9411 H   0  0  0  0  0  0  0  0  0  0  0  0  # atno 6908 bound_to 6896
  151.3983  133.3726  159.2764 H   0  0  0  0  0  0  0  0  0  0  0  0  # atno 6909 bound_to 6896
  145.5002  140.9547  143.1764 H   0  0  0  0  0  0  0  0  0  0  0  0  # atno 7974 bound_to 7965
  156.2496  140.1948  156.6749 H   0  0  0  0  0  0  0  0  0  0  0  0  # atno 8008 bound_to 7997
  154.6365  140.0589  156.9820 H   0  0  0  0  0  0  0  0  0  0  0  0  # atno 8009 bound_to 7997
  155.1629  140.3261  155.4410 H   0  0  0  0  0  0  0  0  0  0  0  0  # atno 8010 bound_to 7997
  140.6738  143.6975  150.7978 H   0  0  0  0  0  0  0  0  0  0  0  0  # atno 10167 bound_to 10162
  156.9329  130.9977  151.2983 H   0  0  0  0  0  0  0  0  0  0  0  0  # atno 10718 bound_to 10713
  154.8203  135.3320  154.7058 H   0  0  0  0  0  0  0  0  0  0  0  0  # atno 10763 bound_to 10752
  153.7692  135.6927  153.4914 H   0  0  0  0  0  0  0  0  0  0  0  0  # atno 10764 bound_to 10752
  153.2056  135.4500  155.0268 H   0  0  0  0  0  0  0  0  0  0  0  0  # atno 10765 bound_to 10752
  141.0952  133.8983  157.1979 H   0  0  0  0  0  0  0  0  0  0  0  0  # atno 11005 bound_to 11000
  144.7784  139.6579  143.7165 LP  0  0  0  0  0  0  0  0  0  0  0  0  # atno 17320 bound_to 7965
  146.2231  139.5672  142.9605 LP  0  0  0  0  0  0  0  0  0  0  0  0  # atno 17321 bound_to 7965
  140.0664  143.5104  152.2602 LP  0  0  0  0  0  0  0  0  0  0  0  0  # atno 17342 bound_to 10162
  139.6019  144.7585  151.3152 LP  0  0  0  0  0  0  0  0  0  0  0  0  # atno 17343 bound_to 10162
  157.5835  130.8393  149.8556 LP  0  0  0  0  0  0  0  0  0  0  0  0  # atno 17370 bound_to 10713
  156.0439  130.3732  150.1366 LP  0  0  0  0  0  0  0  0  0  0  0  0  # atno 17371 bound_to 10713
  139.9788  135.0105  156.9697 LP  0  0  0  0  0  0  0  0  0  0  0  0  # atno 17394 bound_to 11000
  140.5156  134.0958  155.7280 LP  0  0  0  0  0  0  0  0  0  0  0  0  # atno 17395 bound_to 11000

$$$$
