AV-unprocessed.smi:2908|AV-procd|sdf|11170|dock7
  -GOLD-   2272016 63D 1   1.00000     0.00000
 Structure written by MMmdl.
 44 45  0  0  0  0  0  0  0  0  2 V2000
  151.0065  137.1935  159.6775 O   0  0  0  0  0  0  0  0  0  0  0  0
  150.4777  137.9105  158.8264 C   0  0  0  0  0  0  0  0  0  0  0  0
  149.2054  137.7288  158.4309 N   0  0  0  0  0  0  0  0  0  0  0  0
  148.2901  136.7065  158.9331 C   0  0  0  0  0  0  0  0  0  0  0  0
  148.4544  136.4588  160.4457 C   0  0  0  0  0  0  0  0  0  0  0  0
  147.2139  135.8872  161.1096 C   0  0  0  0  0  0  0  0  0  0  0  0
  147.1934  134.5965  161.6825 C   0  0  0  0  0  0  0  0  0  0  0  0
  146.0148  134.1397  162.3081 C   0  0  0  0  0  0  0  0  0  0  0  0
  144.8826  134.9795  162.3455 C   0  0  0  0  0  0  0  0  0  0  0  0
  144.9573  136.2572  161.7545 C   0  0  0  0  0  0  0  0  0  0  0  0
  146.1044  136.6592  161.1646 N   0  3  0  0  0  0  0  0  0  0  0  0
  151.1378  138.9024  158.1772 N   0  0  0  0  0  0  0  0  0  0  0  0
  150.6656  139.6320  156.9894 C   0  0  0  0  0  0  0  0  0  0  0  0
  150.2155  141.0386  157.4217 C   0  0  0  0  0  0  0  0  0  0  0  0
  151.3529  141.8055  158.1389 C   0  0  0  0  0  0  0  0  0  0  0  0
  150.8841  143.2098  158.6035 C   0  0  1  0  0  0  0  0  0  0  0  0
  150.0524  143.0977  159.7430 O   0  0  0  0  0  0  0  0  0  0  0  0
  152.0108  144.2259  158.8933 C   0  0  0  0  0  0  0  0  0  0  0  0
  151.4849  145.3430  159.3961 F   0  0  0  0  0  0  0  0  0  0  0  0
  152.9080  143.7450  159.7533 F   0  0  0  0  0  0  0  0  0  0  0  0
  152.6331  144.5432  157.7581 F   0  0  0  0  0  0  0  0  0  0  0  0
  151.9852  140.9338  159.2533 C   0  0  0  0  0  0  0  0  0  0  0  0
  152.3419  139.5286  158.7345 C   0  0  0  0  0  0  0  0  0  0  0  0
  148.8441  138.3508  157.7220 H   0  0  0  0  0  0  0  0  0  0  0  0
  147.2562  136.9695  158.7032 H   0  0  0  0  0  0  0  0  0  0  0  0
  148.4926  135.7824  158.3916 H   0  0  0  0  0  0  0  0  0  0  0  0
  149.2875  135.7755  160.6153 H   0  0  0  0  0  0  0  0  0  0  0  0
  148.7247  137.3918  160.9424 H   0  0  0  0  0  0  0  0  0  0  0  0
  148.0717  133.9681  161.6536 H   0  0  0  0  0  0  0  0  0  0  0  0
  145.9809  133.1576  162.7566 H   0  0  0  0  0  0  0  0  0  0  0  0
  143.9710  134.6495  162.8221 H   0  0  0  0  0  0  0  0  0  0  0  0
  144.1422  136.9657  161.7390 H   0  0  0  0  0  0  0  0  0  0  0  0
  151.4802  139.7079  156.2673 H   0  0  0  0  0  0  0  0  0  0  0  0
  149.8551  139.1351  156.4564 H   0  0  0  0  0  0  0  0  0  0  0  0
  149.8805  141.5996  156.5488 H   0  0  0  0  0  0  0  0  0  0  0  0
  149.3506  140.9488  158.0804 H   0  0  0  0  0  0  0  0  0  0  0  0
  152.1283  141.9629  157.3880 H   0  0  0  0  0  0  0  0  0  0  0  0
  150.2691  143.6314  157.8068 H   0  0  0  0  0  0  0  0  0  0  0  0
  150.5265  143.4253  160.4921 H   0  0  0  0  0  0  0  0  0  0  0  0
  152.8904  141.4011  159.6378 H   0  0  0  0  0  0  0  0  0  0  0  0
  151.2988  140.8402  160.0958 H   0  0  0  0  0  0  0  0  0  0  0  0
  152.7915  138.9386  159.5344 H   0  0  0  0  0  0  0  0  0  0  0  0
  153.1054  139.5990  157.9583 H   0  0  0  0  0  0  0  0  0  0  0  0
  146.1381  137.5907  160.7499 H   0  0  0  0  0  0  0  0  0  0  0  0
  1  2  2  0  0  0  0
  2  3  1  0  0  0  0
  2 12  1  0  0  0  0
  3  4  1  0  0  0  0
  3 24  1  0  0  0  0
  4  5  1  0  0  0  0
  4 25  1  0  0  0  0
  4 26  1  0  0  0  0
  5  6  1  0  0  0  0
  5 27  1  0  0  0  0
  5 28  1  0  0  0  0
  6 11  1  0  0  0  0
  6  7  2  0  0  0  0
  7  8  1  0  0  0  0
  7 29  1  0  0  0  0
  8  9  2  0  0  0  0
  8 30  1  0  0  0  0
  9 10  1  0  0  0  0
  9 31  1  0  0  0  0
 10 11  2  0  0  0  0
 10 32  1  0  0  0  0
 11 44  1  0  0  0  0
 12 23  1  0  0  0  0
 12 13  1  0  0  0  0
 13 14  1  0  0  0  0
 13 33  1  0  0  0  0
 13 34  1  0  0  0  0
 14 15  1  0  0  0  0
 14 35  1  0  0  0  0
 14 36  1  0  0  0  0
 15 16  1  0  0  0  0
 15 22  1  0  0  0  0
 15 37  1  0  0  0  0
 16 17  1  0  0  0  0
 16 18  1  0  0  0  0
 16 38  1  0  0  0  0
 17 39  1  0  0  0  0
 18 19  1  0  0  0  0
 18 20  1  0  0  0  0
 18 21  1  0  0  0  0
 22 23  1  0  0  0  0
 22 40  1  0  0  0  0
 22 41  1  0  0  0  0
 23 42  1  0  0  0  0
 23 43  1  0  0  0  0
M  CHG  1  11   1
M  END
> <s_m_source_file>
AV-unprocessed.smi

> <i_m_source_file_index>
2908

> <i_lp_mmshare_version>
43012

> <i_f3d_flags>
0

> <s_epik_input>
RkMoRikoRilbQ0BASF0oW09IXSlbQ0hdKFtDSDJdW0NIMl0xKVtDSDJdW0NIMl1OMUMoPU8pW05IXVtDSDJdW0NIMl1jMltjSF1bY0hdW2NIXVtjSF1uMg==

> <s_epik_cmdline>
J2VwaWtfcHl0aG9uJywgJy1waCcsICc3LjAnLCAnLXRuJywgJzgnLCAnLW1hJywgJzIwMCcsICctbWV0YWxfYmluZGluZycsICctaW1hZScsICc8aW5maWxlLm1hZT4nLCAnLW9tYWUnLCAnPG91dGZpbGUubWFlPic=

> <r_epik_Ionization_Penalty>
1.55054

> <r_epik_Ionization_Penalty_Charging>
1.55036

> <r_epik_Ionization_Penalty_Neutral>
0.00017404

> <r_epik_State_Penalty>
1.64453

> <r_epik_Charging_Adjusted_Penalty>
3.19489

> <i_epik_Tot_Q>
1

> <i_epik_Tot_abs_Q>
1

> <r_epik_Metal_State_Penalty>
1.68672

> <b_epik_Metal_Only>
0

> <s_lp_Force_Field>
OPLS_2005

> <r_lp_Energy>
43.524

> <b_lp_Chiralities_Consistent>
1

> <s_lp_Variant>
AV-unprocessed.smi:2908-4

> <Gold.Version>
5.8.1

> <Gold.Id.Protein>
6NUR|6NUR_protein|mol2

> <Gold.PLP.Fitness>
49.5035

> <Gold.PLP.PLP>
-47.8925

> <Gold.PLP.part.hbond>
-2.0000

> <Gold.PLP.part.metal>
0.0000

> <Gold.PLP.part.buried>
-7.2377

> <Gold.PLP.part.nonpolar>
-39.9740

> <Gold.PLP.part.repulsive>
0.2665

> <Gold.PLP.ligand.clash>
0.0000

> <Gold.PLP.ligand.torsion>
0.7782

> <Gold.PLP.Chemscore.Hbond>
0.9913

> <Gold.PLP.Chemscore.CHOScore>
0.0000

> <Gold.PLP.Chemscore.Metal>
0.0000

> <Gold.Chemscore.Hbonds>
donor molecule, donor type, donor heavy atom, donor atom, acceptor molecule, acceptor atom, score
      P1  H  6896  6908       L1     1  0.84

> <Gold.PLP.Chemscore.Internal.Correction>
0.1936

> <Gold.Rescore>
     Score         DG    S(hbond)    S(metal)    S(lipo)     H(rot)  DE(clash)    DE(int)     intcor
     10.75     -13.95       0.94        0.00      98.25       2.40       0.04       3.16       ----

> <Gold.Chemscore.Fitness>
10.7460

> <Gold.Chemscore.DG>
-13.9493

> <Gold.Chemscore.ZeroCoef>
-5.4800

> <Gold.Chemscore.Hbond>
0.9354

> <Gold.Chemscore.Metal>
0.0000

> <Gold.Chemscore.Lipo>
98.2536

> <Gold.Chemscore.Internal_Hbond>
0.0000

> <Gold.Chemscore.DEClash>
0.0390

> <Gold.Chemscore.DEInternal>
3.1642

> <Gold.Chemscore.Rot>
2.4026

> <Gold.Chemscore.Internal.Correction>
   9.000000E+99

> <Gold.Chemscore.Hbonds>
donor molecule, donor type, donor heavy atom, donor atom, acceptor molecule, acceptor atom, score
      P1  H  6896  6908       L1     1  0.82

> <Gold.Chemscore.Hbond.Weighted>
-3.1244

> <Gold.Chemscore.Metal.Weighted>
-0.0000

> <Gold.Chemscore.Lipo.Weighted>
-11.4957

> <Gold.Chemscore.Internal_Hbond.Weighted>
0.0000

> <Gold.Chemscore.DEClash.Weighted>
0.0390

> <Gold.Chemscore.DEInternal.Weighted>
3.1642

> <Gold.Chemscore.Rot.Weighted>
6.1508

> <Gold.Chemscore.Internal.Correction.Weighted>
   9.000000E+99

> <Gold.Protein.RotatedTorsions>
[ 6907 6896 6895 6894 ] final -142.61 input  -60.11 | X-H torsion
[ 7974 7965 7964 7962 ] final -114.28 input  175.53 | X-H torsion
[ 8008 7997 7996 7995 ] final  159.85 input   59.86 | X-H torsion
[ 10167 10162 10161 10158 ] final   73.77 input  -65.29 | X-H torsion
[ 10718 10713 10712 10709 ] final   86.00 input   66.30 | X-H torsion
[ 10763 10752 10751 10750 ] final   45.72 input  -60.55 | X-H torsion
[ 11005 11000 10999 10996 ] final  135.34 input  -57.11 | X-H torsion

> <Gold.Protein.ActiveResidues>
 VAL166  LYS551  ARG553  GLY616  TRP617  ASP618  TYR619  PRO620  LYS621  CYS622 
 ASP623  PHE694  ASN695  SER759  ASP760  ASP761  ALA762  ILE779  LEU786  VAL792 
 PHE793  MET794  SER795  GLU796  ALA797  LYS798  CYS799  TRP800  GLU811  SER814 

> <Gold.Protein.RotatedAtoms>
  151.0893  133.5328  159.2615 H   0  0  0  0  0  0  0  0  0  0  0  0  # atno 6907 bound_to 6896
  151.2201  135.0515  159.8956 H   0  0  0  0  0  0  0  0  0  0  0  0  # atno 6908 bound_to 6896
  152.5432  134.0697  159.8242 H   0  0  0  0  0  0  0  0  0  0  0  0  # atno 6909 bound_to 6896
  145.1220  140.8675  143.3808 H   0  0  0  0  0  0  0  0  0  0  0  0  # atno 7974 bound_to 7965
  156.2212  140.1820  156.7473 H   0  0  0  0  0  0  0  0  0  0  0  0  # atno 8008 bound_to 7997
  154.5868  140.0657  156.9211 H   0  0  0  0  0  0  0  0  0  0  0  0  # atno 8009 bound_to 7997
  155.2406  140.3321  155.4295 H   0  0  0  0  0  0  0  0  0  0  0  0  # atno 8010 bound_to 7997
  140.0209  144.5541  150.7583 H   0  0  0  0  0  0  0  0  0  0  0  0  # atno 10167 bound_to 10162
  157.6923  131.0198  150.2907 H   0  0  0  0  0  0  0  0  0  0  0  0  # atno 10718 bound_to 10713
  152.9820  135.6030  154.3483 H   0  0  0  0  0  0  0  0  0  0  0  0  # atno 10763 bound_to 10752
  154.3174  135.2770  155.2538 H   0  0  0  0  0  0  0  0  0  0  0  0  # atno 10764 bound_to 10752
  154.4720  135.5939  153.6384 H   0  0  0  0  0  0  0  0  0  0  0  0  # atno 10765 bound_to 10752
  139.9973  134.9492  156.9993 H   0  0  0  0  0  0  0  0  0  0  0  0  # atno 11005 bound_to 11000
  145.0730  139.3017  143.5822 LP  0  0  0  0  0  0  0  0  0  0  0  0  # atno 17320 bound_to 7965
  146.3520  140.0210  142.8658 LP  0  0  0  0  0  0  0  0  0  0  0  0  # atno 17321 bound_to 7965
  140.7343  143.2727  151.3838 LP  0  0  0  0  0  0  0  0  0  0  0  0  # atno 17342 bound_to 10162
  139.6141  144.1039  152.2328 LP  0  0  0  0  0  0  0  0  0  0  0  0  # atno 17343 bound_to 10162
  156.3439  130.3820  149.7386 LP  0  0  0  0  0  0  0  0  0  0  0  0  # atno 17370 bound_to 10713
  156.4886  130.8074  151.3085 LP  0  0  0  0  0  0  0  0  0  0  0  0  # atno 17371 bound_to 10713
  140.4794  134.1305  155.7214 LP  0  0  0  0  0  0  0  0  0  0  0  0  # atno 17394 bound_to 11000
  141.1614  133.8785  157.1836 LP  0  0  0  0  0  0  0  0  0  0  0  0  # atno 17395 bound_to 11000

$$$$
