AV-unprocessed.smi:1495|AV-procd|sdf|6054|dock7
  -GOLD-   22720 6173D 1   1.00000     0.00000
 Structure written by MMmdl.
 40 41  0  0  0  0  0  0  0  0  1 V2000
  147.5270  139.5266  153.5476 C   0  0  0  0  0  0  0  0  0  0  0  0
  148.6979  140.3878  154.0364 C   0  0  0  0  0  0  0  0  0  0  0  0
  149.7557  139.5811  154.8052 C   0  0  1  0  0  0  0  0  0  0  0  0
  150.1907  138.3205  154.0338 C   0  0  0  0  0  0  0  0  0  0  0  0
  151.2228  137.6278  154.8181 N   0  0  0  0  0  0  0  0  0  0  0  0
  151.1599  136.3602  155.2922 C   0  0  0  0  0  0  0  0  0  0  0  0
  151.8182  135.9648  156.2548 O   0  0  0  0  0  0  0  0  0  0  0  0
  150.2625  135.5840  154.6640 N   0  0  0  0  0  0  0  0  0  0  0  0
  150.0267  134.1646  154.9076 C   0  0  0  0  0  0  0  0  0  0  0  0
  148.5276  133.8720  155.0984 C   0  0  0  0  0  0  0  0  0  0  0  0
  147.7836  133.7458  153.7998 C   0  0  0  0  0  0  0  0  0  0  0  0
  148.0104  132.8256  152.8065 C   0  0  0  0  0  0  0  0  0  0  0  0
  146.9470  133.0610  151.4473 S   0  0  0  0  0  0  0  0  0  0  0  0
  146.2134  134.4167  152.2959 C   0  0  0  0  0  0  0  0  0  0  0  0
  145.1054  135.2362  151.7292 C   0  0  0  0  0  0  0  0  0  0  0  0
  146.7550  134.6430  153.4952 N   0  0  0  0  0  0  0  0  0  0  0  0
  152.3942  138.4875  154.9975 C   0  0  0  0  0  0  0  0  0  0  0  0
  151.9461  139.7622  155.7356 C   0  0  0  0  0  0  0  0  0  0  0  0
  150.9037  140.4059  155.0059 O   0  0  0  0  0  0  0  0  0  0  0  0
  146.8045  140.1306  152.9987 H   0  0  0  0  0  0  0  0  0  0  0  0
  147.0030  139.0592  154.3817 H   0  0  0  0  0  0  0  0  0  0  0  0
  147.8725  138.7351  152.8822 H   0  0  0  0  0  0  0  0  0  0  0  0
  149.1640  140.8636  153.1728 H   0  0  0  0  0  0  0  0  0  0  0  0
  148.3208  141.1953  154.6650 H   0  0  0  0  0  0  0  0  0  0  0  0
  149.3458  139.2898  155.7742 H   0  0  0  0  0  0  0  0  0  0  0  0
  149.3224  137.7017  153.8063 H   0  0  0  0  0  0  0  0  0  0  0  0
  150.6103  138.5992  153.0659 H   0  0  0  0  0  0  0  0  0  0  0  0
  149.7344  136.0015  153.9112 H   0  0  0  0  0  0  0  0  0  0  0  0
  150.4345  133.5407  154.1111 H   0  0  0  0  0  0  0  0  0  0  0  0
  150.5687  133.8952  155.8144 H   0  0  0  0  0  0  0  0  0  0  0  0
  148.4176  132.9526  155.6748 H   0  0  0  0  0  0  0  0  0  0  0  0
  148.0833  134.6580  155.7101 H   0  0  0  0  0  0  0  0  0  0  0  0
  148.7446  132.0337  152.7877 H   0  0  0  0  0  0  0  0  0  0  0  0
  144.3636  135.4529  152.4986 H   0  0  0  0  0  0  0  0  0  0  0  0
  144.6165  134.7006  150.9151 H   0  0  0  0  0  0  0  0  0  0  0  0
  145.4978  136.1774  151.3436 H   0  0  0  0  0  0  0  0  0  0  0  0
  153.1908  138.0034  155.5642 H   0  0  0  0  0  0  0  0  0  0  0  0
  152.8162  138.7386  154.0235 H   0  0  0  0  0  0  0  0  0  0  0  0
  151.6012  139.5256  156.7435 H   0  0  0  0  0  0  0  0  0  0  0  0
  152.7829  140.4530  155.8384 H   0  0  0  0  0  0  0  0  0  0  0  0
  1  2  1  0  0  0  0
  1 20  1  0  0  0  0
  1 21  1  0  0  0  0
  1 22  1  0  0  0  0
  2  3  1  0  0  0  0
  2 23  1  0  0  0  0
  2 24  1  0  0  0  0
  3 19  1  0  0  0  0
  3  4  1  0  0  0  0
  3 25  1  0  0  0  0
  4  5  1  0  0  0  0
  4 26  1  0  0  0  0
  4 27  1  0  0  0  0
  5  6  1  0  0  0  0
  5 17  1  0  0  0  0
  6  7  2  0  0  0  0
  6  8  1  0  0  0  0
  8  9  1  0  0  0  0
  8 28  1  0  0  0  0
  9 10  1  0  0  0  0
  9 29  1  0  0  0  0
  9 30  1  0  0  0  0
 10 11  1  0  0  0  0
 10 31  1  0  0  0  0
 10 32  1  0  0  0  0
 11 16  1  0  0  0  0
 11 12  2  0  0  0  0
 12 13  1  0  0  0  0
 12 33  1  0  0  0  0
 13 14  1  0  0  0  0
 14 15  1  0  0  0  0
 14 16  2  0  0  0  0
 15 34  1  0  0  0  0
 15 35  1  0  0  0  0
 15 36  1  0  0  0  0
 17 18  1  0  0  0  0
 17 37  1  0  0  0  0
 17 38  1  0  0  0  0
 18 19  1  0  0  0  0
 18 39  1  0  0  0  0
 18 40  1  0  0  0  0
M  END
> <s_m_source_file>
AV-unprocessed.smi

> <i_m_source_file_index>
1495

> <i_lp_mmshare_version>
43012

> <i_f3d_flags>
0

> <s_epik_input>
W0NIM11bQ0gyXVtDQEBIXTFbQ0gyXU4oW0NIMl1bQ0gyXU8xKUMoPU8pW05IXVtDSDJdW0NIMl1jMltjSF1zYyhuMilbQ0gzXQ==

> <s_epik_cmdline>
J2VwaWtfcHl0aG9uJywgJy1waCcsICc3LjAnLCAnLXRuJywgJzgnLCAnLW1hJywgJzIwMCcsICctbWV0YWxfYmluZGluZycsICctaW1hZScsICc8aW5maWxlLm1hZT4nLCAnLW9tYWUnLCAnPG91dGZpbGUubWFlPic=

> <r_epik_Ionization_Penalty>
0.00206013

> <r_epik_Ionization_Penalty_Charging>
0

> <r_epik_Ionization_Penalty_Neutral>
0.00206013

> <r_epik_State_Penalty>
0.00138662

> <r_epik_Charging_Adjusted_Penalty>
0.00138662

> <i_epik_Tot_Q>
0

> <i_epik_Tot_abs_Q>
0

> <r_epik_Metal_State_Penalty>
-0

> <b_epik_Metal_Only>
0

> <s_lp_Force_Field>
OPLS_2005

> <r_lp_Energy>
24.1464

> <b_lp_Chiralities_Consistent>
1

> <s_lp_Variant>
AV-unprocessed.smi:1495-2

> <Gold.Version>
5.8.1

> <Gold.Id.Protein>
6NUR|6NUR_protein|mol2

> <Gold.PLP.Fitness>
46.9126

> <Gold.PLP.PLP>
-35.9185

> <Gold.PLP.part.hbond>
-3.7907

> <Gold.PLP.part.metal>
0.0000

> <Gold.PLP.part.buried>
0.7175

> <Gold.PLP.part.nonpolar>
-33.1979

> <Gold.PLP.part.repulsive>
0.4850

> <Gold.PLP.ligand.clash>
0.0000

> <Gold.PLP.ligand.torsion>
0.4371

> <Gold.PLP.Chemscore.Hbond>
2.9760

> <Gold.PLP.Chemscore.CHOScore>
0.9721

> <Gold.PLP.Chemscore.Metal>
0.0000

> <Gold.Chemscore.Hbonds>
donor molecule, donor type, donor heavy atom, donor atom, acceptor molecule, acceptor atom, score
      L1  H     8    28       P1  7948  0.65
      P1  H  7989  7998       L1    19  1.00
      P1  H 10752 10764       L1     7  0.60
      L1  C    12    33       P1 10747  0.28

> <Gold.PLP.Chemscore.Internal.Correction>
0.0241

> <Gold.Rescore>
     Score         DG    S(hbond)    S(metal)    S(lipo)     H(rot)  DE(clash)    DE(int)     intcor
     15.36     -15.86       1.49        0.00      77.14       1.42       0.04       0.47       ----

> <Gold.Chemscore.Fitness>
15.3572

> <Gold.Chemscore.DG>
-15.8595

> <Gold.Chemscore.ZeroCoef>
-5.4800

> <Gold.Chemscore.Hbond>
1.4950

> <Gold.Chemscore.Metal>
0.0000

> <Gold.Chemscore.Lipo>
77.1375

> <Gold.Chemscore.Internal_Hbond>
0.0000

> <Gold.Chemscore.DEClash>
0.0360

> <Gold.Chemscore.DEInternal>
0.4663

> <Gold.Chemscore.Rot>
1.4214

> <Gold.Chemscore.Internal.Correction>
   9.000000E+99

> <Gold.Chemscore.Hbonds>
donor molecule, donor type, donor heavy atom, donor atom, acceptor molecule, acceptor atom, score
      L1  H     8    28       P1  7948  0.19
      P1  H  7989  7998       L1    19  0.40
      P1  H 10752 10764       L1     7  0.04

> <Gold.Chemscore.Hbond.Weighted>
-4.9932

> <Gold.Chemscore.Metal.Weighted>
-0.0000

> <Gold.Chemscore.Lipo.Weighted>
-9.0251

> <Gold.Chemscore.Internal_Hbond.Weighted>
0.0000

> <Gold.Chemscore.DEClash.Weighted>
0.0360

> <Gold.Chemscore.DEInternal.Weighted>
0.4663

> <Gold.Chemscore.Rot.Weighted>
3.6388

> <Gold.Chemscore.Internal.Correction.Weighted>
   9.000000E+99

> <Gold.Protein.RotatedTorsions>
[ 6907 6896 6895 6894 ] final   30.50 input  -60.11 | X-H torsion
[ 7974 7965 7964 7962 ] final  169.25 input  175.53 | X-H torsion
[ 8008 7997 7996 7995 ] final -122.70 input   59.86 | X-H torsion
[ 10167 10162 10161 10158 ] final -132.45 input  -65.29 | X-H torsion
[ 10718 10713 10712 10709 ] final  -85.73 input   66.30 | X-H torsion
[ 10763 10752 10751 10750 ] final  -20.76 input  -60.55 | X-H torsion
[ 11005 11000 10999 10996 ] final  144.90 input  -57.11 | X-H torsion

> <Gold.Protein.ActiveResidues>
 VAL166  LYS551  ARG553  GLY616  TRP617  ASP618  TYR619  PRO620  LYS621  CYS622 
 ASP623  PHE694  ASN695  SER759  ASP760  ASP761  ALA762  ILE779  LEU786  VAL792 
 PHE793  MET794  SER795  GLU796  ALA797  LYS798  CYS799  TRP800  GLU811  SER814 

> <Gold.Protein.RotatedAtoms>
  152.0469  134.9677  160.0574 H   0  0  0  0  0  0  0  0  0  0  0  0  # atno 6907 bound_to 6896
  152.1094  133.4288  159.4632 H   0  0  0  0  0  0  0  0  0  0  0  0  # atno 6908 bound_to 6896
  150.6843  134.2585  159.4583 H   0  0  0  0  0  0  0  0  0  0  0  0  # atno 6909 bound_to 6896
  144.7361  139.9027  143.6410 H   0  0  0  0  0  0  0  0  0  0  0  0  # atno 7974 bound_to 7965
  155.1685  140.0407  157.2858 H   0  0  0  0  0  0  0  0  0  0  0  0  # atno 8008 bound_to 7997
  154.6286  140.2518  155.7434 H   0  0  0  0  0  0  0  0  0  0  0  0  # atno 8009 bound_to 7997
  156.2472  140.2880  156.0627 H   0  0  0  0  0  0  0  0  0  0  0  0  # atno 8010 bound_to 7997
  139.9084  143.6523  152.2580 H   0  0  0  0  0  0  0  0  0  0  0  0  # atno 10167 bound_to 10162
  155.9994  130.4741  150.4606 H   0  0  0  0  0  0  0  0  0  0  0  0  # atno 10718 bound_to 10713
  153.6254  135.6991  153.5295 H   0  0  0  0  0  0  0  0  0  0  0  0  # atno 10763 bound_to 10752
  153.2903  135.4159  155.1160 H   0  0  0  0  0  0  0  0  0  0  0  0  # atno 10764 bound_to 10752
  154.8534  135.3623  154.5796 H   0  0  0  0  0  0  0  0  0  0  0  0  # atno 10765 bound_to 10752
  140.0669  134.9173  157.1279 H   0  0  0  0  0  0  0  0  0  0  0  0  # atno 11005 bound_to 11000
  146.1060  139.4059  143.0317 LP  0  0  0  0  0  0  0  0  0  0  0  0  # atno 17320 bound_to 7965
  145.7511  140.9972  143.1250 LP  0  0  0  0  0  0  0  0  0  0  0  0  # atno 17321 bound_to 7965
  139.6964  144.7641  151.1349 LP  0  0  0  0  0  0  0  0  0  0  0  0  # atno 17342 bound_to 10162
  140.7691  143.5518  150.9196 LP  0  0  0  0  0  0  0  0  0  0  0  0  # atno 17343 bound_to 10162
  157.2631  131.0571  151.2308 LP  0  0  0  0  0  0  0  0  0  0  0  0  # atno 17370 bound_to 10713
  157.3415  130.7036  149.6385 LP  0  0  0  0  0  0  0  0  0  0  0  0  # atno 17371 bound_to 10713
  140.3685  134.2416  155.7180 LP  0  0  0  0  0  0  0  0  0  0  0  0  # atno 17394 bound_to 11000
  141.1996  133.8007  157.0527 LP  0  0  0  0  0  0  0  0  0  0  0  0  # atno 17395 bound_to 11000

$$$$
