#       Name:                AV-unprocessed.smi:3111
#       Creating user name   scv26
#       Creation time:       Fri Mar 27 17:20:42 2020


#       File generated by GOLD software.
#

@<TRIPOS>MOLECULE
AV-unprocessed.smi:3111
    34    34     1
SMALL
NO_CHARGES


@<TRIPOS>ATOM
      1 ****        -4.0791   3.1570  -0.5508 C.3            1 S1                 0.0000
      2 ****        -3.5182   1.8268  -0.3704 N.am           1 S1                 0.0000
      3 ****        -2.4030   1.5661   0.3262 C.2            1 S1                 0.0000
      4 ****        -1.7487   2.4377   0.9008 O.2            1 S1                 0.0000
      5 ****        -1.9812   0.0932   0.3995 C.3            1 S1                 0.0000
      6 ****        -0.5449  -0.0770   0.6057 N.am           1 S1                 0.0000
      7 ****         0.3893   0.0019  -0.3560 C.2            1 S1                 0.0000
      8 ****         0.1194   0.2170  -1.5384 O.2            1 S1                 0.0000
      9 ****         1.8459  -0.1965   0.0921 C.3            1 S1                 0.0000
     10 ****         2.8548   0.5116  -0.8315 C.3            1 S1                 0.0000
     11 ****         2.1532  -1.6143   0.2190 N.pl3          1 S1                 0.0000
     12 ****         2.5206  -2.2853   1.3792 C.2            1 S1                 0.0000
     13 ****         2.7111  -3.6034   1.0313 C.2            1 S1                 0.0000
     14 ****         2.4678  -3.7692  -0.3295 N.2            1 S1                 0.0000
     15 ****         2.1438  -2.5510  -0.7431 C.2            1 S1                 0.0000
     16 ****        -4.9691   3.1032  -1.1778 H              1 S1                 0.0000
     17 ****        -3.3605   3.8194  -1.0354 H              1 S1                 0.0000
     18 ****        -4.3632   3.5923   0.4084 H              1 S1                 0.0000
     19 ****        -4.0033   1.0569  -0.8082 H              1 S1                 0.0000
     20 ****        -2.5049  -0.3755   1.2329 H              1 S1                 0.0000
     21 ****        -2.2944  -0.4345  -0.5034 H              1 S1                 0.0000
     22 ****        -0.2389  -0.2550   1.5512 H              1 S1                 0.0000
     23 ****         1.9432   0.2506   1.0830 H              1 S1                 0.0000
     24 ****         2.6331   1.5762  -0.9164 H              1 S1                 0.0000
     25 ****         2.8513   0.0898  -1.8373 H              1 S1                 0.0000
     26 ****         3.8685   0.4200  -0.4405 H              1 S1                 0.0000
     27 ****         2.6148  -1.7835   2.3310 H              1 S1                 0.0000
     28 ****         3.0021  -4.4389   1.6509 H              1 S1                 0.0000
     29 ****         1.8915  -2.3346  -1.7711 H              1 S1                 0.0000
     30 ****        -2.0434   3.3924   0.8601 LP             1 S1                 0.0000
     31 ****        -0.9230   2.1904   1.4077 LP             1 S1                 0.0000
     32 ****        -0.8322   0.3420  -1.8194 LP             1 S1                 0.0000
     33 ****         0.8518   0.2666  -2.2175 LP             1 S1                 0.0000
     34 ****         2.5240  -4.6095  -0.8687 LP             1 S1                 0.0000
@<TRIPOS>BOND
    1    1    2 1     
    2    1   16 1     
    3    1   17 1     
    4    1   18 1     
    5    2    3 am    
    6    2   19 1     
    7    3    4 2     
    8    3    5 1     
    9    5    6 1     
   10    5   20 1     
   11    5   21 1     
   12    6    7 am    
   13    6   22 1     
   14    7    8 2     
   15    7    9 1     
   16    9   10 1     
   17    9   11 1     
   18    9   23 1     
   19   10   24 1     
   20   10   25 1     
   21   10   26 1     
   22   11   15 1     
   23   11   12 1     
   24   12   13 2     
   25   12   27 1     
   26   13   14 1     
   27   13   28 1     
   28   14   15 2     
   29   15   29 1     
   30    4   30 1     
   31    4   31 1     
   32    8   32 1     
   33    8   33 1     
   34   14   34 1     
@<TRIPOS>SUBSTRUCTURE
      1 S1             1
@<TRIPOS>SET
LONE_PAIRS      STATIC     ATOMS    <user>   **** ""
5 30 31 32 33 34
DONOR_HYDROGENS      STATIC     ATOMS    <user>   **** ""
2 19 22
ATOM$BLUE        STATIC     ATOMS    COLORGROUP SYSTEM
5 30 31 32 33 34
ATOM$RED        STATIC     ATOMS    COLORGROUP SYSTEM
2 19 22
