AV-unprocessed.smi:2019|AV-procd|sdf|8171|dock1
  -GOLD-   2272010423D 1   1.00000     0.00000
 Structure written by MMmdl.
 36 37  0  0  0  0  0  0  0  0  1 V2000
  150.9775  141.1600  157.5614 O   0  0  0  0  0  0  0  0  0  0  0  0
  150.8159  142.2772  157.0686 C   0  0  0  0  0  0  0  0  0  0  0  0
  151.6086  143.4863  157.5840 C   0  0  0  0  0  0  0  0  0  0  0  0
  151.9538  143.3870  159.0118 N   0  0  0  0  0  0  0  0  0  0  0  0
  152.7185  142.2731  159.4122 C   0  0  0  0  0  0  0  0  0  0  0  0
  153.0863  142.0864  160.6897 C   0  0  0  0  0  0  0  0  0  0  0  0
  152.6774  143.0664  161.6679 C   0  0  0  0  0  0  0  0  0  0  0  0
  151.9433  144.1340  161.2962 C   0  0  0  0  0  0  0  0  0  0  0  0
  151.5375  144.3411  159.9012 C   0  0  0  0  0  0  0  0  0  0  0  0
  150.8667  145.3132  159.5533 O   0  0  0  0  0  0  0  0  0  0  0  0
  149.9688  142.5181  156.0552 N   0  0  0  0  0  0  0  0  0  0  0  0
  149.0970  141.5261  155.4215 C   0  0  2  0  0  0  0  0  0  0  0  0
  148.1560  140.9666  156.5133 C   0  0  0  0  0  0  0  0  0  0  0  0
  146.8630  140.3436  155.9590 C   0  0  0  0  0  0  0  0  0  0  0  0
  147.0656  139.0852  155.1011 C   0  0  0  0  0  0  0  0  0  0  0  0
  147.8813  139.3345  153.8210 C   0  0  0  0  0  0  0  0  0  0  0  0
  149.3099  139.4310  154.0911 N   0  0  0  0  0  0  0  0  0  0  0  0
  149.9304  140.3670  154.8254 C   0  0  0  0  0  0  0  0  0  0  0  0
  151.1436  140.2977  155.0227 O   0  0  0  0  0  0  0  0  0  0  0  0
  152.5094  143.5834  156.9765 H   0  0  0  0  0  0  0  0  0  0  0  0
  151.0408  144.4008  157.4010 H   0  0  0  0  0  0  0  0  0  0  0  0
  152.9772  141.5836  158.6219 H   0  0  0  0  0  0  0  0  0  0  0  0
  153.6691  141.2242  160.9786 H   0  0  0  0  0  0  0  0  0  0  0  0
  152.9605  142.9418  162.7029 H   0  0  0  0  0  0  0  0  0  0  0  0
  151.6453  144.8564  162.0420 H   0  0  0  0  0  0  0  0  0  0  0  0
  149.8969  143.4662  155.7158 H   0  0  0  0  0  0  0  0  0  0  0  0
  148.5146  142.0123  154.6365 H   0  0  0  0  0  0  0  0  0  0  0  0
  148.6779  140.2498  157.1503 H   0  0  0  0  0  0  0  0  0  0  0  0
  147.8573  141.7802  157.1762 H   0  0  0  0  0  0  0  0  0  0  0  0
  146.2139  140.0893  156.7975 H   0  0  0  0  0  0  0  0  0  0  0  0
  146.3195  141.0923  155.3810 H   0  0  0  0  0  0  0  0  0  0  0  0
  147.5267  138.2939  155.6939 H   0  0  0  0  0  0  0  0  0  0  0  0
  146.0828  138.7091  154.8154 H   0  0  0  0  0  0  0  0  0  0  0  0
  147.7404  138.4966  153.1379 H   0  0  0  0  0  0  0  0  0  0  0  0
  147.5295  140.2226  153.2940 H   0  0  0  0  0  0  0  0  0  0  0  0
  149.8858  138.6957  153.7072 H   0  0  0  0  0  0  0  0  0  0  0  0
  1  2  2  0  0  0  0
  2  3  1  0  0  0  0
  2 11  1  0  0  0  0
  3  4  1  0  0  0  0
  3 20  1  0  0  0  0
  3 21  1  0  0  0  0
  4  9  1  0  0  0  0
  4  5  1  0  0  0  0
  5  6  2  0  0  0  0
  5 22  1  0  0  0  0
  6  7  1  0  0  0  0
  6 23  1  0  0  0  0
  7  8  2  0  0  0  0
  7 24  1  0  0  0  0
  8  9  1  0  0  0  0
  8 25  1  0  0  0  0
  9 10  2  0  0  0  0
 11 12  1  0  0  0  0
 11 26  1  0  0  0  0
 12 18  1  0  0  0  0
 12 13  1  0  0  0  0
 12 27  1  0  0  0  0
 13 14  1  0  0  0  0
 13 28  1  0  0  0  0
 13 29  1  0  0  0  0
 14 15  1  0  0  0  0
 14 30  1  0  0  0  0
 14 31  1  0  0  0  0
 15 16  1  0  0  0  0
 15 32  1  0  0  0  0
 15 33  1  0  0  0  0
 16 17  1  0  0  0  0
 16 34  1  0  0  0  0
 16 35  1  0  0  0  0
 17 18  1  0  0  0  0
 17 36  1  0  0  0  0
 18 19  2  0  0  0  0
M  END
> <s_m_source_file>
AV-unprocessed.smi

> <i_m_source_file_index>
2019

> <i_lp_mmshare_version>
43012

> <i_f3d_flags>
0

> <s_epik_input>
Tz1jMVtjSF1bY0hdW2NIXVtjSF1uMVtDSDJdQyg9TylbTkhdW0NAQEhdMltDSDJdW0NIMl1bQ0gyXVtDSDJdW05IXUMyPU8=

> <s_epik_cmdline>
J2VwaWtfcHl0aG9uJywgJy1waCcsICc3LjAnLCAnLXRuJywgJzgnLCAnLW1hJywgJzIwMCcsICctbWV0YWxfYmluZGluZycsICctaW1hZScsICc8aW5maWxlLm1hZT4nLCAnLW9tYWUnLCAnPG91dGZpbGUubWFlPic=

> <r_lp_tautomer_probability>
1

> <r_epik_Ionization_Penalty>
3.70786e-07

> <r_epik_Ionization_Penalty_Charging>
3.17464e-07

> <r_epik_Ionization_Penalty_Neutral>
5.33217e-08

> <r_epik_State_Penalty>
-0

> <r_epik_Charging_Adjusted_Penalty>
3.17464e-07

> <i_epik_Tot_Q>
0

> <i_epik_Tot_abs_Q>
0

> <r_epik_Metal_State_Penalty>
-0

> <b_epik_Metal_Only>
0

> <s_lp_Force_Field>
OPLS_2005

> <r_lp_Energy>
20.44

> <b_lp_Chiralities_Consistent>
1

> <s_lp_Variant>
AV-unprocessed.smi:2019-1

> <Gold.Version>
5.8.1

> <Gold.Id.Protein>
6NUR|6NUR_protein|mol2

> <Gold.PLP.Fitness>
44.7887

> <Gold.PLP.PLP>
-39.6613

> <Gold.PLP.part.hbond>
-2.9025

> <Gold.PLP.part.metal>
0.0000

> <Gold.PLP.part.buried>
-5.3722

> <Gold.PLP.part.nonpolar>
-32.2794

> <Gold.PLP.part.repulsive>
0.4640

> <Gold.PLP.ligand.clash>
0.0000

> <Gold.PLP.ligand.torsion>
0.3768

> <Gold.PLP.Chemscore.Hbond>
1.9600

> <Gold.PLP.Chemscore.CHOScore>
0.0000

> <Gold.PLP.Chemscore.Metal>
0.0000

> <Gold.Chemscore.Hbonds>
donor molecule, donor type, donor heavy atom, donor atom, acceptor molecule, acceptor atom, score
      L1  H    11    26       P1  8028  0.86
      P1  H  7989  7998       L1    19  0.85

> <Gold.PLP.Chemscore.Internal.Correction>
0.0010

> <Gold.Rescore>
     Score         DG    S(hbond)    S(metal)    S(lipo)     H(rot)  DE(clash)    DE(int)     intcor
     12.62     -15.98       1.97        0.00      68.43       1.59       0.01       3.35       ----

> <Gold.Chemscore.Fitness>
12.6178

> <Gold.Chemscore.DG>
-15.9765

> <Gold.Chemscore.ZeroCoef>
-5.4800

> <Gold.Chemscore.Hbond>
1.9672

> <Gold.Chemscore.Metal>
0.0000

> <Gold.Chemscore.Lipo>
68.4305

> <Gold.Chemscore.Internal_Hbond>
0.0000

> <Gold.Chemscore.DEClash>
0.0081

> <Gold.Chemscore.DEInternal>
3.3507

> <Gold.Chemscore.Rot>
1.5939

> <Gold.Chemscore.Internal.Correction>
   9.000000E+99

> <Gold.Chemscore.Hbonds>
donor molecule, donor type, donor heavy atom, donor atom, acceptor molecule, acceptor atom, score
      L1  H    11    26       P1  8028  0.84
      P1  H  7989  7998       L1    19  0.14

> <Gold.Chemscore.Hbond.Weighted>
-6.5706

> <Gold.Chemscore.Metal.Weighted>
-0.0000

> <Gold.Chemscore.Lipo.Weighted>
-8.0064

> <Gold.Chemscore.Internal_Hbond.Weighted>
0.0000

> <Gold.Chemscore.DEClash.Weighted>
0.0081

> <Gold.Chemscore.DEInternal.Weighted>
3.3507

> <Gold.Chemscore.Rot.Weighted>
4.0804

> <Gold.Chemscore.Internal.Correction.Weighted>
   9.000000E+99

> <Gold.Protein.RotatedTorsions>
[ 6907 6896 6895 6894 ] final  -50.24 input  -60.11 | X-H torsion
[ 7974 7965 7964 7962 ] final  -14.66 input  175.53 | X-H torsion
[ 8008 7997 7996 7995 ] final   41.83 input   59.86 | X-H torsion
[ 10167 10162 10161 10158 ] final   39.29 input  -65.29 | X-H torsion
[ 10718 10713 10712 10709 ] final  -62.99 input   66.30 | X-H torsion
[ 10763 10752 10751 10750 ] final  -77.81 input  -60.55 | X-H torsion
[ 11005 11000 10999 10996 ] final  -84.72 input  -57.11 | X-H torsion

> <Gold.Protein.ActiveResidues>
 VAL166  LYS551  ARG553  GLY616  TRP617  ASP618  TYR619  PRO620  LYS621  CYS622 
 ASP623  PHE694  ASN695  SER759  ASP760  ASP761  ALA762  ILE779  LEU786  VAL792 
 PHE793  MET794  SER795  GLU796  ALA797  LYS798  CYS799  TRP800  GLU811  SER814 

> <Gold.Protein.RotatedAtoms>
  150.8726  134.8103  159.7165 H   0  0  0  0  0  0  0  0  0  0  0  0  # atno 6907 bound_to 6896
  152.4725  134.4922  159.9709 H   0  0  0  0  0  0  0  0  0  0  0  0  # atno 6908 bound_to 6896
  151.5009  133.3466  159.2904 H   0  0  0  0  0  0  0  0  0  0  0  0  # atno 6909 bound_to 6896
  146.2065  140.3381  142.8405 H   0  0  0  0  0  0  0  0  0  0  0  0  # atno 7974 bound_to 7965
  155.2760  140.3369  155.4261 H   0  0  0  0  0  0  0  0  0  0  0  0  # atno 8008 bound_to 7997
  156.2111  140.1770  156.7734 H   0  0  0  0  0  0  0  0  0  0  0  0  # atno 8009 bound_to 7997
  154.5688  140.0674  156.8917 H   0  0  0  0  0  0  0  0  0  0  0  0  # atno 8010 bound_to 7997
  140.3854  144.1924  150.6130 H   0  0  0  0  0  0  0  0  0  0  0  0  # atno 10167 bound_to 10162
  156.0819  130.4215  150.1214 H   0  0  0  0  0  0  0  0  0  0  0  0  # atno 10718 bound_to 10713
  154.5177  135.5751  153.6656 H   0  0  0  0  0  0  0  0  0  0  0  0  # atno 10763 bound_to 10752
  152.9910  135.6174  154.2795 H   0  0  0  0  0  0  0  0  0  0  0  0  # atno 10764 bound_to 10752
  154.2714  135.2853  155.2716 H   0  0  0  0  0  0  0  0  0  0  0  0  # atno 10765 bound_to 10752
  141.1648  133.7361  156.8909 H   0  0  0  0  0  0  0  0  0  0  0  0  # atno 11005 bound_to 11000
  144.8805  140.7394  143.5990 LP  0  0  0  0  0  0  0  0  0  0  0  0  # atno 17320 bound_to 7965
  145.3301  139.1762  143.4541 LP  0  0  0  0  0  0  0  0  0  0  0  0  # atno 17321 bound_to 7965
  140.4895  143.2352  151.8839 LP  0  0  0  0  0  0  0  0  0  0  0  0  # atno 17342 bound_to 10162
  139.4792  144.5182  151.8839 LP  0  0  0  0  0  0  0  0  0  0  0  0  # atno 17343 bound_to 10162
  156.9243  130.9693  151.3543 LP  0  0  0  0  0  0  0  0  0  0  0  0  # atno 17370 bound_to 10713
  157.5939  130.8464  149.8700 LP  0  0  0  0  0  0  0  0  0  0  0  0  # atno 17371 bound_to 10713
  140.1649  134.9140  157.2761 LP  0  0  0  0  0  0  0  0  0  0  0  0  # atno 17394 bound_to 11000
  140.2568  134.3618  155.7421 LP  0  0  0  0  0  0  0  0  0  0  0  0  # atno 17395 bound_to 11000

$$$$
