AV-unprocessed.smi:2355|AV-procd|sdf|9390|dock7
  -GOLD-   2272013 23D 1   1.00000     0.00000
 Structure written by MMmdl.
 49 50  0  0  0  0  0  0  0  0  2 V2000
  151.7696  145.6168  159.8000 C   0  0  0  0  0  0  0  0  0  0  0  0
  152.0994  144.1680  159.5089 C   0  0  0  0  0  0  0  0  0  0  0  0
  152.9323  143.4377  160.3774 C   0  0  0  0  0  0  0  0  0  0  0  0
  153.2107  142.0943  160.0591 C   0  0  0  0  0  0  0  0  0  0  0  0
  154.0975  141.2513  160.9509 C   0  0  0  0  0  0  0  0  0  0  0  0
  152.7154  141.4792  158.9640 N   0  0  0  0  0  0  0  0  0  0  0  0
  151.9100  142.1722  158.1215 C   0  0  0  0  0  0  0  0  0  0  0  0
  151.3500  141.6195  156.9393 N   0  0  0  0  0  0  0  0  0  0  0  0
  151.4787  140.3655  156.4729 C   0  0  0  0  0  0  0  0  0  0  0  0
  152.0368  139.4410  157.0638 O   0  0  0  0  0  0  0  0  0  0  0  0
  150.9262  140.2381  155.2568 N   0  0  0  0  0  0  0  0  0  0  0  0
  150.8762  139.0144  154.4515 C   0  0  1  0  0  0  0  0  0  0  0  0
  152.3128  138.4824  154.3138 C   0  0  0  0  0  0  0  0  0  0  0  0
  149.8972  137.9740  155.0690 C   0  0  2  0  0  0  0  0  0  0  0  0
  150.5459  136.5927  155.3048 C   0  0  0  0  0  0  0  0  0  0  0  0
  148.6323  137.8804  154.2800 N   0  3  0  0  0  0  0  0  0  0  0  0
  147.5716  137.0172  154.8583 C   0  0  0  0  0  0  0  0  0  0  0  0
  146.4277  136.8532  153.8449 C   0  0  0  0  0  0  0  0  0  0  0  0
  145.9140  138.1360  153.5042 O   0  0  0  0  0  0  0  0  0  0  0  0
  146.8970  138.9636  152.8920 C   0  0  0  0  0  0  0  0  0  0  0  0
  148.0715  139.1866  153.8611 C   0  0  0  0  0  0  0  0  0  0  0  0
  151.5848  143.5254  158.3643 C   0  0  0  0  0  0  0  0  0  0  0  0
  151.5704  145.7577  160.8627 H   0  0  0  0  0  0  0  0  0  0  0  0
  150.8882  145.9389  159.2447 H   0  0  0  0  0  0  0  0  0  0  0  0
  152.6061  146.2566  159.5188 H   0  0  0  0  0  0  0  0  0  0  0  0
  153.3460  143.8965  161.2636 H   0  0  0  0  0  0  0  0  0  0  0  0
  154.6728  141.8752  161.6354 H   0  0  0  0  0  0  0  0  0  0  0  0
  154.7993  140.6679  160.3543 H   0  0  0  0  0  0  0  0  0  0  0  0
  153.4919  140.5631  161.5412 H   0  0  0  0  0  0  0  0  0  0  0  0
  150.8191  142.2620  156.3701 H   0  0  0  0  0  0  0  0  0  0  0  0
  150.4878  141.0544  154.8554 H   0  0  0  0  0  0  0  0  0  0  0  0
  150.5352  139.2662  153.4459 H   0  0  0  0  0  0  0  0  0  0  0  0
  152.3695  137.6486  153.6146 H   0  0  0  0  0  0  0  0  0  0  0  0
  152.7065  138.1440  155.2729 H   0  0  0  0  0  0  0  0  0  0  0  0
  152.9816  139.2566  153.9360 H   0  0  0  0  0  0  0  0  0  0  0  0
  149.6241  138.3654  156.0501 H   0  0  0  0  0  0  0  0  0  0  0  0
  151.3410  136.6486  156.0477 H   0  0  0  0  0  0  0  0  0  0  0  0
  150.9821  136.1892  154.3908 H   0  0  0  0  0  0  0  0  0  0  0  0
  149.8215  135.8691  155.6785 H   0  0  0  0  0  0  0  0  0  0  0  0
  147.9755  136.0396  155.1198 H   0  0  0  0  0  0  0  0  0  0  0  0
  147.1799  137.4591  155.7753 H   0  0  0  0  0  0  0  0  0  0  0  0
  146.7699  136.3325  152.9489 H   0  0  0  0  0  0  0  0  0  0  0  0
  145.6263  136.2535  154.2762 H   0  0  0  0  0  0  0  0  0  0  0  0
  147.2421  138.5076  151.9625 H   0  0  0  0  0  0  0  0  0  0  0  0
  146.4409  139.9178  152.6278 H   0  0  0  0  0  0  0  0  0  0  0  0
  147.7364  139.7465  154.7350 H   0  0  0  0  0  0  0  0  0  0  0  0
  148.8389  139.7847  153.3686 H   0  0  0  0  0  0  0  0  0  0  0  0
  150.9457  144.0665  157.6812 H   0  0  0  0  0  0  0  0  0  0  0  0
  148.9048  137.4287  153.4184 H   0  0  0  0  0  0  0  0  0  0  0  0
  1  2  1  0  0  0  0
  1 23  1  0  0  0  0
  1 24  1  0  0  0  0
  1 25  1  0  0  0  0
  2 22  1  0  0  0  0
  2  3  2  0  0  0  0
  3  4  1  0  0  0  0
  3 26  1  0  0  0  0
  4  5  1  0  0  0  0
  4  6  2  0  0  0  0
  5 27  1  0  0  0  0
  5 28  1  0  0  0  0
  5 29  1  0  0  0  0
  6  7  1  0  0  0  0
  7  8  1  0  0  0  0
  7 22  2  0  0  0  0
  8  9  1  0  0  0  0
  8 30  1  0  0  0  0
  9 10  2  0  0  0  0
  9 11  1  0  0  0  0
 11 12  1  0  0  0  0
 11 31  1  0  0  0  0
 12 13  1  0  0  0  0
 12 14  1  0  0  0  0
 12 32  1  0  0  0  0
 13 33  1  0  0  0  0
 13 34  1  0  0  0  0
 13 35  1  0  0  0  0
 14 15  1  0  0  0  0
 14 16  1  0  0  0  0
 14 36  1  0  0  0  0
 15 37  1  0  0  0  0
 15 38  1  0  0  0  0
 15 39  1  0  0  0  0
 16 21  1  0  0  0  0
 16 17  1  0  0  0  0
 16 49  1  0  0  0  0
 17 18  1  0  0  0  0
 17 40  1  0  0  0  0
 17 41  1  0  0  0  0
 18 19  1  0  0  0  0
 18 42  1  0  0  0  0
 18 43  1  0  0  0  0
 19 20  1  0  0  0  0
 20 21  1  0  0  0  0
 20 44  1  0  0  0  0
 20 45  1  0  0  0  0
 21 46  1  0  0  0  0
 21 47  1  0  0  0  0
 22 48  1  0  0  0  0
M  CHG  1  16   1
M  END
> <s_m_source_file>
AV-unprocessed.smi

> <i_m_source_file_index>
2355

> <i_lp_mmshare_version>
43012

> <i_f3d_flags>
0

> <s_epik_input>
W0NIM11jMVtjSF1jKFtDSDNdKW5jKFtjSF0xKVtOSF1DKD1PKVtOSF1bQ0BIXShbQ0gzXSlbQ0BIXShbQ0gzXSlOMltDSDJdW0NIMl1PW0NIMl1bQ0gyXTI=

> <s_epik_cmdline>
J2VwaWtfcHl0aG9uJywgJy1waCcsICc3LjAnLCAnLXRuJywgJzgnLCAnLW1hJywgJzIwMCcsICctbWV0YWxfYmluZGluZycsICctaW1hZScsICc8aW5maWxlLm1hZT4nLCAnLW9tYWUnLCAnPG91dGZpbGUubWFlPic=

> <r_epik_Ionization_Penalty>
0.602711

> <r_epik_Ionization_Penalty_Charging>
0.602531

> <r_epik_Ionization_Penalty_Neutral>
0.000180055

> <r_epik_State_Penalty>
0.617039

> <r_epik_Charging_Adjusted_Penalty>
1.21957

> <i_epik_Tot_Q>
1

> <i_epik_Tot_abs_Q>
1

> <r_epik_Metal_State_Penalty>
0.617075

> <b_epik_Metal_Only>
0

> <s_lp_Force_Field>
OPLS_2005

> <r_lp_Energy>
26.6532

> <b_lp_Chiralities_Consistent>
1

> <s_lp_Variant>
AV-unprocessed.smi:2355-6

> <Gold.Version>
5.8.1

> <Gold.Id.Protein>
6NUR|6NUR_protein|mol2

> <Gold.PLP.Fitness>
46.1704

> <Gold.PLP.PLP>
-43.1475

> <Gold.PLP.part.hbond>
-1.0000

> <Gold.PLP.part.metal>
0.0000

> <Gold.PLP.part.buried>
-5.7086

> <Gold.PLP.part.nonpolar>
-36.6321

> <Gold.PLP.part.repulsive>
1.1920

> <Gold.PLP.ligand.clash>
0.0000

> <Gold.PLP.ligand.torsion>
1.5602

> <Gold.PLP.Chemscore.Hbond>
2.0000

> <Gold.PLP.Chemscore.CHOScore>
0.0000

> <Gold.PLP.Chemscore.Metal>
0.0000

> <Gold.Chemscore.Hbonds>
donor molecule, donor type, donor heavy atom, donor atom, acceptor molecule, acceptor atom, score
      L1  H    16    49       P1  7948  2.00

> <Gold.PLP.Chemscore.Internal.Correction>
0.1433

> <Gold.Rescore>
     Score         DG    S(hbond)    S(metal)    S(lipo)     H(rot)  DE(clash)    DE(int)     intcor
     14.12     -18.22       1.00        0.00     112.03       1.45       0.39       3.72       ----

> <Gold.Chemscore.Fitness>
14.1154

> <Gold.Chemscore.DG>
-18.2230

> <Gold.Chemscore.ZeroCoef>
-5.4800

> <Gold.Chemscore.Hbond>
0.9992

> <Gold.Chemscore.Metal>
0.0000

> <Gold.Chemscore.Lipo>
112.0326

> <Gold.Chemscore.Internal_Hbond>
0.0000

> <Gold.Chemscore.DEClash>
0.3864

> <Gold.Chemscore.DEInternal>
3.7211

> <Gold.Chemscore.Rot>
1.4462

> <Gold.Chemscore.Internal.Correction>
   9.000000E+99

> <Gold.Chemscore.Hbonds>
donor molecule, donor type, donor heavy atom, donor atom, acceptor molecule, acceptor atom, score
      L1  H    16    49       P1  7948  0.99

> <Gold.Chemscore.Hbond.Weighted>
-3.3374

> <Gold.Chemscore.Metal.Weighted>
-0.0000

> <Gold.Chemscore.Lipo.Weighted>
-13.1078

> <Gold.Chemscore.Internal_Hbond.Weighted>
0.0000

> <Gold.Chemscore.DEClash.Weighted>
0.3864

> <Gold.Chemscore.DEInternal.Weighted>
3.7211

> <Gold.Chemscore.Rot.Weighted>
3.7023

> <Gold.Chemscore.Internal.Correction.Weighted>
   9.000000E+99

> <Gold.Protein.RotatedTorsions>
[ 6907 6896 6895 6894 ] final -140.45 input  -60.11 | X-H torsion
[ 7974 7965 7964 7962 ] final  106.86 input  175.53 | X-H torsion
[ 8008 7997 7996 7995 ] final   38.61 input   59.86 | X-H torsion
[ 10167 10162 10161 10158 ] final   63.73 input  -65.29 | X-H torsion
[ 10718 10713 10712 10709 ] final   53.32 input   66.30 | X-H torsion
[ 10763 10752 10751 10750 ] final   77.19 input  -60.55 | X-H torsion
[ 11005 11000 10999 10996 ] final   28.66 input  -57.11 | X-H torsion

> <Gold.Protein.ActiveResidues>
 VAL166  LYS551  ARG553  GLY616  TRP617  ASP618  TYR619  PRO620  LYS621  CYS622 
 ASP623  PHE694  ASN695  SER759  ASP760  ASP761  ALA762  ILE779  LEU786  VAL792 
 PHE793  MET794  SER795  GLU796  ALA797  LYS798  CYS799  TRP800  GLU811  SER814 

> <Gold.Protein.RotatedAtoms>
  151.0609  133.5545  159.2634 H   0  0  0  0  0  0  0  0  0  0  0  0  # atno 6907 bound_to 6896
  151.2520  135.0624  159.9075 H   0  0  0  0  0  0  0  0  0  0  0  0  # atno 6908 bound_to 6896
  152.5397  134.0368  159.8103 H   0  0  0  0  0  0  0  0  0  0  0  0  # atno 6909 bound_to 6896
  145.3011  139.2569  143.3813 H   0  0  0  0  0  0  0  0  0  0  0  0  # atno 7974 bound_to 7965
  155.2230  140.3332  155.4313 H   0  0  0  0  0  0  0  0  0  0  0  0  # atno 8008 bound_to 7997
  156.2325  140.1857  156.7251 H   0  0  0  0  0  0  0  0  0  0  0  0  # atno 8009 bound_to 7997
  154.6003  140.0624  156.9345 H   0  0  0  0  0  0  0  0  0  0  0  0  # atno 8010 bound_to 7997
  140.1299  144.4653  150.6871 H   0  0  0  0  0  0  0  0  0  0  0  0  # atno 10167 bound_to 10162
  157.5156  130.8530  149.8491 H   0  0  0  0  0  0  0  0  0  0  0  0  # atno 10718 bound_to 10713
  153.0780  135.4923  154.8444 H   0  0  0  0  0  0  0  0  0  0  0  0  # atno 10763 bound_to 10752
  154.7113  135.3020  154.9195 H   0  0  0  0  0  0  0  0  0  0  0  0  # atno 10764 bound_to 10752
  153.9888  135.6781  153.4806 H   0  0  0  0  0  0  0  0  0  0  0  0  # atno 10765 bound_to 10752
  140.3132  134.2626  155.7730 H   0  0  0  0  0  0  0  0  0  0  0  0  # atno 11005 bound_to 11000
  146.3151  140.3525  142.8657 LP  0  0  0  0  0  0  0  0  0  0  0  0  # atno 17320 bound_to 7965
  144.9093  140.7737  143.5818 LP  0  0  0  0  0  0  0  0  0  0  0  0  # atno 17321 bound_to 7965
  140.6823  143.2332  151.5352 LP  0  0  0  0  0  0  0  0  0  0  0  0  # atno 17342 bound_to 10162
  139.5525  144.2359  152.1555 LP  0  0  0  0  0  0  0  0  0  0  0  0  # atno 17343 bound_to 10162
  156.0318  130.3762  150.1667 LP  0  0  0  0  0  0  0  0  0  0  0  0  # atno 17370 bound_to 10713
  156.9856  130.9878  151.3427 LP  0  0  0  0  0  0  0  0  0  0  0  0  # atno 17371 bound_to 10713
  141.2103  133.7722  156.9938 LP  0  0  0  0  0  0  0  0  0  0  0  0  # atno 17394 bound_to 11000
  140.1006  134.9537  157.1917 LP  0  0  0  0  0  0  0  0  0  0  0  0  # atno 17395 bound_to 11000

$$$$
