AV-unprocessed.smi:1891|AV-procd|sdf|7666|dock9
  -GOLD-   22720 9403D 1   1.00000     0.00000
 Structure written by MMmdl.
 36 38  0  0  0  0  0  0  0  0  1 V2000
  148.6752  134.9702  154.3397 O   0  0  0  0  0  0  0  0  0  0  0  0
  147.2832  134.7848  154.4993 C   0  0  0  0  0  0  0  0  0  0  0  0
  146.5867  134.2796  153.2673 C   0  0  0  0  0  0  0  0  0  0  0  0
  145.5438  134.9045  152.7151 N   0  0  0  0  0  0  0  0  0  0  0  0
  145.2437  134.1041  151.6311 C   0  0  0  0  0  0  0  0  0  0  0  0
  144.2348  134.2273  150.6494 C   0  0  0  0  0  0  0  0  0  0  0  0
  144.1212  133.2711  149.6190 C   0  0  0  0  0  0  0  0  0  0  0  0
  145.0142  132.1819  149.5545 C   0  0  0  0  0  0  0  0  0  0  0  0
  146.0264  132.0407  150.5232 C   0  0  0  0  0  0  0  0  0  0  0  0
  146.1332  132.9964  151.5513 C   0  0  0  0  0  0  0  0  0  0  0  0
  146.9870  133.1438  152.6401 N   0  0  0  0  0  0  0  0  0  0  0  0
  148.0743  132.2426  153.0000 C   0  0  0  0  0  0  0  0  0  0  0  0
  147.5759  130.9894  153.7492 C   0  0  1  0  0  0  0  0  0  0  0  0
  146.2188  131.1890  154.0918 O   0  0  0  0  0  0  0  0  0  0  0  0
  147.7950  129.7063  152.9549 C   0  0  0  0  0  0  0  0  0  0  0  0
  146.9380  129.3732  151.8815 C   0  0  0  0  0  0  0  0  0  0  0  0
  147.1550  128.1997  151.1343 C   0  0  0  0  0  0  0  0  0  0  0  0
  148.2313  127.3505  151.4533 C   0  0  0  0  0  0  0  0  0  0  0  0
  148.4408  126.2227  150.7339 F   0  0  0  0  0  0  0  0  0  0  0  0
  149.0904  127.6759  152.5195 C   0  0  0  0  0  0  0  0  0  0  0  0
  148.8750  128.8488  153.2688 C   0  0  0  0  0  0  0  0  0  0  0  0
  149.7186  129.1504  154.2851 F   0  0  0  0  0  0  0  0  0  0  0  0
  148.8230  135.4828  153.5599 H   0  0  0  0  0  0  0  0  0  0  0  0
  147.1182  134.0809  155.3151 H   0  0  0  0  0  0  0  0  0  0  0  0
  146.8479  135.7382  154.7949 H   0  0  0  0  0  0  0  0  0  0  0  0
  143.5467  135.0584  150.6901 H   0  0  0  0  0  0  0  0  0  0  0  0
  143.3453  133.3740  148.8747 H   0  0  0  0  0  0  0  0  0  0  0  0
  144.9207  131.4542  148.7616 H   0  0  0  0  0  0  0  0  0  0  0  0
  146.7103  131.2061  150.4783 H   0  0  0  0  0  0  0  0  0  0  0  0
  148.5714  131.9464  152.0749 H   0  0  0  0  0  0  0  0  0  0  0  0
  148.8230  132.7733  153.5877 H   0  0  0  0  0  0  0  0  0  0  0  0
  148.1073  130.9057  154.6975 H   0  0  0  0  0  0  0  0  0  0  0  0
  146.1713  131.4401  155.0013 H   0  0  0  0  0  0  0  0  0  0  0  0
  146.1144  130.0206  151.6192 H   0  0  0  0  0  0  0  0  0  0  0  0
  146.4972  127.9526  150.3141 H   0  0  0  0  0  0  0  0  0  0  0  0
  149.9187  127.0268  152.7617 H   0  0  0  0  0  0  0  0  0  0  0  0
  1  2  1  0  0  0  0
  1 23  1  0  0  0  0
  2  3  1  0  0  0  0
  2 24  1  0  0  0  0
  2 25  1  0  0  0  0
  3 11  1  0  0  0  0
  3  4  2  0  0  0  0
  4  5  1  0  0  0  0
  5 10  2  0  0  0  0
  5  6  1  0  0  0  0
  6  7  2  0  0  0  0
  6 26  1  0  0  0  0
  7  8  1  0  0  0  0
  7 27  1  0  0  0  0
  8  9  2  0  0  0  0
  8 28  1  0  0  0  0
  9 10  1  0  0  0  0
  9 29  1  0  0  0  0
 10 11  1  0  0  0  0
 11 12  1  0  0  0  0
 12 13  1  0  0  0  0
 12 30  1  0  0  0  0
 12 31  1  0  0  0  0
 13 14  1  0  0  0  0
 13 15  1  0  0  0  0
 13 32  1  0  0  0  0
 14 33  1  0  0  0  0
 15 21  1  0  0  0  0
 15 16  2  0  0  0  0
 16 17  1  0  0  0  0
 16 34  1  0  0  0  0
 17 18  2  0  0  0  0
 17 35  1  0  0  0  0
 18 19  1  0  0  0  0
 18 20  1  0  0  0  0
 20 21  2  0  0  0  0
 20 36  1  0  0  0  0
 21 22  1  0  0  0  0
M  END
> <s_m_source_file>
AV-unprocessed.smi

> <i_m_source_file_index>
1891

> <i_lp_mmshare_version>
43012

> <i_f3d_flags>
0

> <s_epik_input>
W2NIXTFbY0hdW2NIXVtjSF1jKGMxMiluKGMobjIpW0NIMl1bT0hdKVtDSDJdW0NASF0oW09IXSljM1tjSF1bY0hdYyhGKVtjSF1jM0Y=

> <s_epik_cmdline>
J2VwaWtfcHl0aG9uJywgJy1waCcsICc3LjAnLCAnLXRuJywgJzgnLCAnLW1hJywgJzIwMCcsICctbWV0YWxfYmluZGluZycsICctaW1hZScsICc8aW5maWxlLm1hZT4nLCAnLW9tYWUnLCAnPG91dGZpbGUubWFlPic=

> <r_epik_Ionization_Penalty>
0.0634724

> <r_epik_Ionization_Penalty_Charging>
0

> <r_epik_Ionization_Penalty_Neutral>
0.0634724

> <r_epik_State_Penalty>
0.0551572

> <r_epik_Charging_Adjusted_Penalty>
0.0551572

> <i_epik_Tot_Q>
0

> <i_epik_Tot_abs_Q>
0

> <r_epik_Metal_State_Penalty>
5.78034e-05

> <b_epik_Metal_Only>
0

> <s_lp_Force_Field>
OPLS_2005

> <r_lp_Energy>
13.0815

> <b_lp_Chiralities_Consistent>
1

> <s_lp_Variant>
AV-unprocessed.smi:1891-2

> <Gold.Version>
5.8.1

> <Gold.Id.Protein>
6NUR|6NUR_protein|mol2

> <Gold.PLP.Fitness>
44.1590

> <Gold.PLP.PLP>
-44.0579

> <Gold.PLP.part.hbond>
-1.0000

> <Gold.PLP.part.metal>
0.0000

> <Gold.PLP.part.buried>
-1.9201

> <Gold.PLP.part.nonpolar>
-40.6256

> <Gold.PLP.part.repulsive>
0.0792

> <Gold.PLP.ligand.clash>
0.0000

> <Gold.PLP.ligand.torsion>
1.4592

> <Gold.PLP.Chemscore.Hbond>
1.0000

> <Gold.PLP.Chemscore.CHOScore>
0.0000

> <Gold.PLP.Chemscore.Metal>
0.0000

> <Gold.Chemscore.Hbonds>
donor molecule, donor type, donor heavy atom, donor atom, acceptor molecule, acceptor atom, score
      L1  H     1    23       P1  7948  1.00

> <Gold.PLP.Chemscore.Internal.Correction>
0.0194

> <Gold.Rescore>
     Score         DG    S(hbond)    S(metal)    S(lipo)     H(rot)  DE(clash)    DE(int)     intcor
     13.00     -14.51       0.99        0.00     111.91       2.88       0.17       1.34       ----

> <Gold.Chemscore.Fitness>
13.0013

> <Gold.Chemscore.DG>
-14.5083

> <Gold.Chemscore.ZeroCoef>
-5.4800

> <Gold.Chemscore.Hbond>
0.9877

> <Gold.Chemscore.Metal>
0.0000

> <Gold.Chemscore.Lipo>
111.9125

> <Gold.Chemscore.Internal_Hbond>
0.0000

> <Gold.Chemscore.DEClash>
0.1669

> <Gold.Chemscore.DEInternal>
1.3401

> <Gold.Chemscore.Rot>
2.8767

> <Gold.Chemscore.Internal.Correction>
   9.000000E+99

> <Gold.Chemscore.Hbonds>
donor molecule, donor type, donor heavy atom, donor atom, acceptor molecule, acceptor atom, score
      L1  H     1    23       P1  7948  0.88

> <Gold.Chemscore.Hbond.Weighted>
-3.2990

> <Gold.Chemscore.Metal.Weighted>
-0.0000

> <Gold.Chemscore.Lipo.Weighted>
-13.0938

> <Gold.Chemscore.Internal_Hbond.Weighted>
0.0000

> <Gold.Chemscore.DEClash.Weighted>
0.1669

> <Gold.Chemscore.DEInternal.Weighted>
1.3401

> <Gold.Chemscore.Rot.Weighted>
7.3644

> <Gold.Chemscore.Internal.Correction.Weighted>
   9.000000E+99

> <Gold.Protein.RotatedTorsions>
[ 6907 6896 6895 6894 ] final -135.23 input  -60.11 | X-H torsion
[ 7974 7965 7964 7962 ] final -122.58 input  175.53 | X-H torsion
[ 8008 7997 7996 7995 ] final -166.87 input   59.86 | X-H torsion
[ 10167 10162 10161 10158 ] final   -8.18 input  -65.29 | X-H torsion
[ 10718 10713 10712 10709 ] final -117.38 input   66.30 | X-H torsion
[ 10763 10752 10751 10750 ] final  106.72 input  -60.55 | X-H torsion
[ 11005 11000 10999 10996 ] final  103.90 input  -57.11 | X-H torsion

> <Gold.Protein.ActiveResidues>
 VAL166  LYS551  ARG553  GLY616  TRP617  ASP618  TYR619  PRO620  LYS621  CYS622 
 ASP623  PHE694  ASN695  SER759  ASP760  ASP761  ALA762  ILE779  LEU786  VAL792 
 PHE793  MET794  SER795  GLU796  ALA797  LYS798  CYS799  TRP800  GLU811  SER814 

> <Gold.Protein.RotatedAtoms>
  150.9954  133.6109  159.2702 H   0  0  0  0  0  0  0  0  0  0  0  0  # atno 6907 bound_to 6896
  151.3314  135.0841  159.9350 H   0  0  0  0  0  0  0  0  0  0  0  0  # atno 6908 bound_to 6896
  152.5258  133.9582  159.7759 H   0  0  0  0  0  0  0  0  0  0  0  0  # atno 6909 bound_to 6896
  145.0279  140.8043  143.4341 H   0  0  0  0  0  0  0  0  0  0  0  0  # atno 7974 bound_to 7965
  155.8698  140.0991  157.1558 H   0  0  0  0  0  0  0  0  0  0  0  0  # atno 8008 bound_to 7997
  154.3996  140.1349  156.4127 H   0  0  0  0  0  0  0  0  0  0  0  0  # atno 8009 bound_to 7997
  155.7763  140.3459  155.5276 H   0  0  0  0  0  0  0  0  0  0  0  0  # atno 8010 bound_to 7997
  140.7051  143.5997  150.8810 H   0  0  0  0  0  0  0  0  0  0  0  0  # atno 10167 bound_to 10162
  156.1029  130.6187  150.9156 H   0  0  0  0  0  0  0  0  0  0  0  0  # atno 10718 bound_to 10713
  153.3969  135.3867  155.1961 H   0  0  0  0  0  0  0  0  0  0  0  0  # atno 10763 bound_to 10752
  154.8725  135.3762  154.4667 H   0  0  0  0  0  0  0  0  0  0  0  0  # atno 10764 bound_to 10752
  153.5160  135.7087  153.5817 H   0  0  0  0  0  0  0  0  0  0  0  0  # atno 10765 bound_to 10752
  139.8787  134.9280  156.5280 H   0  0  0  0  0  0  0  0  0  0  0  0  # atno 11005 bound_to 11000
  145.1809  139.2352  143.5293 LP  0  0  0  0  0  0  0  0  0  0  0  0  # atno 17320 bound_to 7965
  146.3494  140.1583  142.8591 LP  0  0  0  0  0  0  0  0  0  0  0  0  # atno 17321 bound_to 7965
  139.9722  143.6044  152.2970 LP  0  0  0  0  0  0  0  0  0  0  0  0  # atno 17342 bound_to 10162
  139.6635  144.7662  151.1918 LP  0  0  0  0  0  0  0  0  0  0  0  0  # atno 17343 bound_to 10162
  157.6202  131.0930  150.8636 LP  0  0  0  0  0  0  0  0  0  0  0  0  # atno 17370 bound_to 10713
  156.8760  130.5162  149.5294 LP  0  0  0  0  0  0  0  0  0  0  0  0  # atno 17371 bound_to 10713
  140.8402  133.8211  155.9067 LP  0  0  0  0  0  0  0  0  0  0  0  0  # atno 17394 bound_to 11000
  140.9245  134.2100  157.4905 LP  0  0  0  0  0  0  0  0  0  0  0  0  # atno 17395 bound_to 11000

$$$$
