AV-unprocessed.smi:616|AV-procd|sdf|3072|dock5
  -GOLD-   2262023593D 1   1.00000     0.00000
 Structure written by MMmdl.
 34 35  0  0  0  0  0  0  0  0  1 V2000
  150.6864  144.7240  160.1651 C   0  0  0  0  0  0  0  0  0  0  0  0
  151.6312  143.5474  160.3464 C   0  0  0  0  0  0  0  0  0  0  0  0
  152.3482  143.4320  161.4865 C   0  0  0  0  0  0  0  0  0  0  0  0
  153.2754  142.3263  161.7309 C   0  0  0  0  0  0  0  0  0  0  0  0
  153.9283  142.2333  162.7707 O   0  0  0  0  0  0  0  0  0  0  0  0
  153.3681  141.4069  160.7313 N   0  0  0  0  0  0  0  0  0  0  0  0
  154.2692  140.2603  160.8772 C   0  0  0  0  0  0  0  0  0  0  0  0
  152.6336  141.5180  159.5384 C   0  0  0  0  0  0  0  0  0  0  0  0
  151.7763  142.5371  159.3053 C   0  0  0  0  0  0  0  0  0  0  0  0
  151.0270  142.6967  158.1263 N   0  0  0  0  0  0  0  0  0  0  0  0
  150.9208  141.8903  157.0530 C   0  0  0  0  0  0  0  0  0  0  0  0
  151.4702  140.7985  156.9084 O   0  0  0  0  0  0  0  0  0  0  0  0
  150.1134  142.4318  156.1302 N   0  0  0  0  0  0  0  0  0  0  0  0
  149.7720  141.8159  154.8544 C   0  0  0  0  0  0  0  0  0  0  0  0
  148.3198  141.4018  154.7138 C   0  0  0  0  0  0  0  0  0  0  0  0
  147.7551  140.9664  153.3812 C   0  0  0  0  0  0  0  0  0  0  0  0
  147.3422  142.2890  153.9789 C   0  0  0  0  0  0  0  0  0  0  0  0
  150.6967  145.3881  161.0299 H   0  0  0  0  0  0  0  0  0  0  0  0
  149.6642  144.3709  160.0256 H   0  0  0  0  0  0  0  0  0  0  0  0
  150.9720  145.3086  159.2902 H   0  0  0  0  0  0  0  0  0  0  0  0
  152.2403  144.1808  162.2578 H   0  0  0  0  0  0  0  0  0  0  0  0
  154.1802  139.5448  160.0593 H   0  0  0  0  0  0  0  0  0  0  0  0
  154.0588  139.7177  161.8002 H   0  0  0  0  0  0  0  0  0  0  0  0
  155.3069  140.5952  160.9092 H   0  0  0  0  0  0  0  0  0  0  0  0
  152.8341  140.7206  158.8423 H   0  0  0  0  0  0  0  0  0  0  0  0
  150.4879  143.5494  158.0898 H   0  0  0  0  0  0  0  0  0  0  0  0
  149.7007  143.3322  156.3258 H   0  0  0  0  0  0  0  0  0  0  0  0
  149.9942  142.5405  154.0709 H   0  0  0  0  0  0  0  0  0  0  0  0
  150.4200  140.9575  154.6678 H   0  0  0  0  0  0  0  0  0  0  0  0
  147.9211  140.8998  155.5935 H   0  0  0  0  0  0  0  0  0  0  0  0
  148.4163  140.9904  152.5174 H   0  0  0  0  0  0  0  0  0  0  0  0
  147.0242  140.1607  153.3861 H   0  0  0  0  0  0  0  0  0  0  0  0
  146.3341  142.3663  154.3807 H   0  0  0  0  0  0  0  0  0  0  0  0
  147.7283  143.1917  153.5096 H   0  0  0  0  0  0  0  0  0  0  0  0
  1  2  1  0  0  0  0
  1 18  1  0  0  0  0
  1 19  1  0  0  0  0
  1 20  1  0  0  0  0
  2  9  1  0  0  0  0
  2  3  2  0  0  0  0
  3  4  1  0  0  0  0
  3 21  1  0  0  0  0
  4  5  2  0  0  0  0
  4  6  1  0  0  0  0
  6  7  1  0  0  0  0
  6  8  1  0  0  0  0
  7 22  1  0  0  0  0
  7 23  1  0  0  0  0
  7 24  1  0  0  0  0
  8  9  2  0  0  0  0
  8 25  1  0  0  0  0
  9 10  1  0  0  0  0
 10 11  1  0  0  0  0
 10 26  1  0  0  0  0
 11 12  2  0  0  0  0
 11 13  1  0  0  0  0
 13 14  1  0  0  0  0
 13 27  1  0  0  0  0
 14 15  1  0  0  0  0
 14 28  1  0  0  0  0
 14 29  1  0  0  0  0
 15 17  1  0  0  0  0
 15 16  1  0  0  0  0
 15 30  1  0  0  0  0
 16 17  1  0  0  0  0
 16 31  1  0  0  0  0
 16 32  1  0  0  0  0
 17 33  1  0  0  0  0
 17 34  1  0  0  0  0
M  END
> <s_m_source_file>
AV-unprocessed.smi

> <i_m_source_file_index>
616

> <i_lp_mmshare_version>
43012

> <i_f3d_flags>
0

> <s_epik_input>
W0NIM11jMVtjSF1jKD1PKW4oW0NIM10pW2NIXWMxW05IXUMoPU8pW05IXVtDSDJdW0NIXTJbQ0gyXVtDSDJdMg==

> <s_epik_cmdline>
J2VwaWtfcHl0aG9uJywgJy1waCcsICc3LjAnLCAnLXRuJywgJzgnLCAnLW1hJywgJzIwMCcsICctbWV0YWxfYmluZGluZycsICctaW1hZScsICc8aW5maWxlLm1hZT4nLCAnLW9tYWUnLCAnPG91dGZpbGUubWFlPic=

> <r_lp_tautomer_probability>
1

> <r_epik_Ionization_Penalty>
2.97505e-05

> <r_epik_Ionization_Penalty_Charging>
8.23988e-06

> <r_epik_Ionization_Penalty_Neutral>
2.15106e-05

> <r_epik_State_Penalty>
-0

> <r_epik_Charging_Adjusted_Penalty>
8.23988e-06

> <i_epik_Tot_Q>
0

> <i_epik_Tot_abs_Q>
0

> <r_epik_Metal_State_Penalty>
-0

> <b_epik_Metal_Only>
0

> <s_lp_Force_Field>
OPLS_2005

> <r_lp_Energy>
26.2007

> <b_lp_Chiralities_Consistent>
1

> <s_lp_Variant>
AV-unprocessed.smi:616-1

> <Gold.Version>
5.8.1

> <Gold.Id.Protein>
6NUR|6NUR_protein|mol2

> <Gold.PLP.Fitness>
44.7869

> <Gold.PLP.PLP>
-41.9709

> <Gold.PLP.part.hbond>
-2.0000

> <Gold.PLP.part.metal>
0.0000

> <Gold.PLP.part.buried>
-3.8357

> <Gold.PLP.part.nonpolar>
-35.0154

> <Gold.PLP.part.repulsive>
0.1753

> <Gold.PLP.ligand.clash>
0.0000

> <Gold.PLP.ligand.torsion>
0.3253

> <Gold.PLP.Chemscore.Hbond>
0.9760

> <Gold.PLP.Chemscore.CHOScore>
0.0000

> <Gold.PLP.Chemscore.Metal>
0.0000

> <Gold.Chemscore.Hbonds>
donor molecule, donor type, donor heavy atom, donor atom, acceptor molecule, acceptor atom, score
      L1  H    13    27       P1  8028  0.93

> <Gold.PLP.Chemscore.Internal.Correction>
0.5386

> <Gold.Rescore>
     Score         DG    S(hbond)    S(metal)    S(lipo)     H(rot)  DE(clash)    DE(int)     intcor
     13.38     -15.56       0.86        0.00      87.63       1.18       0.75       1.43       ----

> <Gold.Chemscore.Fitness>
13.3795

> <Gold.Chemscore.DG>
-15.5588

> <Gold.Chemscore.ZeroCoef>
-5.4800

> <Gold.Chemscore.Hbond>
0.8558

> <Gold.Chemscore.Metal>
0.0000

> <Gold.Chemscore.Lipo>
87.6272

> <Gold.Chemscore.Internal_Hbond>
0.0000

> <Gold.Chemscore.DEClash>
0.7502

> <Gold.Chemscore.DEInternal>
1.4291

> <Gold.Chemscore.Rot>
1.1844

> <Gold.Chemscore.Internal.Correction>
   9.000000E+99

> <Gold.Chemscore.Hbonds>
donor molecule, donor type, donor heavy atom, donor atom, acceptor molecule, acceptor atom, score
      L1  H    13    27       P1  8028  0.90

> <Gold.Chemscore.Hbond.Weighted>
-2.8584

> <Gold.Chemscore.Metal.Weighted>
-0.0000

> <Gold.Chemscore.Lipo.Weighted>
-10.2524

> <Gold.Chemscore.Internal_Hbond.Weighted>
0.0000

> <Gold.Chemscore.DEClash.Weighted>
0.7502

> <Gold.Chemscore.DEInternal.Weighted>
1.4291

> <Gold.Chemscore.Rot.Weighted>
3.0320

> <Gold.Chemscore.Internal.Correction.Weighted>
   9.000000E+99

> <Gold.Protein.RotatedTorsions>
[ 6907 6896 6895 6894 ] final  161.08 input  -60.11 | X-H torsion
[ 7974 7965 7964 7962 ] final  130.86 input  175.53 | X-H torsion
[ 8008 7997 7996 7995 ] final  104.29 input   59.86 | X-H torsion
[ 10167 10162 10161 10158 ] final  155.67 input  -65.29 | X-H torsion
[ 10718 10713 10712 10709 ] final  130.03 input   66.30 | X-H torsion
[ 10763 10752 10751 10750 ] final  -89.17 input  -60.55 | X-H torsion
[ 11005 11000 10999 10996 ] final -146.37 input  -57.11 | X-H torsion

> <Gold.Protein.ActiveResidues>
 VAL166  LYS551  ARG553  GLY616  TRP617  ASP618  TYR619  PRO620  LYS621  CYS622 
 ASP623  PHE694  ASN695  SER759  ASP760  ASP761  ALA762  ILE779  LEU786  VAL792 
 PHE793  MET794  SER795  GLU796  ALA797  LYS798  CYS799  TRP800  GLU811  SER814 

> <Gold.Protein.RotatedAtoms>
  151.9609  133.3695  159.4034 H   0  0  0  0  0  0  0  0  0  0  0  0  # atno 6907 bound_to 6896
  150.6964  134.4241  159.5227 H   0  0  0  0  0  0  0  0  0  0  0  0  # atno 6908 bound_to 6896
  152.1929  134.8655  160.0566 H   0  0  0  0  0  0  0  0  0  0  0  0  # atno 6909 bound_to 6896
  145.0135  139.4198  143.5233 H   0  0  0  0  0  0  0  0  0  0  0  0  # atno 7974 bound_to 7965
  156.1559  140.3150  155.8726 H   0  0  0  0  0  0  0  0  0  0  0  0  # atno 8008 bound_to 7997
  155.3878  140.0492  157.3059 H   0  0  0  0  0  0  0  0  0  0  0  0  # atno 8009 bound_to 7997
  154.5101  140.2161  155.9184 H   0  0  0  0  0  0  0  0  0  0  0  0  # atno 8010 bound_to 7997
  139.4821  144.5077  151.8072 H   0  0  0  0  0  0  0  0  0  0  0  0  # atno 10167 bound_to 10162
  157.5099  131.1096  150.9307 H   0  0  0  0  0  0  0  0  0  0  0  0  # atno 10718 bound_to 10713
  154.6525  135.5350  153.7918 H   0  0  0  0  0  0  0  0  0  0  0  0  # atno 10763 bound_to 10752
  153.0394  135.6486  154.0996 H   0  0  0  0  0  0  0  0  0  0  0  0  # atno 10764 bound_to 10752
  154.0912  135.2940  155.3251 H   0  0  0  0  0  0  0  0  0  0  0  0  # atno 10765 bound_to 10752
  140.7827  134.3060  157.5040 H   0  0  0  0  0  0  0  0  0  0  0  0  # atno 11005 bound_to 11000
  146.3474  139.9592  142.8719 LP  0  0  0  0  0  0  0  0  0  0  0  0  # atno 17320 bound_to 7965
  145.1992  140.9846  143.4166 LP  0  0  0  0  0  0  0  0  0  0  0  0  # atno 17321 bound_to 7965
  140.4577  144.1766  150.5903 LP  0  0  0  0  0  0  0  0  0  0  0  0  # atno 17342 bound_to 10162
  140.4518  143.2484  151.9338 LP  0  0  0  0  0  0  0  0  0  0  0  0  # atno 17343 bound_to 10162
  156.9951  130.5578  149.5306 LP  0  0  0  0  0  0  0  0  0  0  0  0  # atno 17370 bound_to 10713
  156.0282  130.5375  150.8465 LP  0  0  0  0  0  0  0  0  0  0  0  0  # atno 17371 bound_to 10713
  139.8740  134.9328  156.3563 LP  0  0  0  0  0  0  0  0  0  0  0  0  # atno 17394 bound_to 11000
  140.9467  133.7478  156.0217 LP  0  0  0  0  0  0  0  0  0  0  0  0  # atno 17395 bound_to 11000

$$$$
