AV-unprocessed.smi:1205|AV-procd|sdf|5041|dock10
  -GOLD-   22720 4 63D 1   1.00000     0.00000
 Structure written by MMmdl.
 49 50  0  0  0  0  0  0  0  0  2 V2000
  151.7378  141.3493  158.1761 C   0  0  0  0  0  0  0  0  0  0  0  0
  151.4785  140.5257  156.9495 C   0  0  0  0  0  0  0  0  0  0  0  0
  150.2411  140.3280  156.2706 C   0  0  0  0  0  0  0  0  0  0  0  0
  150.5920  139.5000  155.2395 C   0  0  0  0  0  0  0  0  0  0  0  0
  149.8081  138.9720  154.2619 N   0  0  0  0  0  0  0  0  0  0  0  0
  148.5175  139.2323  153.9897 C   0  0  0  0  0  0  0  0  0  0  0  0
  147.8046  140.0314  154.5973 O   0  0  0  0  0  0  0  0  0  0  0  0
  148.0811  138.5008  152.9543 N   0  0  0  0  0  0  0  0  0  0  0  0
  146.7261  138.5500  152.4136 C   0  0  0  0  0  0  0  0  0  0  0  0
  145.7777  137.5299  153.0867 C   0  0  2  0  0  0  0  0  0  0  0  0
  145.7534  137.6622  154.6250 C   0  0  0  0  0  0  0  0  0  0  0  0
  146.0820  136.1439  152.6253 N   0  3  2  0  0  0  0  0  0  0  0  0
  145.5953  135.8555  151.2504 C   0  0  0  0  0  0  0  0  0  0  0  0
  146.1781  134.5311  150.7326 C   0  0  0  0  0  0  0  0  0  0  0  0
  145.8619  133.3742  151.6919 C   0  0  0  0  0  0  0  0  0  0  0  0
  146.3009  133.7010  153.1322 C   0  0  1  0  0  0  0  0  0  0  0  0
  147.8264  133.6322  153.3214 C   0  0  0  0  0  0  0  0  0  0  0  0
  145.7190  135.0579  153.5782 C   0  0  0  0  0  0  0  0  0  0  0  0
  151.9414  139.2371  155.3198 N   0  0  0  0  0  0  0  0  0  0  0  0
  152.7727  138.4159  154.4615 C   0  0  0  0  0  0  0  0  0  0  0  0
  152.4857  139.8740  156.3791 N   0  0  0  0  0  0  0  0  0  0  0  0
  150.8199  141.8100  158.5420 H   0  0  0  0  0  0  0  0  0  0  0  0
  152.4507  142.1480  157.9697 H   0  0  0  0  0  0  0  0  0  0  0  0
  152.1447  140.7370  158.9814 H   0  0  0  0  0  0  0  0  0  0  0  0
  149.2720  140.7344  156.5177 H   0  0  0  0  0  0  0  0  0  0  0  0
  150.2632  138.2971  153.6649 H   0  0  0  0  0  0  0  0  0  0  0  0
  148.7301  137.8693  152.5073 H   0  0  0  0  0  0  0  0  0  0  0  0
  146.3301  139.5620  152.5162 H   0  0  0  0  0  0  0  0  0  0  0  0
  146.8017  138.3585  151.3437 H   0  0  0  0  0  0  0  0  0  0  0  0
  144.7732  137.7617  152.7303 H   0  0  0  0  0  0  0  0  0  0  0  0
  145.3869  138.6429  154.9293 H   0  0  0  0  0  0  0  0  0  0  0  0
  146.7460  137.5410  155.0585 H   0  0  0  0  0  0  0  0  0  0  0  0
  145.0948  136.9237  155.0819 H   0  0  0  0  0  0  0  0  0  0  0  0
  144.5054  135.8138  151.2423 H   0  0  0  0  0  0  0  0  0  0  0  0
  145.8876  136.6580  150.5722 H   0  0  0  0  0  0  0  0  0  0  0  0
  145.7768  134.3111  149.7429 H   0  0  0  0  0  0  0  0  0  0  0  0
  147.2573  134.6280  150.6086 H   0  0  0  0  0  0  0  0  0  0  0  0
  144.7873  133.1868  151.6789 H   0  0  0  0  0  0  0  0  0  0  0  0
  146.3352  132.4545  151.3460 H   0  0  0  0  0  0  0  0  0  0  0  0
  145.8768  132.9340  153.7816 H   0  0  0  0  0  0  0  0  0  0  0  0
  148.3458  134.3844  152.7276 H   0  0  0  0  0  0  0  0  0  0  0  0
  148.2132  132.6551  153.0302 H   0  0  0  0  0  0  0  0  0  0  0  0
  148.0982  133.7927  154.3650 H   0  0  0  0  0  0  0  0  0  0  0  0
  146.0720  135.2897  154.5825 H   0  0  0  0  0  0  0  0  0  0  0  0
  144.6330  134.9776  153.6412 H   0  0  0  0  0  0  0  0  0  0  0  0
  152.6524  138.7303  153.4243 H   0  0  0  0  0  0  0  0  0  0  0  0
  152.4742  137.3715  154.5554 H   0  0  0  0  0  0  0  0  0  0  0  0
  153.8236  138.5112  154.7387 H   0  0  0  0  0  0  0  0  0  0  0  0
  147.0890  136.1151  152.5516 H   0  0  0  0  0  0  0  0  0  0  0  0
  1  2  1  0  0  0  0
  1 22  1  0  0  0  0
  1 23  1  0  0  0  0
  1 24  1  0  0  0  0
  2 21  2  0  0  0  0
  2  3  1  0  0  0  0
  3  4  2  0  0  0  0
  3 25  1  0  0  0  0
  4  5  1  0  0  0  0
  4 19  1  0  0  0  0
  5  6  1  0  0  0  0
  5 26  1  0  0  0  0
  6  7  2  0  0  0  0
  6  8  1  0  0  0  0
  8  9  1  0  0  0  0
  8 27  1  0  0  0  0
  9 10  1  0  0  0  0
  9 28  1  0  0  0  0
  9 29  1  0  0  0  0
 10 11  1  0  0  0  0
 10 12  1  0  0  0  0
 10 30  1  0  0  0  0
 11 31  1  0  0  0  0
 11 32  1  0  0  0  0
 11 33  1  0  0  0  0
 12 18  1  0  0  0  0
 12 13  1  0  0  0  0
 12 49  1  0  0  0  0
 13 14  1  0  0  0  0
 13 34  1  0  0  0  0
 13 35  1  0  0  0  0
 14 15  1  0  0  0  0
 14 36  1  0  0  0  0
 14 37  1  0  0  0  0
 15 16  1  0  0  0  0
 15 38  1  0  0  0  0
 15 39  1  0  0  0  0
 16 17  1  0  0  0  0
 16 18  1  0  0  0  0
 16 40  1  0  0  0  0
 17 41  1  0  0  0  0
 17 42  1  0  0  0  0
 17 43  1  0  0  0  0
 18 44  1  0  0  0  0
 18 45  1  0  0  0  0
 19 20  1  0  0  0  0
 19 21  1  0  0  0  0
 20 46  1  0  0  0  0
 20 47  1  0  0  0  0
 20 48  1  0  0  0  0
M  CHG  1  12   1
M  END
> <s_m_source_file>
AV-unprocessed.smi

> <i_m_source_file_index>
1205

> <i_lp_mmshare_version>
43012

> <i_f3d_flags>
0

> <s_epik_input>
W0NIM11jMVtjSF1jKG4objEpW0NIM10pW05IXUMoPU8pW05IXVtDSDJdW0NASF0oW0NIM10pTjJbQ0gyXVtDSDJdW0NIMl1bQ0BASF0oW0NIM10pW0NIMl0y

> <s_epik_cmdline>
J2VwaWtfcHl0aG9uJywgJy1waCcsICc3LjAnLCAnLXRuJywgJzgnLCAnLW1hJywgJzIwMCcsICctbWV0YWxfYmluZGluZycsICctaW1hZScsICc8aW5maWxlLm1hZT4nLCAnLW9tYWUnLCAnPG91dGZpbGUubWFlPic=

> <r_lp_tautomer_probability>
1

> <r_epik_Ionization_Penalty>
0.0020309

> <r_epik_Ionization_Penalty_Charging>
0.00195276

> <r_epik_Ionization_Penalty_Neutral>
7.81448e-05

> <r_epik_State_Penalty>
0.00133177

> <r_epik_Charging_Adjusted_Penalty>
0.00328452

> <i_epik_Tot_Q>
1

> <i_epik_Tot_abs_Q>
1

> <r_epik_Metal_State_Penalty>
-0

> <b_epik_Metal_Only>
0

> <s_lp_Force_Field>
OPLS_2005

> <r_lp_Energy>
24.2768

> <b_lp_Chiralities_Consistent>
1

> <s_lp_Variant>
AV-unprocessed.smi:1205-3

> <Gold.Version>
5.8.1

> <Gold.Id.Protein>
6NUR|6NUR_protein|mol2

> <Gold.PLP.Fitness>
45.3337

> <Gold.PLP.PLP>
-35.0046

> <Gold.PLP.part.hbond>
-4.4744

> <Gold.PLP.part.metal>
0.0000

> <Gold.PLP.part.buried>
-1.9833

> <Gold.PLP.part.nonpolar>
-27.9227

> <Gold.PLP.part.repulsive>
0.2487

> <Gold.PLP.ligand.clash>
0.0000

> <Gold.PLP.ligand.torsion>
0.8119

> <Gold.PLP.Chemscore.Hbond>
3.9440

> <Gold.PLP.Chemscore.CHOScore>
0.0000

> <Gold.PLP.Chemscore.Metal>
0.0000

> <Gold.Chemscore.Hbonds>
donor molecule, donor type, donor heavy atom, donor atom, acceptor molecule, acceptor atom, score
      L1  H     8    27       P1  7948  0.93
      L1  H    12    49       P1  7948  2.00
      P1  H  7997  8008       L1    21  1.00

> <Gold.PLP.Chemscore.Internal.Correction>
0.1208

> <Gold.Rescore>
     Score         DG    S(hbond)    S(metal)    S(lipo)     H(rot)  DE(clash)    DE(int)     intcor
     17.28     -19.37       2.88        0.00      68.62       1.47       0.16       1.93       ----

> <Gold.Chemscore.Fitness>
17.2822

> <Gold.Chemscore.DG>
-19.3738

> <Gold.Chemscore.ZeroCoef>
-5.4800

> <Gold.Chemscore.Hbond>
2.8795

> <Gold.Chemscore.Metal>
0.0000

> <Gold.Chemscore.Lipo>
68.6227

> <Gold.Chemscore.Internal_Hbond>
0.0000

> <Gold.Chemscore.DEClash>
0.1608

> <Gold.Chemscore.DEInternal>
1.9308

> <Gold.Chemscore.Rot>
1.4658

> <Gold.Chemscore.Internal.Correction>
   9.000000E+99

> <Gold.Chemscore.Hbonds>
donor molecule, donor type, donor heavy atom, donor atom, acceptor molecule, acceptor atom, score
      L1  H     8    27       P1  7948  0.91
      L1  H    12    49       P1  7948  0.98
      P1  H  7997  8008       L1    21  0.98

> <Gold.Chemscore.Hbond.Weighted>
-9.6175

> <Gold.Chemscore.Metal.Weighted>
-0.0000

> <Gold.Chemscore.Lipo.Weighted>
-8.0289

> <Gold.Chemscore.Internal_Hbond.Weighted>
0.0000

> <Gold.Chemscore.DEClash.Weighted>
0.1608

> <Gold.Chemscore.DEInternal.Weighted>
1.9308

> <Gold.Chemscore.Rot.Weighted>
3.7526

> <Gold.Chemscore.Internal.Correction.Weighted>
   9.000000E+99

> <Gold.Protein.RotatedTorsions>
[ 6907 6896 6895 6894 ] final  -22.89 input  -60.11 | X-H torsion
[ 7974 7965 7964 7962 ] final   67.29 input  175.53 | X-H torsion
[ 8008 7997 7996 7995 ] final  -50.63 input   59.86 | X-H torsion
[ 10167 10162 10161 10158 ] final  118.42 input  -65.29 | X-H torsion
[ 10718 10713 10712 10709 ] final   47.17 input   66.30 | X-H torsion
[ 10763 10752 10751 10750 ] final   80.05 input  -60.55 | X-H torsion
[ 11005 11000 10999 10996 ] final  -43.56 input  -57.11 | X-H torsion

> <Gold.Protein.ActiveResidues>
 VAL166  LYS551  ARG553  GLY616  TRP617  ASP618  TYR619  PRO620  LYS621  CYS622 
 ASP623  PHE694  ASN695  SER759  ASP760  ASP761  ALA762  ILE779  LEU786  VAL792 
 PHE793  MET794  SER795  GLU796  ALA797  LYS798  CYS799  TRP800  GLU811  SER814 

> <Gold.Protein.RotatedAtoms>
  151.2119  135.0484  159.8914 H   0  0  0  0  0  0  0  0  0  0  0  0  # atno 6907 bound_to 6896
  152.5424  134.0735  159.8214 H   0  0  0  0  0  0  0  0  0  0  0  0  # atno 6908 bound_to 6896
  151.0890  133.5283  159.2648 H   0  0  0  0  0  0  0  0  0  0  0  0  # atno 6909 bound_to 6896
  145.8164  139.3061  143.1069 H   0  0  0  0  0  0  0  0  0  0  0  0  # atno 7974 bound_to 7965
  154.4066  140.1267  156.4697 H   0  0  0  0  0  0  0  0  0  0  0  0  # atno 8008 bound_to 7997
  155.7191  140.3493  155.4988 H   0  0  0  0  0  0  0  0  0  0  0  0  # atno 8009 bound_to 7997
  155.9231  140.1056  157.1182 H   0  0  0  0  0  0  0  0  0  0  0  0  # atno 8010 bound_to 7997
  139.6113  144.7082  151.2838 H   0  0  0  0  0  0  0  0  0  0  0  0  # atno 10167 bound_to 10162
  157.4557  130.8165  149.7834 H   0  0  0  0  0  0  0  0  0  0  0  0  # atno 10718 bound_to 10713
  153.1002  135.4817  154.8852 H   0  0  0  0  0  0  0  0  0  0  0  0  # atno 10763 bound_to 10752
  154.7370  135.3073  154.8797 H   0  0  0  0  0  0  0  0  0  0  0  0  # atno 10764 bound_to 10752
  153.9416  135.6833  153.4797 H   0  0  0  0  0  0  0  0  0  0  0  0  # atno 10765 bound_to 10752
  141.0392  133.6787  156.2749 H   0  0  0  0  0  0  0  0  0  0  0  0  # atno 11005 bound_to 11000
  145.9722  140.8751  143.0157 LP  0  0  0  0  0  0  0  0  0  0  0  0  # atno 17320 bound_to 7965
  144.6752  140.1961  143.7392 LP  0  0  0  0  0  0  0  0  0  0  0  0  # atno 17321 bound_to 7965
  140.7321  143.6834  150.7982 LP  0  0  0  0  0  0  0  0  0  0  0  0  # atno 17342 bound_to 10162
  140.0429  143.5328  152.2710 LP  0  0  0  0  0  0  0  0  0  0  0  0  # atno 17343 bound_to 10162
  156.0006  130.3882  150.2620 LP  0  0  0  0  0  0  0  0  0  0  0  0  # atno 17370 bound_to 10713
  157.0795  131.0139  151.3162 LP  0  0  0  0  0  0  0  0  0  0  0  0  # atno 17371 bound_to 10713
  140.6266  134.5306  157.5554 LP  0  0  0  0  0  0  0  0  0  0  0  0  # atno 17394 bound_to 11000
  139.9263  134.8050  156.1060 LP  0  0  0  0  0  0  0  0  0  0  0  0  # atno 17395 bound_to 11000

$$$$
