AV-unprocessed.smi:810|AV-procd|sdf|3809|dock6
  -GOLD-   22720 1253D 1   1.00000     0.00000
 Structure written by MMmdl.
 34 35  0  0  0  0  0  0  0  0  1 V2000
  149.5888  140.6276  157.0001 O   0  0  0  0  0  0  0  0  0  0  0  0
  149.3822  141.7777  156.6142 C   0  0  0  0  0  0  0  0  0  0  0  0
  150.0435  142.8693  157.0352 N   0  0  0  0  0  0  0  0  0  0  0  0
  151.1051  142.9519  157.9764 C   0  0  0  0  0  0  0  0  0  0  0  0
  151.6651  144.1662  158.4426 C   0  0  0  0  0  0  0  0  0  0  0  0
  152.7050  144.1146  159.3907 C   0  0  0  0  0  0  0  0  0  0  0  0
  153.1418  142.8545  159.8431 C   0  0  0  0  0  0  0  0  0  0  0  0
  152.6076  141.6902  159.4185 N   0  0  0  0  0  0  0  0  0  0  0  0
  151.6106  141.7472  158.5100 C   0  0  0  0  0  0  0  0  0  0  0  0
  148.4370  142.1008  155.7199 N   0  0  0  0  0  0  0  0  0  0  0  0
  147.5162  141.1618  155.0837 C   0  0  2  0  0  0  0  0  0  0  0  0
  148.2477  140.3992  153.9620 C   0  0  0  0  0  0  0  0  0  0  0  0
  149.4321  139.5536  154.4588 C   0  0  0  0  0  0  0  0  0  0  0  0
  149.7447  138.5636  153.5030 O   0  0  0  0  0  0  0  0  0  0  0  0
  146.2635  141.8358  154.5491 C   0  0  0  0  0  0  0  0  0  0  0  0
  146.3405  143.1045  153.7332 C   0  0  0  0  0  0  0  0  0  0  0  0
  145.7711  143.1389  155.1331 C   0  0  0  0  0  0  0  0  0  0  0  0
  149.7049  143.7545  156.6875 H   0  0  0  0  0  0  0  0  0  0  0  0
  151.3135  145.1289  158.1061 H   0  0  0  0  0  0  0  0  0  0  0  0
  153.1555  145.0217  159.7655 H   0  0  0  0  0  0  0  0  0  0  0  0
  153.9371  142.7803  160.5700 H   0  0  0  0  0  0  0  0  0  0  0  0
  151.2059  140.7964  158.1948 H   0  0  0  0  0  0  0  0  0  0  0  0
  148.3367  143.0730  155.4675 H   0  0  0  0  0  0  0  0  0  0  0  0
  147.2022  140.4225  155.8235 H   0  0  0  0  0  0  0  0  0  0  0  0
  147.5371  139.7410  153.4597 H   0  0  0  0  0  0  0  0  0  0  0  0
  148.5932  141.1044  153.2046 H   0  0  0  0  0  0  0  0  0  0  0  0
  150.3159  140.1699  154.6256 H   0  0  0  0  0  0  0  0  0  0  0  0
  149.1877  139.0691  155.4045 H   0  0  0  0  0  0  0  0  0  0  0  0
  149.8008  138.9724  152.6528 H   0  0  0  0  0  0  0  0  0  0  0  0
  145.4859  141.1328  154.2559 H   0  0  0  0  0  0  0  0  0  0  0  0
  147.3202  143.5531  153.5801 H   0  0  0  0  0  0  0  0  0  0  0  0
  145.6453  143.2089  152.9027 H   0  0  0  0  0  0  0  0  0  0  0  0
  144.6959  143.2687  155.2365 H   0  0  0  0  0  0  0  0  0  0  0  0
  146.3744  143.6090  155.9073 H   0  0  0  0  0  0  0  0  0  0  0  0
  1  2  2  0  0  0  0
  2  3  1  0  0  0  0
  2 10  1  0  0  0  0
  3  4  1  0  0  0  0
  3 18  1  0  0  0  0
  4  9  1  0  0  0  0
  4  5  2  0  0  0  0
  5  6  1  0  0  0  0
  5 19  1  0  0  0  0
  6  7  2  0  0  0  0
  6 20  1  0  0  0  0
  7  8  1  0  0  0  0
  7 21  1  0  0  0  0
  8  9  2  0  0  0  0
  9 22  1  0  0  0  0
 10 11  1  0  0  0  0
 10 23  1  0  0  0  0
 11 12  1  0  0  0  0
 11 15  1  0  0  0  0
 11 24  1  0  0  0  0
 12 13  1  0  0  0  0
 12 25  1  0  0  0  0
 12 26  1  0  0  0  0
 13 14  1  0  0  0  0
 13 27  1  0  0  0  0
 13 28  1  0  0  0  0
 14 29  1  0  0  0  0
 15 17  1  0  0  0  0
 15 16  1  0  0  0  0
 15 30  1  0  0  0  0
 16 17  1  0  0  0  0
 16 31  1  0  0  0  0
 16 32  1  0  0  0  0
 17 33  1  0  0  0  0
 17 34  1  0  0  0  0
M  END
> <s_m_source_file>
AV-unprocessed.smi

> <i_m_source_file_index>
810

> <i_lp_mmshare_version>
43012

> <i_f3d_flags>
0

> <s_epik_input>
W09IXVtDSDJdW0NIMl1bQ0BIXShbQ0hdMVtDSDJdW0NIMl0xKVtOSF1DKD1PKVtOSF1jMltjSF1bY0hdW2NIXW5bY0hdMg==

> <s_epik_cmdline>
J2VwaWtfcHl0aG9uJywgJy1waCcsICc3LjAnLCAnLXRuJywgJzgnLCAnLW1hJywgJzIwMCcsICctbWV0YWxfYmluZGluZycsICctaW1hZScsICc8aW5maWxlLm1hZT4nLCAnLW9tYWUnLCAnPG91dGZpbGUubWFlPic=

> <r_epik_Ionization_Penalty>
0.00486911

> <r_epik_Ionization_Penalty_Charging>
0

> <r_epik_Ionization_Penalty_Neutral>
0.00486911

> <r_epik_State_Penalty>
0.00350304

> <r_epik_Charging_Adjusted_Penalty>
0.00350304

> <i_epik_Tot_Q>
0

> <i_epik_Tot_abs_Q>
0

> <r_epik_Metal_State_Penalty>
-0

> <b_epik_Metal_Only>
0

> <s_lp_Force_Field>
OPLS_2005

> <r_lp_Energy>
17.5915

> <b_lp_Chiralities_Consistent>
1

> <s_lp_Variant>
AV-unprocessed.smi:810-1

> <Gold.Version>
5.8.1

> <Gold.Id.Protein>
6NUR|6NUR_protein|mol2

> <Gold.PLP.Fitness>
45.3691

> <Gold.PLP.PLP>
-37.1434

> <Gold.PLP.part.hbond>
-4.0000

> <Gold.PLP.part.metal>
0.0000

> <Gold.PLP.part.buried>
-4.6670

> <Gold.PLP.part.nonpolar>
-28.7553

> <Gold.PLP.part.repulsive>
0.1322

> <Gold.PLP.ligand.clash>
0.0000

> <Gold.PLP.ligand.torsion>
0.9385

> <Gold.PLP.Chemscore.Hbond>
3.0000

> <Gold.PLP.Chemscore.CHOScore>
0.0000

> <Gold.PLP.Chemscore.Metal>
0.0000

> <Gold.Chemscore.Hbonds>
donor molecule, donor type, donor heavy atom, donor atom, acceptor molecule, acceptor atom, score
      L1  H     3    18       P1  8028  1.00
      L1  H    10    23       P1  8028  0.99
      L1  H    14    29       P1  7957  1.00

> <Gold.PLP.Chemscore.Internal.Correction>
1.1027

> <Gold.Rescore>
     Score         DG    S(hbond)    S(metal)    S(lipo)     H(rot)  DE(clash)    DE(int)     intcor
     17.23     -19.70       2.90        0.00      89.44       2.31       0.02       2.46       ----

> <Gold.Chemscore.Fitness>
17.2267

> <Gold.Chemscore.DG>
-19.7049

> <Gold.Chemscore.ZeroCoef>
-5.4800

> <Gold.Chemscore.Hbond>
2.8963

> <Gold.Chemscore.Metal>
0.0000

> <Gold.Chemscore.Lipo>
89.4365

> <Gold.Chemscore.Internal_Hbond>
0.0000

> <Gold.Chemscore.DEClash>
0.0195

> <Gold.Chemscore.DEInternal>
2.4587

> <Gold.Chemscore.Rot>
2.3097

> <Gold.Chemscore.Internal.Correction>
   9.000000E+99

> <Gold.Chemscore.Hbonds>
donor molecule, donor type, donor heavy atom, donor atom, acceptor molecule, acceptor atom, score
      L1  H     3    18       P1  8028  0.97
      L1  H    10    23       P1  8028  0.93
      L1  H    14    29       P1  7957  0.82

> <Gold.Chemscore.Hbond.Weighted>
-9.6736

> <Gold.Chemscore.Metal.Weighted>
-0.0000

> <Gold.Chemscore.Lipo.Weighted>
-10.4641

> <Gold.Chemscore.Internal_Hbond.Weighted>
0.0000

> <Gold.Chemscore.DEClash.Weighted>
0.0195

> <Gold.Chemscore.DEInternal.Weighted>
2.4587

> <Gold.Chemscore.Rot.Weighted>
5.9127

> <Gold.Chemscore.Internal.Correction.Weighted>
   9.000000E+99

> <Gold.Protein.RotatedTorsions>
[ 6907 6896 6895 6894 ] final -121.80 input  -60.11 | X-H torsion
[ 7974 7965 7964 7962 ] final -165.63 input  175.53 | X-H torsion
[ 8008 7997 7996 7995 ] final   43.23 input   59.86 | X-H torsion
[ 10167 10162 10161 10158 ] final  150.26 input  -65.29 | X-H torsion
[ 10718 10713 10712 10709 ] final -100.92 input   66.30 | X-H torsion
[ 10763 10752 10751 10750 ] final  -99.61 input  -60.55 | X-H torsion
[ 11005 11000 10999 10996 ] final    5.57 input  -57.11 | X-H torsion

> <Gold.Protein.ActiveResidues>
 VAL166  LYS551  ARG553  GLY616  TRP617  ASP618  TYR619  PRO620  LYS621  CYS622 
 ASP623  PHE694  ASN695  SER759  ASP760  ASP761  ALA762  ILE779  LEU786  VAL792 
 PHE793  MET794  SER795  GLU796  ALA797  LYS798  CYS799  TRP800  GLU811  SER814 

> <Gold.Protein.RotatedAtoms>
  150.8517  133.7777  159.3023 H   0  0  0  0  0  0  0  0  0  0  0  0  # atno 6907 bound_to 6896
  151.5447  135.1066  159.9944 H   0  0  0  0  0  0  0  0  0  0  0  0  # atno 6908 bound_to 6896
  152.4558  133.7676  159.6837 H   0  0  0  0  0  0  0  0  0  0  0  0  # atno 6909 bound_to 6896
  144.7265  140.2786  143.6239 H   0  0  0  0  0  0  0  0  0  0  0  0  # atno 7974 bound_to 7965
  155.2992  140.3384  155.4248 H   0  0  0  0  0  0  0  0  0  0  0  0  # atno 8008 bound_to 7997
  156.2009  140.1732  156.7940 H   0  0  0  0  0  0  0  0  0  0  0  0  # atno 8009 bound_to 7997
  154.5558  140.0697  156.8725 H   0  0  0  0  0  0  0  0  0  0  0  0  # atno 8010 bound_to 7997
  139.4852  144.5536  151.7357 H   0  0  0  0  0  0  0  0  0  0  0  0  # atno 10167 bound_to 10162
  156.0178  130.5350  150.6888 H   0  0  0  0  0  0  0  0  0  0  0  0  # atno 10718 bound_to 10713
  154.7512  135.4966  153.9292 H   0  0  0  0  0  0  0  0  0  0  0  0  # atno 10763 bound_to 10752
  153.1145  135.6717  153.9450 H   0  0  0  0  0  0  0  0  0  0  0  0  # atno 10764 bound_to 10752
  153.9200  135.3089  155.3427 H   0  0  0  0  0  0  0  0  0  0  0  0  # atno 10765 bound_to 10752
  140.5692  134.0118  155.8002 H   0  0  0  0  0  0  0  0  0  0  0  0  # atno 11005 bound_to 11000
  145.7972  139.1950  143.2069 LP  0  0  0  0  0  0  0  0  0  0  0  0  # atno 17320 bound_to 7965
  146.0707  140.7872  142.9689 LP  0  0  0  0  0  0  0  0  0  0  0  0  # atno 17321 bound_to 7965
  140.5094  144.1048  150.5991 LP  0  0  0  0  0  0  0  0  0  0  0  0  # atno 17342 bound_to 10162
  140.3969  143.2724  151.9994 LP  0  0  0  0  0  0  0  0  0  0  0  0  # atno 17343 bound_to 10162
  157.4574  131.0879  151.0782 LP  0  0  0  0  0  0  0  0  0  0  0  0  # atno 17370 bound_to 10713
  157.1279  130.6090  149.5522 LP  0  0  0  0  0  0  0  0  0  0  0  0  # atno 17371 bound_to 10713
  141.1066  133.9683  157.2985 LP  0  0  0  0  0  0  0  0  0  0  0  0  # atno 17394 bound_to 11000
  139.9370  135.0195  156.8587 LP  0  0  0  0  0  0  0  0  0  0  0  0  # atno 17395 bound_to 11000

$$$$
