AV-unprocessed.smi:49|AV-procd|sdf|463|dock1
  -GOLD-   2262016333D 1   1.00000     0.00000
 Structure written by MMmdl.
 28 29  0  0  0  0  0  0  0  0  2 V2000
  147.0112  139.2530  152.9750 C   0  0  0  0  0  0  0  0  0  0  0  0
  146.6940  138.5676  151.6415 C   0  0  0  0  0  0  0  0  0  0  0  0
  145.6008  137.5568  151.7611 C   0  0  0  0  0  0  0  0  0  0  0  0
  145.6821  136.2901  151.3675 N   0  0  0  0  0  0  0  0  0  0  0  0
  144.4442  135.8398  151.7326 C   0  0  0  0  0  0  0  0  0  0  0  0
  143.9924  134.4374  151.4555 C   0  0  2  0  0  0  0  0  0  0  0  0
  144.9492  133.3842  152.0384 C   0  0  0  0  0  0  0  0  0  0  0  0
  145.7517  132.9030  150.8321 C   0  0  1  0  0  0  0  0  0  0  0  0
  146.2503  131.5944  151.0098 O   0  0  0  0  0  0  0  0  0  0  0  0
  144.7323  132.9833  149.6976 C   0  0  0  0  0  0  0  0  0  0  0  0
  143.9131  134.1701  150.0014 N   0  3  0  0  0  0  0  0  0  0  0  0
  143.6381  136.7444  152.2911 N   0  0  0  0  0  0  0  0  0  0  0  0
  144.4188  137.8453  152.3090 N   0  0  0  0  0  0  0  0  0  0  0  0
  142.9987  134.3038  151.8851 H   0  0  0  0  0  0  0  0  0  0  0  0
  146.5787  133.5879  150.6386 H   0  0  0  0  0  0  0  0  0  0  0  0
  144.1145  138.7338  152.6815 H   0  0  0  0  0  0  0  0  0  0  0  0
  147.8120  139.9830  152.8556 H   0  0  0  0  0  0  0  0  0  0  0  0
  147.3310  138.5282  153.7242 H   0  0  0  0  0  0  0  0  0  0  0  0
  146.1383  139.7768  153.3658 H   0  0  0  0  0  0  0  0  0  0  0  0
  146.4102  139.3142  150.8989 H   0  0  0  0  0  0  0  0  0  0  0  0
  147.5868  138.0724  151.2583 H   0  0  0  0  0  0  0  0  0  0  0  0
  145.5713  133.7573  152.8532 H   0  0  0  0  0  0  0  0  0  0  0  0
  144.3599  132.5545  152.4329 H   0  0  0  0  0  0  0  0  0  0  0  0
  147.1373  131.5605  150.6842 H   0  0  0  0  0  0  0  0  0  0  0  0
  145.1958  133.0512  148.7131 H   0  0  0  0  0  0  0  0  0  0  0  0
  144.0794  132.1090  149.7068 H   0  0  0  0  0  0  0  0  0  0  0  0
  142.9571  134.0357  149.7055 H   0  0  0  0  0  0  0  0  0  0  0  0
  144.3090  134.9665  149.5220 H   0  0  0  0  0  0  0  0  0  0  0  0
  1  2  1  0  0  0  0
  1 17  1  0  0  0  0
  1 18  1  0  0  0  0
  1 19  1  0  0  0  0
  2  3  1  0  0  0  0
  2 20  1  0  0  0  0
  2 21  1  0  0  0  0
  3 13  1  0  0  0  0
  3  4  2  0  0  0  0
  4  5  1  0  0  0  0
  5  6  1  0  0  0  0
  5 12  2  0  0  0  0
  6 14  1  0  0  0  0
  6 11  1  0  0  0  0
  6  7  1  0  0  0  0
  7  8  1  0  0  0  0
  7 22  1  0  0  0  0
  7 23  1  0  0  0  0
  8 15  1  0  0  0  0
  8  9  1  0  0  0  0
  8 10  1  0  0  0  0
  9 24  1  0  0  0  0
 10 11  1  0  0  0  0
 10 25  1  0  0  0  0
 10 26  1  0  0  0  0
 11 27  1  0  0  0  0
 11 28  1  0  0  0  0
 12 13  1  0  0  0  0
 13 16  1  0  0  0  0
M  CHG  1  11   1
M  END
> <s_m_source_file>
AV-unprocessed.smi

> <i_m_source_file_index>
49

> <i_lp_mmshare_version>
43012

> <i_f3d_flags>
0

> <s_epik_input>
W0NIM11bQ0gyXWMxbmMobltuSF0xKVtDQEBIXTJbQ0gyXVtDQEBIXShbT0hdKVtDSDJdW05IXTI=

> <s_epik_cmdline>
J2VwaWtfcHl0aG9uJywgJy1waCcsICc3LjAnLCAnLXRuJywgJzgnLCAnLW1hJywgJzIwMCcsICctbWV0YWxfYmluZGluZycsICctaW1hZScsICc8aW5maWxlLm1hZT4nLCAnLW9tYWUnLCAnPG91dGZpbGUubWFlPic=

> <r_lp_tautomer_probability>
0.948284

> <r_epik_Ionization_Penalty>
0.045643

> <r_epik_Ionization_Penalty_Charging>
0.0371552

> <r_epik_Ionization_Penalty_Neutral>
0.00848778

> <r_epik_State_Penalty>
0.283309

> <r_epik_Charging_Adjusted_Penalty>
0.320465

> <i_epik_Tot_Q>
1

> <i_epik_Tot_abs_Q>
1

> <r_epik_Metal_State_Penalty>
0.558162

> <b_epik_Metal_Only>
0

> <s_lp_Force_Field>
OPLS_2005

> <r_lp_Energy>
17.5806

> <b_lp_Chiralities_Consistent>
1

> <s_lp_Variant>
AV-unprocessed.smi:49-1

> <Gold.Version>
5.8.1

> <Gold.Id.Protein>
6NUR|6NUR_protein|mol2

> <Gold.PLP.Fitness>
35.0586

> <Gold.PLP.PLP>
-23.3033

> <Gold.PLP.part.hbond>
-4.0796

> <Gold.PLP.part.metal>
0.0000

> <Gold.PLP.part.buried>
0.0587

> <Gold.PLP.part.nonpolar>
-19.2095

> <Gold.PLP.part.repulsive>
0.5009

> <Gold.PLP.ligand.clash>
0.0000

> <Gold.PLP.ligand.torsion>
0.1168

> <Gold.PLP.Chemscore.Hbond>
3.9920

> <Gold.PLP.Chemscore.CHOScore>
0.0000

> <Gold.PLP.Chemscore.Metal>
0.0000

> <Gold.Chemscore.Hbonds>
donor molecule, donor type, donor heavy atom, donor atom, acceptor molecule, acceptor atom, score
      L1  H     9    24       P1 10747  1.00
      L1  H    11    27       P1 10186  2.00
      L1  H    13    16       P1 10175  1.00

> <Gold.PLP.Chemscore.Internal.Correction>
0.0128

> <Gold.Rescore>
     Score         DG    S(hbond)    S(metal)    S(lipo)     H(rot)  DE(clash)    DE(int)     intcor
     14.21     -14.98       2.76        0.00      43.75       1.89       0.46       0.32       ----

> <Gold.Chemscore.Fitness>
14.2066

> <Gold.Chemscore.DG>
-14.9849

> <Gold.Chemscore.ZeroCoef>
-5.4800

> <Gold.Chemscore.Hbond>
2.7604

> <Gold.Chemscore.Metal>
0.0000

> <Gold.Chemscore.Lipo>
43.7519

> <Gold.Chemscore.Internal_Hbond>
0.0000

> <Gold.Chemscore.DEClash>
0.4625

> <Gold.Chemscore.DEInternal>
0.3158

> <Gold.Chemscore.Rot>
1.8883

> <Gold.Chemscore.Internal.Correction>
   9.000000E+99

> <Gold.Chemscore.Hbonds>
donor molecule, donor type, donor heavy atom, donor atom, acceptor molecule, acceptor atom, score
      L1  H     9    24       P1 10747  0.95
      L1  H    11    27       P1 10186  0.96
      L1  H    13    16       P1 10175  0.95

> <Gold.Chemscore.Hbond.Weighted>
-9.2199

> <Gold.Chemscore.Metal.Weighted>
-0.0000

> <Gold.Chemscore.Lipo.Weighted>
-5.1190

> <Gold.Chemscore.Internal_Hbond.Weighted>
0.0000

> <Gold.Chemscore.DEClash.Weighted>
0.4625

> <Gold.Chemscore.DEInternal.Weighted>
0.3158

> <Gold.Chemscore.Rot.Weighted>
4.8340

> <Gold.Chemscore.Internal.Correction.Weighted>
   9.000000E+99

> <Gold.Protein.RotatedTorsions>
[ 6907 6896 6895 6894 ] final  -47.67 input  -60.11 | X-H torsion
[ 7974 7965 7964 7962 ] final   87.69 input  175.53 | X-H torsion
[ 8008 7997 7996 7995 ] final  -94.45 input   59.86 | X-H torsion
[ 10167 10162 10161 10158 ] final   71.44 input  -65.29 | X-H torsion
[ 10718 10713 10712 10709 ] final -127.98 input   66.30 | X-H torsion
[ 10763 10752 10751 10750 ] final  139.78 input  -60.55 | X-H torsion
[ 11005 11000 10999 10996 ] final   61.59 input  -57.11 | X-H torsion

> <Gold.Protein.ActiveResidues>
 VAL166  LYS551  ARG553  GLY616  TRP617  ASP618  TYR619  PRO620  LYS621  CYS622 
 ASP623  PHE694  ASN695  SER759  ASP760  ASP761  ALA762  ILE779  LEU786  VAL792 
 PHE793  MET794  SER795  GLU796  ALA797  LYS798  CYS799  TRP800  GLU811  SER814 

> <Gold.Protein.RotatedAtoms>
  150.8984  134.8394  159.7342 H   0  0  0  0  0  0  0  0  0  0  0  0  # atno 6907 bound_to 6896
  152.4878  134.4540  159.9593 H   0  0  0  0  0  0  0  0  0  0  0  0  # atno 6908 bound_to 6896
  151.4595  133.3557  159.2842 H   0  0  0  0  0  0  0  0  0  0  0  0  # atno 6909 bound_to 6896
  145.5557  139.2299  143.2488 H   0  0  0  0  0  0  0  0  0  0  0  0  # atno 7974 bound_to 7965
  154.7486  140.0489  157.0874 H   0  0  0  0  0  0  0  0  0  0  0  0  # atno 8008 bound_to 7997
  155.0086  140.3133  155.4819 H   0  0  0  0  0  0  0  0  0  0  0  0  # atno 8009 bound_to 7997
  156.2880  140.2188  156.5199 H   0  0  0  0  0  0  0  0  0  0  0  0  # atno 8010 bound_to 7997
  140.0461  144.5350  150.7398 H   0  0  0  0  0  0  0  0  0  0  0  0  # atno 10167 bound_to 10162
  156.1907  130.6793  151.0421 H   0  0  0  0  0  0  0  0  0  0  0  0  # atno 10718 bound_to 10713
  153.9117  135.3010  155.3448 H   0  0  0  0  0  0  0  0  0  0  0  0  # atno 10763 bound_to 10752
  154.7620  135.4929  153.9485 H   0  0  0  0  0  0  0  0  0  0  0  0  # atno 10764 bound_to 10752
  153.1189  135.6777  153.9471 H   0  0  0  0  0  0  0  0  0  0  0  0  # atno 10765 bound_to 10752
  140.0150  134.6238  155.9723 H   0  0  0  0  0  0  0  0  0  0  0  0  # atno 11005 bound_to 11000
  146.1886  140.6380  142.9156 LP  0  0  0  0  0  0  0  0  0  0  0  0  # atno 17320 bound_to 7965
  144.7507  140.5185  143.6803 LP  0  0  0  0  0  0  0  0  0  0  0  0  # atno 17321 bound_to 7965
  140.7238  143.2615  151.4190 LP  0  0  0  0  0  0  0  0  0  0  0  0  # atno 17342 bound_to 10162
  139.5982  144.1351  152.2168 LP  0  0  0  0  0  0  0  0  0  0  0  0  # atno 17343 bound_to 10162
  157.6927  131.0804  150.7060 LP  0  0  0  0  0  0  0  0  0  0  0  0  # atno 17370 bound_to 10713
  156.7116  130.4653  149.5546 LP  0  0  0  0  0  0  0  0  0  0  0  0  # atno 17371 bound_to 10713
  141.1737  133.6539  156.4746 LP  0  0  0  0  0  0  0  0  0  0  0  0  # atno 17394 bound_to 11000
  140.4487  134.6949  157.5028 LP  0  0  0  0  0  0  0  0  0  0  0  0  # atno 17395 bound_to 11000

$$$$
