#       Name:                AV-unprocessed.smi:509
#       Creating user name   scv26
#       Creation time:       Thu Mar 26 23:22:38 2020


#       File generated by GOLD software.
#

@<TRIPOS>MOLECULE
AV-unprocessed.smi:509
    53    55     1
SMALL
NO_CHARGES


@<TRIPOS>ATOM
      1 ****        -2.9005   1.8650   1.4874 C.3            1 S1                 0.0000
      2 ****        -2.1688   0.7639   0.9796 O.3            1 S1                 0.0000
      3 ****        -2.4404   0.5158  -0.3902 C.3            1 S1                 0.0000
      4 ****        -1.5897  -0.6658  -0.8751 C.3            1 S1                 0.0000
      5 ****        -0.1580  -0.3912  -0.7582 N.pl3          1 S1                 0.0000
      6 ****         0.6891  -0.6646   0.2735 C.2            1 S1                 0.0000
      7 ****         0.2799  -1.3215   1.4361 N.pl3          1 S1                 0.0000
      8 ****        -0.3396  -2.6438   1.5184 C.3            1 S1                 0.0000
      9 ****        -1.5881  -2.6269   2.4195 C.3            1 S1                 0.0000
     10 ****        -1.2431  -2.1277   3.7667 N.4            1 S1                 1.0000
     11 ****        -0.5369  -0.8304   3.7286 C.3            1 S1                 0.0000
     12 ****         0.6729  -0.8954   2.7781 C.3            1 S1                 0.0000
     13 ****         1.9316  -0.2060   0.1041 N.2            1 S1                 0.0000
     14 ****         1.8826   0.3867  -1.1475 C.2            1 S1                 0.0000
     15 ****         0.6409   0.2960  -1.6774 C.2            1 S1                 0.0000
     16 ****         0.2923   0.8830  -2.9780 C.2            1 S1                 0.0000
     17 ****        -0.8530   0.8206  -3.4271 O.2            1 S1                 0.0000
     18 ****         1.3376   1.4987  -3.6137 N.am           1 S1                 0.0000
     19 ****         1.0381   2.0984  -4.9280 C.3            1 S1                 0.0000
     20 ****         2.6183   1.6245  -3.1028 C.2            1 S1                 0.0000
     21 ****         3.5005   2.2321  -3.7153 O.2            1 S1                 0.0000
     22 ****         2.8918   1.0603  -1.8823 N.am           1 S1                 0.0000
     23 ****         4.2378   1.1657  -1.3115 C.3            1 S1                 0.0000
     24 ****        -2.6618   2.0083   2.5412 H              1 S1                 0.0000
     25 ****        -3.9749   1.6967   1.4050 H              1 S1                 0.0000
     26 ****        -2.6474   2.7840   0.9570 H              1 S1                 0.0000
     27 ****        -3.4986   0.2877  -0.5238 H              1 S1                 0.0000
     28 ****        -2.2211   1.4051  -0.9831 H              1 S1                 0.0000
     29 ****        -1.8570  -1.5552  -0.3153 H              1 S1                 0.0000
     30 ****        -1.8253  -0.9084  -1.9102 H              1 S1                 0.0000
     31 ****        -0.5795  -3.0204   0.5249 H              1 S1                 0.0000
     32 ****         0.3931  -3.3436   1.9228 H              1 S1                 0.0000
     33 ****        -2.3603  -1.9869   1.9908 H              1 S1                 0.0000
     34 ****        -2.0121  -3.6275   2.5048 H              1 S1                 0.0000
     35 ****        -2.0842  -2.0373   4.3183 H              1 S1                 0.0000
     36 ****        -1.2322  -0.0575   3.3998 H              1 S1                 0.0000
     37 ****        -0.2176  -0.5639   4.7362 H              1 S1                 0.0000
     38 ****         1.4252  -1.5830   3.1672 H              1 S1                 0.0000
     39 ****         1.1464   0.0860   2.7277 H              1 S1                 0.0000
     40 ****         1.9182   2.3141  -5.5348 H              1 S1                 0.0000
     41 ****         0.4958   3.0354  -4.7946 H              1 S1                 0.0000
     42 ****         0.4206   1.4387  -5.5403 H              1 S1                 0.0000
     43 ****         4.9862   0.7920  -2.0119 H              1 S1                 0.0000
     44 ****         4.3512   0.5950  -0.3899 H              1 S1                 0.0000
     45 ****         4.4732   2.2061  -1.0841 H              1 S1                 0.0000
     46 ****        -0.6339  -2.8030   4.2059 H              1 S1                 0.0000
     47 ****        -2.4090  -0.0512   1.5068 LP             1 S1                 0.0000
     48 ****        -1.1923   0.9524   1.0838 LP             1 S1                 0.0000
     49 ****         2.7093  -0.2738   0.7292 LP             1 S1                 0.0000
     50 ****        -1.5711   0.3622  -2.9034 LP             1 S1                 0.0000
     51 ****        -1.0647   1.2283  -4.3153 LP             1 S1                 0.0000
     52 ****         3.2980   2.6476  -4.6020 LP             1 S1                 0.0000
     53 ****         4.4179   2.3090  -3.3249 LP             1 S1                 0.0000
@<TRIPOS>BOND
    1    1    2 1     
    2    1   24 1     
    3    1   25 1     
    4    1   26 1     
    5    2    3 1     
    6    3    4 1     
    7    3   27 1     
    8    3   28 1     
    9    4    5 1     
   10    4   29 1     
   11    4   30 1     
   12    5   15 1     
   13    5    6 1     
   14    6    7 1     
   15    6   13 2     
   16    7   12 1     
   17    7    8 1     
   18    8    9 1     
   19    8   31 1     
   20    8   32 1     
   21    9   10 1     
   22    9   33 1     
   23    9   34 1     
   24   10   11 1     
   25   10   35 1     
   26   10   46 1     
   27   11   12 1     
   28   11   36 1     
   29   11   37 1     
   30   12   38 1     
   31   12   39 1     
   32   13   14 1     
   33   14   22 1     
   34   14   15 2     
   35   15   16 1     
   36   16   17 2     
   37   16   18 am    
   38   18   19 1     
   39   18   20 am    
   40   19   40 1     
   41   19   41 1     
   42   19   42 1     
   43   20   21 2     
   44   20   22 am    
   45   22   23 1     
   46   23   43 1     
   47   23   44 1     
   48   23   45 1     
   49    2   47 1     
   50    2   48 1     
   51   13   49 1     
   52   17   50 1     
   53   17   51 1     
   54   21   52 1     
   55   21   53 1     
@<TRIPOS>SUBSTRUCTURE
      1 S1             1
@<TRIPOS>SET
LONE_PAIRS      STATIC     ATOMS    <user>   **** ""
7 47 48 49 50 51 52 53
DONOR_HYDROGENS      STATIC     ATOMS    <user>   **** ""
2 35 46
ATOM$BLUE        STATIC     ATOMS    COLORGROUP SYSTEM
7 47 48 49 50 51 52 53
ATOM$RED        STATIC     ATOMS    COLORGROUP SYSTEM
2 35 46
