AV-unprocessed.smi:193|AV-procd|sdf|1514|dock8
  -GOLD-   2262019353D 1   1.00000     0.00000
 Structure written by MMmdl.
 61 65  0  0  0  0  0  0  0  0  1 V2000
  150.9633  145.1871  159.1903 C   0  0  0  0  0  0  0  0  0  0  0  0
  151.2523  143.6792  159.1641 C   0  0  2  0  0  0  0  0  0  0  0  0
  152.5631  143.3948  159.9325 C   0  0  0  0  0  0  0  0  0  0  0  0
  152.8196  141.9690  160.1409 N   0  0  0  0  0  0  0  0  0  0  0  0
  153.5776  141.5909  161.2015 C   0  0  0  0  0  0  0  0  0  0  0  0
  154.2678  140.4206  161.1497 N   0  0  0  0  0  0  0  0  0  0  0  0
  155.0139  140.0305  162.1874 C   0  0  0  0  0  0  0  0  0  0  0  0
  155.2080  140.6475  163.3545 N   0  0  0  0  0  0  0  0  0  0  0  0
  154.5231  141.8253  163.4119 C   0  0  0  0  0  0  0  0  0  0  0  0
  153.6977  142.3699  162.3876 C   0  0  0  0  0  0  0  0  0  0  0  0
  153.1884  143.5978  162.7946 N   0  0  0  0  0  0  0  0  0  0  0  0
  153.6731  143.7625  163.9943 C   0  0  0  0  0  0  0  0  0  0  0  0
  154.4734  142.7394  164.4504 N   0  0  0  0  0  0  0  0  0  0  0  0
  155.1344  142.6652  165.7446 C   0  0  0  0  0  0  0  0  0  0  0  0
  156.6867  142.6564  165.6684 C   0  0  0  0  0  0  0  0  0  0  0  0
  157.0828  143.7785  164.9030 O   0  0  0  0  0  0  0  0  0  0  0  0
  157.3246  142.8011  167.0643 C   0  0  0  0  0  0  0  0  0  0  0  0
  157.2202  141.4949  167.8739 C   0  0  0  0  0  0  0  0  0  0  0  0
  157.8010  140.4174  167.1462 O   0  0  0  0  0  0  0  0  0  0  0  0
  157.1570  140.1676  165.9013 C   0  0  0  0  0  0  0  0  0  0  0  0
  157.2837  141.4029  164.9934 C   0  0  0  0  0  0  0  0  0  0  0  0
  152.7994  141.0736  158.9866 C   0  0  0  0  0  0  0  0  0  0  0  0
  151.3552  140.8478  158.5163 C   0  0  0  0  0  0  0  0  0  0  0  0
  150.9286  141.7893  157.4792 N   0  0  0  0  0  0  0  0  0  0  0  0
  149.4809  141.6960  157.3371 C   0  0  1  0  0  0  0  0  0  0  0  0
  148.9182  141.4842  155.9493 C   0  0  0  0  0  0  0  0  0  0  0  0
  148.8619  140.3618  156.9587 C   0  0  1  0  0  0  0  0  0  0  0  0
  149.6776  139.1024  156.7380 C   0  0  0  0  0  0  0  0  0  0  0  0
  151.3327  143.1837  157.6986 C   0  0  0  0  0  0  0  0  0  0  0  0
  151.7538  145.7512  158.6941 H   0  0  0  0  0  0  0  0  0  0  0  0
  150.8844  145.5549  160.2136 H   0  0  0  0  0  0  0  0  0  0  0  0
  150.0229  145.4166  158.6884 H   0  0  0  0  0  0  0  0  0  0  0  0
  150.4198  143.1970  159.6783 H   0  0  0  0  0  0  0  0  0  0  0  0
  153.4123  143.8374  159.4104 H   0  0  0  0  0  0  0  0  0  0  0  0
  152.5036  143.8867  160.9046 H   0  0  0  0  0  0  0  0  0  0  0  0
  155.5288  139.0889  162.0656 H   0  0  0  0  0  0  0  0  0  0  0  0
  153.4522  144.6384  164.5866 H   0  0  0  0  0  0  0  0  0  0  0  0
  154.7923  143.5053  166.3506 H   0  0  0  0  0  0  0  0  0  0  0  0
  154.7677  141.7706  166.2470 H   0  0  0  0  0  0  0  0  0  0  0  0
  156.4259  143.9412  164.2438 H   0  0  0  0  0  0  0  0  0  0  0  0
  158.3811  143.0540  166.9610 H   0  0  0  0  0  0  0  0  0  0  0  0
  156.8664  143.6241  167.6142 H   0  0  0  0  0  0  0  0  0  0  0  0
  157.7519  141.6017  168.8195 H   0  0  0  0  0  0  0  0  0  0  0  0
  156.1849  141.2622  168.1245 H   0  0  0  0  0  0  0  0  0  0  0  0
  157.6337  139.3085  165.4290 H   0  0  0  0  0  0  0  0  0  0  0  0
  156.1129  139.8983  166.0645 H   0  0  0  0  0  0  0  0  0  0  0  0
  156.8272  141.2130  164.0222 H   0  0  0  0  0  0  0  0  0  0  0  0
  158.3437  141.5674  164.7927 H   0  0  0  0  0  0  0  0  0  0  0  0
  153.4230  141.4738  158.1865 H   0  0  0  0  0  0  0  0  0  0  0  0
  153.2425  140.1105  159.2385 H   0  0  0  0  0  0  0  0  0  0  0  0
  151.2723  139.8448  158.0985 H   0  0  0  0  0  0  0  0  0  0  0  0
  150.6794  140.8717  159.3730 H   0  0  0  0  0  0  0  0  0  0  0  0
  148.8653  142.3191  157.9838 H   0  0  0  0  0  0  0  0  0  0  0  0
  147.9842  141.9861  155.7054 H   0  0  0  0  0  0  0  0  0  0  0  0
  149.6221  141.3884  155.1245 H   0  0  0  0  0  0  0  0  0  0  0  0
  147.8861  140.1651  157.3984 H   0  0  0  0  0  0  0  0  0  0  0  0
  150.6247  139.3276  156.2467 H   0  0  0  0  0  0  0  0  0  0  0  0
  149.1224  138.4057  156.1100 H   0  0  0  0  0  0  0  0  0  0  0  0
  149.8852  138.6174  157.6917 H   0  0  0  0  0  0  0  0  0  0  0  0
  150.7277  143.8199  157.0512 H   0  0  0  0  0  0  0  0  0  0  0  0
  152.3530  143.3088  157.3351 H   0  0  0  0  0  0  0  0  0  0  0  0
  1  2  1  0  0  0  0
  1 30  1  0  0  0  0
  1 31  1  0  0  0  0
  1 32  1  0  0  0  0
  2 29  1  0  0  0  0
  2  3  1  0  0  0  0
  2 33  1  0  0  0  0
  3  4  1  0  0  0  0
  3 34  1  0  0  0  0
  3 35  1  0  0  0  0
  4  5  1  0  0  0  0
  4 22  1  0  0  0  0
  5 10  1  0  0  0  0
  5  6  2  0  0  0  0
  6  7  1  0  0  0  0
  7  8  2  0  0  0  0
  7 36  1  0  0  0  0
  8  9  1  0  0  0  0
  9 13  1  0  0  0  0
  9 10  2  0  0  0  0
 10 11  1  0  0  0  0
 11 12  2  0  0  0  0
 12 13  1  0  0  0  0
 12 37  1  0  0  0  0
 13 14  1  0  0  0  0
 14 15  1  0  0  0  0
 14 38  1  0  0  0  0
 14 39  1  0  0  0  0
 15 21  1  0  0  0  0
 15 16  1  0  0  0  0
 15 17  1  0  0  0  0
 16 40  1  0  0  0  0
 17 18  1  0  0  0  0
 17 41  1  0  0  0  0
 17 42  1  0  0  0  0
 18 19  1  0  0  0  0
 18 43  1  0  0  0  0
 18 44  1  0  0  0  0
 19 20  1  0  0  0  0
 20 21  1  0  0  0  0
 20 45  1  0  0  0  0
 20 46  1  0  0  0  0
 21 47  1  0  0  0  0
 21 48  1  0  0  0  0
 22 23  1  0  0  0  0
 22 49  1  0  0  0  0
 22 50  1  0  0  0  0
 23 24  1  0  0  0  0
 23 51  1  0  0  0  0
 23 52  1  0  0  0  0
 24 25  1  0  0  0  0
 24 29  1  0  0  0  0
 25 27  1  0  0  0  0
 25 26  1  0  0  0  0
 25 53  1  0  0  0  0
 26 27  1  0  0  0  0
 26 54  1  0  0  0  0
 26 55  1  0  0  0  0
 27 28  1  0  0  0  0
 27 56  1  0  0  0  0
 28 57  1  0  0  0  0
 28 58  1  0  0  0  0
 28 59  1  0  0  0  0
 29 60  1  0  0  0  0
 29 61  1  0  0  0  0
M  END
> <s_m_source_file>
AV-unprocessed.smi

> <i_m_source_file_index>
193

> <i_lp_mmshare_version>
43012

> <i_f3d_flags>
0

> <s_epik_input>
W0NIM11bQ0BASF0xW0NIMl1bQ0BIXTFOKFtDSDJdMilbQ0gyXVtDSDJdTihbQ0gyXVtDQEhdMltDSDNdKWMobltjSF1uMyljKGMzNCluW2NIXW40W0NIMl1DNShbT0hdKVtDSDJdW0NIMl1PW0NIMl1bQ0gyXTU=

> <s_epik_cmdline>
J2VwaWtfcHl0aG9uJywgJy1waCcsICc3LjAnLCAnLXRuJywgJzgnLCAnLW1hJywgJzIwMCcsICctbWV0YWxfYmluZGluZycsICctaW1hZScsICc8aW5maWxlLm1hZT4nLCAnLW9tYWUnLCAnPG91dGZpbGUubWFlPic=

> <r_lp_tautomer_probability>
1

> <r_epik_Ionization_Penalty>
1.45227

> <r_epik_Ionization_Penalty_Charging>
0

> <r_epik_Ionization_Penalty_Neutral>
1.45227

> <r_epik_State_Penalty>
2.02377

> <r_epik_Charging_Adjusted_Penalty>
2.02377

> <i_epik_Tot_Q>
0

> <i_epik_Tot_abs_Q>
0

> <r_epik_Metal_State_Penalty>
2.01937

> <b_epik_Metal_Only>
0

> <s_lp_Force_Field>
OPLS_2005

> <r_lp_Energy>
54.496

> <b_lp_Chiralities_Consistent>
1

> <s_lp_Variant>
AV-unprocessed.smi:193-19

> <Gold.Version>
5.8.1

> <Gold.Id.Protein>
6NUR|6NUR_protein|mol2

> <Gold.PLP.Fitness>
48.3240

> <Gold.PLP.PLP>
-48.7484

> <Gold.PLP.part.hbond>
-2.7330

> <Gold.PLP.part.metal>
0.0000

> <Gold.PLP.part.buried>
-2.2291

> <Gold.PLP.part.nonpolar>
-43.2746

> <Gold.PLP.part.repulsive>
0.1893

> <Gold.PLP.ligand.clash>
0.0000

> <Gold.PLP.ligand.torsion>
0.8809

> <Gold.PLP.Chemscore.Hbond>
0.0000

> <Gold.PLP.Chemscore.CHOScore>
0.0000

> <Gold.PLP.Chemscore.Metal>
0.0000

> <Gold.PLP.Chemscore.Internal.Correction>
1.3375

> <Gold.Rescore>
     Score         DG    S(hbond)    S(metal)    S(lipo)     H(rot)  DE(clash)    DE(int)     intcor
      9.49     -13.87       0.00        0.00     113.39       1.91       1.06       3.32       ----

> <Gold.Chemscore.Fitness>
9.4924

> <Gold.Chemscore.DG>
-13.8654

> <Gold.Chemscore.ZeroCoef>
-5.4800

> <Gold.Chemscore.Hbond>
0.0000

> <Gold.Chemscore.Metal>
0.0000

> <Gold.Chemscore.Lipo>
113.3915

> <Gold.Chemscore.Internal_Hbond>
0.0000

> <Gold.Chemscore.DEClash>
1.0559

> <Gold.Chemscore.DEInternal>
3.3171

> <Gold.Chemscore.Rot>
1.9068

> <Gold.Chemscore.Internal.Correction>
   9.000000E+99

> <Gold.Chemscore.Hbond.Weighted>
-0.0000

> <Gold.Chemscore.Metal.Weighted>
-0.0000

> <Gold.Chemscore.Lipo.Weighted>
-13.2668

> <Gold.Chemscore.Internal_Hbond.Weighted>
0.0000

> <Gold.Chemscore.DEClash.Weighted>
1.0559

> <Gold.Chemscore.DEInternal.Weighted>
3.3171

> <Gold.Chemscore.Rot.Weighted>
4.8814

> <Gold.Chemscore.Internal.Correction.Weighted>
   9.000000E+99

> <Gold.Protein.RotatedTorsions>
[ 6907 6896 6895 6894 ] final -113.47 input  -60.11 | X-H torsion
[ 7974 7965 7964 7962 ] final  -51.22 input  175.53 | X-H torsion
[ 8008 7997 7996 7995 ] final   -3.72 input   59.86 | X-H torsion
[ 10167 10162 10161 10158 ] final  157.44 input  -65.29 | X-H torsion
[ 10718 10713 10712 10709 ] final -166.00 input   66.30 | X-H torsion
[ 10763 10752 10751 10750 ] final  166.71 input  -60.55 | X-H torsion
[ 11005 11000 10999 10996 ] final -109.38 input  -57.11 | X-H torsion

> <Gold.Protein.ActiveResidues>
 VAL166  LYS551  ARG553  GLY616  TRP617  ASP618  TYR619  PRO620  LYS621  CYS622 
 ASP623  PHE694  ASN695  SER759  ASP760  ASP761  ALA762  ILE779  LEU786  VAL792 
 PHE793  MET794  SER795  GLU796  ALA797  LYS798  CYS799  TRP800  GLU811  SER814 

> <Gold.Protein.RotatedAtoms>
  150.7831  133.8940  159.3321 H   0  0  0  0  0  0  0  0  0  0  0  0  # atno 6907 bound_to 6896
  151.6798  135.0961  160.0223 H   0  0  0  0  0  0  0  0  0  0  0  0  # atno 6908 bound_to 6896
  152.3888  133.6611  159.6256 H   0  0  0  0  0  0  0  0  0  0  0  0  # atno 6909 bound_to 6896
  145.9214  140.7830  142.9645 H   0  0  0  0  0  0  0  0  0  0  0  0  # atno 7974 bound_to 7965
  154.6219  140.2502  155.7539 H   0  0  0  0  0  0  0  0  0  0  0  0  # atno 8008 bound_to 7997
  156.2431  140.2925  156.0450 H   0  0  0  0  0  0  0  0  0  0  0  0  # atno 8009 bound_to 7997
  155.1883  140.0391  157.2886 H   0  0  0  0  0  0  0  0  0  0  0  0  # atno 8010 bound_to 7997
  139.4823  144.4917  151.8298 H   0  0  0  0  0  0  0  0  0  0  0  0  # atno 10167 bound_to 10162
  156.6615  130.9048  151.3030 H   0  0  0  0  0  0  0  0  0  0  0  0  # atno 10718 bound_to 10713
  154.3430  135.2754  155.2413 H   0  0  0  0  0  0  0  0  0  0  0  0  # atno 10763 bound_to 10752
  154.4675  135.5891  153.6302 H   0  0  0  0  0  0  0  0  0  0  0  0  # atno 10764 bound_to 10752
  152.9856  135.6080  154.3633 H   0  0  0  0  0  0  0  0  0  0  0  0  # atno 10765 bound_to 10752
  141.0850  133.9154  157.2205 H   0  0  0  0  0  0  0  0  0  0  0  0  # atno 11005 bound_to 11000
  144.6753  140.1981  143.7390 LP  0  0  0  0  0  0  0  0  0  0  0  0  # atno 17320 bound_to 7965
  145.8545  139.2192  143.1752 LP  0  0  0  0  0  0  0  0  0  0  0  0  # atno 17321 bound_to 7965
  140.4402  144.1996  150.5891 LP  0  0  0  0  0  0  0  0  0  0  0  0  # atno 17342 bound_to 10162
  140.4690  143.2420  151.9115 LP  0  0  0  0  0  0  0  0  0  0  0  0  # atno 17343 bound_to 10162
  157.7108  130.9438  150.1082 LP  0  0  0  0  0  0  0  0  0  0  0  0  # atno 17370 bound_to 10713
  156.2007  130.3660  149.8792 LP  0  0  0  0  0  0  0  0  0  0  0  0  # atno 17371 bound_to 10713
  139.9668  135.0140  156.9407 LP  0  0  0  0  0  0  0  0  0  0  0  0  # atno 17394 bound_to 11000
  140.5382  134.0746  155.7334 LP  0  0  0  0  0  0  0  0  0  0  0  0  # atno 17395 bound_to 11000

$$$$
