AV-unprocessed.smi:3241|AV-procd|sdf|12385|dock6
  -GOLD-   2272018253D 1   1.00000     0.00000
 Structure written by MMmdl.
 44 45  0  0  0  0  0  0  0  0  2 V2000
  151.7772  138.3445  156.2494 C   0  0  0  0  0  0  0  0  0  0  0  0
  151.5556  139.7457  156.8423 C   0  0  2  0  0  0  0  0  0  0  0  0
  151.6549  139.7056  158.3806 C   0  0  0  0  0  0  0  0  0  0  0  0
  151.4340  141.0924  159.0026 C   0  0  0  0  0  0  0  0  0  0  0  0
  150.0877  141.6842  158.5639 C   0  0  0  0  0  0  0  0  0  0  0  0
  149.9826  141.7398  157.0329 C   0  0  0  0  0  0  0  0  0  0  0  0
  150.2042  140.3502  156.3971 C   0  0  1  0  0  0  0  0  0  0  0  0
  150.2274  140.4686  154.9794 O   0  0  0  0  0  0  0  0  0  0  0  0
  148.9521  140.4027  154.3582 C   0  0  0  0  0  0  0  0  0  0  0  0
  148.6023  138.9298  154.1235 C   0  0  0  0  0  0  0  0  0  0  0  0
  148.1435  138.7084  152.7381 N   0  3  0  0  0  0  0  0  0  0  0  0
  146.6820  138.8125  152.5660 C   0  0  0  0  0  0  0  0  0  0  0  0
  146.2537  138.3134  151.1786 C   0  0  0  0  0  0  0  0  0  0  0  0
  145.7904  136.9401  151.2205 N   0  0  0  0  0  0  0  0  0  0  0  0
  145.4609  136.1122  150.1678 C   0  0  0  0  0  0  0  0  0  0  0  0
  145.0763  134.9143  150.6987 C   0  0  0  0  0  0  0  0  0  0  0  0
  145.2027  135.1103  152.1024 C   0  0  0  0  0  0  0  0  0  0  0  0
  145.6294  136.3245  152.4114 N   0  0  0  0  0  0  0  0  0  0  0  0
  150.9989  137.6511  156.5696 H   0  0  0  0  0  0  0  0  0  0  0  0
  152.7374  137.9340  156.5627 H   0  0  0  0  0  0  0  0  0  0  0  0
  151.7741  138.3676  155.1595 H   0  0  0  0  0  0  0  0  0  0  0  0
  152.3543  140.3913  156.4736 H   0  0  0  0  0  0  0  0  0  0  0  0
  150.9166  139.0084  158.7796 H   0  0  0  0  0  0  0  0  0  0  0  0
  152.6313  139.3246  158.6818 H   0  0  0  0  0  0  0  0  0  0  0  0
  151.4731  141.0227  160.0900 H   0  0  0  0  0  0  0  0  0  0  0  0
  152.2434  141.7608  158.7061 H   0  0  0  0  0  0  0  0  0  0  0  0
  149.2731  141.0802  158.9655 H   0  0  0  0  0  0  0  0  0  0  0  0
  149.9675  142.6842  158.9818 H   0  0  0  0  0  0  0  0  0  0  0  0
  149.0065  142.1388  156.7583 H   0  0  0  0  0  0  0  0  0  0  0  0
  150.7225  142.4412  156.6450 H   0  0  0  0  0  0  0  0  0  0  0  0
  149.4050  139.6734  156.7058 H   0  0  0  0  0  0  0  0  0  0  0  0
  148.2037  140.8529  155.0120 H   0  0  0  0  0  0  0  0  0  0  0  0
  148.9366  140.9506  153.4159 H   0  0  0  0  0  0  0  0  0  0  0  0
  149.4679  138.3006  154.3347 H   0  0  0  0  0  0  0  0  0  0  0  0
  147.8096  138.6278  154.8091 H   0  0  0  0  0  0  0  0  0  0  0  0
  148.5889  139.3877  152.1377 H   0  0  0  0  0  0  0  0  0  0  0  0
  146.1861  138.2264  153.3411 H   0  0  0  0  0  0  0  0  0  0  0  0
  146.3802  139.8517  152.7035 H   0  0  0  0  0  0  0  0  0  0  0  0
  145.4540  138.9368  150.7758 H   0  0  0  0  0  0  0  0  0  0  0  0
  147.0879  138.3761  150.4785 H   0  0  0  0  0  0  0  0  0  0  0  0
  145.5267  136.4391  149.1406 H   0  0  0  0  0  0  0  0  0  0  0  0
  144.7522  134.0327  150.1659 H   0  0  0  0  0  0  0  0  0  0  0  0
  144.9977  134.4114  152.8999 H   0  0  0  0  0  0  0  0  0  0  0  0
  148.4349  137.7842  152.4526 H   0  0  0  0  0  0  0  0  0  0  0  0
  1  2  1  0  0  0  0
  1 19  1  0  0  0  0
  1 20  1  0  0  0  0
  1 21  1  0  0  0  0
  2  7  1  0  0  0  0
  2  3  1  0  0  0  0
  2 22  1  0  0  0  0
  3  4  1  0  0  0  0
  3 23  1  0  0  0  0
  3 24  1  0  0  0  0
  4  5  1  0  0  0  0
  4 25  1  0  0  0  0
  4 26  1  0  0  0  0
  5  6  1  0  0  0  0
  5 27  1  0  0  0  0
  5 28  1  0  0  0  0
  6  7  1  0  0  0  0
  6 29  1  0  0  0  0
  6 30  1  0  0  0  0
  7  8  1  0  0  0  0
  7 31  1  0  0  0  0
  8  9  1  0  0  0  0
  9 10  1  0  0  0  0
  9 32  1  0  0  0  0
  9 33  1  0  0  0  0
 10 11  1  0  0  0  0
 10 34  1  0  0  0  0
 10 35  1  0  0  0  0
 11 12  1  0  0  0  0
 11 36  1  0  0  0  0
 11 44  1  0  0  0  0
 12 13  1  0  0  0  0
 12 37  1  0  0  0  0
 12 38  1  0  0  0  0
 13 14  1  0  0  0  0
 13 39  1  0  0  0  0
 13 40  1  0  0  0  0
 14 18  1  0  0  0  0
 14 15  1  0  0  0  0
 15 16  2  0  0  0  0
 15 41  1  0  0  0  0
 16 17  1  0  0  0  0
 16 42  1  0  0  0  0
 17 18  2  0  0  0  0
 17 43  1  0  0  0  0
M  CHG  1  11   1
M  END
> <s_m_source_file>
AV-unprocessed.smi

> <i_m_source_file_index>
3241

> <i_lp_mmshare_version>
43012

> <i_f3d_flags>
0

> <s_epik_input>
W0NIM11bQ0BASF0xW0NIMl1bQ0gyXVtDSDJdW0NIMl1bQ0BIXTFPW0NIMl1bQ0gyXVtOSF1bQ0gyXVtDSDJdbjJbY0hdW2NIXVtjSF1uMg==

> <s_epik_cmdline>
J2VwaWtfcHl0aG9uJywgJy1waCcsICc3LjAnLCAnLXRuJywgJzgnLCAnLW1hJywgJzIwMCcsICctbWV0YWxfYmluZGluZycsICctaW1hZScsICc8aW5maWxlLm1hZT4nLCAnLW9tYWUnLCAnPG91dGZpbGUubWFlPic=

> <r_lp_tautomer_probability>
1

> <r_epik_Ionization_Penalty>
0.00924946

> <r_epik_Ionization_Penalty_Charging>
0.00924645

> <r_epik_Ionization_Penalty_Neutral>
3.00629e-06

> <r_epik_State_Penalty>
0.0070118

> <r_epik_Charging_Adjusted_Penalty>
0.0162583

> <i_epik_Tot_Q>
1

> <i_epik_Tot_abs_Q>
1

> <r_epik_Metal_State_Penalty>
0.00702523

> <b_epik_Metal_Only>
0

> <s_lp_Force_Field>
OPLS_2005

> <r_lp_Energy>
13.7412

> <b_lp_Chiralities_Consistent>
1

> <s_lp_Variant>
AV-unprocessed.smi:3241-1

> <Gold.Version>
5.8.1

> <Gold.Id.Protein>
6NUR|6NUR_protein|mol2

> <Gold.PLP.Fitness>
46.7679

> <Gold.PLP.PLP>
-34.2899

> <Gold.PLP.part.hbond>
-2.9897

> <Gold.PLP.part.metal>
0.0000

> <Gold.PLP.part.buried>
0.7893

> <Gold.PLP.part.nonpolar>
-32.8951

> <Gold.PLP.part.repulsive>
0.2949

> <Gold.PLP.ligand.clash>
0.0000

> <Gold.PLP.ligand.torsion>
1.3613

> <Gold.PLP.Chemscore.Hbond>
3.9760

> <Gold.PLP.Chemscore.CHOScore>
1.0626

> <Gold.PLP.Chemscore.Metal>
0.0000

> <Gold.Chemscore.Hbonds>
donor molecule, donor type, donor heavy atom, donor atom, acceptor molecule, acceptor atom, score
      L1  H    11    36       P1  7957  1.00
      L1  H    11    44       P1  7948  2.00
      P1  H  7989  7998       L1     8  0.87
      L1  C    15    41       P1  7921  0.73
      L1  C    15    41       P1 10171  0.08

> <Gold.PLP.Chemscore.Internal.Correction>
0.0848

> <Gold.Rescore>
     Score         DG    S(hbond)    S(metal)    S(lipo)     H(rot)  DE(clash)    DE(int)     intcor
     18.79     -20.75       2.87        0.00      89.92       1.89       0.12       1.84       ----

> <Gold.Chemscore.Fitness>
18.7850

> <Gold.Chemscore.DG>
-20.7455

> <Gold.Chemscore.ZeroCoef>
-5.4800

> <Gold.Chemscore.Hbond>
2.8699

> <Gold.Chemscore.Metal>
0.0000

> <Gold.Chemscore.Lipo>
89.9160

> <Gold.Chemscore.Internal_Hbond>
0.0000

> <Gold.Chemscore.DEClash>
0.1229

> <Gold.Chemscore.DEInternal>
1.8375

> <Gold.Chemscore.Rot>
1.8906

> <Gold.Chemscore.Internal.Correction>
   9.000000E+99

> <Gold.Chemscore.Hbonds>
donor molecule, donor type, donor heavy atom, donor atom, acceptor molecule, acceptor atom, score
      L1  H    11    36       P1  7957  0.94
      L1  H    11    44       P1  7948  1.00
      P1  H  7989  7998       L1     8  0.48

> <Gold.Chemscore.Hbond.Weighted>
-9.5854

> <Gold.Chemscore.Metal.Weighted>
-0.0000

> <Gold.Chemscore.Lipo.Weighted>
-10.5202

> <Gold.Chemscore.Internal_Hbond.Weighted>
0.0000

> <Gold.Chemscore.DEClash.Weighted>
0.1229

> <Gold.Chemscore.DEInternal.Weighted>
1.8375

> <Gold.Chemscore.Rot.Weighted>
4.8400

> <Gold.Chemscore.Internal.Correction.Weighted>
   9.000000E+99

> <Gold.Protein.RotatedTorsions>
[ 6907 6896 6895 6894 ] final  -46.08 input  -60.11 | X-H torsion
[ 7974 7965 7964 7962 ] final  -89.50 input  175.53 | X-H torsion
[ 8008 7997 7996 7995 ] final  -82.80 input   59.86 | X-H torsion
[ 10167 10162 10161 10158 ] final   54.66 input  -65.29 | X-H torsion
[ 10718 10713 10712 10709 ] final -116.91 input   66.30 | X-H torsion
[ 10763 10752 10751 10750 ] final  -56.34 input  -60.55 | X-H torsion
[ 11005 11000 10999 10996 ] final   95.58 input  -57.11 | X-H torsion

> <Gold.Protein.ActiveResidues>
 VAL166  LYS551  ARG553  GLY616  TRP617  ASP618  TYR619  PRO620  LYS621  CYS622 
 ASP623  PHE694  ASN695  SER759  ASP760  ASP761  ALA762  ILE779  LEU786  VAL792 
 PHE793  MET794  SER795  GLU796  ALA797  LYS798  CYS799  TRP800  GLU811  SER814 

> <Gold.Protein.RotatedAtoms>
  150.9150  134.8568  159.7450 H   0  0  0  0  0  0  0  0  0  0  0  0  # atno 6907 bound_to 6896
  152.4964  134.4302  159.9519 H   0  0  0  0  0  0  0  0  0  0  0  0  # atno 6908 bound_to 6896
  151.4341  133.3622  159.2808 H   0  0  0  0  0  0  0  0  0  0  0  0  # atno 6909 bound_to 6896
  145.4390  140.9558  143.2086 H   0  0  0  0  0  0  0  0  0  0  0  0  # atno 7974 bound_to 7965
  154.6124  140.0628  156.9511 H   0  0  0  0  0  0  0  0  0  0  0  0  # atno 8008 bound_to 7997
  155.1951  140.3310  155.4334 H   0  0  0  0  0  0  0  0  0  0  0  0  # atno 8009 bound_to 7997
  156.2384  140.1874  156.7038 H   0  0  0  0  0  0  0  0  0  0  0  0  # atno 8010 bound_to 7997
  140.2278  144.3720  150.6426 H   0  0  0  0  0  0  0  0  0  0  0  0  # atno 10167 bound_to 10162
  156.0997  130.6161  150.9097 H   0  0  0  0  0  0  0  0  0  0  0  0  # atno 10718 bound_to 10713
  154.2052  135.6404  153.5098 H   0  0  0  0  0  0  0  0  0  0  0  0  # atno 10763 bound_to 10752
  153.0002  135.5461  154.6274 H   0  0  0  0  0  0  0  0  0  0  0  0  # atno 10764 bound_to 10752
  154.5697  135.2916  155.0813 H   0  0  0  0  0  0  0  0  0  0  0  0  # atno 10765 bound_to 10752
  139.8788  134.8906  156.4032 H   0  0  0  0  0  0  0  0  0  0  0  0  # atno 11005 bound_to 11000
  144.8134  139.5921  143.7019 LP  0  0  0  0  0  0  0  0  0  0  0  0  # atno 17320 bound_to 7965
  146.2567  139.6317  142.9390 LP  0  0  0  0  0  0  0  0  0  0  0  0  # atno 17321 bound_to 7965
  140.6208  143.2176  151.6698 LP  0  0  0  0  0  0  0  0  0  0  0  0  # atno 17342 bound_to 10162
  139.5121  144.3488  152.0672 LP  0  0  0  0  0  0  0  0  0  0  0  0  # atno 17343 bound_to 10162
  157.6164  131.0933  150.8702 LP  0  0  0  0  0  0  0  0  0  0  0  0  # atno 17370 bound_to 10713
  156.8832  130.5187  149.5290 LP  0  0  0  0  0  0  0  0  0  0  0  0  # atno 17371 bound_to 10713
  140.9252  133.7617  155.9956 LP  0  0  0  0  0  0  0  0  0  0  0  0  # atno 17394 bound_to 11000
  140.8394  134.3085  157.5319 LP  0  0  0  0  0  0  0  0  0  0  0  0  # atno 17395 bound_to 11000

$$$$
