AV-unprocessed.smi:1965|AV-procd|sdf|7940|dock3
  -GOLD-   2272010113D 1   1.00000     0.00000
 Structure written by MMmdl.
 36 38  0  0  0  0  0  0  0  0  3 V2000
  151.0137  140.4868  158.5288 O   0  0  0  0  0  0  0  0  0  0  0  0
  150.9871  141.5786  157.9625 C   0  0  0  0  0  0  0  0  0  0  0  0
  151.4145  142.7318  158.5392 N   0  5  0  0  0  0  0  0  0  0  0  0
  152.0431  142.7580  159.7290 C   0  0  0  0  0  0  0  0  0  0  0  0
  151.8358  143.7097  160.6463 N   0  0  0  0  0  0  0  0  0  0  0  0
  152.5943  143.5379  161.8058 C   0  0  0  0  0  0  0  0  0  0  0  0
  153.4011  142.4314  161.7685 C   0  0  0  0  0  0  0  0  0  0  0  0
  153.2318  141.5679  160.2670 S   0  0  0  0  0  0  0  0  0  0  0  0
  150.5120  141.6466  156.7049 N   0  0  0  0  0  0  0  0  0  0  0  0
  149.9826  140.5322  155.9290 C   0  0  2  0  0  0  0  0  0  0  0  0
  150.9964  139.4072  155.6690 C   0  0  0  0  0  0  0  0  0  0  0  0
  150.7135  138.9284  154.2314 C   0  0  0  0  0  0  0  0  0  0  0  0
  149.5541  139.7097  153.7410 N   0  3  1  0  0  0  0  0  0  0  0  0
  148.2784  138.9510  153.8573 C   0  0  0  0  0  0  0  0  0  0  0  0
  147.0536  139.8320  153.5784 C   0  0  0  0  0  0  0  0  0  0  0  0
  147.0289  141.0218  154.5410 C   0  0  0  0  0  0  0  0  0  0  0  0
  148.3194  141.8327  154.3829 C   0  0  0  0  0  0  0  0  0  0  0  0
  149.5964  140.9730  154.5157 C   0  0  1  0  0  0  0  0  0  0  0  0
  152.4982  144.2538  162.6083 H   0  0  0  0  0  0  0  0  0  0  0  0
  154.0829  142.0750  162.5260 H   0  0  0  0  0  0  0  0  0  0  0  0
  150.5102  142.5537  156.2618 H   0  0  0  0  0  0  0  0  0  0  0  0
  149.1081  140.1209  156.4358 H   0  0  0  0  0  0  0  0  0  0  0  0
  152.0223  139.7717  155.7424 H   0  0  0  0  0  0  0  0  0  0  0  0
  150.8825  138.6024  156.3962 H   0  0  0  0  0  0  0  0  0  0  0  0
  151.5717  139.1513  153.5964 H   0  0  0  0  0  0  0  0  0  0  0  0
  150.5445  137.8519  154.1781 H   0  0  0  0  0  0  0  0  0  0  0  0
  148.2986  138.1149  153.1575 H   0  0  0  0  0  0  0  0  0  0  0  0
  148.1918  138.5192  154.8557 H   0  0  0  0  0  0  0  0  0  0  0  0
  147.0743  140.1851  152.5466 H   0  0  0  0  0  0  0  0  0  0  0  0
  146.1410  139.2455  153.6890 H   0  0  0  0  0  0  0  0  0  0  0  0
  146.1628  141.6529  154.3390 H   0  0  0  0  0  0  0  0  0  0  0  0
  146.9266  140.6720  155.5688 H   0  0  0  0  0  0  0  0  0  0  0  0
  148.3150  142.3000  153.3973 H   0  0  0  0  0  0  0  0  0  0  0  0
  148.3399  142.6520  155.1023 H   0  0  0  0  0  0  0  0  0  0  0  0
  150.4264  141.5572  154.1121 H   0  0  0  0  0  0  0  0  0  0  0  0
  149.6866  139.9265  152.7636 H   0  0  0  0  0  0  0  0  0  0  0  0
  1  2  2  0  0  0  0
  2  3  1  0  0  0  0
  2  9  1  0  0  0  0
  3  4  1  0  0  0  0
  4  8  1  0  0  0  0
  4  5  2  0  0  0  0
  5  6  1  0  0  0  0
  6  7  2  0  0  0  0
  6 19  1  0  0  0  0
  7  8  1  0  0  0  0
  7 20  1  0  0  0  0
  9 10  1  0  0  0  0
  9 21  1  0  0  0  0
 10 18  1  0  0  0  0
 10 11  1  0  0  0  0
 10 22  1  0  0  0  0
 11 12  1  0  0  0  0
 11 23  1  0  0  0  0
 11 24  1  0  0  0  0
 12 13  1  0  0  0  0
 12 25  1  0  0  0  0
 12 26  1  0  0  0  0
 13 18  1  0  0  0  0
 13 14  1  0  0  0  0
 13 36  1  0  0  0  0
 14 15  1  0  0  0  0
 14 27  1  0  0  0  0
 14 28  1  0  0  0  0
 15 16  1  0  0  0  0
 15 29  1  0  0  0  0
 15 30  1  0  0  0  0
 16 17  1  0  0  0  0
 16 31  1  0  0  0  0
 16 32  1  0  0  0  0
 17 18  1  0  0  0  0
 17 33  1  0  0  0  0
 17 34  1  0  0  0  0
 18 35  1  0  0  0  0
M  CHG  1   3  -1
M  CHG  1  13   1
M  END
> <s_m_source_file>
AV-unprocessed.smi

> <i_m_source_file_index>
1965

> <i_lp_mmshare_version>
43012

> <i_f3d_flags>
0

> <s_epik_input>
czFbY0hdW2NIXW5jMVtOSF1DKD1PKVtOSF1bQ0BIXShbQ0gyXVtDSDJdMilbQ0BASF0oTjIzKVtDSDJdW0NIMl1bQ0gyXVtDSDJdMw==

> <s_epik_cmdline>
J2VwaWtfcHl0aG9uJywgJy1waCcsICc3LjAnLCAnLXRuJywgJzgnLCAnLW1hJywgJzIwMCcsICctbWV0YWxfYmluZGluZycsICctaW1hZScsICc8aW5maWxlLm1hZT4nLCAnLW9tYWUnLCAnPG91dGZpbGUubWFlPic=

> <r_lp_tautomer_probability>
1

> <r_epik_Ionization_Penalty>
7.4116

> <r_epik_Ionization_Penalty_Charging>
6.13869

> <r_epik_Ionization_Penalty_Neutral>
1.27291

> <r_epik_State_Penalty>
6.13761

> <r_epik_Charging_Adjusted_Penalty>
12.2763

> <i_epik_Tot_Q>
0

> <i_epik_Tot_abs_Q>
2

> <r_epik_Metal_State_Penalty>
2.08142

> <b_epik_Metal_Only>
1

> <s_lp_Force_Field>
OPLS_2005

> <r_lp_Energy>
29.0892

> <b_lp_Chiralities_Consistent>
1

> <s_lp_Variant>
AV-unprocessed.smi:1965-9

> <Gold.Version>
5.8.1

> <Gold.Id.Protein>
6NUR|6NUR_protein|mol2

> <Gold.PLP.Fitness>
39.2235

> <Gold.PLP.PLP>
-36.8288

> <Gold.PLP.part.hbond>
-1.0000

> <Gold.PLP.part.metal>
0.0000

> <Gold.PLP.part.buried>
-3.4280

> <Gold.PLP.part.nonpolar>
-31.8864

> <Gold.PLP.part.repulsive>
0.3273

> <Gold.PLP.ligand.clash>
0.0000

> <Gold.PLP.ligand.torsion>
0.3107

> <Gold.PLP.Chemscore.Hbond>
1.0000

> <Gold.PLP.Chemscore.CHOScore>
0.0000

> <Gold.PLP.Chemscore.Metal>
0.0000

> <Gold.Chemscore.Hbonds>
donor molecule, donor type, donor heavy atom, donor atom, acceptor molecule, acceptor atom, score
      L1  H    13    36       P1  7957  1.00

> <Gold.PLP.Chemscore.Internal.Correction>
0.0162

> <Gold.Rescore>
     Score         DG    S(hbond)    S(metal)    S(lipo)     H(rot)  DE(clash)    DE(int)     intcor
     15.89     -16.35       0.99        0.00      86.61       1.00       0.07       0.39       ----

> <Gold.Chemscore.Fitness>
15.8870

> <Gold.Chemscore.DG>
-16.3477

> <Gold.Chemscore.ZeroCoef>
-5.4800

> <Gold.Chemscore.Hbond>
0.9863

> <Gold.Chemscore.Metal>
0.0000

> <Gold.Chemscore.Lipo>
86.6094

> <Gold.Chemscore.Internal_Hbond>
0.0000

> <Gold.Chemscore.DEClash>
0.0686

> <Gold.Chemscore.DEInternal>
0.3921

> <Gold.Chemscore.Rot>
1.0000

> <Gold.Chemscore.Internal.Correction>
   9.000000E+99

> <Gold.Chemscore.Hbonds>
donor molecule, donor type, donor heavy atom, donor atom, acceptor molecule, acceptor atom, score
      L1  H    13    36       P1  7957  0.99

> <Gold.Chemscore.Hbond.Weighted>
-3.2944

> <Gold.Chemscore.Metal.Weighted>
-0.0000

> <Gold.Chemscore.Lipo.Weighted>
-10.1333

> <Gold.Chemscore.Internal_Hbond.Weighted>
0.0000

> <Gold.Chemscore.DEClash.Weighted>
0.0686

> <Gold.Chemscore.DEInternal.Weighted>
0.3921

> <Gold.Chemscore.Rot.Weighted>
2.5600

> <Gold.Chemscore.Internal.Correction.Weighted>
   9.000000E+99

> <Gold.Protein.RotatedTorsions>
[ 6907 6896 6895 6894 ] final   41.85 input  -60.11 | X-H torsion
[ 7974 7965 7964 7962 ] final  -59.45 input  175.53 | X-H torsion
[ 8008 7997 7996 7995 ] final -147.46 input   59.86 | X-H torsion
[ 10167 10162 10161 10158 ] final  145.65 input  -65.29 | X-H torsion
[ 10718 10713 10712 10709 ] final    8.91 input   66.30 | X-H torsion
[ 10763 10752 10751 10750 ] final  -38.91 input  -60.55 | X-H torsion
[ 11005 11000 10999 10996 ] final  116.31 input  -57.11 | X-H torsion

> <Gold.Protein.ActiveResidues>
 VAL166  LYS551  ARG553  GLY616  TRP617  ASP618  TYR619  PRO620  LYS621  CYS622 
 ASP623  PHE694  ASN695  SER759  ASP760  ASP761  ALA762  ILE779  LEU786  VAL792 
 PHE793  MET794  SER795  GLU796  ALA797  LYS798  CYS799  TRP800  GLU811  SER814 

> <Gold.Protein.RotatedAtoms>
  152.2005  134.8592  160.0508 H   0  0  0  0  0  0  0  0  0  0  0  0  # atno 6907 bound_to 6896
  151.9448  133.3643  159.3986 H   0  0  0  0  0  0  0  0  0  0  0  0  # atno 6908 bound_to 6896
  150.6953  134.4326  159.5299 H   0  0  0  0  0  0  0  0  0  0  0  0  # atno 6909 bound_to 6896
  145.8273  140.8502  143.0102 H   0  0  0  0  0  0  0  0  0  0  0  0  # atno 7974 bound_to 7965
  155.5760  140.0639  157.2795 H   0  0  0  0  0  0  0  0  0  0  0  0  # atno 8008 bound_to 7997
  154.4347  140.1860  156.0974 H   0  0  0  0  0  0  0  0  0  0  0  0  # atno 8009 bound_to 7997
  156.0341  140.3303  155.7175 H   0  0  0  0  0  0  0  0  0  0  0  0  # atno 8010 bound_to 7997
  139.4922  144.5886  151.6727 H   0  0  0  0  0  0  0  0  0  0  0  0  # atno 10167 bound_to 10162
  156.9585  130.5924  149.5661 H   0  0  0  0  0  0  0  0  0  0  0  0  # atno 10718 bound_to 10713
  153.9207  135.6782  153.4748 H   0  0  0  0  0  0  0  0  0  0  0  0  # atno 10763 bound_to 10752
  153.1030  135.4819  154.8898 H   0  0  0  0  0  0  0  0  0  0  0  0  # atno 10764 bound_to 10752
  154.7480  135.3177  154.8567 H   0  0  0  0  0  0  0  0  0  0  0  0  # atno 10765 bound_to 10752
  139.9037  134.9596  156.7178 H   0  0  0  0  0  0  0  0  0  0  0  0  # atno 11005 bound_to 11000
  144.6742  140.0620  143.7476 LP  0  0  0  0  0  0  0  0  0  0  0  0  # atno 17320 bound_to 7965
  145.9610  139.2800  143.1156 LP  0  0  0  0  0  0  0  0  0  0  0  0  # atno 17321 bound_to 7965
  140.5508  144.0428  150.6126 LP  0  0  0  0  0  0  0  0  0  0  0  0  # atno 17342 bound_to 10162
  140.3482  143.2979  152.0516 LP  0  0  0  0  0  0  0  0  0  0  0  0  # atno 17343 bound_to 10162
  156.0332  130.5422  150.8587 LP  0  0  0  0  0  0  0  0  0  0  0  0  # atno 17370 bound_to 10713
  157.5674  131.0946  150.9470 LP  0  0  0  0  0  0  0  0  0  0  0  0  # atno 17371 bound_to 10713
  140.7024  133.9294  155.8033 LP  0  0  0  0  0  0  0  0  0  0  0  0  # atno 17394 bound_to 11000
  141.0361  134.0687  157.3957 LP  0  0  0  0  0  0  0  0  0  0  0  0  # atno 17395 bound_to 11000

$$$$
