AV-unprocessed.smi:2923|AV-procd|sdf|11214|dock1
  -GOLD-   2272016103D 1   1.00000     0.00000
 Structure written by MMmdl.
 46 48  0  0  0  0  0  0  0  0  1 V2000
  147.6179  129.6313  153.9201 C   0  0  0  0  0  0  0  0  0  0  0  0
  148.9941  130.0577  153.7212 N   0  0  0  0  0  0  0  0  0  0  0  0
  150.0229  129.1869  154.2689 C   0  0  0  0  0  0  0  0  0  0  0  0
  149.1935  131.4090  154.0329 C   0  0  0  0  0  0  0  0  0  0  0  0
  150.0078  131.8003  155.1197 C   0  0  0  0  0  0  0  0  0  0  0  0
  150.1690  133.1732  155.3871 C   0  0  0  0  0  0  0  0  0  0  0  0
  149.5043  134.1125  154.5633 C   0  0  0  0  0  0  0  0  0  0  0  0
  149.5984  135.5221  154.7166 N   0  0  0  0  0  0  0  0  0  0  0  0
  149.8812  136.2282  155.8246 C   0  0  0  0  0  0  0  0  0  0  0  0
  150.1119  135.7509  156.9352 O   0  0  0  0  0  0  0  0  0  0  0  0
  149.8640  137.5429  155.5720 N   0  0  0  0  0  0  0  0  0  0  0  0
  150.1238  138.5981  156.5536 C   0  0  2  0  0  0  0  0  0  0  0  0
  149.2824  139.8705  156.3057 C   0  0  2  0  0  0  0  0  0  0  0  0
  148.1272  139.9146  155.3353 C   0  0  0  0  0  0  0  0  0  0  0  0
  148.7667  140.5034  154.0744 C   0  0  0  0  0  0  0  0  0  0  0  0
  150.1638  140.2604  154.2263 O   0  0  0  0  0  0  0  0  0  0  0  0
  150.4934  140.4585  155.5995 C   0  0  2  0  0  0  0  0  0  0  0  0
  151.4143  139.4022  156.2460 C   0  0  0  0  0  0  0  0  0  0  0  0
  152.1553  139.8973  157.4916 C   0  0  0  0  0  0  0  0  0  0  0  0
  152.4773  138.7735  155.3345 C   0  0  0  0  0  0  0  0  0  0  0  0
  148.7267  133.6153  153.4970 C   0  0  0  0  0  0  0  0  0  0  0  0
  148.5662  132.3007  153.2363 N   0  0  0  0  0  0  0  0  0  0  0  0
  146.9221  130.3408  153.4706 H   0  0  0  0  0  0  0  0  0  0  0  0
  147.3858  129.5452  154.9822 H   0  0  0  0  0  0  0  0  0  0  0  0
  147.4543  128.6592  153.4546 H   0  0  0  0  0  0  0  0  0  0  0  0
  151.0175  129.5814  154.0563 H   0  0  0  0  0  0  0  0  0  0  0  0
  149.9522  128.1950  153.8220 H   0  0  0  0  0  0  0  0  0  0  0  0
  149.9156  129.0829  155.3492 H   0  0  0  0  0  0  0  0  0  0  0  0
  150.5036  131.0659  155.7375 H   0  0  0  0  0  0  0  0  0  0  0  0
  150.8054  133.4730  156.2047 H   0  0  0  0  0  0  0  0  0  0  0  0
  149.3627  136.0616  153.8965 H   0  0  0  0  0  0  0  0  0  0  0  0
  149.6609  137.8447  154.6301 H   0  0  0  0  0  0  0  0  0  0  0  0
  150.0710  138.2678  157.5927 H   0  0  0  0  0  0  0  0  0  0  0  0
  149.0862  140.3929  157.2434 H   0  0  0  0  0  0  0  0  0  0  0  0
  147.7114  138.9253  155.1450 H   0  0  0  0  0  0  0  0  0  0  0  0
  147.3127  140.5452  155.6930 H   0  0  0  0  0  0  0  0  0  0  0  0
  148.3798  140.0570  153.1583 H   0  0  0  0  0  0  0  0  0  0  0  0
  148.5982  141.5803  154.0271 H   0  0  0  0  0  0  0  0  0  0  0  0
  150.6972  141.4994  155.8550 H   0  0  0  0  0  0  0  0  0  0  0  0
  152.9021  140.6513  157.2406 H   0  0  0  0  0  0  0  0  0  0  0  0
  152.6684  139.0817  158.0022 H   0  0  0  0  0  0  0  0  0  0  0  0
  151.4739  140.3496  158.2129 H   0  0  0  0  0  0  0  0  0  0  0  0
  153.2872  139.4726  155.1241 H   0  0  0  0  0  0  0  0  0  0  0  0
  152.0687  138.4710  154.3703 H   0  0  0  0  0  0  0  0  0  0  0  0
  152.9185  137.8866  155.7905 H   0  0  0  0  0  0  0  0  0  0  0  0
  148.2107  134.2929  152.8323 H   0  0  0  0  0  0  0  0  0  0  0  0
  1  2  1  0  0  0  0
  1 23  1  0  0  0  0
  1 24  1  0  0  0  0
  1 25  1  0  0  0  0
  2  3  1  0  0  0  0
  2  4  1  0  0  0  0
  3 26  1  0  0  0  0
  3 27  1  0  0  0  0
  3 28  1  0  0  0  0
  4 22  1  0  0  0  0
  4  5  2  0  0  0  0
  5  6  1  0  0  0  0
  5 29  1  0  0  0  0
  6  7  2  0  0  0  0
  6 30  1  0  0  0  0
  7  8  1  0  0  0  0
  7 21  1  0  0  0  0
  8  9  1  0  0  0  0
  8 31  1  0  0  0  0
  9 10  2  0  0  0  0
  9 11  1  0  0  0  0
 11 12  1  0  0  0  0
 11 32  1  0  0  0  0
 12 18  1  0  0  0  0
 12 13  1  0  0  0  0
 12 33  1  0  0  0  0
 13 17  1  0  0  0  0
 13 14  1  0  0  0  0
 13 34  1  0  0  0  0
 14 15  1  0  0  0  0
 14 35  1  0  0  0  0
 14 36  1  0  0  0  0
 15 16  1  0  0  0  0
 15 37  1  0  0  0  0
 15 38  1  0  0  0  0
 16 17  1  0  0  0  0
 17 18  1  0  0  0  0
 17 39  1  0  0  0  0
 18 19  1  0  0  0  0
 18 20  1  0  0  0  0
 19 40  1  0  0  0  0
 19 41  1  0  0  0  0
 19 42  1  0  0  0  0
 20 43  1  0  0  0  0
 20 44  1  0  0  0  0
 20 45  1  0  0  0  0
 21 22  2  0  0  0  0
 21 46  1  0  0  0  0
M  END
> <s_m_source_file>
AV-unprocessed.smi

> <i_m_source_file_index>
2923

> <i_lp_mmshare_version>
43012

> <i_f3d_flags>
0

> <s_epik_input>
W0NIM11OKFtDSDNdKWMxW2NIXVtjSF1jKFtjSF1uMSlbTkhdQyg9TylbTkhdW0NASF0yQyhbQ0gzXSkoW0NIM10pW0NAQEhdKFtDQEhdMjMpT1tDSDJdW0NIMl0z

> <s_epik_cmdline>
J2VwaWtfcHl0aG9uJywgJy1waCcsICc3LjAnLCAnLXRuJywgJzgnLCAnLW1hJywgJzIwMCcsICctbWV0YWxfYmluZGluZycsICctaW1hZScsICc8aW5maWxlLm1hZT4nLCAnLW9tYWUnLCAnPG91dGZpbGUubWFlPic=

> <r_lp_tautomer_probability>
1

> <r_epik_Ionization_Penalty>
0.628785

> <r_epik_Ionization_Penalty_Charging>
0

> <r_epik_Ionization_Penalty_Neutral>
0.628785

> <r_epik_State_Penalty>
0.644286

> <r_epik_Charging_Adjusted_Penalty>
0.644286

> <i_epik_Tot_Q>
0

> <i_epik_Tot_abs_Q>
0

> <r_epik_Metal_State_Penalty>
0.308404

> <b_epik_Metal_Only>
0

> <s_lp_Force_Field>
OPLS_2005

> <r_lp_Energy>
44.9088

> <b_lp_Chiralities_Consistent>
1

> <s_lp_Variant>
AV-unprocessed.smi:2923-13

> <Gold.Version>
5.8.1

> <Gold.Id.Protein>
6NUR|6NUR_protein|mol2

> <Gold.PLP.Fitness>
38.3811

> <Gold.PLP.PLP>
-30.6776

> <Gold.PLP.part.hbond>
-2.0000

> <Gold.PLP.part.metal>
0.0000

> <Gold.PLP.part.buried>
-3.1994

> <Gold.PLP.part.nonpolar>
-26.3702

> <Gold.PLP.part.repulsive>
0.5245

> <Gold.PLP.ligand.clash>
0.0574

> <Gold.PLP.ligand.torsion>
0.6489

> <Gold.PLP.Chemscore.Hbond>
1.9028

> <Gold.PLP.Chemscore.CHOScore>
0.9822

> <Gold.PLP.Chemscore.Metal>
0.0000

> <Gold.Chemscore.Hbonds>
donor molecule, donor type, donor heavy atom, donor atom, acceptor molecule, acceptor atom, score
      L1  H     8    31       P1  7948  0.94
      P1  H  7989  7998       L1    16  0.96
      L1  C    21    46       P1  7948  0.98

> <Gold.PLP.Chemscore.Internal.Correction>
0.4036

> <Gold.Rescore>
     Score         DG    S(hbond)    S(metal)    S(lipo)     H(rot)  DE(clash)    DE(int)     intcor
     13.63     -16.24       1.61        0.00      72.16       1.19       1.04       1.57       ----

> <Gold.Chemscore.Fitness>
13.6262

> <Gold.Chemscore.DG>
-16.2432

> <Gold.Chemscore.ZeroCoef>
-5.4800

> <Gold.Chemscore.Hbond>
1.6099

> <Gold.Chemscore.Metal>
0.0000

> <Gold.Chemscore.Lipo>
72.1552

> <Gold.Chemscore.Internal_Hbond>
0.0000

> <Gold.Chemscore.DEClash>
1.0423

> <Gold.Chemscore.DEInternal>
1.5747

> <Gold.Chemscore.Rot>
1.1937

> <Gold.Chemscore.Internal.Correction>
   9.000000E+99

> <Gold.Chemscore.Hbonds>
donor molecule, donor type, donor heavy atom, donor atom, acceptor molecule, acceptor atom, score
      L1  H     8    31       P1  7948  0.64
      P1  H  7989  7998       L1    16  0.24

> <Gold.Chemscore.Hbond.Weighted>
-5.3769

> <Gold.Chemscore.Metal.Weighted>
-0.0000

> <Gold.Chemscore.Lipo.Weighted>
-8.4422

> <Gold.Chemscore.Internal_Hbond.Weighted>
0.0000

> <Gold.Chemscore.DEClash.Weighted>
1.0423

> <Gold.Chemscore.DEInternal.Weighted>
1.5747

> <Gold.Chemscore.Rot.Weighted>
3.0559

> <Gold.Chemscore.Internal.Correction.Weighted>
   9.000000E+99

> <Gold.Protein.RotatedTorsions>
[ 6907 6896 6895 6894 ] final -123.81 input  -60.11 | X-H torsion
[ 7974 7965 7964 7962 ] final -156.45 input  175.53 | X-H torsion
[ 8008 7997 7996 7995 ] final  140.43 input   59.86 | X-H torsion
[ 10167 10162 10161 10158 ] final  -42.92 input  -65.29 | X-H torsion
[ 10718 10713 10712 10709 ] final    1.07 input   66.30 | X-H torsion
[ 10763 10752 10751 10750 ] final   17.79 input  -60.55 | X-H torsion
[ 11005 11000 10999 10996 ] final   58.41 input  -57.11 | X-H torsion

> <Gold.Protein.ActiveResidues>
 VAL166  LYS551  ARG553  GLY616  TRP617  ASP618  TYR619  PRO620  LYS621  CYS622 
 ASP623  PHE694  ASN695  SER759  ASP760  ASP761  ALA762  ILE779  LEU786  VAL792 
 PHE793  MET794  SER795  GLU796  ALA797  LYS798  CYS799  TRP800  GLU811  SER814 

> <Gold.Protein.RotatedAtoms>
  150.8707  133.7510  159.2962 H   0  0  0  0  0  0  0  0  0  0  0  0  # atno 6907 bound_to 6896
  151.5123  135.1064  159.9866 H   0  0  0  0  0  0  0  0  0  0  0  0  # atno 6908 bound_to 6896
  152.4693  133.7948  159.6977 H   0  0  0  0  0  0  0  0  0  0  0  0  # atno 6909 bound_to 6896
  144.7592  140.4108  143.5989 H   0  0  0  0  0  0  0  0  0  0  0  0  # atno 7974 bound_to 7965
  156.2979  140.2341  156.4400 H   0  0  0  0  0  0  0  0  0  0  0  0  # atno 8008 bound_to 7997
  154.8194  140.0438  157.1420 H   0  0  0  0  0  0  0  0  0  0  0  0  # atno 8009 bound_to 7997
  154.9332  140.3019  155.5161 H   0  0  0  0  0  0  0  0  0  0  0  0  # atno 8010 bound_to 7997
  140.6952  143.3011  151.3278 H   0  0  0  0  0  0  0  0  0  0  0  0  # atno 10167 bound_to 10162
  156.8428  130.5527  149.5676 H   0  0  0  0  0  0  0  0  0  0  0  0  # atno 10718 bound_to 10713
  153.1307  135.6739  153.9183 H   0  0  0  0  0  0  0  0  0  0  0  0  # atno 10763 bound_to 10752
  153.8671  135.3074  155.3441 H   0  0  0  0  0  0  0  0  0  0  0  0  # atno 10764 bound_to 10752
  154.7704  135.4942  153.9720 H   0  0  0  0  0  0  0  0  0  0  0  0  # atno 10765 bound_to 10752
  140.0380  134.5915  155.9419 H   0  0  0  0  0  0  0  0  0  0  0  0  # atno 11005 bound_to 11000
  145.6675  139.1593  143.2773 LP  0  0  0  0  0  0  0  0  0  0  0  0  # atno 17320 bound_to 7965
  146.1637  140.6749  142.9265 LP  0  0  0  0  0  0  0  0  0  0  0  0  # atno 17321 bound_to 7965
  139.6399  144.0558  152.2546 LP  0  0  0  0  0  0  0  0  0  0  0  0  # atno 17342 bound_to 10162
  140.0061  144.6258  150.7688 LP  0  0  0  0  0  0  0  0  0  0  0  0  # atno 17343 bound_to 10162
  156.0871  130.5867  150.9668 LP  0  0  0  0  0  0  0  0  0  0  0  0  # atno 17370 bound_to 10713
  157.6346  131.0917  150.8373 LP  0  0  0  0  0  0  0  0  0  0  0  0  # atno 17371 bound_to 10713
  141.1867  133.6558  156.5253 LP  0  0  0  0  0  0  0  0  0  0  0  0  # atno 17394 bound_to 11000
  140.4116  134.7267  157.4839 LP  0  0  0  0  0  0  0  0  0  0  0  0  # atno 17395 bound_to 11000

$$$$
