AV-unprocessed.smi:91|AV-procd|sdf|840|dock3
  -GOLD-   2262017273D 1   1.00000     0.00000
 Structure written by MMmdl.
 60 63  0  0  0  0  0  0  0  0  1 V2000
  155.4590  139.8096  162.0989 C   0  0  0  0  0  0  0  0  0  0  0  0
  154.8611  140.4381  160.9790 O   0  0  0  0  0  0  0  0  0  0  0  0
  153.7760  141.2766  161.3405 C   0  0  0  0  0  0  0  0  0  0  0  0
  153.2179  141.9531  160.0823 C   0  0  1  0  0  0  0  0  0  0  0  0
  152.6460  140.9356  159.0806 C   0  0  0  0  0  0  0  0  0  0  0  0
  152.0296  141.6394  157.9660 N   0  0  0  0  0  0  0  0  0  0  0  0
  151.6637  140.8612  156.9266 C   0  0  0  0  0  0  0  0  0  0  0  0
  152.4974  139.8442  156.5987 N   0  0  0  0  0  0  0  0  0  0  0  0
  152.2013  139.0434  155.5703 C   0  0  0  0  0  0  0  0  0  0  0  0
  151.1463  139.0877  154.7533 N   0  0  0  0  0  0  0  0  0  0  0  0
  150.3091  140.1141  155.0801 C   0  0  0  0  0  0  0  0  0  0  0  0
  150.4899  141.0445  156.1418 C   0  0  0  0  0  0  0  0  0  0  0  0
  149.4405  141.9561  156.1561 N   0  0  0  0  0  0  0  0  0  0  0  0
  148.6789  141.5807  155.1647 C   0  0  0  0  0  0  0  0  0  0  0  0
  149.1228  140.4789  154.4691 N   0  0  0  0  0  0  0  0  0  0  0  0
  148.4851  139.8551  153.3236 C   0  0  0  0  0  0  0  0  0  0  0  0
  147.2024  139.0586  153.6901 C   0  0  1  0  0  0  0  0  0  0  0  0
  146.4226  138.5700  152.4473 C   0  0  0  0  0  0  0  0  0  0  0  0
  147.2682  137.9497  151.5014 O   0  0  0  0  0  0  0  0  0  0  0  0
  147.4767  137.8755  154.6556 C   0  0  1  0  0  0  0  0  0  0  0  0
  148.0911  138.2431  156.0053 C   0  0  0  0  0  0  0  0  0  0  0  0
  147.4769  137.2179  156.9491 C   0  0  0  0  0  0  0  0  0  0  0  0
  146.1581  137.0891  156.4470 O   0  0  0  0  0  0  0  0  0  0  0  0
  146.2434  137.0334  155.0291 C   0  0  0  0  0  0  0  0  0  0  0  0
  150.9834  142.5571  158.3931 C   0  0  0  0  0  0  0  0  0  0  0  0
  151.5237  143.5636  159.4342 C   0  0  0  0  0  0  0  0  0  0  0  0
  152.4693  144.6019  158.7940 C   0  0  0  0  0  0  0  0  0  0  0  0
  150.3507  144.2942  160.1054 C   0  0  0  0  0  0  0  0  0  0  0  0
  152.1820  142.8500  160.4884 O   0  0  0  0  0  0  0  0  0  0  0  0
  156.2821  139.1769  161.7670 H   0  0  0  0  0  0  0  0  0  0  0  0
  154.7420  139.1798  162.6271 H   0  0  0  0  0  0  0  0  0  0  0  0
  155.8601  140.5457  162.7965 H   0  0  0  0  0  0  0  0  0  0  0  0
  152.9955  140.7043  161.8448 H   0  0  0  0  0  0  0  0  0  0  0  0
  154.1268  142.0375  162.0397 H   0  0  0  0  0  0  0  0  0  0  0  0
  154.0251  142.5190  159.6170 H   0  0  0  0  0  0  0  0  0  0  0  0
  153.4366  140.2797  158.7135 H   0  0  0  0  0  0  0  0  0  0  0  0
  151.9076  140.3073  159.5794 H   0  0  0  0  0  0  0  0  0  0  0  0
  152.9121  138.2548  155.3729 H   0  0  0  0  0  0  0  0  0  0  0  0
  147.7646  142.0987  154.9144 H   0  0  0  0  0  0  0  0  0  0  0  0
  148.2608  140.6339  152.5948 H   0  0  0  0  0  0  0  0  0  0  0  0
  149.2290  139.2104  152.8571 H   0  0  0  0  0  0  0  0  0  0  0  0
  146.5392  139.7280  154.2402 H   0  0  0  0  0  0  0  0  0  0  0  0
  145.6276  137.8805  152.7330 H   0  0  0  0  0  0  0  0  0  0  0  0
  145.9453  139.4104  151.9426 H   0  0  0  0  0  0  0  0  0  0  0  0
  147.6919  137.2128  151.9142 H   0  0  0  0  0  0  0  0  0  0  0  0
  148.1673  137.1934  154.1567 H   0  0  0  0  0  0  0  0  0  0  0  0
  149.1808  138.2066  155.9981 H   0  0  0  0  0  0  0  0  0  0  0  0
  147.7962  139.2403  156.3275 H   0  0  0  0  0  0  0  0  0  0  0  0
  147.9948  136.2600  156.8806 H   0  0  0  0  0  0  0  0  0  0  0  0
  147.4840  137.5432  157.9895 H   0  0  0  0  0  0  0  0  0  0  0  0
  145.3172  137.3791  154.5698 H   0  0  0  0  0  0  0  0  0  0  0  0
  146.3877  135.9957  154.7242 H   0  0  0  0  0  0  0  0  0  0  0  0
  150.5743  143.0878  157.5317 H   0  0  0  0  0  0  0  0  0  0  0  0
  150.1662  141.9774  158.8253 H   0  0  0  0  0  0  0  0  0  0  0  0
  151.9344  145.2255  158.0771 H   0  0  0  0  0  0  0  0  0  0  0  0
  153.2941  144.1381  158.2536 H   0  0  0  0  0  0  0  0  0  0  0  0
  152.8976  145.2615  159.5492 H   0  0  0  0  0  0  0  0  0  0  0  0
  149.7618  144.8525  159.3769 H   0  0  0  0  0  0  0  0  0  0  0  0
  150.7032  144.9997  160.8584 H   0  0  0  0  0  0  0  0  0  0  0  0
  149.6811  143.5918  160.6029 H   0  0  0  0  0  0  0  0  0  0  0  0
  1  2  1  0  0  0  0
  1 30  1  0  0  0  0
  1 31  1  0  0  0  0
  1 32  1  0  0  0  0
  2  3  1  0  0  0  0
  3  4  1  0  0  0  0
  3 33  1  0  0  0  0
  3 34  1  0  0  0  0
  4 29  1  0  0  0  0
  4  5  1  0  0  0  0
  4 35  1  0  0  0  0
  5  6  1  0  0  0  0
  5 36  1  0  0  0  0
  5 37  1  0  0  0  0
  6  7  1  0  0  0  0
  6 25  1  0  0  0  0
  7 12  1  0  0  0  0
  7  8  2  0  0  0  0
  8  9  1  0  0  0  0
  9 10  2  0  0  0  0
  9 38  1  0  0  0  0
 10 11  1  0  0  0  0
 11 15  1  0  0  0  0
 11 12  2  0  0  0  0
 12 13  1  0  0  0  0
 13 14  2  0  0  0  0
 14 15  1  0  0  0  0
 14 39  1  0  0  0  0
 15 16  1  0  0  0  0
 16 17  1  0  0  0  0
 16 40  1  0  0  0  0
 16 41  1  0  0  0  0
 17 18  1  0  0  0  0
 17 20  1  0  0  0  0
 17 42  1  0  0  0  0
 18 19  1  0  0  0  0
 18 43  1  0  0  0  0
 18 44  1  0  0  0  0
 19 45  1  0  0  0  0
 20 24  1  0  0  0  0
 20 21  1  0  0  0  0
 20 46  1  0  0  0  0
 21 22  1  0  0  0  0
 21 47  1  0  0  0  0
 21 48  1  0  0  0  0
 22 23  1  0  0  0  0
 22 49  1  0  0  0  0
 22 50  1  0  0  0  0
 23 24  1  0  0  0  0
 24 51  1  0  0  0  0
 24 52  1  0  0  0  0
 25 26  1  0  0  0  0
 25 53  1  0  0  0  0
 25 54  1  0  0  0  0
 26 27  1  0  0  0  0
 26 28  1  0  0  0  0
 26 29  1  0  0  0  0
 27 55  1  0  0  0  0
 27 56  1  0  0  0  0
 27 57  1  0  0  0  0
 28 58  1  0  0  0  0
 28 59  1  0  0  0  0
 28 60  1  0  0  0  0
M  END
> <s_m_source_file>
AV-unprocessed.smi

> <i_m_source_file_index>
91

> <i_lp_mmshare_version>
43012

> <i_f3d_flags>
0

> <s_epik_input>
W0NIM11PW0NIMl1bQ0BASF0oTzEpW0NIMl1OKFtDSDJdQzEoW0NIM10pW0NIM10pYyhuW2NIXW4yKWMoYzIzKW5bY0hdbjNbQ0gyXVtDQEhdKFtDSDJdW09IXSlbQ0BASF00W0NIMl1bQ0gyXU9bQ0gyXTQ=

> <s_epik_cmdline>
J2VwaWtfcHl0aG9uJywgJy1waCcsICc3LjAnLCAnLXRuJywgJzgnLCAnLW1hJywgJzIwMCcsICctbWV0YWxfYmluZGluZycsICctaW1hZScsICc8aW5maWxlLm1hZT4nLCAnLW9tYWUnLCAnPG91dGZpbGUubWFlPic=

> <r_lp_tautomer_probability>
1

> <r_epik_Ionization_Penalty>
8.63591e-05

> <r_epik_Ionization_Penalty_Charging>
0

> <r_epik_Ionization_Penalty_Neutral>
8.63591e-05

> <r_epik_State_Penalty>
-0

> <r_epik_Charging_Adjusted_Penalty>
0

> <i_epik_Tot_Q>
0

> <i_epik_Tot_abs_Q>
0

> <r_epik_Metal_State_Penalty>
-0

> <b_epik_Metal_Only>
0

> <s_lp_Force_Field>
OPLS_2005

> <r_lp_Energy>
49.4407

> <b_lp_Chiralities_Consistent>
1

> <s_lp_Variant>
AV-unprocessed.smi:91-8

> <Gold.Version>
5.8.1

> <Gold.Id.Protein>
6NUR|6NUR_protein|mol2

> <Gold.PLP.Fitness>
54.3531

> <Gold.PLP.PLP>
-46.6482

> <Gold.PLP.part.hbond>
-3.8767

> <Gold.PLP.part.metal>
0.0000

> <Gold.PLP.part.buried>
-0.9193

> <Gold.PLP.part.nonpolar>
-44.7299

> <Gold.PLP.part.repulsive>
2.3615

> <Gold.PLP.ligand.clash>
0.0000

> <Gold.PLP.ligand.torsion>
0.7417

> <Gold.PLP.Chemscore.Hbond>
2.8220

> <Gold.PLP.Chemscore.CHOScore>
0.1155

> <Gold.PLP.Chemscore.Metal>
0.0000

> <Gold.Chemscore.Hbonds>
donor molecule, donor type, donor heavy atom, donor atom, acceptor molecule, acceptor atom, score
      L1  H    19    45       P1  7948  0.86
      P1  H  7954  7966       L1    19  0.85
      P1  H  7997  8008       L1     8  0.93
      L1  C    14    39       P1  8028  0.01

> <Gold.PLP.Chemscore.Internal.Correction>
0.3758

> <Gold.Rescore>
     Score         DG    S(hbond)    S(metal)    S(lipo)     H(rot)  DE(clash)    DE(int)     intcor
     11.95     -17.25       2.00        0.00     109.65       3.03       2.21       3.09       ----

> <Gold.Chemscore.Fitness>
11.9456

> <Gold.Chemscore.DG>
-17.2459

> <Gold.Chemscore.ZeroCoef>
-5.4800

> <Gold.Chemscore.Hbond>
2.0028

> <Gold.Chemscore.Metal>
0.0000

> <Gold.Chemscore.Lipo>
109.6526

> <Gold.Chemscore.Internal_Hbond>
0.0000

> <Gold.Chemscore.DEClash>
2.2129

> <Gold.Chemscore.DEInternal>
3.0875

> <Gold.Chemscore.Rot>
3.0284

> <Gold.Chemscore.Internal.Correction>
   9.000000E+99

> <Gold.Chemscore.Hbonds>
donor molecule, donor type, donor heavy atom, donor atom, acceptor molecule, acceptor atom, score
      L1  H    19    45       P1  7948  0.83
      P1  H  7954  7966       L1    19  0.15
      P1  H  7997  8008       L1     8  0.69

> <Gold.Chemscore.Hbond.Weighted>
-6.6894

> <Gold.Chemscore.Metal.Weighted>
-0.0000

> <Gold.Chemscore.Lipo.Weighted>
-12.8294

> <Gold.Chemscore.Internal_Hbond.Weighted>
0.0000

> <Gold.Chemscore.DEClash.Weighted>
2.2129

> <Gold.Chemscore.DEInternal.Weighted>
3.0875

> <Gold.Chemscore.Rot.Weighted>
7.7528

> <Gold.Chemscore.Internal.Correction.Weighted>
   9.000000E+99

> <Gold.Protein.RotatedTorsions>
[ 6907 6896 6895 6894 ] final -109.52 input  -60.11 | X-H torsion
[ 7974 7965 7964 7962 ] final  -37.47 input  175.53 | X-H torsion
[ 8008 7997 7996 7995 ] final  -70.40 input   59.86 | X-H torsion
[ 10167 10162 10161 10158 ] final  155.00 input  -65.29 | X-H torsion
[ 10718 10713 10712 10709 ] final   63.53 input   66.30 | X-H torsion
[ 10763 10752 10751 10750 ] final  166.53 input  -60.55 | X-H torsion
[ 11005 11000 10999 10996 ] final   -7.75 input  -57.11 | X-H torsion

> <Gold.Protein.ActiveResidues>
 VAL166  LYS551  ARG553  GLY616  TRP617  ASP618  TYR619  PRO620  LYS621  CYS622 
 ASP623  PHE694  ASN695  SER759  ASP760  ASP761  ALA762  ILE779  LEU786  VAL792 
 PHE793  MET794  SER795  GLU796  ALA797  LYS798  CYS799  TRP800  GLU811  SER814 

> <Gold.Protein.RotatedAtoms>
  150.7567  133.9516  159.3487 H   0  0  0  0  0  0  0  0  0  0  0  0  # atno 6907 bound_to 6896
  151.7434  135.0847  160.0329 H   0  0  0  0  0  0  0  0  0  0  0  0  # atno 6908 bound_to 6896
  152.3513  133.6146  159.5983 H   0  0  0  0  0  0  0  0  0  0  0  0  # atno 6909 bound_to 6896
  146.0572  140.6399  142.9014 H   0  0  0  0  0  0  0  0  0  0  0  0  # atno 7974 bound_to 7965
  154.5009  140.0835  156.7795 H   0  0  0  0  0  0  0  0  0  0  0  0  # atno 8008 bound_to 7997
  155.4005  140.3437  155.4238 H   0  0  0  0  0  0  0  0  0  0  0  0  # atno 8009 bound_to 7997
  156.1455  140.1542  156.8841 H   0  0  0  0  0  0  0  0  0  0  0  0  # atno 8010 bound_to 7997
  139.4822  144.5137  151.7985 H   0  0  0  0  0  0  0  0  0  0  0  0  # atno 10167 bound_to 10162
  157.5978  130.9110  149.9728 H   0  0  0  0  0  0  0  0  0  0  0  0  # atno 10718 bound_to 10713
  154.3404  135.2754  155.2426 H   0  0  0  0  0  0  0  0  0  0  0  0  # atno 10763 bound_to 10752
  154.4699  135.5885  153.6317 H   0  0  0  0  0  0  0  0  0  0  0  0  # atno 10764 bound_to 10752
  152.9858  135.6085  154.3604 H   0  0  0  0  0  0  0  0  0  0  0  0  # atno 10765 bound_to 10752
  140.7162  133.8867  155.8786 H   0  0  0  0  0  0  0  0  0  0  0  0  # atno 11005 bound_to 11000
  144.7154  140.4192  143.7048 LP  0  0  0  0  0  0  0  0  0  0  0  0  # atno 17320 bound_to 7965
  145.6623  139.1583  143.2801 LP  0  0  0  0  0  0  0  0  0  0  0  0  # atno 17321 bound_to 7965
  140.4643  144.1677  150.5910 LP  0  0  0  0  0  0  0  0  0  0  0  0  # atno 17342 bound_to 10162
  140.4451  143.2510  151.9422 LP  0  0  0  0  0  0  0  0  0  0  0  0  # atno 17343 bound_to 10162
  156.1044  130.3653  150.0160 LP  0  0  0  0  0  0  0  0  0  0  0  0  # atno 17370 bound_to 10713
  156.8270  130.9379  151.3639 LP  0  0  0  0  0  0  0  0  0  0  0  0  # atno 17371 bound_to 10713
  141.0043  134.1108  157.4286 LP  0  0  0  0  0  0  0  0  0  0  0  0  # atno 17394 bound_to 11000
  139.8859  135.0077  156.6466 LP  0  0  0  0  0  0  0  0  0  0  0  0  # atno 17395 bound_to 11000

$$$$
