AV-unprocessed.smi:213|AV-procd|sdf|1638|dock4
  -GOLD-   2262020 03D 1   1.00000     0.00000
 Structure written by MMmdl.
 59 62  0  0  0  0  0  0  0  0  2 V2000
  148.7185  133.1204  155.7798 C   0  0  0  0  0  0  0  0  0  0  0  0
  148.6647  134.6138  155.4087 C   0  0  1  0  0  0  0  0  0  0  0  0
  147.2438  135.0726  155.0107 C   0  0  0  0  0  0  0  0  0  0  0  0
  146.9006  134.7356  153.6053 N   0  3  0  0  0  0  0  0  0  0  0  0
  146.7372  133.2771  153.3956 C   0  0  0  0  0  0  0  0  0  0  0  0
  146.4437  132.9746  151.9163 C   0  0  0  0  0  0  0  0  0  0  0  0
  145.2846  133.6880  151.5045 O   0  0  0  0  0  0  0  0  0  0  0  0
  145.4577  135.0948  151.6179 C   0  0  0  0  0  0  0  0  0  0  0  0
  145.7175  135.4672  153.0875 C   0  0  0  0  0  0  0  0  0  0  0  0
  149.2063  135.4393  156.4957 N   0  0  0  0  0  0  0  0  0  0  0  0
  149.6568  134.8280  157.7431 C   0  0  0  0  0  0  0  0  0  0  0  0
  149.6957  136.6650  156.1742 C   0  0  0  0  0  0  0  0  0  0  0  0
  149.7624  136.9951  154.8576 N   0  0  0  0  0  0  0  0  0  0  0  0
  150.2257  138.1904  154.4812 C   0  0  0  0  0  0  0  0  0  0  0  0
  150.6702  139.1903  155.2436 N   0  0  0  0  0  0  0  0  0  0  0  0
  150.6114  138.8661  156.5665 C   0  0  0  0  0  0  0  0  0  0  0  0
  150.1410  137.6392  157.1170 C   0  0  0  0  0  0  0  0  0  0  0  0
  150.2477  137.6802  158.5037 N   0  0  0  0  0  0  0  0  0  0  0  0
  150.7436  138.8607  158.7562 C   0  0  0  0  0  0  0  0  0  0  0  0
  150.9952  139.6369  157.6488 N   0  0  0  0  0  0  0  0  0  0  0  0
  151.5494  140.9792  157.6298 C   0  0  0  0  0  0  0  0  0  0  0  0
  150.5992  142.0144  158.2636 C   0  0  2  0  0  0  0  0  0  0  0  0
  149.7865  142.5793  157.2519 O   0  0  0  0  0  0  0  0  0  0  0  0
  151.3590  143.1451  158.9811 C   0  0  1  0  0  0  0  0  0  0  0  0
  152.1604  144.0602  158.0516 C   0  0  0  0  0  0  0  0  0  0  0  0
  152.2143  145.3854  158.7977 C   0  0  0  0  0  0  0  0  0  0  0  0
  151.1903  145.2224  159.9232 C   0  0  0  0  0  0  0  0  0  0  0  0
  150.4525  144.0592  159.5788 O   0  0  0  0  0  0  0  0  0  0  0  0
  148.4215  132.4922  154.9401 H   0  0  0  0  0  0  0  0  0  0  0  0
  148.0575  132.8885  156.6152 H   0  0  0  0  0  0  0  0  0  0  0  0
  149.7294  132.8246  156.0630 H   0  0  0  0  0  0  0  0  0  0  0  0
  149.3050  134.7329  154.5365 H   0  0  0  0  0  0  0  0  0  0  0  0
  146.5207  134.5943  155.6718 H   0  0  0  0  0  0  0  0  0  0  0  0
  147.1320  136.1480  155.1601 H   0  0  0  0  0  0  0  0  0  0  0  0
  147.6436  132.7532  153.7015 H   0  0  0  0  0  0  0  0  0  0  0  0
  145.9242  132.9058  154.0218 H   0  0  0  0  0  0  0  0  0  0  0  0
  147.2942  133.2428  151.2871 H   0  0  0  0  0  0  0  0  0  0  0  0
  146.2696  131.9073  151.7782 H   0  0  0  0  0  0  0  0  0  0  0  0
  146.2795  135.4256  150.9805 H   0  0  0  0  0  0  0  0  0  0  0  0
  144.5564  135.5913  151.2580 H   0  0  0  0  0  0  0  0  0  0  0  0
  144.8423  135.2243  153.6922 H   0  0  0  0  0  0  0  0  0  0  0  0
  145.8671  136.5436  153.1613 H   0  0  0  0  0  0  0  0  0  0  0  0
  149.7909  135.5805  158.5209 H   0  0  0  0  0  0  0  0  0  0  0  0
  150.6041  134.3081  157.5992 H   0  0  0  0  0  0  0  0  0  0  0  0
  148.9297  134.1077  158.1149 H   0  0  0  0  0  0  0  0  0  0  0  0
  150.2417  138.3722  153.4166 H   0  0  0  0  0  0  0  0  0  0  0  0
  150.9470  139.1960  159.7629 H   0  0  0  0  0  0  0  0  0  0  0  0
  152.4994  140.9581  158.1652 H   0  0  0  0  0  0  0  0  0  0  0  0
  151.7792  141.2499  156.5982 H   0  0  0  0  0  0  0  0  0  0  0  0
  149.9454  141.5125  158.9782 H   0  0  0  0  0  0  0  0  0  0  0  0
  150.1699  143.4000  156.9829 H   0  0  0  0  0  0  0  0  0  0  0  0
  152.0107  142.7379  159.7569 H   0  0  0  0  0  0  0  0  0  0  0  0
  153.1500  143.6621  157.8252 H   0  0  0  0  0  0  0  0  0  0  0  0
  151.6319  144.1974  157.1071 H   0  0  0  0  0  0  0  0  0  0  0  0
  153.2074  145.5828  159.2026 H   0  0  0  0  0  0  0  0  0  0  0  0
  151.9514  146.2101  158.1345 H   0  0  0  0  0  0  0  0  0  0  0  0
  151.6925  145.0584  160.8778 H   0  0  0  0  0  0  0  0  0  0  0  0
  150.5375  146.0893  160.0269 H   0  0  0  0  0  0  0  0  0  0  0  0
  147.6916  135.0148  153.0426 H   0  0  0  0  0  0  0  0  0  0  0  0
  1  2  1  0  0  0  0
  1 29  1  0  0  0  0
  1 30  1  0  0  0  0
  1 31  1  0  0  0  0
  2  3  1  0  0  0  0
  2 10  1  0  0  0  0
  2 32  1  0  0  0  0
  3  4  1  0  0  0  0
  3 33  1  0  0  0  0
  3 34  1  0  0  0  0
  4  9  1  0  0  0  0
  4  5  1  0  0  0  0
  4 59  1  0  0  0  0
  5  6  1  0  0  0  0
  5 35  1  0  0  0  0
  5 36  1  0  0  0  0
  6  7  1  0  0  0  0
  6 37  1  0  0  0  0
  6 38  1  0  0  0  0
  7  8  1  0  0  0  0
  8  9  1  0  0  0  0
  8 39  1  0  0  0  0
  8 40  1  0  0  0  0
  9 41  1  0  0  0  0
  9 42  1  0  0  0  0
 10 11  1  0  0  0  0
 10 12  1  0  0  0  0
 11 43  1  0  0  0  0
 11 44  1  0  0  0  0
 11 45  1  0  0  0  0
 12 17  1  0  0  0  0
 12 13  2  0  0  0  0
 13 14  1  0  0  0  0
 14 15  2  0  0  0  0
 14 46  1  0  0  0  0
 15 16  1  0  0  0  0
 16 20  1  0  0  0  0
 16 17  2  0  0  0  0
 17 18  1  0  0  0  0
 18 19  2  0  0  0  0
 19 20  1  0  0  0  0
 19 47  1  0  0  0  0
 20 21  1  0  0  0  0
 21 22  1  0  0  0  0
 21 48  1  0  0  0  0
 21 49  1  0  0  0  0
 22 23  1  0  0  0  0
 22 24  1  0  0  0  0
 22 50  1  0  0  0  0
 23 51  1  0  0  0  0
 24 28  1  0  0  0  0
 24 25  1  0  0  0  0
 24 52  1  0  0  0  0
 25 26  1  0  0  0  0
 25 53  1  0  0  0  0
 25 54  1  0  0  0  0
 26 27  1  0  0  0  0
 26 55  1  0  0  0  0
 26 56  1  0  0  0  0
 27 28  1  0  0  0  0
 27 57  1  0  0  0  0
 27 58  1  0  0  0  0
M  CHG  1   4   1
M  END
> <s_m_source_file>
AV-unprocessed.smi

> <i_m_source_file_index>
213

> <i_lp_mmshare_version>
43012

> <i_f3d_flags>
0

> <s_epik_input>
W0NIMl0xW0NIMl1PW0NIMl1bQ0gyXU4xW0NIMl1bQ0BASF0oW0NIM10pTihbQ0gzXSljKG5bY0hdbjIpYyhjMjMpbltjSF1uM1tDSDJdW0NASF0oW09IXSlbQ0BASF00W0NIMl1bQ0gyXVtDSDJdTzQ=

> <s_epik_cmdline>
J2VwaWtfcHl0aG9uJywgJy1waCcsICc3LjAnLCAnLXRuJywgJzgnLCAnLW1hJywgJzIwMCcsICctbWV0YWxfYmluZGluZycsICctaW1hZScsICc8aW5maWxlLm1hZT4nLCAnLW9tYWUnLCAnPG91dGZpbGUubWFlPic=

> <r_lp_tautomer_probability>
1

> <r_epik_Ionization_Penalty>
0.399679

> <r_epik_Ionization_Penalty_Charging>
0.399433

> <r_epik_Ionization_Penalty_Neutral>
0.000246213

> <r_epik_State_Penalty>
0.286032

> <r_epik_Charging_Adjusted_Penalty>
0.685465

> <i_epik_Tot_Q>
1

> <i_epik_Tot_abs_Q>
1

> <r_epik_Metal_State_Penalty>
0.286072

> <b_epik_Metal_Only>
0

> <s_lp_Force_Field>
OPLS_2005

> <r_lp_Energy>
45.5564

> <b_lp_Chiralities_Consistent>
1

> <s_lp_Variant>
AV-unprocessed.smi:213-6

> <Gold.Version>
5.8.1

> <Gold.Id.Protein>
6NUR|6NUR_protein|mol2

> <Gold.PLP.Fitness>
53.8259

> <Gold.PLP.PLP>
-43.6981

> <Gold.PLP.part.hbond>
-2.7068

> <Gold.PLP.part.metal>
0.0000

> <Gold.PLP.part.buried>
-6.2169

> <Gold.PLP.part.nonpolar>
-36.0855

> <Gold.PLP.part.repulsive>
1.6694

> <Gold.PLP.ligand.clash>
0.0000

> <Gold.PLP.ligand.torsion>
1.2941

> <Gold.PLP.Chemscore.Hbond>
2.9417

> <Gold.PLP.Chemscore.CHOScore>
1.0000

> <Gold.PLP.Chemscore.Metal>
0.0000

> <Gold.Chemscore.Hbonds>
donor molecule, donor type, donor heavy atom, donor atom, acceptor molecule, acceptor atom, score
      L1  H     4    59       P1  7948  1.69
      L1  H    23    51       P1  8028  0.14
      L1  C    14    46       P1  7948  0.06
      L1  C    14    46       P1  7957  0.18

> <Gold.PLP.Chemscore.Internal.Correction>
0.8909

> <Gold.Rescore>
     Score         DG    S(hbond)    S(metal)    S(lipo)     H(rot)  DE(clash)    DE(int)     intcor
     10.74     -13.89       1.21        0.00      99.29       2.83       0.28       2.87       ----

> <Gold.Chemscore.Fitness>
10.7437

> <Gold.Chemscore.DG>
-13.8905

> <Gold.Chemscore.ZeroCoef>
-5.4800

> <Gold.Chemscore.Hbond>
1.2056

> <Gold.Chemscore.Metal>
0.0000

> <Gold.Chemscore.Lipo>
99.2887

> <Gold.Chemscore.Internal_Hbond>
0.0000

> <Gold.Chemscore.DEClash>
0.2812

> <Gold.Chemscore.DEInternal>
2.8655

> <Gold.Chemscore.Rot>
2.8254

> <Gold.Chemscore.Internal.Correction>
   9.000000E+99

> <Gold.Chemscore.Hbonds>
donor molecule, donor type, donor heavy atom, donor atom, acceptor molecule, acceptor atom, score
      L1  H     4    59       P1  7948  0.83
      L1  H    23    51       P1  8028  0.15

> <Gold.Chemscore.Hbond.Weighted>
-4.0266

> <Gold.Chemscore.Metal.Weighted>
-0.0000

> <Gold.Chemscore.Lipo.Weighted>
-11.6168

> <Gold.Chemscore.Internal_Hbond.Weighted>
0.0000

> <Gold.Chemscore.DEClash.Weighted>
0.2812

> <Gold.Chemscore.DEInternal.Weighted>
2.8655

> <Gold.Chemscore.Rot.Weighted>
7.2330

> <Gold.Chemscore.Internal.Correction.Weighted>
   9.000000E+99

> <Gold.Protein.RotatedTorsions>
[ 6907 6896 6895 6894 ] final -170.82 input  -60.11 | X-H torsion
[ 7974 7965 7964 7962 ] final   54.15 input  175.53 | X-H torsion
[ 8008 7997 7996 7995 ] final  174.87 input   59.86 | X-H torsion
[ 10167 10162 10161 10158 ] final  -92.01 input  -65.29 | X-H torsion
[ 10718 10713 10712 10709 ] final  123.34 input   66.30 | X-H torsion
[ 10763 10752 10751 10750 ] final  -68.98 input  -60.55 | X-H torsion
[ 11005 11000 10999 10996 ] final   17.55 input  -57.11 | X-H torsion

> <Gold.Protein.ActiveResidues>
 VAL166  LYS551  ARG553  GLY616  TRP617  ASP618  TYR619  PRO620  LYS621  CYS622 
 ASP623  PHE694  ASN695  SER759  ASP760  ASP761  ALA762  ILE779  LEU786  VAL792 
 PHE793  MET794  SER795  GLU796  ALA797  LYS798  CYS799  TRP800  GLU811  SER814 

> <Gold.Protein.RotatedAtoms>
  151.5138  133.3479  159.2889 H   0  0  0  0  0  0  0  0  0  0  0  0  # atno 6907 bound_to 6896
  150.8695  134.8068  159.7155 H   0  0  0  0  0  0  0  0  0  0  0  0  # atno 6908 bound_to 6896
  152.4688  134.5020  159.9779 H   0  0  0  0  0  0  0  0  0  0  0  0  # atno 6909 bound_to 6896
  145.9638  139.4084  143.0232 H   0  0  0  0  0  0  0  0  0  0  0  0  # atno 7974 bound_to 7965
  156.0930  140.1423  156.9567 H   0  0  0  0  0  0  0  0  0  0  0  0  # atno 8008 bound_to 7997
  154.4654  140.0928  156.7051 H   0  0  0  0  0  0  0  0  0  0  0  0  # atno 8009 bound_to 7997
  155.4888  140.3447  155.4354 H   0  0  0  0  0  0  0  0  0  0  0  0  # atno 8010 bound_to 7997
  140.3391  143.2952  151.9856 H   0  0  0  0  0  0  0  0  0  0  0  0  # atno 10167 bound_to 10162
  157.5672  131.1086  150.8433 H   0  0  0  0  0  0  0  0  0  0  0  0  # atno 10718 bound_to 10713
  154.3969  135.6040  153.5875 H   0  0  0  0  0  0  0  0  0  0  0  0  # atno 10763 bound_to 10752
  152.9788  135.5897  154.4231 H   0  0  0  0  0  0  0  0  0  0  0  0  # atno 10764 bound_to 10752
  154.4023  135.2843  155.2067 H   0  0  0  0  0  0  0  0  0  0  0  0  # atno 10765 bound_to 10752
  140.4347  134.1383  155.7684 H   0  0  0  0  0  0  0  0  0  0  0  0  # atno 11005 bound_to 11000
  145.8002  140.9774  143.1003 LP  0  0  0  0  0  0  0  0  0  0  0  0  # atno 17320 bound_to 7965
  144.6821  139.9792  143.7483 LP  0  0  0  0  0  0  0  0  0  0  0  0  # atno 17321 bound_to 7965
  139.4843  144.6172  151.7324 LP  0  0  0  0  0  0  0  0  0  0  0  0  # atno 17342 bound_to 10162
  140.5326  144.0706  150.6059 LP  0  0  0  0  0  0  0  0  0  0  0  0  # atno 17343 bound_to 10162
  156.8914  130.5214  149.5286 LP  0  0  0  0  0  0  0  0  0  0  0  0  # atno 17370 bound_to 10713
  156.0719  130.5750  150.9400 LP  0  0  0  0  0  0  0  0  0  0  0  0  # atno 17371 bound_to 10713
  141.1731  133.8569  157.1509 LP  0  0  0  0  0  0  0  0  0  0  0  0  # atno 17394 bound_to 11000
  140.0110  134.9988  157.0395 LP  0  0  0  0  0  0  0  0  0  0  0  0  # atno 17395 bound_to 11000

$$$$
