AV-unprocessed.smi:561|AV-procd|sdf|2936|dock10
  -GOLD-   2262023433D 1   1.00000     0.00000
 Structure written by MMmdl.
 37 38  0  0  0  0  0  0  0  0  2 V2000
  148.5839  132.7020  152.9620 C   0  0  0  0  0  0  0  0  0  0  0  0
  147.8858  133.5192  154.0568 C   0  0  2  0  0  0  0  0  0  0  0  0
  146.4024  133.7692  153.7112 C   0  0  0  0  0  0  0  0  0  0  0  0
  146.0603  133.3799  152.3393 N   0  0  0  0  0  0  0  0  0  0  0  0
  145.4860  132.2044  151.9276 C   0  0  0  0  0  0  0  0  0  0  0  0
  145.3666  132.2848  150.5643 C   0  0  0  0  0  0  0  0  0  0  0  0
  145.8685  133.5061  150.2023 N   0  3  0  0  0  0  0  0  0  0  0  0
  146.2862  134.1724  151.2836 C   0  0  0  0  0  0  0  0  0  0  0  0
  148.5998  134.7829  154.2353 N   0  0  0  0  0  0  0  0  0  0  0  0
  149.2225  135.1841  155.3597 C   0  0  0  0  0  0  0  0  0  0  0  0
  149.2568  134.5082  156.3884 O   0  0  0  0  0  0  0  0  0  0  0  0
  149.8746  136.5174  155.2988 C   0  0  0  0  0  0  0  0  0  0  0  0
  149.2981  137.4931  154.6700 N   0  0  0  0  0  0  0  0  0  0  0  0
  149.8592  138.7519  154.5970 N   0  0  0  0  0  0  0  0  0  0  0  0
  148.9364  139.7773  154.1106 C   0  0  0  0  0  0  0  0  0  0  0  0
  151.1500  139.0365  154.9109 C   0  0  0  0  0  0  0  0  0  0  0  0
  151.6442  140.1620  154.8507 O   0  0  0  0  0  0  0  0  0  0  0  0
  152.0246  137.8528  155.3365 C   0  0  0  0  0  0  0  0  0  0  0  0
  151.2030  136.7276  155.9952 C   0  0  0  0  0  0  0  0  0  0  0  0
  148.0964  131.7366  152.8230 H   0  0  0  0  0  0  0  0  0  0  0  0
  149.6260  132.5089  153.2195 H   0  0  0  0  0  0  0  0  0  0  0  0
  148.5679  133.2233  152.0042 H   0  0  0  0  0  0  0  0  0  0  0  0
  147.9381  132.9320  154.9753 H   0  0  0  0  0  0  0  0  0  0  0  0
  145.7484  133.2220  154.3919 H   0  0  0  0  0  0  0  0  0  0  0  0
  146.1584  134.8269  153.8209 H   0  0  0  0  0  0  0  0  0  0  0  0
  145.2185  131.4165  152.6169 H   0  0  0  0  0  0  0  0  0  0  0  0
  144.9730  131.5827  149.8438 H   0  0  0  0  0  0  0  0  0  0  0  0
  146.7275  135.1530  151.2997 H   0  0  0  0  0  0  0  0  0  0  0  0
  148.6276  135.4042  153.4394 H   0  0  0  0  0  0  0  0  0  0  0  0
  149.3693  140.7775  154.0675 H   0  0  0  0  0  0  0  0  0  0  0  0
  148.0615  139.8308  154.7597 H   0  0  0  0  0  0  0  0  0  0  0  0
  148.5933  139.5264  153.1063 H   0  0  0  0  0  0  0  0  0  0  0  0
  152.5186  137.4718  154.4420 H   0  0  0  0  0  0  0  0  0  0  0  0
  152.8123  138.1912  156.0104 H   0  0  0  0  0  0  0  0  0  0  0  0
  151.0267  136.9605  157.0460 H   0  0  0  0  0  0  0  0  0  0  0  0
  151.7941  135.8110  155.9775 H   0  0  0  0  0  0  0  0  0  0  0  0
  145.9187  133.8566  149.2539 H   0  0  0  0  0  0  0  0  0  0  0  0
  1  2  1  0  0  0  0
  1 20  1  0  0  0  0
  1 21  1  0  0  0  0
  1 22  1  0  0  0  0
  2  3  1  0  0  0  0
  2  9  1  0  0  0  0
  2 23  1  0  0  0  0
  3  4  1  0  0  0  0
  3 24  1  0  0  0  0
  3 25  1  0  0  0  0
  4  8  1  0  0  0  0
  4  5  1  0  0  0  0
  5  6  2  0  0  0  0
  5 26  1  0  0  0  0
  6  7  1  0  0  0  0
  6 27  1  0  0  0  0
  7  8  2  0  0  0  0
  7 37  1  0  0  0  0
  8 28  1  0  0  0  0
  9 10  1  0  0  0  0
  9 29  1  0  0  0  0
 10 11  2  0  0  0  0
 10 12  1  0  0  0  0
 12 19  1  0  0  0  0
 12 13  2  0  0  0  0
 13 14  1  0  0  0  0
 14 15  1  0  0  0  0
 14 16  1  0  0  0  0
 15 30  1  0  0  0  0
 15 31  1  0  0  0  0
 15 32  1  0  0  0  0
 16 17  2  0  0  0  0
 16 18  1  0  0  0  0
 18 19  1  0  0  0  0
 18 33  1  0  0  0  0
 18 34  1  0  0  0  0
 19 35  1  0  0  0  0
 19 36  1  0  0  0  0
M  CHG  1   7   1
M  END
> <s_m_source_file>
AV-unprocessed.smi

> <i_m_source_file_index>
561

> <i_lp_mmshare_version>
43012

> <i_f3d_flags>
0

> <s_epik_input>
W2NIXTFuW2NIXVtjSF1uMVtDSDJdW0NAQEhdKFtDSDNdKVtOSF1DKD1PKUMyPU5OKFtDSDNdKUMoPU8pW0NIMl1bQ0gyXTI=

> <s_epik_cmdline>
J2VwaWtfcHl0aG9uJywgJy1waCcsICc3LjAnLCAnLXRuJywgJzgnLCAnLW1hJywgJzIwMCcsICctbWV0YWxfYmluZGluZycsICctaW1hZScsICc8aW5maWxlLm1hZT4nLCAnLW9tYWUnLCAnPG91dGZpbGUubWFlPic=

> <r_lp_tautomer_probability>
1

> <r_epik_Ionization_Penalty>
0.358595

> <r_epik_Ionization_Penalty_Charging>
0

> <r_epik_Ionization_Penalty_Neutral>
0.358595

> <r_epik_State_Penalty>
0.355181

> <r_epik_Charging_Adjusted_Penalty>
0.355181

> <i_epik_Tot_Q>
1

> <i_epik_Tot_abs_Q>
1

> <r_epik_Metal_State_Penalty>
0.718565

> <b_epik_Metal_Only>
0

> <s_epik_Chemistry_Notes>
This compound has an imine and may undergo hydrolysis.

> <s_lp_Force_Field>
OPLS_2005

> <r_lp_Energy>
20.1569

> <b_lp_Chiralities_Consistent>
1

> <s_lp_Variant>
AV-unprocessed.smi:561-1

> <Gold.Version>
5.8.1

> <Gold.Id.Protein>
6NUR|6NUR_protein|mol2

> <Gold.PLP.Fitness>
38.7629

> <Gold.PLP.PLP>
-30.0171

> <Gold.PLP.part.hbond>
-2.9721

> <Gold.PLP.part.metal>
0.0000

> <Gold.PLP.part.buried>
-4.5767

> <Gold.PLP.part.nonpolar>
-23.7907

> <Gold.PLP.part.repulsive>
0.3446

> <Gold.PLP.ligand.clash>
0.0000

> <Gold.PLP.ligand.torsion>
1.6187

> <Gold.PLP.Chemscore.Hbond>
2.9920

> <Gold.PLP.Chemscore.CHOScore>
1.0000

> <Gold.PLP.Chemscore.Metal>
0.0000

> <Gold.Chemscore.Hbonds>
donor molecule, donor type, donor heavy atom, donor atom, acceptor molecule, acceptor atom, score
      L1  H     7    37       P1  7921  0.85
      L1  H     9    29       P1  7948  1.00
      P1  H  7989  7998       L1    17  0.98
      L1  C     8    28       P1  7948  1.00

> <Gold.PLP.Chemscore.Internal.Correction>
0.0072

> <Gold.Rescore>
     Score         DG    S(hbond)    S(metal)    S(lipo)     H(rot)  DE(clash)    DE(int)     intcor
     14.33     -16.08       2.79        0.00      49.44       1.76       0.15       1.60       ----

> <Gold.Chemscore.Fitness>
14.3298

> <Gold.Chemscore.DG>
-16.0800

> <Gold.Chemscore.ZeroCoef>
-5.4800

> <Gold.Chemscore.Hbond>
2.7898

> <Gold.Chemscore.Metal>
0.0000

> <Gold.Chemscore.Lipo>
49.4449

> <Gold.Chemscore.Internal_Hbond>
0.0000

> <Gold.Chemscore.DEClash>
0.1545

> <Gold.Chemscore.DEInternal>
1.5957

> <Gold.Chemscore.Rot>
1.7589

> <Gold.Chemscore.Internal.Correction>
   9.000000E+99

> <Gold.Chemscore.Hbonds>
donor molecule, donor type, donor heavy atom, donor atom, acceptor molecule, acceptor atom, score
      L1  H     7    37       P1  7921  0.15
      L1  H     9    29       P1  7948  0.94
      P1  H  7989  7998       L1    17  0.83

> <Gold.Chemscore.Hbond.Weighted>
-9.3178

> <Gold.Chemscore.Metal.Weighted>
-0.0000

> <Gold.Chemscore.Lipo.Weighted>
-5.7851

> <Gold.Chemscore.Internal_Hbond.Weighted>
0.0000

> <Gold.Chemscore.DEClash.Weighted>
0.1545

> <Gold.Chemscore.DEInternal.Weighted>
1.5957

> <Gold.Chemscore.Rot.Weighted>
4.5028

> <Gold.Chemscore.Internal.Correction.Weighted>
   9.000000E+99

> <Gold.Protein.RotatedTorsions>
[ 6907 6896 6895 6894 ] final  133.70 input  -60.11 | X-H torsion
[ 7974 7965 7964 7962 ] final   -7.31 input  175.53 | X-H torsion
[ 8008 7997 7996 7995 ] final -138.21 input   59.86 | X-H torsion
[ 10167 10162 10161 10158 ] final  141.57 input  -65.29 | X-H torsion
[ 10718 10713 10712 10709 ] final   25.65 input   66.30 | X-H torsion
[ 10763 10752 10751 10750 ] final    6.08 input  -60.55 | X-H torsion
[ 11005 11000 10999 10996 ] final   99.01 input  -57.11 | X-H torsion

> <Gold.Protein.ActiveResidues>
 VAL166  LYS551  ARG553  GLY616  TRP617  ASP618  TYR619  PRO620  LYS621  CYS622 
 ASP623  PHE694  ASN695  SER759  ASP760  ASP761  ALA762  ILE779  LEU786  VAL792 
 PHE793  MET794  SER795  GLU796  ALA797  LYS798  CYS799  TRP800  GLU811  SER814 

> <Gold.Protein.RotatedAtoms>
  152.3191  133.5834  159.5732 H   0  0  0  0  0  0  0  0  0  0  0  0  # atno 6907 bound_to 6896
  150.7362  134.0038  159.3656 H   0  0  0  0  0  0  0  0  0  0  0  0  # atno 6908 bound_to 6896
  151.7924  135.0732  160.0440 H   0  0  0  0  0  0  0  0  0  0  0  0  # atno 6909 bound_to 6896
  146.2310  140.2301  142.8340 H   0  0  0  0  0  0  0  0  0  0  0  0  # atno 7974 bound_to 7965
  155.4246  140.0521  157.3023 H   0  0  0  0  0  0  0  0  0  0  0  0  # atno 8008 bound_to 7997
  154.4887  140.2111  155.9555 H   0  0  0  0  0  0  0  0  0  0  0  0  # atno 8009 bound_to 7997
  156.1311  140.3171  155.8356 H   0  0  0  0  0  0  0  0  0  0  0  0  # atno 8010 bound_to 7997
  139.5017  144.6163  151.6156 H   0  0  0  0  0  0  0  0  0  0  0  0  # atno 10167 bound_to 10162
  157.1962  130.6869  149.6169 H   0  0  0  0  0  0  0  0  0  0  0  0  # atno 10718 bound_to 10713
  153.2519  135.6914  153.7670 H   0  0  0  0  0  0  0  0  0  0  0  0  # atno 10763 bound_to 10752
  153.6761  135.3336  155.3167 H   0  0  0  0  0  0  0  0  0  0  0  0  # atno 10764 bound_to 10752
  154.8397  135.4511  154.1479 H   0  0  0  0  0  0  0  0  0  0  0  0  # atno 10765 bound_to 10752
  139.8771  134.9076  156.4541 H   0  0  0  0  0  0  0  0  0  0  0  0  # atno 11005 bound_to 11000
  144.9564  140.8231  143.5540 LP  0  0  0  0  0  0  0  0  0  0  0  0  # atno 17320 bound_to 7965
  145.2267  139.2134  143.5064 LP  0  0  0  0  0  0  0  0  0  0  0  0  # atno 17321 bound_to 7965
  140.5852  143.9876  150.6291 LP  0  0  0  0  0  0  0  0  0  0  0  0  # atno 17342 bound_to 10162
  140.3039  143.3242  152.0945 LP  0  0  0  0  0  0  0  0  0  0  0  0  # atno 17343 bound_to 10162
  155.9706  130.4598  150.6050 LP  0  0  0  0  0  0  0  0  0  0  0  0  # atno 17370 bound_to 10713
  157.3812  131.0781  151.1475 LP  0  0  0  0  0  0  0  0  0  0  0  0  # atno 17371 bound_to 10713
  140.8910  133.7848  155.9572 LP  0  0  0  0  0  0  0  0  0  0  0  0  # atno 17394 bound_to 11000
  140.8753  134.2677  157.5171 LP  0  0  0  0  0  0  0  0  0  0  0  0  # atno 17395 bound_to 11000

$$$$
