AV-unprocessed.smi:221|AV-procd|sdf|1689|dock9
  -GOLD-   2262020133D 1   1.00000     0.00000
 Structure written by MMmdl.
 50 53  0  0  0  0  0  0  0  0  1 V2000
  144.1055  134.7099  159.8872 N   0  0  0  0  0  0  0  0  0  0  0  0
  144.8459  135.7992  159.6554 C   0  0  0  0  0  0  0  0  0  0  0  0
  144.6479  136.5132  158.6750 O   0  0  0  0  0  0  0  0  0  0  0  0
  145.9743  136.1569  160.6432 C   0  0  1  0  0  0  0  0  0  0  0  0
  146.0587  135.1235  161.7787 C   0  0  0  0  0  0  0  0  0  0  0  0
  147.5053  135.2160  162.2512 C   0  0  2  0  0  0  0  0  0  0  0  0
  147.6363  136.2487  163.0854 F   0  0  0  0  0  0  0  0  0  0  0  0
  148.2769  135.5024  160.9635 C   0  0  0  0  0  0  0  0  0  0  0  0
  147.3272  136.1556  160.0685 N   0  0  0  0  0  0  0  0  0  0  0  0
  147.7756  137.1536  159.2589 C   0  0  0  0  0  0  0  0  0  0  0  0
  146.8874  137.8579  158.5083 N   0  0  0  0  0  0  0  0  0  0  0  0
  147.3048  138.8410  157.7061 C   0  0  0  0  0  0  0  0  0  0  0  0
  148.5480  139.2766  157.4996 N   0  0  0  0  0  0  0  0  0  0  0  0
  149.4491  138.5674  158.2370 C   0  0  0  0  0  0  0  0  0  0  0  0
  149.1525  137.5017  159.1343 C   0  0  0  0  0  0  0  0  0  0  0  0
  150.3306  137.0199  159.6950 N   0  0  0  0  0  0  0  0  0  0  0  0
  151.2651  137.7637  159.1697 C   0  0  0  0  0  0  0  0  0  0  0  0
  150.8249  138.7125  158.2762 N   0  0  0  0  0  0  0  0  0  0  0  0
  151.6462  139.6666  157.5522 C   0  0  0  0  0  0  0  0  0  0  0  0
  151.3404  141.1379  157.9472 C   0  0  2  0  0  0  0  0  0  0  0  0
  150.9650  141.9732  156.7041 C   0  0  0  0  0  0  0  0  0  0  0  0
  149.5671  141.9879  156.5020 O   0  0  0  0  0  0  0  0  0  0  0  0
  152.4707  141.8020  158.7806 C   0  0  2  0  0  0  0  0  0  0  0  0
  152.9200  141.0149  160.0148 C   0  0  0  0  0  0  0  0  0  0  0  0
  153.0186  142.0764  161.1061 C   0  0  0  0  0  0  0  0  0  0  0  0
  152.0117  143.0050  160.7431 O   0  0  0  0  0  0  0  0  0  0  0  0
  152.1091  143.1876  159.3390 C   0  0  0  0  0  0  0  0  0  0  0  0
  145.7675  137.1359  161.0790 H   0  0  0  0  0  0  0  0  0  0  0  0
  147.8515  134.3236  162.7736 H   0  0  0  0  0  0  0  0  0  0  0  0
  143.3678  134.4589  159.2451 H   0  0  0  0  0  0  0  0  0  0  0  0
  144.2917  134.1391  160.6989 H   0  0  0  0  0  0  0  0  0  0  0  0
  145.3432  135.3175  162.5787 H   0  0  0  0  0  0  0  0  0  0  0  0
  145.8691  134.1165  161.4023 H   0  0  0  0  0  0  0  0  0  0  0  0
  149.1644  136.1050  161.1641 H   0  0  0  0  0  0  0  0  0  0  0  0
  148.6001  134.5704  160.4986 H   0  0  0  0  0  0  0  0  0  0  0  0
  146.5323  139.3512  157.1500 H   0  0  0  0  0  0  0  0  0  0  0  0
  152.3097  137.6353  159.4142 H   0  0  0  0  0  0  0  0  0  0  0  0
  152.6922  139.4119  157.7197 H   0  0  0  0  0  0  0  0  0  0  0  0
  151.4770  139.5041  156.4872 H   0  0  0  0  0  0  0  0  0  0  0  0
  150.4548  141.1352  158.5854 H   0  0  0  0  0  0  0  0  0  0  0  0
  151.3294  142.9971  156.7910 H   0  0  0  0  0  0  0  0  0  0  0  0
  151.4224  141.5464  155.8107 H   0  0  0  0  0  0  0  0  0  0  0  0
  149.3025  142.8702  156.2900 H   0  0  0  0  0  0  0  0  0  0  0  0
  153.3357  141.9424  158.1307 H   0  0  0  0  0  0  0  0  0  0  0  0
  152.1837  140.2648  160.3026 H   0  0  0  0  0  0  0  0  0  0  0  0
  153.8664  140.4964  159.8587 H   0  0  0  0  0  0  0  0  0  0  0  0
  152.8529  141.6712  162.1045 H   0  0  0  0  0  0  0  0  0  0  0  0
  153.9935  142.5665  161.0890 H   0  0  0  0  0  0  0  0  0  0  0  0
  152.9081  143.9011  159.1319 H   0  0  0  0  0  0  0  0  0  0  0  0
  151.1891  143.5986  158.9244 H   0  0  0  0  0  0  0  0  0  0  0  0
  1  2  1  0  0  0  0
  1 30  1  0  0  0  0
  1 31  1  0  0  0  0
  2  3  2  0  0  0  0
  2  4  1  0  0  0  0
  4 28  1  0  0  0  0
  4  9  1  0  0  0  0
  4  5  1  0  0  0  0
  5  6  1  0  0  0  0
  5 32  1  0  0  0  0
  5 33  1  0  0  0  0
  6 29  1  0  0  0  0
  6  7  1  0  0  0  0
  6  8  1  0  0  0  0
  8  9  1  0  0  0  0
  8 34  1  0  0  0  0
  8 35  1  0  0  0  0
  9 10  1  0  0  0  0
 10 15  1  0  0  0  0
 10 11  2  0  0  0  0
 11 12  1  0  0  0  0
 12 13  2  0  0  0  0
 12 36  1  0  0  0  0
 13 14  1  0  0  0  0
 14 18  1  0  0  0  0
 14 15  2  0  0  0  0
 15 16  1  0  0  0  0
 16 17  2  0  0  0  0
 17 18  1  0  0  0  0
 17 37  1  0  0  0  0
 18 19  1  0  0  0  0
 19 20  1  0  0  0  0
 19 38  1  0  0  0  0
 19 39  1  0  0  0  0
 20 21  1  0  0  0  0
 20 23  1  0  0  0  0
 20 40  1  0  0  0  0
 21 22  1  0  0  0  0
 21 41  1  0  0  0  0
 21 42  1  0  0  0  0
 22 43  1  0  0  0  0
 23 27  1  0  0  0  0
 23 24  1  0  0  0  0
 23 44  1  0  0  0  0
 24 25  1  0  0  0  0
 24 45  1  0  0  0  0
 24 46  1  0  0  0  0
 25 26  1  0  0  0  0
 25 47  1  0  0  0  0
 25 48  1  0  0  0  0
 26 27  1  0  0  0  0
 27 49  1  0  0  0  0
 27 50  1  0  0  0  0
M  END
> <s_m_source_file>
AV-unprocessed.smi

> <i_m_source_file_index>
221

> <i_lp_mmshare_version>
43012

> <i_f3d_flags>
0

> <s_epik_input>
W05IMl1DKD1PKVtDQEBIXTFbQ0gyXVtDQEBIXShGKVtDSDJdTjFjKG5bY0hdbjIpYyhjMjMpbltjSF1uM1tDSDJdW0NASF0oW0NIMl1bT0hdKVtDQEBIXTRbQ0gyXVtDSDJdT1tDSDJdNA==

> <s_epik_cmdline>
J2VwaWtfcHl0aG9uJywgJy1waCcsICc3LjAnLCAnLXRuJywgJzgnLCAnLW1hJywgJzIwMCcsICctbWV0YWxfYmluZGluZycsICctaW1hZScsICc8aW5maWxlLm1hZT4nLCAnLW9tYWUnLCAnPG91dGZpbGUubWFlPic=

> <r_lp_tautomer_probability>
1

> <r_epik_Ionization_Penalty>
0.000818822

> <r_epik_Ionization_Penalty_Charging>
0

> <r_epik_Ionization_Penalty_Neutral>
0.000818822

> <r_epik_State_Penalty>
0.000440551

> <r_epik_Charging_Adjusted_Penalty>
0.000440551

> <i_epik_Tot_Q>
0

> <i_epik_Tot_abs_Q>
0

> <r_epik_Metal_State_Penalty>
-0

> <b_epik_Metal_Only>
0

> <s_lp_Force_Field>
OPLS_2005

> <r_lp_Energy>
52.2348

> <b_lp_Chiralities_Consistent>
1

> <s_lp_Variant>
AV-unprocessed.smi:221-4

> <Gold.Version>
5.8.1

> <Gold.Id.Protein>
6NUR|6NUR_protein|mol2

> <Gold.PLP.Fitness>
45.4433

> <Gold.PLP.PLP>
-42.3215

> <Gold.PLP.part.hbond>
-2.0058

> <Gold.PLP.part.metal>
0.0000

> <Gold.PLP.part.buried>
-7.4916

> <Gold.PLP.part.nonpolar>
-33.2669

> <Gold.PLP.part.repulsive>
0.0618

> <Gold.PLP.ligand.clash>
0.0000

> <Gold.PLP.ligand.torsion>
1.4308

> <Gold.PLP.Chemscore.Hbond>
1.8613

> <Gold.PLP.Chemscore.CHOScore>
0.0000

> <Gold.PLP.Chemscore.Metal>
0.0000

> <Gold.Chemscore.Hbonds>
donor molecule, donor type, donor heavy atom, donor atom, acceptor molecule, acceptor atom, score
      L1  H    22    43       P1  8028  1.00
      P1  H  6896  6909       L1    16  0.83

> <Gold.PLP.Chemscore.Internal.Correction>
0.3997

> <Gold.Rescore>
     Score         DG    S(hbond)    S(metal)    S(lipo)     H(rot)  DE(clash)    DE(int)     intcor
     10.64     -14.90       2.45        0.00      82.95       3.31       0.01       4.26       ----

> <Gold.Chemscore.Fitness>
10.6368

> <Gold.Chemscore.DG>
-14.9027

> <Gold.Chemscore.ZeroCoef>
-5.4800

> <Gold.Chemscore.Hbond>
2.4515

> <Gold.Chemscore.Metal>
0.0000

> <Gold.Chemscore.Lipo>
82.9539

> <Gold.Chemscore.Internal_Hbond>
0.0000

> <Gold.Chemscore.DEClash>
0.0064

> <Gold.Chemscore.DEInternal>
4.2595

> <Gold.Chemscore.Rot>
3.3089

> <Gold.Chemscore.Internal.Correction>
   9.000000E+99

> <Gold.Chemscore.Hbonds>
donor molecule, donor type, donor heavy atom, donor atom, acceptor molecule, acceptor atom, score
      L1  H    22    43       P1  8028  0.96
      P1  H  6896  6909       L1    16  0.45

> <Gold.Chemscore.Hbond.Weighted>
-8.1880

> <Gold.Chemscore.Metal.Weighted>
-0.0000

> <Gold.Chemscore.Lipo.Weighted>
-9.7056

> <Gold.Chemscore.Internal_Hbond.Weighted>
0.0000

> <Gold.Chemscore.DEClash.Weighted>
0.0064

> <Gold.Chemscore.DEInternal.Weighted>
4.2595

> <Gold.Chemscore.Rot.Weighted>
8.4709

> <Gold.Chemscore.Internal.Correction.Weighted>
   9.000000E+99

> <Gold.Protein.RotatedTorsions>
[ 6907 6896 6895 6894 ] final   94.65 input  -60.11 | X-H torsion
[ 7974 7965 7964 7962 ] final  -56.39 input  175.53 | X-H torsion
[ 8008 7997 7996 7995 ] final  -10.16 input   59.86 | X-H torsion
[ 10167 10162 10161 10158 ] final  103.81 input  -65.29 | X-H torsion
[ 10718 10713 10712 10709 ] final  116.33 input   66.30 | X-H torsion
[ 10763 10752 10751 10750 ] final    4.33 input  -60.55 | X-H torsion
[ 11005 11000 10999 10996 ] final   96.84 input  -57.11 | X-H torsion

> <Gold.Protein.ActiveResidues>
 VAL166  LYS551  ARG553  GLY616  TRP617  ASP618  TYR619  PRO620  LYS621  CYS622 
 ASP623  PHE694  ASN695  SER759  ASP760  ASP761  ALA762  ILE779  LEU786  VAL792 
 PHE793  MET794  SER795  GLU796  ALA797  LYS798  CYS799  TRP800  GLU811  SER814 

> <Gold.Protein.RotatedAtoms>
  152.5448  134.1161  159.8378 H   0  0  0  0  0  0  0  0  0  0  0  0  # atno 6907 bound_to 6896
  151.1222  133.5088  159.2609 H   0  0  0  0  0  0  0  0  0  0  0  0  # atno 6908 bound_to 6896
  151.1766  135.0352  159.8829 H   0  0  0  0  0  0  0  0  0  0  0  0  # atno 6909 bound_to 6896
  145.8632  140.8270  142.9926 H   0  0  0  0  0  0  0  0  0  0  0  0  # atno 7974 bound_to 7965
  154.5579  140.2336  155.8380 H   0  0  0  0  0  0  0  0  0  0  0  0  # atno 8008 bound_to 7997
  156.2004  140.3054  155.9475 H   0  0  0  0  0  0  0  0  0  0  0  0  # atno 8009 bound_to 7997
  155.2944  140.0428  157.3016 H   0  0  0  0  0  0  0  0  0  0  0  0  # atno 8010 bound_to 7997
  139.7231  144.7053  151.0841 H   0  0  0  0  0  0  0  0  0  0  0  0  # atno 10167 bound_to 10162
  157.6167  131.1024  150.7457 H   0  0  0  0  0  0  0  0  0  0  0  0  # atno 10718 bound_to 10713
  153.2725  135.6933  153.7466 H   0  0  0  0  0  0  0  0  0  0  0  0  # atno 10763 bound_to 10752
  153.6484  135.3381  155.3093 H   0  0  0  0  0  0  0  0  0  0  0  0  # atno 10764 bound_to 10752
  154.8468  135.4448  154.1752 H   0  0  0  0  0  0  0  0  0  0  0  0  # atno 10765 bound_to 10752
  139.8779  134.8971  156.4219 H   0  0  0  0  0  0  0  0  0  0  0  0  # atno 11005 bound_to 11000
  144.6726  140.1126  143.7454 LP  0  0  0  0  0  0  0  0  0  0  0  0  # atno 17320 bound_to 7965
  145.9224  139.2554  143.1373 LP  0  0  0  0  0  0  0  0  0  0  0  0  # atno 17321 bound_to 7965
  140.7757  143.5140  150.9617 LP  0  0  0  0  0  0  0  0  0  0  0  0  # atno 17342 bound_to 10162
  139.8827  143.7051  152.3155 LP  0  0  0  0  0  0  0  0  0  0  0  0  # atno 17343 bound_to 10162
  156.7823  130.4863  149.5399 LP  0  0  0  0  0  0  0  0  0  0  0  0  # atno 17370 bound_to 10713
  156.1293  130.6166  151.0309 LP  0  0  0  0  0  0  0  0  0  0  0  0  # atno 17371 bound_to 10713
  140.9128  133.7700  155.9812 LP  0  0  0  0  0  0  0  0  0  0  0  0  # atno 17394 bound_to 11000
  140.8527  134.2934  157.5268 LP  0  0  0  0  0  0  0  0  0  0  0  0  # atno 17395 bound_to 11000

$$$$
