AV-unprocessed.smi:148|AV-procd|sdf|1205|dock2
  -GOLD-   2262018373D 1   1.00000     0.00000
 Structure written by MMmdl.
 63 67  0  0  0  0  0  0  0  0  1 V2000
  150.4891  132.4710  157.4685 O   0  0  0  0  0  0  0  0  0  0  0  0
  149.7705  132.4996  156.2530 C   0  0  0  0  0  0  0  0  0  0  0  0
  149.4814  133.9570  155.8226 C   0  0  1  0  0  0  0  0  0  0  0  0
  150.8056  134.7497  155.6800 C   0  0  0  0  0  0  0  0  0  0  0  0
  150.7883  136.0350  156.3560 N   0  0  0  0  0  0  0  0  0  0  0  0
  150.1086  136.3516  157.5113 C   0  0  0  0  0  0  0  0  0  0  0  0
  150.2581  137.5802  157.9255 N   0  0  0  0  0  0  0  0  0  0  0  0
  151.0956  138.1544  156.9779 C   0  0  0  0  0  0  0  0  0  0  0  0
  151.6535  139.4490  156.8103 C   0  0  0  0  0  0  0  0  0  0  0  0
  151.4221  140.4467  157.6968 N   0  0  0  0  0  0  0  0  0  0  0  0
  152.6717  140.7518  158.3970 C   0  0  0  0  0  0  0  0  0  0  0  0
  152.4502  141.7218  159.5637 C   0  0  0  0  0  0  0  0  0  0  0  0
  151.7492  142.9901  159.0704 C   0  0  0  0  0  0  0  0  0  0  0  0
  150.4302  142.6114  158.3875 C   0  0  0  0  0  0  0  0  0  0  0  0
  150.6479  141.6110  157.2209 C   0  0  2  0  0  0  0  0  0  0  0  0
  149.3136  141.2178  156.5041 C   0  0  2  0  0  0  0  0  0  0  0  0
  148.6606  139.9264  157.0261 C   0  0  0  0  0  0  0  0  0  0  0  0
  147.7851  139.3919  155.8806 C   0  0  0  0  0  0  0  0  0  0  0  0
  148.0289  140.3145  154.6806 C   0  0  0  0  0  0  0  0  0  0  0  0
  149.3579  141.0087  154.9810 C   0  0  1  0  0  0  0  0  0  0  0  0
  149.4714  142.2187  154.2619 O   0  0  0  0  0  0  0  0  0  0  0  0
  152.4689  139.6553  155.7413 N   0  0  0  0  0  0  0  0  0  0  0  0
  152.7009  138.6627  154.8768 C   0  0  0  0  0  0  0  0  0  0  0  0
  152.2374  137.4109  154.8986 N   0  0  0  0  0  0  0  0  0  0  0  0
  151.4347  137.1989  155.9808 C   0  0  0  0  0  0  0  0  0  0  0  0
  148.5799  134.0636  154.5601 C   0  0  2  0  0  0  0  0  0  0  0  0
  147.1691  133.4883  154.6984 C   0  0  0  0  0  0  0  0  0  0  0  0
  146.9912  132.6278  153.4469 C   0  0  0  0  0  0  0  0  0  0  0  0
  147.9564  133.1298  152.5364 O   0  0  0  0  0  0  0  0  0  0  0  0
  149.1251  133.3958  153.2923 C   0  0  0  0  0  0  0  0  0  0  0  0
  151.1396  131.7873  157.4176 H   0  0  0  0  0  0  0  0  0  0  0  0
  150.3475  131.9708  155.4943 H   0  0  0  0  0  0  0  0  0  0  0  0
  148.8525  131.9335  156.4034 H   0  0  0  0  0  0  0  0  0  0  0  0
  148.9128  134.4205  156.6303 H   0  0  0  0  0  0  0  0  0  0  0  0
  151.6404  134.1756  156.0836 H   0  0  0  0  0  0  0  0  0  0  0  0
  151.0298  134.9185  154.6259 H   0  0  0  0  0  0  0  0  0  0  0  0
  149.5011  135.6362  158.0464 H   0  0  0  0  0  0  0  0  0  0  0  0
  153.1236  139.8339  158.7769 H   0  0  0  0  0  0  0  0  0  0  0  0
  153.3820  141.1849  157.6907 H   0  0  0  0  0  0  0  0  0  0  0  0
  151.8464  141.2393  160.3336 H   0  0  0  0  0  0  0  0  0  0  0  0
  153.4046  141.9739  160.0264 H   0  0  0  0  0  0  0  0  0  0  0  0
  151.5613  143.6645  159.9063 H   0  0  0  0  0  0  0  0  0  0  0  0
  152.3916  143.5259  158.3705 H   0  0  0  0  0  0  0  0  0  0  0  0
  149.7773  142.1762  159.1433 H   0  0  0  0  0  0  0  0  0  0  0  0
  149.9400  143.5197  158.0413 H   0  0  0  0  0  0  0  0  0  0  0  0
  151.2730  142.1143  156.4816 H   0  0  0  0  0  0  0  0  0  0  0  0
  148.5650  141.9881  156.6903 H   0  0  0  0  0  0  0  0  0  0  0  0
  149.4032  139.1729  157.2841 H   0  0  0  0  0  0  0  0  0  0  0  0
  148.0763  140.1161  157.9272 H   0  0  0  0  0  0  0  0  0  0  0  0
  148.0751  138.3687  155.6384 H   0  0  0  0  0  0  0  0  0  0  0  0
  146.7292  139.3753  156.1533 H   0  0  0  0  0  0  0  0  0  0  0  0
  148.0417  139.7757  153.7327 H   0  0  0  0  0  0  0  0  0  0  0  0
  147.2256  141.0515  154.6292 H   0  0  0  0  0  0  0  0  0  0  0  0
  150.1690  140.3412  154.6928 H   0  0  0  0  0  0  0  0  0  0  0  0
  149.3749  142.9386  154.8664 H   0  0  0  0  0  0  0  0  0  0  0  0
  153.3540  138.9046  154.0512 H   0  0  0  0  0  0  0  0  0  0  0  0
  148.4333  135.1178  154.3230 H   0  0  0  0  0  0  0  0  0  0  0  0
  147.0107  132.9080  155.6067 H   0  0  0  0  0  0  0  0  0  0  0  0
  146.4396  134.2994  154.7080 H   0  0  0  0  0  0  0  0  0  0  0  0
  147.2124  131.5818  153.6650 H   0  0  0  0  0  0  0  0  0  0  0  0
  145.9830  132.6851  153.0360 H   0  0  0  0  0  0  0  0  0  0  0  0
  149.8176  134.0366  152.7460 H   0  0  0  0  0  0  0  0  0  0  0  0
  149.6287  132.4524  153.5029 H   0  0  0  0  0  0  0  0  0  0  0  0
  1  2  1  0  0  0  0
  1 31  1  0  0  0  0
  2  3  1  0  0  0  0
  2 32  1  0  0  0  0
  2 33  1  0  0  0  0
  3  4  1  0  0  0  0
  3 26  1  0  0  0  0
  3 34  1  0  0  0  0
  4  5  1  0  0  0  0
  4 35  1  0  0  0  0
  4 36  1  0  0  0  0
  5 25  1  0  0  0  0
  5  6  1  0  0  0  0
  6  7  2  0  0  0  0
  6 37  1  0  0  0  0
  7  8  1  0  0  0  0
  8 25  2  0  0  0  0
  8  9  1  0  0  0  0
  9 10  1  0  0  0  0
  9 22  2  0  0  0  0
 10 15  1  0  0  0  0
 10 11  1  0  0  0  0
 11 12  1  0  0  0  0
 11 38  1  0  0  0  0
 11 39  1  0  0  0  0
 12 13  1  0  0  0  0
 12 40  1  0  0  0  0
 12 41  1  0  0  0  0
 13 14  1  0  0  0  0
 13 42  1  0  0  0  0
 13 43  1  0  0  0  0
 14 15  1  0  0  0  0
 14 44  1  0  0  0  0
 14 45  1  0  0  0  0
 15 16  1  0  0  0  0
 15 46  1  0  0  0  0
 16 20  1  0  0  0  0
 16 17  1  0  0  0  0
 16 47  1  0  0  0  0
 17 18  1  0  0  0  0
 17 48  1  0  0  0  0
 17 49  1  0  0  0  0
 18 19  1  0  0  0  0
 18 50  1  0  0  0  0
 18 51  1  0  0  0  0
 19 20  1  0  0  0  0
 19 52  1  0  0  0  0
 19 53  1  0  0  0  0
 20 21  1  0  0  0  0
 20 54  1  0  0  0  0
 21 55  1  0  0  0  0
 22 23  1  0  0  0  0
 23 24  2  0  0  0  0
 23 56  1  0  0  0  0
 24 25  1  0  0  0  0
 26 30  1  0  0  0  0
 26 27  1  0  0  0  0
 26 57  1  0  0  0  0
 27 28  1  0  0  0  0
 27 58  1  0  0  0  0
 27 59  1  0  0  0  0
 28 29  1  0  0  0  0
 28 60  1  0  0  0  0
 28 61  1  0  0  0  0
 29 30  1  0  0  0  0
 30 62  1  0  0  0  0
 30 63  1  0  0  0  0
M  END
> <s_m_source_file>
AV-unprocessed.smi

> <i_m_source_file_index>
148

> <i_lp_mmshare_version>
43012

> <i_f3d_flags>
0

> <s_epik_input>
W0NIMl0xT1tDSDJdW0NIMl1bQ0BIXTFbQ0BIXShbQ0gyXVtPSF0pW0NIMl1uKFtjSF1uMiljKGMyMyluW2NIXW5jM040W0NIMl1bQ0gyXVtDSDJdW0NIMl1bQ0BIXTRbQ0BASF01W0NIMl1bQ0gyXVtDSDJdW0NASF01W09IXQ==

> <s_epik_cmdline>
J2VwaWtfcHl0aG9uJywgJy1waCcsICc3LjAnLCAnLXRuJywgJzgnLCAnLW1hJywgJzIwMCcsICctbWV0YWxfYmluZGluZycsICctaW1hZScsICc8aW5maWxlLm1hZT4nLCAnLW9tYWUnLCAnPG91dGZpbGUubWFlPic=

> <r_lp_tautomer_probability>
1

> <r_epik_Ionization_Penalty>
0.00556303

> <r_epik_Ionization_Penalty_Charging>
0

> <r_epik_Ionization_Penalty_Neutral>
0.00556303

> <r_epik_State_Penalty>
0.00401767

> <r_epik_Charging_Adjusted_Penalty>
0.00401767

> <i_epik_Tot_Q>
0

> <i_epik_Tot_abs_Q>
0

> <r_epik_Metal_State_Penalty>
-0

> <b_epik_Metal_Only>
0

> <s_lp_Force_Field>
OPLS_2005

> <r_lp_Energy>
67.6364

> <b_lp_Chiralities_Consistent>
1

> <s_lp_Variant>
AV-unprocessed.smi:148-4

> <Gold.Version>
5.8.1

> <Gold.Id.Protein>
6NUR|6NUR_protein|mol2

> <Gold.PLP.Fitness>
47.6164

> <Gold.PLP.PLP>
-38.8829

> <Gold.PLP.part.hbond>
-5.5801

> <Gold.PLP.part.metal>
0.0000

> <Gold.PLP.part.buried>
-5.7882

> <Gold.PLP.part.nonpolar>
-28.1627

> <Gold.PLP.part.repulsive>
0.2768

> <Gold.PLP.ligand.clash>
0.0000

> <Gold.PLP.ligand.torsion>
1.9936

> <Gold.PLP.Chemscore.Hbond>
4.0088

> <Gold.PLP.Chemscore.CHOScore>
0.0000

> <Gold.PLP.Chemscore.Metal>
0.0000

> <Gold.Chemscore.Hbonds>
donor molecule, donor type, donor heavy atom, donor atom, acceptor molecule, acceptor atom, score
      L1  H    21    55       P1  8028  1.00
      P1  H  6896  6907       L1     1  0.84
      P1  H  7997  8009       L1    22  1.00
      P1  H  8011  8017       L1    21  0.24
      P1  H 10752 10764       L1    24  0.74

> <Gold.PLP.Chemscore.Internal.Correction>
0.6942

> <Gold.Rescore>
     Score         DG    S(hbond)    S(metal)    S(lipo)     H(rot)  DE(clash)    DE(int)     intcor
     13.85     -15.76       2.46        0.00      90.34       3.32       0.08       1.84       ----

> <Gold.Chemscore.Fitness>
13.8469

> <Gold.Chemscore.DG>
-15.7631

> <Gold.Chemscore.ZeroCoef>
-5.4800

> <Gold.Chemscore.Hbond>
2.4591

> <Gold.Chemscore.Metal>
0.0000

> <Gold.Chemscore.Lipo>
90.3392

> <Gold.Chemscore.Internal_Hbond>
0.0000

> <Gold.Chemscore.DEClash>
0.0761

> <Gold.Chemscore.DEInternal>
1.8400

> <Gold.Chemscore.Rot>
3.3203

> <Gold.Chemscore.Internal.Correction>
   9.000000E+99

> <Gold.Chemscore.Hbonds>
donor molecule, donor type, donor heavy atom, donor atom, acceptor molecule, acceptor atom, score
      L1  H    21    55       P1  8028  0.96
      P1  H  6896  6907       L1     1  0.21
      P1  H  7997  8009       L1    22  0.22
      P1  H  8011  8017       L1    21  0.24
      P1  H 10752 10764       L1    24  0.37

> <Gold.Chemscore.Hbond.Weighted>
-8.2134

> <Gold.Chemscore.Metal.Weighted>
-0.0000

> <Gold.Chemscore.Lipo.Weighted>
-10.5697

> <Gold.Chemscore.Internal_Hbond.Weighted>
0.0000

> <Gold.Chemscore.DEClash.Weighted>
0.0761

> <Gold.Chemscore.DEInternal.Weighted>
1.8400

> <Gold.Chemscore.Rot.Weighted>
8.5000

> <Gold.Chemscore.Internal.Correction.Weighted>
   9.000000E+99

> <Gold.Protein.RotatedTorsions>
[ 6907 6896 6895 6894 ] final -147.39 input  -60.11 | X-H torsion
[ 7974 7965 7964 7962 ] final   71.92 input  175.53 | X-H torsion
[ 8008 7997 7996 7995 ] final -155.11 input   59.86 | X-H torsion
[ 10167 10162 10161 10158 ] final -153.73 input  -65.29 | X-H torsion
[ 10718 10713 10712 10709 ] final  -37.03 input   66.30 | X-H torsion
[ 10763 10752 10751 10750 ] final  -69.34 input  -60.55 | X-H torsion
[ 11005 11000 10999 10996 ] final  -87.35 input  -57.11 | X-H torsion

> <Gold.Protein.ActiveResidues>
 VAL166  LYS551  ARG553  GLY616  TRP617  ASP618  TYR619  PRO620  LYS621  CYS622 
 ASP623  PHE694  ASN695  SER759  ASP760  ASP761  ALA762  ILE779  LEU786  VAL792 
 PHE793  MET794  SER795  GLU796  ALA797  LYS798  CYS799  TRP800  GLU811  SER814 

> <Gold.Protein.RotatedAtoms>
  151.1550  133.4882  159.2594 H   0  0  0  0  0  0  0  0  0  0  0  0  # atno 6907 bound_to 6896
  151.1514  135.0228  159.8680 H   0  0  0  0  0  0  0  0  0  0  0  0  # atno 6908 bound_to 6896
  152.5463  134.1434  159.8541 H   0  0  0  0  0  0  0  0  0  0  0  0  # atno 6909 bound_to 6896
  145.7598  139.2795  143.1383 H   0  0  0  0  0  0  0  0  0  0  0  0  # atno 7974 bound_to 7965
  155.6968  140.0762  157.2426 H   0  0  0  0  0  0  0  0  0  0  0  0  # atno 8008 bound_to 7997
  154.4079  140.1654  156.2200 H   0  0  0  0  0  0  0  0  0  0  0  0  # atno 8009 bound_to 7997
  155.9403  140.3385  155.6324 H   0  0  0  0  0  0  0  0  0  0  0  0  # atno 8010 bound_to 7997
  139.7072  143.9167  152.2453 H   0  0  0  0  0  0  0  0  0  0  0  0  # atno 10167 bound_to 10162
  156.3200  130.4264  149.7969 H   0  0  0  0  0  0  0  0  0  0  0  0  # atno 10718 bound_to 10713
  154.4021  135.6028  153.5903 H   0  0  0  0  0  0  0  0  0  0  0  0  # atno 10763 bound_to 10752
  152.9788  135.5909  154.4172 H   0  0  0  0  0  0  0  0  0  0  0  0  # atno 10764 bound_to 10752
  154.3972  135.2842  155.2097 H   0  0  0  0  0  0  0  0  0  0  0  0  # atno 10765 bound_to 10752
  141.1618  133.7506  156.9294 H   0  0  0  0  0  0  0  0  0  0  0  0  # atno 11005 bound_to 11000
  146.0275  140.8289  142.9892 LP  0  0  0  0  0  0  0  0  0  0  0  0  # atno 17320 bound_to 7965
  144.6833  140.2720  143.7304 LP  0  0  0  0  0  0  0  0  0  0  0  0  # atno 17321 bound_to 7965
  139.9026  144.6903  150.8649 LP  0  0  0  0  0  0  0  0  0  0  0  0  # atno 17342 bound_to 10162
  140.7724  143.3503  151.2028 LP  0  0  0  0  0  0  0  0  0  0  0  0  # atno 17343 bound_to 10162
  156.5281  130.8245  151.3227 LP  0  0  0  0  0  0  0  0  0  0  0  0  # atno 17370 bound_to 10713
  157.7410  130.9860  150.2413 LP  0  0  0  0  0  0  0  0  0  0  0  0  # atno 17371 bound_to 10713
  140.1397  134.9302  157.2449 LP  0  0  0  0  0  0  0  0  0  0  0  0  # atno 17394 bound_to 11000
  140.2852  134.3304  155.7331 LP  0  0  0  0  0  0  0  0  0  0  0  0  # atno 17395 bound_to 11000

$$$$
