AV-unprocessed.smi:3334|AV-procd|sdf|12835|dock5
  -GOLD-   2272019213D 1   1.00000     0.00000
 Structure written by MMmdl.
 41 42  0  0  0  0  0  0  0  0  1 V2000
  142.1492  146.2397  154.9324 C   0  0  0  0  0  0  0  0  0  0  0  0
  142.8481  145.2778  155.9036 C   0  0  0  0  0  0  0  0  0  0  0  0
  143.3815  145.9743  157.1638 C   0  0  0  0  0  0  0  0  0  0  0  0
  143.9001  144.4612  155.2217 C   0  0  0  0  0  0  0  0  0  0  0  0
  144.6075  143.5061  155.8321 N   0  0  0  0  0  0  0  0  0  0  0  0
  145.5481  142.9042  154.9897 C   0  0  0  0  0  0  0  0  0  0  0  0
  146.4448  141.8173  155.5115 C   0  0  0  0  0  0  0  0  0  0  0  0
  147.6569  141.5342  154.6067 C   0  0  0  0  0  0  0  0  0  0  0  0
  148.8793  142.1106  155.1530 N   0  0  0  0  0  0  0  0  0  0  0  0
  149.8976  141.4093  155.6686 C   0  0  0  0  0  0  0  0  0  0  0  0
  149.8921  140.1825  155.7687 O   0  0  0  0  0  0  0  0  0  0  0  0
  151.1076  142.2211  156.1416 C   0  0  0  0  0  0  0  0  0  0  0  0
  150.8876  142.8941  157.5117 C   0  0  2  0  0  0  0  0  0  0  0  0
  151.4848  144.2763  157.5698 C   0  0  0  0  0  0  0  0  0  0  0  0
  152.2655  144.4561  158.6329 C   0  0  0  0  0  0  0  0  0  0  0  0
  152.3470  143.2306  159.4997 C   0  0  0  0  0  0  0  0  0  0  0  0
  151.5634  142.1637  158.7032 C   0  0  0  0  0  0  0  0  0  0  0  0
  145.5363  143.4171  153.7167 C   0  0  0  0  0  0  0  0  0  0  0  0
  144.3477  144.6775  153.5333 S   0  0  0  0  0  0  0  0  0  0  0  0
  141.6983  145.6934  154.1035 H   0  0  0  0  0  0  0  0  0  0  0  0
  142.8495  146.9634  154.5140 H   0  0  0  0  0  0  0  0  0  0  0  0
  141.3550  146.7956  155.4315 H   0  0  0  0  0  0  0  0  0  0  0  0
  142.0859  144.5749  156.2421 H   0  0  0  0  0  0  0  0  0  0  0  0
  143.7990  145.2512  157.8649 H   0  0  0  0  0  0  0  0  0  0  0  0
  142.5873  146.5143  157.6797 H   0  0  0  0  0  0  0  0  0  0  0  0
  144.1651  146.6919  156.9182 H   0  0  0  0  0  0  0  0  0  0  0  0
  146.7963  142.0761  156.5111 H   0  0  0  0  0  0  0  0  0  0  0  0
  145.8744  140.8960  155.6329 H   0  0  0  0  0  0  0  0  0  0  0  0
  147.7937  140.4582  154.4930 H   0  0  0  0  0  0  0  0  0  0  0  0
  147.4697  141.9390  153.6107 H   0  0  0  0  0  0  0  0  0  0  0  0
  148.9711  143.1153  155.1029 H   0  0  0  0  0  0  0  0  0  0  0  0
  151.9895  141.5791  156.1832 H   0  0  0  0  0  0  0  0  0  0  0  0
  151.3155  142.9805  155.3873 H   0  0  0  0  0  0  0  0  0  0  0  0
  149.8192  143.0029  157.7045 H   0  0  0  0  0  0  0  0  0  0  0  0
  151.2707  145.0266  156.8230 H   0  0  0  0  0  0  0  0  0  0  0  0
  152.7808  145.3727  158.8800 H   0  0  0  0  0  0  0  0  0  0  0  0
  153.3845  142.9389  159.6639 H   0  0  0  0  0  0  0  0  0  0  0  0
  151.8836  143.4324  160.4659 H   0  0  0  0  0  0  0  0  0  0  0  0
  150.8285  141.6552  159.3283 H   0  0  0  0  0  0  0  0  0  0  0  0
  152.2565  141.4017  158.3447 H   0  0  0  0  0  0  0  0  0  0  0  0
  146.1554  143.1331  152.8787 H   0  0  0  0  0  0  0  0  0  0  0  0
  1  2  1  0  0  0  0
  1 20  1  0  0  0  0
  1 21  1  0  0  0  0
  1 22  1  0  0  0  0
  2  3  1  0  0  0  0
  2  4  1  0  0  0  0
  2 23  1  0  0  0  0
  3 24  1  0  0  0  0
  3 25  1  0  0  0  0
  3 26  1  0  0  0  0
  4 19  1  0  0  0  0
  4  5  2  0  0  0  0
  5  6  1  0  0  0  0
  6  7  1  0  0  0  0
  6 18  2  0  0  0  0
  7  8  1  0  0  0  0
  7 27  1  0  0  0  0
  7 28  1  0  0  0  0
  8  9  1  0  0  0  0
  8 29  1  0  0  0  0
  8 30  1  0  0  0  0
  9 10  1  0  0  0  0
  9 31  1  0  0  0  0
 10 11  2  0  0  0  0
 10 12  1  0  0  0  0
 12 13  1  0  0  0  0
 12 32  1  0  0  0  0
 12 33  1  0  0  0  0
 13 17  1  0  0  0  0
 13 14  1  0  0  0  0
 13 34  1  0  0  0  0
 14 15  2  0  0  0  0
 14 35  1  0  0  0  0
 15 16  1  0  0  0  0
 15 36  1  0  0  0  0
 16 17  1  0  0  0  0
 16 37  1  0  0  0  0
 16 38  1  0  0  0  0
 17 39  1  0  0  0  0
 17 40  1  0  0  0  0
 18 19  1  0  0  0  0
 18 41  1  0  0  0  0
M  END
> <s_m_source_file>
AV-unprocessed.smi

> <i_m_source_file_index>
3334

> <i_lp_mmshare_version>
43012

> <i_f3d_flags>
0

> <s_epik_input>
W0NIM11bQ0hdKFtDSDNdKWMxbmMoW2NIXXMxKVtDSDJdW0NIMl1bTkhdQyg9TylbQ0gyXVtDQEBIXTJbQ0hdPVtDSF1bQ0gyXVtDSDJdMg==

> <s_epik_cmdline>
J2VwaWtfcHl0aG9uJywgJy1waCcsICc3LjAnLCAnLXRuJywgJzgnLCAnLW1hJywgJzIwMCcsICctbWV0YWxfYmluZGluZycsICctaW1hZScsICc8aW5maWxlLm1hZT4nLCAnLW9tYWUnLCAnPG91dGZpbGUubWFlPic=

> <r_epik_Ionization_Penalty>
0.000771592

> <r_epik_Ionization_Penalty_Charging>
0

> <r_epik_Ionization_Penalty_Neutral>
0.000771592

> <r_epik_State_Penalty>
0.000494253

> <r_epik_Charging_Adjusted_Penalty>
0.000494253

> <i_epik_Tot_Q>
0

> <i_epik_Tot_abs_Q>
0

> <r_epik_Metal_State_Penalty>
-0

> <b_epik_Metal_Only>
0

> <s_lp_Force_Field>
OPLS_2005

> <r_lp_Energy>
4.8696

> <b_lp_Chiralities_Consistent>
1

> <s_lp_Variant>
AV-unprocessed.smi:3334-1

> <Gold.Version>
5.8.1

> <Gold.Id.Protein>
6NUR|6NUR_protein|mol2

> <Gold.PLP.Fitness>
45.9598

> <Gold.PLP.PLP>
-45.6434

> <Gold.PLP.part.hbond>
-1.0000

> <Gold.PLP.part.metal>
0.0000

> <Gold.PLP.part.buried>
-7.6515

> <Gold.PLP.part.nonpolar>
-38.2696

> <Gold.PLP.part.repulsive>
0.3620

> <Gold.PLP.ligand.clash>
0.0000

> <Gold.PLP.ligand.torsion>
1.4123

> <Gold.PLP.Chemscore.Hbond>
1.0000

> <Gold.PLP.Chemscore.CHOScore>
0.0000

> <Gold.PLP.Chemscore.Metal>
0.0000

> <Gold.Chemscore.Hbonds>
donor molecule, donor type, donor heavy atom, donor atom, acceptor molecule, acceptor atom, score
      L1  H     9    31       P1  8028  1.00

> <Gold.PLP.Chemscore.Internal.Correction>
0.1410

> <Gold.Rescore>
     Score         DG    S(hbond)    S(metal)    S(lipo)     H(rot)  DE(clash)    DE(int)     intcor
     17.85     -19.26       0.97        0.00     123.25       1.52       0.05       1.36       ----

> <Gold.Chemscore.Fitness>
17.8515

> <Gold.Chemscore.DG>
-19.2553

> <Gold.Chemscore.ZeroCoef>
-5.4800

> <Gold.Chemscore.Hbond>
0.9690

> <Gold.Chemscore.Metal>
0.0000

> <Gold.Chemscore.Lipo>
123.2515

> <Gold.Chemscore.Internal_Hbond>
0.0000

> <Gold.Chemscore.DEClash>
0.0472

> <Gold.Chemscore.DEInternal>
1.3566

> <Gold.Chemscore.Rot>
1.5162

> <Gold.Chemscore.Internal.Correction>
   9.000000E+99

> <Gold.Chemscore.Hbonds>
donor molecule, donor type, donor heavy atom, donor atom, acceptor molecule, acceptor atom, score
      L1  H     9    31       P1  8028  0.99

> <Gold.Chemscore.Hbond.Weighted>
-3.2364

> <Gold.Chemscore.Metal.Weighted>
-0.0000

> <Gold.Chemscore.Lipo.Weighted>
-14.4204

> <Gold.Chemscore.Internal_Hbond.Weighted>
0.0000

> <Gold.Chemscore.DEClash.Weighted>
0.0472

> <Gold.Chemscore.DEInternal.Weighted>
1.3566

> <Gold.Chemscore.Rot.Weighted>
3.8815

> <Gold.Chemscore.Internal.Correction.Weighted>
   9.000000E+99

> <Gold.Protein.RotatedTorsions>
[ 6907 6896 6895 6894 ] final  -86.07 input  -60.11 | X-H torsion
[ 7974 7965 7964 7962 ] final  -94.07 input  175.53 | X-H torsion
[ 8008 7997 7996 7995 ] final   18.04 input   59.86 | X-H torsion
[ 10167 10162 10161 10158 ] final    5.83 input  -65.29 | X-H torsion
[ 10718 10713 10712 10709 ] final  138.32 input   66.30 | X-H torsion
[ 10763 10752 10751 10750 ] final   59.67 input  -60.55 | X-H torsion
[ 11005 11000 10999 10996 ] final   39.96 input  -57.11 | X-H torsion

> <Gold.Protein.ActiveResidues>
 VAL166  LYS551  ARG553  GLY616  TRP617  ASP618  TYR619  PRO620  LYS621  CYS622 
 ASP623  PHE694  ASN695  SER759  ASP760  ASP761  ALA762  ILE779  LEU786  VAL792 
 PHE793  MET794  SER795  GLU796  ALA797  LYS798  CYS799  TRP800  GLU811  SER814 

> <Gold.Protein.RotatedAtoms>
  150.6868  134.3107  159.4744 H   0  0  0  0  0  0  0  0  0  0  0  0  # atno 6907 bound_to 6896
  152.0993  134.9350  160.0579 H   0  0  0  0  0  0  0  0  0  0  0  0  # atno 6908 bound_to 6896
  152.0635  133.4038  159.4465 H   0  0  0  0  0  0  0  0  0  0  0  0  # atno 6909 bound_to 6896
  145.3782  140.9514  143.2409 H   0  0  0  0  0  0  0  0  0  0  0  0  # atno 7974 bound_to 7965
  154.9001  140.2999  155.5322 H   0  0  0  0  0  0  0  0  0  0  0  0  # atno 8008 bound_to 7997
  156.3019  140.2408  156.3963 H   0  0  0  0  0  0  0  0  0  0  0  0  # atno 8009 bound_to 7997
  154.8530  140.0408  157.1605 H   0  0  0  0  0  0  0  0  0  0  0  0  # atno 8010 bound_to 7997
  140.6461  143.7659  150.7501 H   0  0  0  0  0  0  0  0  0  0  0  0  # atno 10167 bound_to 10162
  157.4266  131.1044  151.0296 H   0  0  0  0  0  0  0  0  0  0  0  0  # atno 10718 bound_to 10713
  152.9900  135.5563  154.5750 H   0  0  0  0  0  0  0  0  0  0  0  0  # atno 10763 bound_to 10752
  154.5143  135.2804  155.1319 H   0  0  0  0  0  0  0  0  0  0  0  0  # atno 10764 bound_to 10752
  154.2698  135.6365  153.5358 H   0  0  0  0  0  0  0  0  0  0  0  0  # atno 10765 bound_to 10752
  140.1977  134.3909  155.8113 H   0  0  0  0  0  0  0  0  0  0  0  0  # atno 11005 bound_to 11000
  144.8527  139.5297  143.6849 LP  0  0  0  0  0  0  0  0  0  0  0  0  # atno 17320 bound_to 7965
  146.2854  139.6990  142.9199 LP  0  0  0  0  0  0  0  0  0  0  0  0  # atno 17321 bound_to 7965
  140.1300  143.4534  152.2260 LP  0  0  0  0  0  0  0  0  0  0  0  0  # atno 17342 bound_to 10162
  139.5672  144.7442  151.3991 LP  0  0  0  0  0  0  0  0  0  0  0  0  # atno 17343 bound_to 10162
  157.1207  130.6060  149.5504 LP  0  0  0  0  0  0  0  0  0  0  0  0  # atno 17370 bound_to 10713
  155.9898  130.4947  150.7232 LP  0  0  0  0  0  0  0  0  0  0  0  0  # atno 17371 bound_to 10713
  141.2227  133.7078  156.8204 LP  0  0  0  0  0  0  0  0  0  0  0  0  # atno 17394 bound_to 11000
  140.2089  134.8842  157.3252 LP  0  0  0  0  0  0  0  0  0  0  0  0  # atno 17395 bound_to 11000

$$$$
