AV-unprocessed.smi:2430|AV-procd|sdf|9585|dock2
  -GOLD-   2272013213D 1   1.00000     0.00000
 Structure written by MMmdl.
 46 47  0  0  0  0  0  0  0  0  1 V2000
  153.3534  141.2494  160.8149 C   0  0  0  0  0  0  0  0  0  0  0  0
  152.9831  141.9457  159.5009 C   0  0  1  0  0  0  0  0  0  0  0  0
  152.0186  141.0948  158.6554 C   0  0  0  0  0  0  0  0  0  0  0  0
  151.5830  141.8380  157.4781 N   0  0  0  0  0  0  0  0  0  0  0  0
  150.9544  141.0662  156.4782 C   0  0  0  0  0  0  0  0  0  0  0  0
  151.5830  139.8985  155.9861 C   0  0  0  0  0  0  0  0  0  0  0  0
  150.9408  139.1374  154.9908 C   0  0  0  0  0  0  0  0  0  0  0  0
  149.6852  139.5683  154.5043 C   0  0  0  0  0  0  0  0  0  0  0  0
  148.9320  138.8747  153.5202 N   0  0  0  0  0  0  0  0  0  0  0  0
  147.7379  139.2085  153.0023 C   0  0  0  0  0  0  0  0  0  0  0  0
  147.0747  140.1946  153.3237 O   0  0  0  0  0  0  0  0  0  0  0  0
  147.3338  138.3080  152.0954 N   0  0  0  0  0  0  0  0  0  0  0  0
  146.0589  138.3467  151.3889 C   0  0  0  0  0  0  0  0  0  0  0  0
  145.1539  137.1775  151.8084 C   0  0  0  0  0  0  0  0  0  0  0  0
  145.2970  135.9630  150.8822 C   0  0  0  0  0  0  0  0  0  0  0  0
  144.9531  136.3267  149.5629 O   0  0  0  0  0  0  0  0  0  0  0  0
  149.1336  140.7378  155.0627 C   0  0  0  0  0  0  0  0  0  0  0  0
  149.7473  141.4720  156.0137 N   0  0  0  0  0  0  0  0  0  0  0  0
  151.0031  143.1391  157.8031 C   0  0  0  0  0  0  0  0  0  0  0  0
  151.9559  143.9648  158.6899 C   0  0  2  0  0  0  0  0  0  0  0  0
  153.1511  144.5583  157.9228 C   0  0  0  0  0  0  0  0  0  0  0  0
  152.3691  143.1939  159.8206 O   0  0  0  0  0  0  0  0  0  0  0  0
  153.8373  140.2905  160.6280 H   0  0  0  0  0  0  0  0  0  0  0  0
  152.4695  141.0645  161.4258 H   0  0  0  0  0  0  0  0  0  0  0  0
  154.0412  141.8605  161.3996 H   0  0  0  0  0  0  0  0  0  0  0  0
  153.9024  142.1202  158.9419 H   0  0  0  0  0  0  0  0  0  0  0  0
  152.5099  140.1617  158.3824 H   0  0  0  0  0  0  0  0  0  0  0  0
  151.1392  140.8281  159.2434 H   0  0  0  0  0  0  0  0  0  0  0  0
  152.5489  139.5854  156.3534 H   0  0  0  0  0  0  0  0  0  0  0  0
  151.4155  138.2372  154.6320 H   0  0  0  0  0  0  0  0  0  0  0  0
  149.3127  137.9865  153.2277 H   0  0  0  0  0  0  0  0  0  0  0  0
  147.9414  137.5269  151.8955 H   0  0  0  0  0  0  0  0  0  0  0  0
  145.5578  139.3009  151.5618 H   0  0  0  0  0  0  0  0  0  0  0  0
  146.2632  138.2936  150.3194 H   0  0  0  0  0  0  0  0  0  0  0  0
  145.3927  136.8843  152.8318 H   0  0  0  0  0  0  0  0  0  0  0  0
  144.1130  137.5041  151.8154 H   0  0  0  0  0  0  0  0  0  0  0  0
  146.3212  135.5891  150.8935 H   0  0  0  0  0  0  0  0  0  0  0  0
  144.6472  135.1500  151.2076 H   0  0  0  0  0  0  0  0  0  0  0  0
  145.4167  135.7614  148.9641 H   0  0  0  0  0  0  0  0  0  0  0  0
  148.1715  141.1021  154.7332 H   0  0  0  0  0  0  0  0  0  0  0  0
  150.7735  143.6939  156.8922 H   0  0  0  0  0  0  0  0  0  0  0  0
  150.0607  142.9799  158.3294 H   0  0  0  0  0  0  0  0  0  0  0  0
  151.3894  144.8070  159.0882 H   0  0  0  0  0  0  0  0  0  0  0  0
  152.8095  145.2454  157.1486 H   0  0  0  0  0  0  0  0  0  0  0  0
  153.7506  143.7920  157.4321 H   0  0  0  0  0  0  0  0  0  0  0  0
  153.8041  145.1173  158.5933 H   0  0  0  0  0  0  0  0  0  0  0  0
  1  2  1  0  0  0  0
  1 23  1  0  0  0  0
  1 24  1  0  0  0  0
  1 25  1  0  0  0  0
  2 22  1  0  0  0  0
  2  3  1  0  0  0  0
  2 26  1  0  0  0  0
  3  4  1  0  0  0  0
  3 27  1  0  0  0  0
  3 28  1  0  0  0  0
  4  5  1  0  0  0  0
  4 19  1  0  0  0  0
  5 18  1  0  0  0  0
  5  6  2  0  0  0  0
  6  7  1  0  0  0  0
  6 29  1  0  0  0  0
  7  8  2  0  0  0  0
  7 30  1  0  0  0  0
  8  9  1  0  0  0  0
  8 17  1  0  0  0  0
  9 10  1  0  0  0  0
  9 31  1  0  0  0  0
 10 11  2  0  0  0  0
 10 12  1  0  0  0  0
 12 13  1  0  0  0  0
 12 32  1  0  0  0  0
 13 14  1  0  0  0  0
 13 33  1  0  0  0  0
 13 34  1  0  0  0  0
 14 15  1  0  0  0  0
 14 35  1  0  0  0  0
 14 36  1  0  0  0  0
 15 16  1  0  0  0  0
 15 37  1  0  0  0  0
 15 38  1  0  0  0  0
 16 39  1  0  0  0  0
 17 18  2  0  0  0  0
 17 40  1  0  0  0  0
 19 20  1  0  0  0  0
 19 41  1  0  0  0  0
 19 42  1  0  0  0  0
 20 21  1  0  0  0  0
 20 22  1  0  0  0  0
 20 43  1  0  0  0  0
 21 44  1  0  0  0  0
 21 45  1  0  0  0  0
 21 46  1  0  0  0  0
M  END
> <s_m_source_file>
AV-unprocessed.smi

> <i_m_source_file_index>
2430

> <i_lp_mmshare_version>
43012

> <i_f3d_flags>
0

> <s_epik_input>
W0NIM11bQ0BASF0xW0NIMl1OKFtDSDJdW0NASF0oTzEpW0NIM10pYzJbY0hdW2NIXWMoW2NIXW4yKVtOSF1DKD1PKVtOSF1bQ0gyXVtDSDJdW0NIMl1bT0hd

> <s_epik_cmdline>
J2VwaWtfcHl0aG9uJywgJy1waCcsICc3LjAnLCAnLXRuJywgJzgnLCAnLW1hJywgJzIwMCcsICctbWV0YWxfYmluZGluZycsICctaW1hZScsICc8aW5maWxlLm1hZT4nLCAnLW9tYWUnLCAnPG91dGZpbGUubWFlPic=

> <r_lp_tautomer_probability>
1

> <r_epik_Ionization_Penalty>
0.00269907

> <r_epik_Ionization_Penalty_Charging>
0

> <r_epik_Ionization_Penalty_Neutral>
0.00269907

> <r_epik_State_Penalty>
0.00185337

> <r_epik_Charging_Adjusted_Penalty>
0.00185337

> <i_epik_Tot_Q>
0

> <i_epik_Tot_abs_Q>
0

> <r_epik_Metal_State_Penalty>
-0

> <b_epik_Metal_Only>
0

> <s_lp_Force_Field>
OPLS_2005

> <r_lp_Energy>
20.4491

> <b_lp_Chiralities_Consistent>
1

> <s_lp_Variant>
AV-unprocessed.smi:2430-3

> <Gold.Version>
5.8.1

> <Gold.Id.Protein>
6NUR|6NUR_protein|mol2

> <Gold.PLP.Fitness>
54.6156

> <Gold.PLP.PLP>
-47.8913

> <Gold.PLP.part.hbond>
-5.8008

> <Gold.PLP.part.metal>
0.0000

> <Gold.PLP.part.buried>
-0.1661

> <Gold.PLP.part.nonpolar>
-42.9447

> <Gold.PLP.part.repulsive>
0.4668

> <Gold.PLP.ligand.clash>
0.0306

> <Gold.PLP.ligand.torsion>
0.3989

> <Gold.PLP.Chemscore.Hbond>
2.4082

> <Gold.PLP.Chemscore.CHOScore>
0.0000

> <Gold.PLP.Chemscore.Metal>
0.0000

> <Gold.Chemscore.Hbonds>
donor molecule, donor type, donor heavy atom, donor atom, acceptor molecule, acceptor atom, score
      L1  H     9    31       P1  7948  0.46
      L1  H    12    32       P1  7948  1.00
      L1  H    16    39       P1  7921  1.00

> <Gold.PLP.Chemscore.Internal.Correction>
0.3283

> <Gold.Rescore>
     Score         DG    S(hbond)    S(metal)    S(lipo)     H(rot)  DE(clash)    DE(int)     intcor
     16.50     -20.01       2.43        0.00     105.88       2.33       1.60       1.91       ----

> <Gold.Chemscore.Fitness>
16.5018

> <Gold.Chemscore.DG>
-20.0082

> <Gold.Chemscore.ZeroCoef>
-5.4800

> <Gold.Chemscore.Hbond>
2.4304

> <Gold.Chemscore.Metal>
0.0000

> <Gold.Chemscore.Lipo>
105.8754

> <Gold.Chemscore.Internal_Hbond>
0.0000

> <Gold.Chemscore.DEClash>
1.5954

> <Gold.Chemscore.DEInternal>
1.9111

> <Gold.Chemscore.Rot>
2.3346

> <Gold.Chemscore.Internal.Correction>
   9.000000E+99

> <Gold.Chemscore.Hbonds>
donor molecule, donor type, donor heavy atom, donor atom, acceptor molecule, acceptor atom, score
      L1  H     9    31       P1  7948  0.44
      L1  H    12    32       P1  7948  0.99
      L1  H    16    39       P1  7921  1.00

> <Gold.Chemscore.Hbond.Weighted>
-8.1174

> <Gold.Chemscore.Metal.Weighted>
-0.0000

> <Gold.Chemscore.Lipo.Weighted>
-12.3874

> <Gold.Chemscore.Internal_Hbond.Weighted>
0.0000

> <Gold.Chemscore.DEClash.Weighted>
1.5954

> <Gold.Chemscore.DEInternal.Weighted>
1.9111

> <Gold.Chemscore.Rot.Weighted>
5.9766

> <Gold.Chemscore.Internal.Correction.Weighted>
   9.000000E+99

> <Gold.Protein.RotatedTorsions>
[ 6907 6896 6895 6894 ] final   18.19 input  -60.11 | X-H torsion
[ 7974 7965 7964 7962 ] final  109.05 input  175.53 | X-H torsion
[ 8008 7997 7996 7995 ] final -146.42 input   59.86 | X-H torsion
[ 10167 10162 10161 10158 ] final  -99.25 input  -65.29 | X-H torsion
[ 10718 10713 10712 10709 ] final  -85.20 input   66.30 | X-H torsion
[ 10763 10752 10751 10750 ] final  -14.99 input  -60.55 | X-H torsion
[ 11005 11000 10999 10996 ] final  115.07 input  -57.11 | X-H torsion

> <Gold.Protein.ActiveResidues>
 VAL166  LYS551  ARG553  GLY616  TRP617  ASP618  TYR619  PRO620  LYS621  CYS622 
 ASP623  PHE694  ASN695  SER759  ASP760  ASP761  ALA762  ILE779  LEU786  VAL792 
 PHE793  MET794  SER795  GLU796  ALA797  LYS798  CYS799  TRP800  GLU811  SER814 

> <Gold.Protein.RotatedAtoms>
  151.8615  135.0522  160.0469 H   0  0  0  0  0  0  0  0  0  0  0  0  # atno 6907 bound_to 6896
  152.2659  133.5334  159.5418 H   0  0  0  0  0  0  0  0  0  0  0  0  # atno 6908 bound_to 6896
  150.7133  134.0681  159.3897 H   0  0  0  0  0  0  0  0  0  0  0  0  # atno 6909 bound_to 6896
  145.2727  139.2661  143.3957 H   0  0  0  0  0  0  0  0  0  0  0  0  # atno 7974 bound_to 7965
  155.5591  140.0623  157.2833 H   0  0  0  0  0  0  0  0  0  0  0  0  # atno 8008 bound_to 7997
  154.4396  140.1889  156.0809 H   0  0  0  0  0  0  0  0  0  0  0  0  # atno 8009 bound_to 7997
  156.0460  140.3290  155.7301 H   0  0  0  0  0  0  0  0  0  0  0  0  # atno 8010 bound_to 7997
  140.2644  143.3386  152.0595 H   0  0  0  0  0  0  0  0  0  0  0  0  # atno 10167 bound_to 10162
  155.9999  130.4723  150.4526 H   0  0  0  0  0  0  0  0  0  0  0  0  # atno 10718 bound_to 10713
  153.5366  135.7014  153.5657 H   0  0  0  0  0  0  0  0  0  0  0  0  # atno 10763 bound_to 10752
  153.3641  135.3962  155.1740 H   0  0  0  0  0  0  0  0  0  0  0  0  # atno 10764 bound_to 10752
  154.8678  135.3796  154.4867 H   0  0  0  0  0  0  0  0  0  0  0  0  # atno 10765 bound_to 10752
  139.8999  134.9578  156.6989 H   0  0  0  0  0  0  0  0  0  0  0  0  # atno 11005 bound_to 11000
  146.3241  140.3174  142.8631 LP  0  0  0  0  0  0  0  0  0  0  0  0  # atno 17320 bound_to 7965
  144.9321  140.7986  143.5683 LP  0  0  0  0  0  0  0  0  0  0  0  0  # atno 17321 bound_to 7965
  139.5007  144.6697  151.6271 LP  0  0  0  0  0  0  0  0  0  0  0  0  # atno 17342 bound_to 10162
  140.5940  143.9729  150.6342 LP  0  0  0  0  0  0  0  0  0  0  0  0  # atno 17343 bound_to 10162
  157.2558  131.0556  151.2351 LP  0  0  0  0  0  0  0  0  0  0  0  0  # atno 17370 bound_to 10713
  157.3483  130.7069  149.6425 LP  0  0  0  0  0  0  0  0  0  0  0  0  # atno 17371 bound_to 10713
  140.7166  133.9177  155.8119 LP  0  0  0  0  0  0  0  0  0  0  0  0  # atno 17394 bound_to 11000
  141.0260  134.0823  157.4068 LP  0  0  0  0  0  0  0  0  0  0  0  0  # atno 17395 bound_to 11000

$$$$
