AV-unprocessed.smi:3071|AV-procd|sdf|11715|dock3
  -GOLD-   2272017113D 1   1.00000     0.00000
 Structure written by MMmdl.
 29 30  0  0  0  0  0  0  0  0  3 V2000
  146.2655  142.5657  153.7827 C   0  0  0  0  0  0  0  0  0  0  0  0
  146.8393  141.1853  153.7826 C   0  0  0  0  0  0  0  0  0  0  0  0
  146.1640  140.0637  153.5058 N   0  3  0  0  0  0  0  0  0  0  0  0
  146.9866  138.9749  153.6042 C   0  0  0  0  0  0  0  0  0  0  0  0
  148.2212  139.4535  153.9564 C   0  0  0  0  0  0  0  0  0  0  0  0
  148.1030  140.8171  154.0560 N   0  0  0  0  0  0  0  0  0  0  0  0
  149.1722  141.7615  154.4110 C   0  0  0  0  0  0  0  0  0  0  0  0
  149.8942  141.3860  155.7192 C   0  0  2  0  0  0  0  0  0  0  0  0
  148.9739  141.0031  156.8825 C   0  0  0  0  0  0  0  0  0  0  0  0
  149.8492  141.2611  158.1028 C   0  0  0  0  0  0  0  0  0  0  0  0
  150.6599  142.4965  157.7036 C   0  0  0  0  0  0  0  0  0  0  0  0
  150.7294  142.4932  156.2278 N   0  3  0  0  0  0  0  0  0  0  0  0
  145.2228  142.5171  153.4667 H   0  0  0  0  0  0  0  0  0  0  0  0
  146.8331  143.1852  153.0891 H   0  0  0  0  0  0  0  0  0  0  0  0
  146.3284  142.9715  154.7926 H   0  0  0  0  0  0  0  0  0  0  0  0
  146.6404  137.9678  153.4218 H   0  0  0  0  0  0  0  0  0  0  0  0
  149.1524  138.9357  154.1369 H   0  0  0  0  0  0  0  0  0  0  0  0
  149.8762  141.8182  153.5800 H   0  0  0  0  0  0  0  0  0  0  0  0
  148.7180  142.7496  154.5004 H   0  0  0  0  0  0  0  0  0  0  0  0
  150.5684  140.5488  155.5342 H   0  0  0  0  0  0  0  0  0  0  0  0
  148.1014  141.6577  156.9111 H   0  0  0  0  0  0  0  0  0  0  0  0
  148.6216  139.9726  156.8250 H   0  0  0  0  0  0  0  0  0  0  0  0
  149.2727  141.4096  159.0165 H   0  0  0  0  0  0  0  0  0  0  0  0
  150.5179  140.4137  158.2621 H   0  0  0  0  0  0  0  0  0  0  0  0
  150.1480  143.4056  158.0213 H   0  0  0  0  0  0  0  0  0  0  0  0
  151.6553  142.4980  158.1487 H   0  0  0  0  0  0  0  0  0  0  0  0
  151.6838  142.3782  155.9170 H   0  0  0  0  0  0  0  0  0  0  0  0
  150.3678  143.3739  155.8894 H   0  0  0  0  0  0  0  0  0  0  0  0
  145.1821  140.0282  153.2613 H   0  0  0  0  0  0  0  0  0  0  0  0
  1  2  1  0  0  0  0
  1 13  1  0  0  0  0
  1 14  1  0  0  0  0
  1 15  1  0  0  0  0
  2  6  1  0  0  0  0
  2  3  2  0  0  0  0
  3  4  1  0  0  0  0
  3 29  1  0  0  0  0
  4  5  2  0  0  0  0
  4 16  1  0  0  0  0
  5  6  1  0  0  0  0
  5 17  1  0  0  0  0
  6  7  1  0  0  0  0
  7  8  1  0  0  0  0
  7 18  1  0  0  0  0
  7 19  1  0  0  0  0
  8 12  1  0  0  0  0
  8  9  1  0  0  0  0
  8 20  1  0  0  0  0
  9 10  1  0  0  0  0
  9 21  1  0  0  0  0
  9 22  1  0  0  0  0
 10 11  1  0  0  0  0
 10 23  1  0  0  0  0
 10 24  1  0  0  0  0
 11 12  1  0  0  0  0
 11 25  1  0  0  0  0
 11 26  1  0  0  0  0
 12 27  1  0  0  0  0
 12 28  1  0  0  0  0
M  CHG  1   3   1
M  CHG  1  12   1
M  END
> <s_m_source_file>
AV-unprocessed.smi

> <i_m_source_file_index>
3071

> <i_lp_mmshare_version>
43012

> <i_f3d_flags>
0

> <s_epik_input>
W0NIM11jMW5bY0hdW2NIXW4xW0NIMl1bQ0BASF0yW0NIMl1bQ0gyXVtDSDJdW05IXTI=

> <s_epik_cmdline>
J2VwaWtfcHl0aG9uJywgJy1waCcsICc3LjAnLCAnLXRuJywgJzgnLCAnLW1hJywgJzIwMCcsICctbWV0YWxfYmluZGluZycsICctaW1hZScsICc8aW5maWxlLm1hZT4nLCAnLW9tYWUnLCAnPG91dGZpbGUubWFlPic=

> <r_lp_tautomer_probability>
1

> <r_epik_Ionization_Penalty>
0.770167

> <r_epik_Ionization_Penalty_Charging>
0.000985251

> <r_epik_Ionization_Penalty_Neutral>
0.769181

> <r_epik_State_Penalty>
0.493256

> <r_epik_Charging_Adjusted_Penalty>
0.494241

> <i_epik_Tot_Q>
2

> <i_epik_Tot_abs_Q>
2

> <r_epik_Metal_State_Penalty>
4.24699

> <b_epik_Metal_Only>
0

> <s_lp_Force_Field>
OPLS_2005

> <r_lp_Energy>
34.2939

> <b_lp_Chiralities_Consistent>
1

> <s_lp_Variant>
AV-unprocessed.smi:3071-3

> <Gold.Version>
5.8.1

> <Gold.Id.Protein>
6NUR|6NUR_protein|mol2

> <Gold.PLP.Fitness>
34.1355

> <Gold.PLP.PLP>
-22.4305

> <Gold.PLP.part.hbond>
-2.0000

> <Gold.PLP.part.metal>
0.0000

> <Gold.PLP.part.buried>
0.0184

> <Gold.PLP.part.nonpolar>
-19.8461

> <Gold.PLP.part.repulsive>
0.1079

> <Gold.PLP.ligand.clash>
0.0000

> <Gold.PLP.ligand.torsion>
0.1477

> <Gold.PLP.Chemscore.Hbond>
4.0000

> <Gold.PLP.Chemscore.CHOScore>
0.0000

> <Gold.PLP.Chemscore.Metal>
0.0000

> <Gold.Chemscore.Hbonds>
donor molecule, donor type, donor heavy atom, donor atom, acceptor molecule, acceptor atom, score
      L1  H     3    29       P1 10175  2.00
      L1  H    12    28       P1  8028  2.00

> <Gold.PLP.Chemscore.Internal.Correction>
0.0005

> <Gold.Rescore>
     Score         DG    S(hbond)    S(metal)    S(lipo)     H(rot)  DE(clash)    DE(int)     intcor
     13.92     -14.40       1.99        0.00      46.77       1.25       0.27       0.21       ----

> <Gold.Chemscore.Fitness>
13.9201

> <Gold.Chemscore.DG>
-14.4023

> <Gold.Chemscore.ZeroCoef>
-5.4800

> <Gold.Chemscore.Hbond>
1.9894

> <Gold.Chemscore.Metal>
0.0000

> <Gold.Chemscore.Lipo>
46.7667

> <Gold.Chemscore.Internal_Hbond>
0.0000

> <Gold.Chemscore.DEClash>
0.2700

> <Gold.Chemscore.DEInternal>
0.2122

> <Gold.Chemscore.Rot>
1.2477

> <Gold.Chemscore.Internal.Correction>
   9.000000E+99

> <Gold.Chemscore.Hbonds>
donor molecule, donor type, donor heavy atom, donor atom, acceptor molecule, acceptor atom, score
      L1  H     3    29       P1 10175  0.99
      L1  H    12    28       P1  8028  0.92

> <Gold.Chemscore.Hbond.Weighted>
-6.6446

> <Gold.Chemscore.Metal.Weighted>
-0.0000

> <Gold.Chemscore.Lipo.Weighted>
-5.4717

> <Gold.Chemscore.Internal_Hbond.Weighted>
0.0000

> <Gold.Chemscore.DEClash.Weighted>
0.2700

> <Gold.Chemscore.DEInternal.Weighted>
0.2122

> <Gold.Chemscore.Rot.Weighted>
3.1941

> <Gold.Chemscore.Internal.Correction.Weighted>
   9.000000E+99

> <Gold.Protein.RotatedTorsions>
[ 6907 6896 6895 6894 ] final -134.94 input  -60.11 | X-H torsion
[ 7974 7965 7964 7962 ] final -173.34 input  175.53 | X-H torsion
[ 8008 7997 7996 7995 ] final  166.54 input   59.86 | X-H torsion
[ 10167 10162 10161 10158 ] final  107.92 input  -65.29 | X-H torsion
[ 10718 10713 10712 10709 ] final   94.69 input   66.30 | X-H torsion
[ 10763 10752 10751 10750 ] final  155.77 input  -60.55 | X-H torsion
[ 11005 11000 10999 10996 ] final -156.53 input  -57.11 | X-H torsion

> <Gold.Protein.ActiveResidues>
 VAL166  LYS551  ARG553  GLY616  TRP617  ASP618  TYR619  PRO620  LYS621  CYS622 
 ASP623  PHE694  ASN695  SER759  ASP760  ASP761  ALA762  ILE779  LEU786  VAL792 
 PHE793  MET794  SER795  GLU796  ALA797  LYS798  CYS799  TRP800  GLU811  SER814 

> <Gold.Protein.RotatedAtoms>
  150.9918  133.6142  159.2706 H   0  0  0  0  0  0  0  0  0  0  0  0  # atno 6907 bound_to 6896
  151.3360  135.0851  159.9364 H   0  0  0  0  0  0  0  0  0  0  0  0  # atno 6908 bound_to 6896
  152.5248  133.9539  159.7739 H   0  0  0  0  0  0  0  0  0  0  0  0  # atno 6909 bound_to 6896
  144.7139  140.1637  143.6374 H   0  0  0  0  0  0  0  0  0  0  0  0  # atno 7974 bound_to 7965
  156.1710  140.1641  156.8447 H   0  0  0  0  0  0  0  0  0  0  0  0  # atno 8008 bound_to 7997
  154.5257  140.0768  156.8288 H   0  0  0  0  0  0  0  0  0  0  0  0  # atno 8009 bound_to 7997
  155.3512  140.3390  155.4241 H   0  0  0  0  0  0  0  0  0  0  0  0  # atno 8010 bound_to 7997
  139.6888  144.7110  151.1384 H   0  0  0  0  0  0  0  0  0  0  0  0  # atno 10167 bound_to 10162
  157.6946  131.0521  150.4225 H   0  0  0  0  0  0  0  0  0  0  0  0  # atno 10718 bound_to 10713
  154.1737  135.2803  155.3073 H   0  0  0  0  0  0  0  0  0  0  0  0  # atno 10763 bound_to 10752
  154.6055  135.5515  153.7422 H   0  0  0  0  0  0  0  0  0  0  0  0  # atno 10764 bound_to 10752
  153.0157  135.6402  154.1877 H   0  0  0  0  0  0  0  0  0  0  0  0  # atno 10765 bound_to 10752
  140.6745  134.4211  157.5230 H   0  0  0  0  0  0  0  0  0  0  0  0  # atno 11005 bound_to 11000
  145.9007  139.2429  143.1495 LP  0  0  0  0  0  0  0  0  0  0  0  0  # atno 17320 bound_to 7965
  145.9813  140.8680  143.0113 LP  0  0  0  0  0  0  0  0  0  0  0  0  # atno 17321 bound_to 7965
  140.7676  143.5589  150.9120 LP  0  0  0  0  0  0  0  0  0  0  0  0  # atno 17342 bound_to 10162
  139.9266  143.6543  152.3085 LP  0  0  0  0  0  0  0  0  0  0  0  0  # atno 17343 bound_to 10162
  156.4599  130.4029  149.6583 LP  0  0  0  0  0  0  0  0  0  0  0  0  # atno 17370 bound_to 10713
  156.3702  130.7526  151.2508 LP  0  0  0  0  0  0  0  0  0  0  0  0  # atno 17371 bound_to 10713
  139.8971  134.8644  156.2059 LP  0  0  0  0  0  0  0  0  0  0  0  0  # atno 17394 bound_to 11000
  141.0366  133.6960  156.1523 LP  0  0  0  0  0  0  0  0  0  0  0  0  # atno 17395 bound_to 11000

$$$$
