AV-unprocessed.smi:2380|AV-procd|sdf|9455|dock3
  -GOLD-   2272013 83D 1   1.00000     0.00000
 Structure written by MMmdl.
 42 43  0  0  0  0  0  0  0  0  2 V2000
  151.9907  145.8960  160.3805 C   0  0  0  0  0  0  0  0  0  0  0  0
  152.0294  144.5459  159.6958 C   0  0  0  0  0  0  0  0  0  0  0  0
  152.8812  143.5255  160.1597 C   0  0  0  0  0  0  0  0  0  0  0  0
  152.8730  142.2920  159.4792 C   0  0  0  0  0  0  0  0  0  0  0  0
  153.7647  141.1513  159.9228 C   0  0  0  0  0  0  0  0  0  0  0  0
  152.0905  142.0477  158.4064 N   0  0  0  0  0  0  0  0  0  0  0  0
  151.2673  143.0239  157.9497 C   0  0  0  0  0  0  0  0  0  0  0  0
  150.4074  142.8689  156.8300 N   0  0  0  0  0  0  0  0  0  0  0  0
  150.1931  141.7637  156.0947 C   0  0  0  0  0  0  0  0  0  0  0  0
  150.7212  140.6672  156.2826 O   0  0  0  0  0  0  0  0  0  0  0  0
  149.3175  141.9989  155.1064 N   0  0  0  0  0  0  0  0  0  0  0  0
  148.8673  141.0081  154.1331 C   0  0  2  0  0  0  0  0  0  0  0  0
  147.5871  141.4793  153.4167 C   0  0  0  0  0  0  0  0  0  0  0  0
  147.0543  140.3975  152.4624 C   0  0  0  0  0  0  0  0  0  0  0  0
  146.8199  139.1198  153.1803 N   0  3  1  0  0  0  0  0  0  0  0  0
  146.1977  138.0945  152.3153 C   0  0  0  0  0  0  0  0  0  0  0  0
  148.0487  138.6242  153.8492 C   0  0  0  0  0  0  0  0  0  0  0  0
  148.5998  139.6672  154.8362 C   0  0  0  0  0  0  0  0  0  0  0  0
  151.2138  144.2898  158.5751 C   0  0  0  0  0  0  0  0  0  0  0  0
  152.4482  145.8496  161.3693 H   0  0  0  0  0  0  0  0  0  0  0  0
  150.9611  146.2351  160.4992 H   0  0  0  0  0  0  0  0  0  0  0  0
  152.5301  146.6338  159.7865 H   0  0  0  0  0  0  0  0  0  0  0  0
  153.5237  143.6840  161.0136 H   0  0  0  0  0  0  0  0  0  0  0  0
  154.2388  141.3698  160.8800 H   0  0  0  0  0  0  0  0  0  0  0  0
  154.5481  140.9764  159.1849 H   0  0  0  0  0  0  0  0  0  0  0  0
  153.1853  140.2342  160.0331 H   0  0  0  0  0  0  0  0  0  0  0  0
  149.8991  143.6968  156.5572 H   0  0  0  0  0  0  0  0  0  0  0  0
  148.9313  142.9282  155.0250 H   0  0  0  0  0  0  0  0  0  0  0  0
  149.6550  140.8547  153.3924 H   0  0  0  0  0  0  0  0  0  0  0  0
  146.8191  141.7249  154.1519 H   0  0  0  0  0  0  0  0  0  0  0  0
  147.7818  142.3947  152.8565 H   0  0  0  0  0  0  0  0  0  0  0  0
  146.1222  140.7391  152.0103 H   0  0  0  0  0  0  0  0  0  0  0  0
  147.7616  140.2348  151.6474 H   0  0  0  0  0  0  0  0  0  0  0  0
  146.8594  137.8233  151.4916 H   0  0  0  0  0  0  0  0  0  0  0  0
  145.2607  138.4618  151.8953 H   0  0  0  0  0  0  0  0  0  0  0  0
  145.9743  137.1928  152.8865 H   0  0  0  0  0  0  0  0  0  0  0  0
  147.8264  137.6999  154.3838 H   0  0  0  0  0  0  0  0  0  0  0  0
  148.8027  138.3833  153.0978 H   0  0  0  0  0  0  0  0  0  0  0  0
  149.5175  139.2934  155.2920 H   0  0  0  0  0  0  0  0  0  0  0  0
  147.8857  139.8090  155.6491 H   0  0  0  0  0  0  0  0  0  0  0  0
  150.5546  145.0600  158.2010 H   0  0  0  0  0  0  0  0  0  0  0  0
  146.1536  139.3192  153.9127 H   0  0  0  0  0  0  0  0  0  0  0  0
  1  2  1  0  0  0  0
  1 20  1  0  0  0  0
  1 21  1  0  0  0  0
  1 22  1  0  0  0  0
  2 19  1  0  0  0  0
  2  3  2  0  0  0  0
  3  4  1  0  0  0  0
  3 23  1  0  0  0  0
  4  5  1  0  0  0  0
  4  6  2  0  0  0  0
  5 24  1  0  0  0  0
  5 25  1  0  0  0  0
  5 26  1  0  0  0  0
  6  7  1  0  0  0  0
  7  8  1  0  0  0  0
  7 19  2  0  0  0  0
  8  9  1  0  0  0  0
  8 27  1  0  0  0  0
  9 10  2  0  0  0  0
  9 11  1  0  0  0  0
 11 12  1  0  0  0  0
 11 28  1  0  0  0  0
 12 18  1  0  0  0  0
 12 13  1  0  0  0  0
 12 29  1  0  0  0  0
 13 14  1  0  0  0  0
 13 30  1  0  0  0  0
 13 31  1  0  0  0  0
 14 15  1  0  0  0  0
 14 32  1  0  0  0  0
 14 33  1  0  0  0  0
 15 16  1  0  0  0  0
 15 17  1  0  0  0  0
 15 42  1  0  0  0  0
 16 34  1  0  0  0  0
 16 35  1  0  0  0  0
 16 36  1  0  0  0  0
 17 18  1  0  0  0  0
 17 37  1  0  0  0  0
 17 38  1  0  0  0  0
 18 39  1  0  0  0  0
 18 40  1  0  0  0  0
 19 41  1  0  0  0  0
M  CHG  1  15   1
M  END
> <s_m_source_file>
AV-unprocessed.smi

> <i_m_source_file_index>
2380

> <i_lp_mmshare_version>
43012

> <i_f3d_flags>
0

> <s_epik_input>
W0NIM11jMVtjSF1jKFtDSDNdKW5jKFtjSF0xKVtOSF1DKD1PKVtOSF1bQ0hdMltDSDJdW0NIMl1OKFtDSDNdKVtDSDJdW0NIMl0y

> <s_epik_cmdline>
J2VwaWtfcHl0aG9uJywgJy1waCcsICc3LjAnLCAnLXRuJywgJzgnLCAnLW1hJywgJzIwMCcsICctbWV0YWxfYmluZGluZycsICctaW1hZScsICc8aW5maWxlLm1hZT4nLCAnLW9tYWUnLCAnPG91dGZpbGUubWFlPic=

> <r_epik_Ionization_Penalty>
0.00385557

> <r_epik_Ionization_Penalty_Charging>
0.00366825

> <r_epik_Ionization_Penalty_Neutral>
0.000187322

> <r_epik_State_Penalty>
0.00261101

> <r_epik_Charging_Adjusted_Penalty>
0.00627926

> <i_epik_Tot_Q>
1

> <i_epik_Tot_abs_Q>
1

> <r_epik_Metal_State_Penalty>
-0

> <b_epik_Metal_Only>
0

> <s_lp_Force_Field>
OPLS_2005

> <r_lp_Energy>
16.3452

> <b_lp_Chiralities_Consistent>
1

> <s_lp_Variant>
AV-unprocessed.smi:2380-1

> <Gold.Version>
5.8.1

> <Gold.Id.Protein>
6NUR|6NUR_protein|mol2

> <Gold.PLP.Fitness>
46.6040

> <Gold.PLP.PLP>
-41.0989

> <Gold.PLP.part.hbond>
-2.0000

> <Gold.PLP.part.metal>
0.0000

> <Gold.PLP.part.buried>
-3.1548

> <Gold.PLP.part.nonpolar>
-36.7662

> <Gold.PLP.part.repulsive>
0.2782

> <Gold.PLP.ligand.clash>
0.0000

> <Gold.PLP.ligand.torsion>
0.2359

> <Gold.PLP.Chemscore.Hbond>
1.9920

> <Gold.PLP.Chemscore.CHOScore>
0.0000

> <Gold.PLP.Chemscore.Metal>
0.0000

> <Gold.Chemscore.Hbonds>
donor molecule, donor type, donor heavy atom, donor atom, acceptor molecule, acceptor atom, score
      L1  H     8    27       P1  8028  1.00
      L1  H    11    28       P1  8028  0.99

> <Gold.PLP.Chemscore.Internal.Correction>
0.0010

> <Gold.Rescore>
     Score         DG    S(hbond)    S(metal)    S(lipo)     H(rot)  DE(clash)    DE(int)     intcor
     18.80     -22.33       1.96        0.00     109.87       1.00       0.48       3.06       ----

> <Gold.Chemscore.Fitness>
18.7952

> <Gold.Chemscore.DG>
-22.3316

> <Gold.Chemscore.ZeroCoef>
-5.4800

> <Gold.Chemscore.Hbond>
1.9631

> <Gold.Chemscore.Metal>
0.0000

> <Gold.Chemscore.Lipo>
109.8709

> <Gold.Chemscore.Internal_Hbond>
0.0000

> <Gold.Chemscore.DEClash>
0.4800

> <Gold.Chemscore.DEInternal>
3.0563

> <Gold.Chemscore.Rot>
1.0000

> <Gold.Chemscore.Internal.Correction>
   9.000000E+99

> <Gold.Chemscore.Hbonds>
donor molecule, donor type, donor heavy atom, donor atom, acceptor molecule, acceptor atom, score
      L1  H     8    27       P1  8028  1.00
      L1  H    11    28       P1  8028  0.93

> <Gold.Chemscore.Hbond.Weighted>
-6.5567

> <Gold.Chemscore.Metal.Weighted>
-0.0000

> <Gold.Chemscore.Lipo.Weighted>
-12.8549

> <Gold.Chemscore.Internal_Hbond.Weighted>
0.0000

> <Gold.Chemscore.DEClash.Weighted>
0.4800

> <Gold.Chemscore.DEInternal.Weighted>
3.0563

> <Gold.Chemscore.Rot.Weighted>
2.5600

> <Gold.Chemscore.Internal.Correction.Weighted>
   9.000000E+99

> <Gold.Protein.RotatedTorsions>
[ 6907 6896 6895 6894 ] final  127.92 input  -60.11 | X-H torsion
[ 7974 7965 7964 7962 ] final   -6.20 input  175.53 | X-H torsion
[ 8008 7997 7996 7995 ] final  -61.60 input   59.86 | X-H torsion
[ 10167 10162 10161 10158 ] final   30.11 input  -65.29 | X-H torsion
[ 10718 10713 10712 10709 ] final -157.89 input   66.30 | X-H torsion
[ 10763 10752 10751 10750 ] final  165.16 input  -60.55 | X-H torsion
[ 11005 11000 10999 10996 ] final  -11.14 input  -57.11 | X-H torsion

> <Gold.Protein.ActiveResidues>
 VAL166  LYS551  ARG553  GLY616  TRP617  ASP618  TYR619  PRO620  LYS621  CYS622 
 ASP623  PHE694  ASN695  SER759  ASP760  ASP761  ALA762  ILE779  LEU786  VAL792 
 PHE793  MET794  SER795  GLU796  ALA797  LYS798  CYS799  TRP800  GLU811  SER814 

> <Gold.Protein.RotatedAtoms>
  152.3768  133.6492  159.6129 H   0  0  0  0  0  0  0  0  0  0  0  0  # atno 6907 bound_to 6896
  150.7710  133.9180  159.3398 H   0  0  0  0  0  0  0  0  0  0  0  0  # atno 6908 bound_to 6896
  151.6993  135.0934  160.0299 H   0  0  0  0  0  0  0  0  0  0  0  0  # atno 6909 bound_to 6896
  146.2336  140.2135  142.8336 H   0  0  0  0  0  0  0  0  0  0  0  0  # atno 7974 bound_to 7965
  154.4456  140.1014  156.6457 H   0  0  0  0  0  0  0  0  0  0  0  0  # atno 8008 bound_to 7997
  155.5453  140.3484  155.4437 H   0  0  0  0  0  0  0  0  0  0  0  0  # atno 8009 bound_to 7997
  156.0568  140.1317  156.9976 H   0  0  0  0  0  0  0  0  0  0  0  0  # atno 8010 bound_to 7997
  140.4707  144.0767  150.6236 H   0  0  0  0  0  0  0  0  0  0  0  0  # atno 10167 bound_to 10162
  156.5466  130.8587  151.2766 H   0  0  0  0  0  0  0  0  0  0  0  0  # atno 10718 bound_to 10713
  154.3199  135.2756  155.2525 H   0  0  0  0  0  0  0  0  0  0  0  0  # atno 10763 bound_to 10752
  154.4883  135.5840  153.6443 H   0  0  0  0  0  0  0  0  0  0  0  0  # atno 10764 bound_to 10752
  152.9878  135.6128  154.3382 H   0  0  0  0  0  0  0  0  0  0  0  0  # atno 10765 bound_to 10752
  140.7522  133.8583  155.9054 H   0  0  0  0  0  0  0  0  0  0  0  0  # atno 11005 bound_to 11000
  144.9688  140.8348  143.5468 LP  0  0  0  0  0  0  0  0  0  0  0  0  # atno 17320 bound_to 7965
  145.2114  139.2203  143.5141 LP  0  0  0  0  0  0  0  0  0  0  0  0  # atno 17321 bound_to 7965
  140.3981  143.2718  151.9980 LP  0  0  0  0  0  0  0  0  0  0  0  0  # atno 17342 bound_to 10162
  139.4818  144.6021  151.7587 LP  0  0  0  0  0  0  0  0  0  0  0  0  # atno 17343 bound_to 10162
  157.7395  130.9833  150.2320 LP  0  0  0  0  0  0  0  0  0  0  0  0  # atno 17370 bound_to 10713
  156.2923  130.3747  149.7830 LP  0  0  0  0  0  0  0  0  0  0  0  0  # atno 17371 bound_to 10713
  140.9740  134.1493  157.4552 LP  0  0  0  0  0  0  0  0  0  0  0  0  # atno 17394 bound_to 11000
  139.8785  134.9988  156.5921 LP  0  0  0  0  0  0  0  0  0  0  0  0  # atno 17395 bound_to 11000

$$$$
