AV-unprocessed.smi:1576|AV-procd|sdf|6345|dock8
  -GOLD-   22720 6563D 1   1.00000     0.00000
 Structure written by MMmdl.
 46 48  0  0  0  0  0  0  0  0  2 V2000
  150.6539  135.8750  156.5093 O   0  0  0  0  0  0  0  0  0  0  0  0
  150.1985  136.2251  155.4209 C   0  0  0  0  0  0  0  0  0  0  0  0
  150.0831  137.4965  154.9998 N   0  0  0  0  0  0  0  0  0  0  0  0
  150.4101  138.6917  155.6956 C   0  0  0  0  0  0  0  0  0  0  0  0
  150.4962  139.9674  155.0869 C   0  0  0  0  0  0  0  0  0  0  0  0
  150.8451  141.0894  155.8666 C   0  0  0  0  0  0  0  0  0  0  0  0
  151.1140  140.9369  157.2504 C   0  0  0  0  0  0  0  0  0  0  0  0
  151.4755  142.0021  158.1067 N   0  0  0  0  0  0  0  0  0  0  0  0
  151.4130  143.3491  157.5294 C   0  0  0  0  0  0  0  0  0  0  0  0
  151.4084  144.4320  158.6216 C   0  0  0  0  0  0  0  0  0  0  0  0
  152.5900  144.2525  159.5840 C   0  0  0  0  0  0  0  0  0  0  0  0
  152.5665  142.8372  160.1761 C   0  0  0  0  0  0  0  0  0  0  0  0
  152.5555  141.7696  159.0685 C   0  0  0  0  0  0  0  0  0  0  0  0
  151.0321  139.6914  157.7788 N   0  3  0  0  0  0  0  0  0  0  0  0
  150.7030  138.5904  157.0701 C   0  0  0  0  0  0  0  0  0  0  0  0
  149.7665  135.3633  154.4897 N   0  0  0  0  0  0  0  0  0  0  0  0
  149.7666  133.9100  154.6299 C   0  0  2  0  0  0  0  0  0  0  0  0
  148.9484  133.2435  153.5085 C   0  0  0  0  0  0  0  0  0  0  0  0
  148.6844  131.7833  153.8954 C   0  0  0  0  0  0  0  0  0  0  0  0
  148.5736  131.7554  155.7247 S   0  0  0  0  0  0  0  0  0  0  0  0
  147.1626  131.6775  156.1317 O   0  0  0  0  0  0  0  0  0  0  0  0
  149.5666  130.8055  156.2484 O   0  0  0  0  0  0  0  0  0  0  0  0
  149.1729  133.4686  155.9773 C   0  0  0  0  0  0  0  0  0  0  0  0
  149.7694  137.6212  154.0483 H   0  0  0  0  0  0  0  0  0  0  0  0
  150.3137  140.1101  154.0331 H   0  0  0  0  0  0  0  0  0  0  0  0
  150.8928  142.0522  155.3810 H   0  0  0  0  0  0  0  0  0  0  0  0
  152.2749  143.4856  156.8750 H   0  0  0  0  0  0  0  0  0  0  0  0
  150.5256  143.4832  156.9114 H   0  0  0  0  0  0  0  0  0  0  0  0
  151.4454  145.4212  158.1647 H   0  0  0  0  0  0  0  0  0  0  0  0
  150.4723  144.3839  159.1797 H   0  0  0  0  0  0  0  0  0  0  0  0
  153.5288  144.4171  159.0538 H   0  0  0  0  0  0  0  0  0  0  0  0
  152.5442  144.9954  160.3807 H   0  0  0  0  0  0  0  0  0  0  0  0
  153.4283  142.6891  160.8273 H   0  0  0  0  0  0  0  0  0  0  0  0
  151.6819  142.7206  160.8035 H   0  0  0  0  0  0  0  0  0  0  0  0
  152.4397  140.7929  159.5390 H   0  0  0  0  0  0  0  0  0  0  0  0
  153.5096  141.7670  158.5400 H   0  0  0  0  0  0  0  0  0  0  0  0
  150.6796  137.6650  157.6279 H   0  0  0  0  0  0  0  0  0  0  0  0
  149.4133  135.7358  153.6203 H   0  0  0  0  0  0  0  0  0  0  0  0
  150.7900  133.5356  154.5607 H   0  0  0  0  0  0  0  0  0  0  0  0
  147.9899  133.7551  153.4100 H   0  0  0  0  0  0  0  0  0  0  0  0
  149.4488  133.3163  152.5423 H   0  0  0  0  0  0  0  0  0  0  0  0
  147.7710  131.3832  153.4551 H   0  0  0  0  0  0  0  0  0  0  0  0
  149.5202  131.1486  153.6003 H   0  0  0  0  0  0  0  0  0  0  0  0
  149.8971  133.4964  156.7918 H   0  0  0  0  0  0  0  0  0  0  0  0
  148.3148  134.0823  156.2534 H   0  0  0  0  0  0  0  0  0  0  0  0
  151.2346  139.5778  158.7722 H   0  0  0  0  0  0  0  0  0  0  0  0
  1  2  2  0  0  0  0
  2  3  1  0  0  0  0
  2 16  1  0  0  0  0
  3  4  1  0  0  0  0
  3 24  1  0  0  0  0
  4 15  1  0  0  0  0
  4  5  2  0  0  0  0
  5  6  1  0  0  0  0
  5 25  1  0  0  0  0
  6  7  2  0  0  0  0
  6 26  1  0  0  0  0
  7  8  1  0  0  0  0
  7 14  1  0  0  0  0
  8 13  1  0  0  0  0
  8  9  1  0  0  0  0
  9 10  1  0  0  0  0
  9 27  1  0  0  0  0
  9 28  1  0  0  0  0
 10 11  1  0  0  0  0
 10 29  1  0  0  0  0
 10 30  1  0  0  0  0
 11 12  1  0  0  0  0
 11 31  1  0  0  0  0
 11 32  1  0  0  0  0
 12 13  1  0  0  0  0
 12 33  1  0  0  0  0
 12 34  1  0  0  0  0
 13 35  1  0  0  0  0
 13 36  1  0  0  0  0
 14 15  2  0  0  0  0
 14 46  1  0  0  0  0
 15 37  1  0  0  0  0
 16 17  1  0  0  0  0
 16 38  1  0  0  0  0
 17 23  1  0  0  0  0
 17 18  1  0  0  0  0
 17 39  1  0  0  0  0
 18 19  1  0  0  0  0
 18 40  1  0  0  0  0
 18 41  1  0  0  0  0
 19 20  1  0  0  0  0
 19 42  1  0  0  0  0
 19 43  1  0  0  0  0
 20 21  2  0  0  0  0
 20 22  2  0  0  0  0
 20 23  1  0  0  0  0
 23 44  1  0  0  0  0
 23 45  1  0  0  0  0
M  CHG  1  14   1
M  END
> <s_m_source_file>
AV-unprocessed.smi

> <i_m_source_file_index>
1576

> <i_lp_mmshare_version>
43012

> <i_f3d_flags>
0

> <s_epik_input>
Tz1TMSg9TylbQ0gyXVtDSDJdW0NASF0oW0NIMl0xKVtOSF1DKD1PKVtOSF1jMltjSF1bY0hdYyhuW2NIXTIpTjNbQ0gyXVtDSDJdW0NIMl1bQ0gyXVtDSDJdMw==

> <s_epik_cmdline>
J2VwaWtfcHl0aG9uJywgJy1waCcsICc3LjAnLCAnLXRuJywgJzgnLCAnLW1hJywgJzIwMCcsICctbWV0YWxfYmluZGluZycsICctaW1hZScsICc8aW5maWxlLm1hZT4nLCAnLW9tYWUnLCAnPG91dGZpbGUubWFlPic=

> <r_lp_tautomer_probability>
0.999994

> <r_epik_Ionization_Penalty>
1.19724

> <r_epik_Ionization_Penalty_Charging>
1.19722

> <r_epik_Ionization_Penalty_Neutral>
2.11505e-05

> <r_epik_State_Penalty>
1.26251

> <r_epik_Charging_Adjusted_Penalty>
2.45973

> <i_epik_Tot_Q>
1

> <i_epik_Tot_abs_Q>
1

> <r_epik_Metal_State_Penalty>
1.33857

> <b_epik_Metal_Only>
0

> <s_lp_Force_Field>
OPLS_2005

> <r_lp_Energy>
26.9885

> <b_lp_Chiralities_Consistent>
1

> <s_lp_Variant>
AV-unprocessed.smi:1576-3

> <Gold.Version>
5.8.1

> <Gold.Id.Protein>
6NUR|6NUR_protein|mol2

> <Gold.PLP.Fitness>
41.3942

> <Gold.PLP.PLP>
-38.7466

> <Gold.PLP.part.hbond>
-1.3767

> <Gold.PLP.part.metal>
0.0000

> <Gold.PLP.part.buried>
-4.6908

> <Gold.PLP.part.nonpolar>
-33.2376

> <Gold.PLP.part.repulsive>
0.1751

> <Gold.PLP.ligand.clash>
0.0000

> <Gold.PLP.ligand.torsion>
0.4377

> <Gold.PLP.Chemscore.Hbond>
1.0000

> <Gold.PLP.Chemscore.CHOScore>
0.0000

> <Gold.PLP.Chemscore.Metal>
0.0000

> <Gold.Chemscore.Hbonds>
donor molecule, donor type, donor heavy atom, donor atom, acceptor molecule, acceptor atom, score
      L1  H    16    38       P1  7948  1.00

> <Gold.PLP.Chemscore.Internal.Correction>
0.5229

> <Gold.Rescore>
     Score         DG    S(hbond)    S(metal)    S(lipo)     H(rot)  DE(clash)    DE(int)     intcor
     15.51     -17.35       0.91        0.00     102.60       1.25       0.07       1.77       ----

> <Gold.Chemscore.Fitness>
15.5120

> <Gold.Chemscore.DG>
-17.3464

> <Gold.Chemscore.ZeroCoef>
-5.4800

> <Gold.Chemscore.Hbond>
0.9147

> <Gold.Chemscore.Metal>
0.0000

> <Gold.Chemscore.Lipo>
102.6013

> <Gold.Chemscore.Internal_Hbond>
0.0000

> <Gold.Chemscore.DEClash>
0.0680

> <Gold.Chemscore.DEInternal>
1.7664

> <Gold.Chemscore.Rot>
1.2473

> <Gold.Chemscore.Internal.Correction>
   9.000000E+99

> <Gold.Chemscore.Hbonds>
donor molecule, donor type, donor heavy atom, donor atom, acceptor molecule, acceptor atom, score
      L1  H    16    38       P1  7948  0.40

> <Gold.Chemscore.Hbond.Weighted>
-3.0552

> <Gold.Chemscore.Metal.Weighted>
-0.0000

> <Gold.Chemscore.Lipo.Weighted>
-12.0044

> <Gold.Chemscore.Internal_Hbond.Weighted>
0.0000

> <Gold.Chemscore.DEClash.Weighted>
0.0680

> <Gold.Chemscore.DEInternal.Weighted>
1.7664

> <Gold.Chemscore.Rot.Weighted>
3.1931

> <Gold.Chemscore.Internal.Correction.Weighted>
   9.000000E+99

> <Gold.Protein.RotatedTorsions>
[ 6907 6896 6895 6894 ] final   86.00 input  -60.11 | X-H torsion
[ 7974 7965 7964 7962 ] final  126.58 input  175.53 | X-H torsion
[ 8008 7997 7996 7995 ] final  122.72 input   59.86 | X-H torsion
[ 10167 10162 10161 10158 ] final  -17.75 input  -65.29 | X-H torsion
[ 10718 10713 10712 10709 ] final -160.01 input   66.30 | X-H torsion
[ 10763 10752 10751 10750 ] final   55.54 input  -60.55 | X-H torsion
[ 11005 11000 10999 10996 ] final -159.56 input  -57.11 | X-H torsion

> <Gold.Protein.ActiveResidues>
 VAL166  LYS551  ARG553  GLY616  TRP617  ASP618  TYR619  PRO620  LYS621  CYS622 
 ASP623  PHE694  ASN695  SER759  ASP760  ASP761  ALA762  ILE779  LEU786  VAL792 
 PHE793  MET794  SER795  GLU796  ALA797  LYS798  CYS799  TRP800  GLU811  SER814 

> <Gold.Protein.RotatedAtoms>
  152.5386  134.2500  159.8894 H   0  0  0  0  0  0  0  0  0  0  0  0  # atno 6907 bound_to 6896
  151.2463  133.4366  159.2617 H   0  0  0  0  0  0  0  0  0  0  0  0  # atno 6908 bound_to 6896
  151.0580  134.9731  159.8302 H   0  0  0  0  0  0  0  0  0  0  0  0  # atno 6909 bound_to 6896
  145.0602  139.3811  143.5010 H   0  0  0  0  0  0  0  0  0  0  0  0  # atno 7974 bound_to 7965
  156.2739  140.2779  156.1513 H   0  0  0  0  0  0  0  0  0  0  0  0  # atno 8008 bound_to 7997
  155.0850  140.0388  157.2669 H   0  0  0  0  0  0  0  0  0  0  0  0  # atno 8009 bound_to 7997
  154.6934  140.2634  155.6796 H   0  0  0  0  0  0  0  0  0  0  0  0  # atno 8010 bound_to 7997
  140.7251  143.4984  150.9901 H   0  0  0  0  0  0  0  0  0  0  0  0  # atno 10167 bound_to 10162
  156.5761  130.8709  151.2851 H   0  0  0  0  0  0  0  0  0  0  0  0  # atno 10718 bound_to 10713
  152.9818  135.5707  154.5083 H   0  0  0  0  0  0  0  0  0  0  0  0  # atno 10763 bound_to 10752
  154.4591  135.2781  155.1727 H   0  0  0  0  0  0  0  0  0  0  0  0  # atno 10764 bound_to 10752
  154.3323  135.6247  153.5610 H   0  0  0  0  0  0  0  0  0  0  0  0  # atno 10765 bound_to 10752
  140.6412  134.4549  157.5233 H   0  0  0  0  0  0  0  0  0  0  0  0  # atno 11005 bound_to 11000
  146.3524  140.0296  142.8651 LP  0  0  0  0  0  0  0  0  0  0  0  0  # atno 17320 bound_to 7965
  145.1418  140.9576  143.4484 LP  0  0  0  0  0  0  0  0  0  0  0  0  # atno 17321 bound_to 7965
  139.8692  143.7214  152.3167 LP  0  0  0  0  0  0  0  0  0  0  0  0  # atno 17342 bound_to 10162
  139.7457  144.7548  151.0584 LP  0  0  0  0  0  0  0  0  0  0  0  0  # atno 17343 bound_to 10162
  157.7337  130.9735  150.1992 LP  0  0  0  0  0  0  0  0  0  0  0  0  # atno 17370 bound_to 10713
  156.2672  130.3717  149.8069 LP  0  0  0  0  0  0  0  0  0  0  0  0  # atno 17371 bound_to 10713
  139.9079  134.8407  156.1635 LP  0  0  0  0  0  0  0  0  0  0  0  0  # atno 17394 bound_to 11000
  141.0605  133.6844  156.1944 LP  0  0  0  0  0  0  0  0  0  0  0  0  # atno 17395 bound_to 11000

$$$$
