AV-unprocessed.smi:2725|AV-procd|sdf|10517|dock7
  -GOLD-   2272014553D 1   1.00000     0.00000
 Structure written by MMmdl.
 45 46  0  0  0  0  0  0  0  0  2 V2000
  152.7632  139.7552  155.2308 O   0  0  0  0  0  0  0  0  0  0  0  0
  151.8995  139.7373  156.1084 C   0  0  0  0  0  0  0  0  0  0  0  0
  151.9071  140.7716  157.2382 C   0  0  0  0  0  0  0  0  0  0  0  0
  150.7725  141.8078  157.1230 C   0  0  0  0  0  0  0  0  0  0  0  0
  150.9586  143.0128  158.0619 C   0  0  0  0  0  0  0  0  0  0  0  0
  151.8846  144.1064  157.5188 C   0  0  0  0  0  0  0  0  0  0  0  0
  152.3610  144.8877  158.7501 C   0  0  0  0  0  0  0  0  0  0  0  0
  152.1059  143.9819  159.9643 C   0  0  0  0  0  0  0  0  0  0  0  0
  151.6029  142.6498  159.4013 C   0  0  0  0  0  0  0  0  0  0  0  0
  150.9077  138.8338  156.1434 N   0  0  0  0  0  0  0  0  0  0  0  0
  150.6931  137.7751  155.1586 C   0  0  2  0  0  0  0  0  0  0  0  0
  150.5708  138.4217  153.7632 C   0  0  0  0  0  0  0  0  0  0  0  0
  149.4132  139.2272  153.7021 O   0  0  0  0  0  0  0  0  0  0  0  0
  149.4399  136.9619  155.5576 C   0  0  0  0  0  0  0  0  0  0  0  0
  149.5989  135.4648  155.3589 C   0  0  0  0  0  0  0  0  0  0  0  0
  149.9908  134.6125  156.4140 C   0  0  0  0  0  0  0  0  0  0  0  0
  150.1334  133.2310  156.1686 C   0  0  0  0  0  0  0  0  0  0  0  0
  149.8824  132.7309  154.8739 C   0  0  0  0  0  0  0  0  0  0  0  0
  149.4944  133.6262  153.8566 C   0  0  0  0  0  0  0  0  0  0  0  0
  149.3685  134.9433  154.1317 N   0  3  0  0  0  0  0  0  0  0  0  0
  151.8357  140.2397  158.1873 H   0  0  0  0  0  0  0  0  0  0  0  0
  152.8694  141.2860  157.2387 H   0  0  0  0  0  0  0  0  0  0  0  0
  150.7210  142.1707  156.0953 H   0  0  0  0  0  0  0  0  0  0  0  0
  149.8120  141.3319  157.3264 H   0  0  0  0  0  0  0  0  0  0  0  0
  149.9835  143.4571  158.2688 H   0  0  0  0  0  0  0  0  0  0  0  0
  152.7451  143.6532  157.0247 H   0  0  0  0  0  0  0  0  0  0  0  0
  151.3887  144.7485  156.7902 H   0  0  0  0  0  0  0  0  0  0  0  0
  153.4148  145.1531  158.6599 H   0  0  0  0  0  0  0  0  0  0  0  0
  151.7995  145.8168  158.8546 H   0  0  0  0  0  0  0  0  0  0  0  0
  152.9989  143.8510  160.5761 H   0  0  0  0  0  0  0  0  0  0  0  0
  151.3387  144.4286  160.5978 H   0  0  0  0  0  0  0  0  0  0  0  0
  150.9106  142.1472  160.0774 H   0  0  0  0  0  0  0  0  0  0  0  0
  152.4499  141.9815  159.2384 H   0  0  0  0  0  0  0  0  0  0  0  0
  150.2370  138.8992  156.8953 H   0  0  0  0  0  0  0  0  0  0  0  0
  151.5513  137.0994  155.1644 H   0  0  0  0  0  0  0  0  0  0  0  0
  151.4148  139.0781  153.5573 H   0  0  0  0  0  0  0  0  0  0  0  0
  150.5526  137.6725  152.9706 H   0  0  0  0  0  0  0  0  0  0  0  0
  149.4521  139.7554  152.9191 H   0  0  0  0  0  0  0  0  0  0  0  0
  149.2052  137.1240  156.6106 H   0  0  0  0  0  0  0  0  0  0  0  0
  148.5706  137.3145  155.0003 H   0  0  0  0  0  0  0  0  0  0  0  0
  150.1831  135.0126  157.3992 H   0  0  0  0  0  0  0  0  0  0  0  0
  150.4328  132.5633  156.9633 H   0  0  0  0  0  0  0  0  0  0  0  0
  149.9865  131.6761  154.6647 H   0  0  0  0  0  0  0  0  0  0  0  0
  149.2829  133.3315  152.8390 H   0  0  0  0  0  0  0  0  0  0  0  0
  149.0865  135.5725  153.3799 H   0  0  0  0  0  0  0  0  0  0  0  0
  1  2  2  0  0  0  0
  2  3  1  0  0  0  0
  2 10  1  0  0  0  0
  3  4  1  0  0  0  0
  3 21  1  0  0  0  0
  3 22  1  0  0  0  0
  4  5  1  0  0  0  0
  4 23  1  0  0  0  0
  4 24  1  0  0  0  0
  5  9  1  0  0  0  0
  5  6  1  0  0  0  0
  5 25  1  0  0  0  0
  6  7  1  0  0  0  0
  6 26  1  0  0  0  0
  6 27  1  0  0  0  0
  7  8  1  0  0  0  0
  7 28  1  0  0  0  0
  7 29  1  0  0  0  0
  8  9  1  0  0  0  0
  8 30  1  0  0  0  0
  8 31  1  0  0  0  0
  9 32  1  0  0  0  0
  9 33  1  0  0  0  0
 10 11  1  0  0  0  0
 10 34  1  0  0  0  0
 11 12  1  0  0  0  0
 11 14  1  0  0  0  0
 11 35  1  0  0  0  0
 12 13  1  0  0  0  0
 12 36  1  0  0  0  0
 12 37  1  0  0  0  0
 13 38  1  0  0  0  0
 14 15  1  0  0  0  0
 14 39  1  0  0  0  0
 14 40  1  0  0  0  0
 15 20  1  0  0  0  0
 15 16  2  0  0  0  0
 16 17  1  0  0  0  0
 16 41  1  0  0  0  0
 17 18  2  0  0  0  0
 17 42  1  0  0  0  0
 18 19  1  0  0  0  0
 18 43  1  0  0  0  0
 19 20  2  0  0  0  0
 19 44  1  0  0  0  0
 20 45  1  0  0  0  0
M  CHG  1  20   1
M  END
> <s_m_source_file>
AV-unprocessed.smi

> <i_m_source_file_index>
2725

> <i_lp_mmshare_version>
43012

> <i_f3d_flags>
0

> <s_epik_input>
W0NIMl0xW0NIMl1bQ0gyXVtDSDJdW0NIXTFbQ0gyXVtDSDJdQyg9TylbTkhdW0NASF0oW0NIMl1bT0hdKVtDSDJdYzJbY0hdW2NIXVtjSF1bY0hdbjI=

> <s_epik_cmdline>
J2VwaWtfcHl0aG9uJywgJy1waCcsICc3LjAnLCAnLXRuJywgJzgnLCAnLW1hJywgJzIwMCcsICctbWV0YWxfYmluZGluZycsICctaW1hZScsICc8aW5maWxlLm1hZT4nLCAnLW9tYWUnLCAnPG91dGZpbGUubWFlPic=

> <r_epik_Ionization_Penalty>
1.87189

> <r_epik_Ionization_Penalty_Charging>
1.87189

> <r_epik_Ionization_Penalty_Neutral>
6.79411e-08

> <r_epik_State_Penalty>
1.99097

> <r_epik_Charging_Adjusted_Penalty>
3.86287

> <i_epik_Tot_Q>
1

> <i_epik_Tot_abs_Q>
1

> <r_epik_Metal_State_Penalty>
2.01578

> <b_epik_Metal_Only>
0

> <s_lp_Force_Field>
OPLS_2005

> <r_lp_Energy>
30.4182

> <b_lp_Chiralities_Consistent>
1

> <s_lp_Variant>
AV-unprocessed.smi:2725-3

> <Gold.Version>
5.8.1

> <Gold.Id.Protein>
6NUR|6NUR_protein|mol2

> <Gold.PLP.Fitness>
52.7705

> <Gold.PLP.PLP>
-41.9194

> <Gold.PLP.part.hbond>
-4.0000

> <Gold.PLP.part.metal>
0.0000

> <Gold.PLP.part.buried>
-3.9616

> <Gold.PLP.part.nonpolar>
-33.6872

> <Gold.PLP.part.repulsive>
0.0829

> <Gold.PLP.ligand.clash>
0.0000

> <Gold.PLP.ligand.torsion>
1.3471

> <Gold.PLP.Chemscore.Hbond>
4.4641

> <Gold.PLP.Chemscore.CHOScore>
0.0000

> <Gold.PLP.Chemscore.Metal>
0.0000

> <Gold.Chemscore.Hbonds>
donor molecule, donor type, donor heavy atom, donor atom, acceptor molecule, acceptor atom, score
      L1  H    13    38       P1  7957  1.00
      L1  H    20    45       P1  7948  2.00
      P1  H  7989  7998       L1     1  0.15
      P1  H  7997  8010       L1     1  1.00

> <Gold.PLP.Chemscore.Internal.Correction>
0.1531

> <Gold.Rescore>
     Score         DG    S(hbond)    S(metal)    S(lipo)     H(rot)  DE(clash)    DE(int)     intcor
     19.19     -21.91       2.95        0.00     112.52       2.58       0.07       2.64       ----

> <Gold.Chemscore.Fitness>
19.1908

> <Gold.Chemscore.DG>
-21.9101

> <Gold.Chemscore.ZeroCoef>
-5.4800

> <Gold.Chemscore.Hbond>
2.9529

> <Gold.Chemscore.Metal>
0.0000

> <Gold.Chemscore.Lipo>
112.5221

> <Gold.Chemscore.Internal_Hbond>
0.0000

> <Gold.Chemscore.DEClash>
0.0746

> <Gold.Chemscore.DEInternal>
2.6447

> <Gold.Chemscore.Rot>
2.5773

> <Gold.Chemscore.Internal.Correction>
   9.000000E+99

> <Gold.Chemscore.Hbonds>
donor molecule, donor type, donor heavy atom, donor atom, acceptor molecule, acceptor atom, score
      L1  H    13    38       P1  7957  0.98
      L1  H    20    45       P1  7948  0.59
      P1  H  7989  7998       L1     1  0.05
      P1  H  7997  8010       L1     1  0.82

> <Gold.Chemscore.Hbond.Weighted>
-9.8628

> <Gold.Chemscore.Metal.Weighted>
-0.0000

> <Gold.Chemscore.Lipo.Weighted>
-13.1651

> <Gold.Chemscore.Internal_Hbond.Weighted>
0.0000

> <Gold.Chemscore.DEClash.Weighted>
0.0746

> <Gold.Chemscore.DEInternal.Weighted>
2.6447

> <Gold.Chemscore.Rot.Weighted>
6.5978

> <Gold.Chemscore.Internal.Correction.Weighted>
   9.000000E+99

> <Gold.Protein.RotatedTorsions>
[ 6907 6896 6895 6894 ] final  160.22 input  -60.11 | X-H torsion
[ 7974 7965 7964 7962 ] final -175.99 input  175.53 | X-H torsion
[ 8008 7997 7996 7995 ] final  103.08 input   59.86 | X-H torsion
[ 10167 10162 10161 10158 ] final  -28.37 input  -65.29 | X-H torsion
[ 10718 10713 10712 10709 ] final  128.91 input   66.30 | X-H torsion
[ 10763 10752 10751 10750 ] final  -38.81 input  -60.55 | X-H torsion
[ 11005 11000 10999 10996 ] final  164.27 input  -57.11 | X-H torsion

> <Gold.Protein.ActiveResidues>
 VAL166  LYS551  ARG553  GLY616  TRP617  ASP618  TYR619  PRO620  LYS621  CYS622 
 ASP623  PHE694  ASN695  SER759  ASP760  ASP761  ALA762  ILE779  LEU786  VAL792 
 PHE793  MET794  SER795  GLU796  ALA797  LYS798  CYS799  TRP800  GLU811  SER814 

> <Gold.Protein.RotatedAtoms>
  151.9739  133.3735  159.4081 H   0  0  0  0  0  0  0  0  0  0  0  0  # atno 6907 bound_to 6896
  150.6945  134.4111  159.5171 H   0  0  0  0  0  0  0  0  0  0  0  0  # atno 6908 bound_to 6896
  152.1819  134.8746  160.0576 H   0  0  0  0  0  0  0  0  0  0  0  0  # atno 6909 bound_to 6896
  144.7127  140.1237  143.6403 H   0  0  0  0  0  0  0  0  0  0  0  0  # atno 7974 bound_to 7965
  156.1451  140.3171  155.8557 H   0  0  0  0  0  0  0  0  0  0  0  0  # atno 8008 bound_to 7997
  155.4079  140.0504  157.3050 H   0  0  0  0  0  0  0  0  0  0  0  0  # atno 8009 bound_to 7997
  154.5009  140.2129  155.9360 H   0  0  0  0  0  0  0  0  0  0  0  0  # atno 8010 bound_to 7997
  140.7270  143.4015  151.1257 H   0  0  0  0  0  0  0  0  0  0  0  0  # atno 10167 bound_to 10162
  157.5202  131.1098  150.9164 H   0  0  0  0  0  0  0  0  0  0  0  0  # atno 10718 bound_to 10713
  153.9190  135.6784  153.4748 H   0  0  0  0  0  0  0  0  0  0  0  0  # atno 10763 bound_to 10752
  153.1038  135.4815  154.8912 H   0  0  0  0  0  0  0  0  0  0  0  0  # atno 10764 bound_to 10752
  154.7488  135.3179  154.8552 H   0  0  0  0  0  0  0  0  0  0  0  0  # atno 10765 bound_to 10752
  140.2442  134.8027  157.3440 H   0  0  0  0  0  0  0  0  0  0  0  0  # atno 11005 bound_to 11000
  145.9348  139.2630  143.1303 LP  0  0  0  0  0  0  0  0  0  0  0  0  # atno 17320 bound_to 7965
  145.9485  140.8926  143.0271 LP  0  0  0  0  0  0  0  0  0  0  0  0  # atno 17321 bound_to 7965
  139.7636  143.8599  152.3105 LP  0  0  0  0  0  0  0  0  0  0  0  0  # atno 17342 bound_to 10162
  139.8493  144.7172  150.9234 LP  0  0  0  0  0  0  0  0  0  0  0  0  # atno 17343 bound_to 10162
  156.9777  130.5515  149.5294 LP  0  0  0  0  0  0  0  0  0  0  0  0  # atno 17370 bound_to 10713
  156.0348  130.5437  150.8626 LP  0  0  0  0  0  0  0  0  0  0  0  0  # atno 17371 bound_to 10713
  140.1622  134.4714  155.7887 LP  0  0  0  0  0  0  0  0  0  0  0  0  # atno 17394 bound_to 11000
  141.2208  133.6906  156.7564 LP  0  0  0  0  0  0  0  0  0  0  0  0  # atno 17395 bound_to 11000

$$$$
