AV-unprocessed.smi:826|AV-procd|sdf|3854|dock1
  -GOLD-   22720 1303D 1   1.00000     0.00000
 Structure written by MMmdl.
 38 39  0  0  0  0  0  0  0  0  2 V2000
  158.5638  136.5686  151.9498 C   0  0  0  0  0  0  0  0  0  0  0  0
  157.4695  137.0737  152.8260 C   0  0  0  0  0  0  0  0  0  0  0  0
  156.8943  136.3254  153.7706 N   0  0  0  0  0  0  0  0  0  0  0  0
  155.9007  137.0151  154.4505 N   0  0  0  0  0  0  0  0  0  0  0  0
  155.7299  138.2675  154.0039 C   0  0  0  0  0  0  0  0  0  0  0  0
  154.8175  139.1018  154.5292 N   0  5  0  0  0  0  0  0  0  0  0  0
  153.7238  138.6029  155.1488 C   0  0  0  0  0  0  0  0  0  0  0  0
  153.6525  137.5294  155.7524 O   0  0  0  0  0  0  0  0  0  0  0  0
  152.6439  139.3946  155.0624 N   0  0  0  0  0  0  0  0  0  0  0  0
  151.3272  139.1171  155.6353 C   0  0  2  0  0  0  0  0  0  0  0  0
  150.3715  138.7605  154.4843 C   0  0  0  0  0  0  0  0  0  0  0  0
  150.7809  140.3628  156.3504 C   0  0  0  0  0  0  0  0  0  0  0  0
  149.7018  140.8561  156.0176 O   0  0  0  0  0  0  0  0  0  0  0  0
  151.5380  140.8543  157.3428 N   0  0  0  0  0  0  0  0  0  0  0  0
  151.2153  142.0368  158.1354 C   0  0  0  0  0  0  0  0  0  0  0  0
  151.2726  143.3252  157.2879 C   0  0  0  0  0  0  0  0  0  0  0  0
  152.1137  144.3208  158.0883 C   0  0  0  0  0  0  0  0  0  0  0  0
  153.0792  143.4436  158.8784 C   0  0  0  0  0  0  0  0  0  0  0  0
  152.2404  142.2261  159.2689 C   0  0  0  0  0  0  0  0  0  0  0  0
  156.8272  138.7019  152.6938 S   0  0  0  0  0  0  0  0  0  0  0  0
  158.1418  136.1199  151.0506 H   0  0  0  0  0  0  0  0  0  0  0  0
  159.1558  135.8172  152.4734 H   0  0  0  0  0  0  0  0  0  0  0  0
  159.2209  137.3882  151.6584 H   0  0  0  0  0  0  0  0  0  0  0  0
  152.7492  140.2674  154.5667 H   0  0  0  0  0  0  0  0  0  0  0  0
  151.3913  138.2753  156.3278 H   0  0  0  0  0  0  0  0  0  0  0  0
  149.3678  138.5476  154.8545 H   0  0  0  0  0  0  0  0  0  0  0  0
  150.7169  137.8721  153.9545 H   0  0  0  0  0  0  0  0  0  0  0  0
  150.2936  139.5678  153.7542 H   0  0  0  0  0  0  0  0  0  0  0  0
  152.4108  140.3897  157.5467 H   0  0  0  0  0  0  0  0  0  0  0  0
  150.2232  141.9173  158.5744 H   0  0  0  0  0  0  0  0  0  0  0  0
  151.7651  143.1352  156.3324 H   0  0  0  0  0  0  0  0  0  0  0  0
  150.2792  143.7150  157.0639 H   0  0  0  0  0  0  0  0  0  0  0  0
  152.6249  145.0443  157.4527 H   0  0  0  0  0  0  0  0  0  0  0  0
  151.4737  144.8741  158.7768 H   0  0  0  0  0  0  0  0  0  0  0  0
  153.9028  143.1322  158.2343 H   0  0  0  0  0  0  0  0  0  0  0  0
  153.5045  143.9559  159.7419 H   0  0  0  0  0  0  0  0  0  0  0  0
  151.7109  142.4408  160.1982 H   0  0  0  0  0  0  0  0  0  0  0  0
  152.8568  141.3445  159.4497 H   0  0  0  0  0  0  0  0  0  0  0  0
  1  2  1  0  0  0  0
  1 21  1  0  0  0  0
  1 22  1  0  0  0  0
  1 23  1  0  0  0  0
  2 20  1  0  0  0  0
  2  3  2  0  0  0  0
  3  4  1  0  0  0  0
  4  5  2  0  0  0  0
  5  6  1  0  0  0  0
  5 20  1  0  0  0  0
  6  7  1  0  0  0  0
  7  8  2  0  0  0  0
  7  9  1  0  0  0  0
  9 10  1  0  0  0  0
  9 24  1  0  0  0  0
 10 11  1  0  0  0  0
 10 12  1  0  0  0  0
 10 25  1  0  0  0  0
 11 26  1  0  0  0  0
 11 27  1  0  0  0  0
 11 28  1  0  0  0  0
 12 13  2  0  0  0  0
 12 14  1  0  0  0  0
 14 15  1  0  0  0  0
 14 29  1  0  0  0  0
 15 19  1  0  0  0  0
 15 16  1  0  0  0  0
 15 30  1  0  0  0  0
 16 17  1  0  0  0  0
 16 31  1  0  0  0  0
 16 32  1  0  0  0  0
 17 18  1  0  0  0  0
 17 33  1  0  0  0  0
 17 34  1  0  0  0  0
 18 19  1  0  0  0  0
 18 35  1  0  0  0  0
 18 36  1  0  0  0  0
 19 37  1  0  0  0  0
 19 38  1  0  0  0  0
M  CHG  1   6  -1
M  END
> <s_m_source_file>
AV-unprocessed.smi

> <i_m_source_file_index>
826

> <i_lp_mmshare_version>
43012

> <i_f3d_flags>
0

> <s_epik_input>
W0NIM11jMW5uYyhzMSlbTkhdQyg9TylbTkhdW0NASF0oW0NIM10pQyg9TylbTkhdW0NIXTJbQ0gyXVtDSDJdW0NIMl1bQ0gyXTI=

> <s_epik_cmdline>
J2VwaWtfcHl0aG9uJywgJy1waCcsICc3LjAnLCAnLXRuJywgJzgnLCAnLW1hJywgJzIwMCcsICctbWV0YWxfYmluZGluZycsICctaW1hZScsICc8aW5maWxlLm1hZT4nLCAnLW9tYWUnLCAnPG91dGZpbGUubWFlPic=

> <r_lp_tautomer_probability>
1

> <r_epik_Ionization_Penalty>
3.15008

> <r_epik_Ionization_Penalty_Charging>
3.01509

> <r_epik_Ionization_Penalty_Neutral>
0.134987

> <r_epik_State_Penalty>
3.01143

> <r_epik_Charging_Adjusted_Penalty>
6.02652

> <i_epik_Tot_Q>
-1

> <i_epik_Tot_abs_Q>
1

> <r_epik_Metal_State_Penalty>
0.454645

> <b_epik_Metal_Only>
1

> <s_lp_Force_Field>
OPLS_2005

> <r_lp_Energy>
15.3268

> <b_lp_Chiralities_Consistent>
1

> <s_lp_Variant>
AV-unprocessed.smi:826-3

> <Gold.Version>
5.8.1

> <Gold.Id.Protein>
6NUR|6NUR_protein|mol2

> <Gold.PLP.Fitness>
45.2768

> <Gold.PLP.PLP>
-39.6963

> <Gold.PLP.part.hbond>
-3.6854

> <Gold.PLP.part.metal>
0.0000

> <Gold.PLP.part.buried>
-3.0032

> <Gold.PLP.part.nonpolar>
-35.8513

> <Gold.PLP.part.repulsive>
1.5319

> <Gold.PLP.ligand.clash>
0.0000

> <Gold.PLP.ligand.torsion>
0.5345

> <Gold.PLP.Chemscore.Hbond>
2.1871

> <Gold.PLP.Chemscore.CHOScore>
0.0000

> <Gold.PLP.Chemscore.Metal>
0.0000

> <Gold.Chemscore.Hbonds>
donor molecule, donor type, donor heavy atom, donor atom, acceptor molecule, acceptor atom, score
      P1  H  7997  8010       L1     6  1.36
      P1  H 10752 10763       L1     4  0.29
      P1  H 10752 10765       L1     8  0.13

> <Gold.PLP.Chemscore.Internal.Correction>
0.0883

> <Gold.Rescore>
     Score         DG    S(hbond)    S(metal)    S(lipo)     H(rot)  DE(clash)    DE(int)     intcor
     13.17     -15.34       0.56        0.00     103.79       1.62       0.11       2.06       ----

> <Gold.Chemscore.Fitness>
13.1729

> <Gold.Chemscore.DG>
-15.3426

> <Gold.Chemscore.ZeroCoef>
-5.4800

> <Gold.Chemscore.Hbond>
0.5589

> <Gold.Chemscore.Metal>
0.0000

> <Gold.Chemscore.Lipo>
103.7891

> <Gold.Chemscore.Internal_Hbond>
0.0000

> <Gold.Chemscore.DEClash>
0.1128

> <Gold.Chemscore.DEInternal>
2.0570

> <Gold.Chemscore.Rot>
1.6201

> <Gold.Chemscore.Internal.Correction>
   9.000000E+99

> <Gold.Chemscore.Hbonds>
donor molecule, donor type, donor heavy atom, donor atom, acceptor molecule, acceptor atom, score
      P1  H  7997  8010       L1     6  0.15
      P1  H 10752 10763       L1     4  0.02
      P1  H 10752 10765       L1     8  0.13

> <Gold.Chemscore.Hbond.Weighted>
-1.8668

> <Gold.Chemscore.Metal.Weighted>
-0.0000

> <Gold.Chemscore.Lipo.Weighted>
-12.1433

> <Gold.Chemscore.Internal_Hbond.Weighted>
0.0000

> <Gold.Chemscore.DEClash.Weighted>
0.1128

> <Gold.Chemscore.DEInternal.Weighted>
2.0570

> <Gold.Chemscore.Rot.Weighted>
4.1475

> <Gold.Chemscore.Internal.Correction.Weighted>
   9.000000E+99

> <Gold.Protein.RotatedTorsions>
[ 6907 6896 6895 6894 ] final   11.96 input  -60.11 | X-H torsion
[ 7974 7965 7964 7962 ] final -148.61 input  175.53 | X-H torsion
[ 8008 7997 7996 7995 ] final  150.56 input   59.86 | X-H torsion
[ 10167 10162 10161 10158 ] final   47.94 input  -65.29 | X-H torsion
[ 10718 10713 10712 10709 ] final  -34.93 input   66.30 | X-H torsion
[ 10763 10752 10751 10750 ] final -147.50 input  -60.55 | X-H torsion
[ 11005 11000 10999 10996 ] final  -14.76 input  -57.11 | X-H torsion

> <Gold.Protein.ActiveResidues>
 VAL166  LYS551  ARG553  GLY616  TRP617  ASP618  TYR619  PRO620  LYS621  CYS622 
 ASP623  PHE694  ASN695  SER759  ASP760  ASP761  ALA762  ILE779  LEU786  VAL792 
 PHE793  MET794  SER795  GLU796  ALA797  LYS798  CYS799  TRP800  GLU811  SER814 

> <Gold.Protein.RotatedAtoms>
  151.7627  135.0806  160.0347 H   0  0  0  0  0  0  0  0  0  0  0  0  # atno 6907 bound_to 6896
  152.3342  133.5988  159.5839 H   0  0  0  0  0  0  0  0  0  0  0  0  # atno 6908 bound_to 6896
  150.7440  133.9737  159.3596 H   0  0  0  0  0  0  0  0  0  0  0  0  # atno 6909 bound_to 6896
  144.8019  140.5174  143.5701 H   0  0  0  0  0  0  0  0  0  0  0  0  # atno 7974 bound_to 7965
  156.2710  140.2071  156.6037 H   0  0  0  0  0  0  0  0  0  0  0  0  # atno 8008 bound_to 7997
  154.6886  140.0532  157.0364 H   0  0  0  0  0  0  0  0  0  0  0  0  # atno 8009 bound_to 7997
  155.0898  140.3195  155.4580 H   0  0  0  0  0  0  0  0  0  0  0  0  # atno 8010 bound_to 7997
  140.2985  144.2963  150.6224 H   0  0  0  0  0  0  0  0  0  0  0  0  # atno 10167 bound_to 10162
  156.3446  130.4299  149.7757 H   0  0  0  0  0  0  0  0  0  0  0  0  # atno 10718 bound_to 10713
  154.8282  135.3358  154.6827 H   0  0  0  0  0  0  0  0  0  0  0  0  # atno 10763 bound_to 10752
  153.7450  135.6943  153.4963 H   0  0  0  0  0  0  0  0  0  0  0  0  # atno 10764 bound_to 10752
  153.2216  135.4447  155.0447 H   0  0  0  0  0  0  0  0  0  0  0  0  # atno 10765 bound_to 10752
  140.7897  133.8298  155.9368 H   0  0  0  0  0  0  0  0  0  0  0  0  # atno 11005 bound_to 11000
  145.5533  139.1477  143.3382 LP  0  0  0  0  0  0  0  0  0  0  0  0  # atno 17320 bound_to 7965
  146.2302  140.5671  142.8979 LP  0  0  0  0  0  0  0  0  0  0  0  0  # atno 17321 bound_to 7965
  140.5672  143.2185  151.7663 LP  0  0  0  0  0  0  0  0  0  0  0  0  # atno 17342 bound_to 10162
  139.4921  144.4267  151.9917 LP  0  0  0  0  0  0  0  0  0  0  0  0  # atno 17343 bound_to 10162
  156.4980  130.8116  151.3121 LP  0  0  0  0  0  0  0  0  0  0  0  0  # atno 17370 bound_to 10713
  157.7452  130.9954  150.2741 LP  0  0  0  0  0  0  0  0  0  0  0  0  # atno 17371 bound_to 10713
  140.9402  134.1911  157.4803 LP  0  0  0  0  0  0  0  0  0  0  0  0  # atno 17394 bound_to 11000
  139.8732  134.9868  156.5342 LP  0  0  0  0  0  0  0  0  0  0  0  0  # atno 17395 bound_to 11000

$$$$
