AV-unprocessed.smi:1213|AV-procd|sdf|5086|dock1
  -GOLD-   22720 4133D 1   1.00000     0.00000
 Structure written by MMmdl.
 37 38  0  0  0  0  0  0  0  0  2 V2000
  147.4820  138.7780  151.7959 N   0  0  0  0  0  0  0  0  0  0  0  0
  147.3070  139.3103  153.0076 C   0  0  0  0  0  0  0  0  0  0  0  0
  147.0140  140.4940  153.1673 O   0  0  0  0  0  0  0  0  0  0  0  0
  147.5089  138.3779  154.2072 C   0  0  0  0  0  0  0  0  0  0  0  0
  148.8830  137.8181  154.2870 N   0  3  2  0  0  0  0  0  0  0  0  0
  149.0249  136.8177  155.3754 C   0  0  0  0  0  0  0  0  0  0  0  0
  150.4110  136.1475  155.3419 C   0  0  0  0  0  0  0  0  0  0  0  0
  151.5546  137.1759  155.3908 C   0  0  2  0  0  0  0  0  0  0  0  0
  151.6518  137.7727  156.7229 N   0  0  0  0  0  0  0  0  0  0  0  0
  152.2696  138.9284  157.0090 C   0  0  0  0  0  0  0  0  0  0  0  0
  152.8281  139.6251  156.1615 O   0  0  0  0  0  0  0  0  0  0  0  0
  152.1906  139.2123  158.3209 N   0  0  0  0  0  0  0  0  0  0  0  0
  152.6991  140.3484  159.0040 C   0  0  0  0  0  0  0  0  0  0  0  0
  152.4188  141.6147  158.6747 N   0  0  0  0  0  0  0  0  0  0  0  0
  153.0544  142.5289  159.5186 C   0  0  0  0  0  0  0  0  0  0  0  0
  153.8190  141.9370  160.4929 C   0  0  0  0  0  0  0  0  0  0  0  0
  153.7724  140.1975  160.3874 S   0  0  0  0  0  0  0  0  0  0  0  0
  151.3414  138.2420  154.2972 C   0  0  0  0  0  0  0  0  0  0  0  0
  149.9365  138.8650  154.3668 C   0  0  0  0  0  0  0  0  0  0  0  0
  147.3655  139.3547  150.9742 H   0  0  0  0  0  0  0  0  0  0  0  0
  147.7351  137.8052  151.6987 H   0  0  0  0  0  0  0  0  0  0  0  0
  147.2585  138.8910  155.1373 H   0  0  0  0  0  0  0  0  0  0  0  0
  146.7887  137.5666  154.0936 H   0  0  0  0  0  0  0  0  0  0  0  0
  148.8576  137.3006  156.3392 H   0  0  0  0  0  0  0  0  0  0  0  0
  148.2580  136.0493  155.2702 H   0  0  0  0  0  0  0  0  0  0  0  0
  150.5049  135.4365  156.1638 H   0  0  0  0  0  0  0  0  0  0  0  0
  150.4983  135.5620  154.4254 H   0  0  0  0  0  0  0  0  0  0  0  0
  152.4899  136.6496  155.1911 H   0  0  0  0  0  0  0  0  0  0  0  0
  151.2274  137.2631  157.4841 H   0  0  0  0  0  0  0  0  0  0  0  0
  151.7043  138.5431  158.8987 H   0  0  0  0  0  0  0  0  0  0  0  0
  152.9065  143.5859  159.3539 H   0  0  0  0  0  0  0  0  0  0  0  0
  154.4043  142.4173  161.2629 H   0  0  0  0  0  0  0  0  0  0  0  0
  152.1003  139.0223  154.3648 H   0  0  0  0  0  0  0  0  0  0  0  0
  151.4755  137.7797  153.3183 H   0  0  0  0  0  0  0  0  0  0  0  0
  149.8234  139.5761  153.5482 H   0  0  0  0  0  0  0  0  0  0  0  0
  149.8202  139.4329  155.2913 H   0  0  0  0  0  0  0  0  0  0  0  0
  149.0305  137.3185  153.4212 H   0  0  0  0  0  0  0  0  0  0  0  0
  1  2  1  0  0  0  0
  1 20  1  0  0  0  0
  1 21  1  0  0  0  0
  2  3  2  0  0  0  0
  2  4  1  0  0  0  0
  4  5  1  0  0  0  0
  4 22  1  0  0  0  0
  4 23  1  0  0  0  0
  5 19  1  0  0  0  0
  5  6  1  0  0  0  0
  5 37  1  0  0  0  0
  6  7  1  0  0  0  0
  6 24  1  0  0  0  0
  6 25  1  0  0  0  0
  7  8  1  0  0  0  0
  7 26  1  0  0  0  0
  7 27  1  0  0  0  0
  8  9  1  0  0  0  0
  8 18  1  0  0  0  0
  8 28  1  0  0  0  0
  9 10  1  0  0  0  0
  9 29  1  0  0  0  0
 10 11  2  0  0  0  0
 10 12  1  0  0  0  0
 12 13  1  0  0  0  0
 12 30  1  0  0  0  0
 13 17  1  0  0  0  0
 13 14  2  0  0  0  0
 14 15  1  0  0  0  0
 15 16  2  0  0  0  0
 15 31  1  0  0  0  0
 16 17  1  0  0  0  0
 16 32  1  0  0  0  0
 18 19  1  0  0  0  0
 18 33  1  0  0  0  0
 18 34  1  0  0  0  0
 19 35  1  0  0  0  0
 19 36  1  0  0  0  0
M  CHG  1   5   1
M  END
> <s_m_source_file>
AV-unprocessed.smi

> <i_m_source_file_index>
1213

> <i_lp_mmshare_version>
43012

> <i_f3d_flags>
0

> <s_epik_input>
W05IMl1DKD1PKVtDSDJdTjFbQ0gyXVtDSDJdW0NIXShbQ0gyXVtDSDJdMSlbTkhdQyg9TylbTkhdYzJuW2NIXVtjSF1zMg==

> <s_epik_cmdline>
J2VwaWtfcHl0aG9uJywgJy1waCcsICc3LjAnLCAnLXRuJywgJzgnLCAnLW1hJywgJzIwMCcsICctbWV0YWxfYmluZGluZycsICctaW1hZScsICc8aW5maWxlLm1hZT4nLCAnLW9tYWUnLCAnPG91dGZpbGUubWFlPic=

> <r_lp_tautomer_probability>
0.999

> <r_epik_Ionization_Penalty>
0.86253

> <r_epik_Ionization_Penalty_Charging>
0.862349

> <r_epik_Ionization_Penalty_Neutral>
0.000180085

> <r_epik_State_Penalty>
0.898939

> <r_epik_Charging_Adjusted_Penalty>
1.76129

> <i_epik_Tot_Q>
1

> <i_epik_Tot_abs_Q>
1

> <r_epik_Metal_State_Penalty>
0.948529

> <b_epik_Metal_Only>
0

> <s_lp_Force_Field>
OPLS_2005

> <r_lp_Energy>
11.1317

> <b_lp_Chiralities_Consistent>
1

> <s_lp_Variant>
AV-unprocessed.smi:1213-3

> <Gold.Version>
5.8.1

> <Gold.Id.Protein>
6NUR|6NUR_protein|mol2

> <Gold.PLP.Fitness>
42.1797

> <Gold.PLP.PLP>
-31.7368

> <Gold.PLP.part.hbond>
-4.0000

> <Gold.PLP.part.metal>
0.0000

> <Gold.PLP.part.buried>
-4.8917

> <Gold.PLP.part.nonpolar>
-22.9486

> <Gold.PLP.part.repulsive>
0.4501

> <Gold.PLP.ligand.clash>
0.0000

> <Gold.PLP.ligand.torsion>
0.7952

> <Gold.PLP.Chemscore.Hbond>
4.0000

> <Gold.PLP.Chemscore.CHOScore>
0.0000

> <Gold.PLP.Chemscore.Metal>
0.0000

> <Gold.Chemscore.Hbonds>
donor molecule, donor type, donor heavy atom, donor atom, acceptor molecule, acceptor atom, score
      L1  H     1    21       P1  7948  1.00
      L1  H     5    37       P1  7948  2.00
      P1  H  7997  8009       L1    11  1.00

> <Gold.PLP.Chemscore.Internal.Correction>
0.0334

> <Gold.Rescore>
     Score         DG    S(hbond)    S(metal)    S(lipo)     H(rot)  DE(clash)    DE(int)     intcor
     15.19     -17.22       2.98        0.00      60.31       2.06       0.02       2.02       ----

> <Gold.Chemscore.Fitness>
15.1854

> <Gold.Chemscore.DG>
-17.2217

> <Gold.Chemscore.ZeroCoef>
-5.4800

> <Gold.Chemscore.Hbond>
2.9841

> <Gold.Chemscore.Metal>
0.0000

> <Gold.Chemscore.Lipo>
60.3127

> <Gold.Chemscore.Internal_Hbond>
0.0000

> <Gold.Chemscore.DEClash>
0.0174

> <Gold.Chemscore.DEInternal>
2.0190

> <Gold.Chemscore.Rot>
2.0631

> <Gold.Chemscore.Internal.Correction>
   9.000000E+99

> <Gold.Chemscore.Hbonds>
donor molecule, donor type, donor heavy atom, donor atom, acceptor molecule, acceptor atom, score
      L1  H     1    21       P1  7948  0.97
      L1  H     5    37       P1  7948  1.00
      P1  H  7997  8009       L1    11  0.85

> <Gold.Chemscore.Hbond.Weighted>
-9.9668

> <Gold.Chemscore.Metal.Weighted>
-0.0000

> <Gold.Chemscore.Lipo.Weighted>
-7.0566

> <Gold.Chemscore.Internal_Hbond.Weighted>
0.0000

> <Gold.Chemscore.DEClash.Weighted>
0.0174

> <Gold.Chemscore.DEInternal.Weighted>
2.0190

> <Gold.Chemscore.Rot.Weighted>
5.2816

> <Gold.Chemscore.Internal.Correction.Weighted>
   9.000000E+99

> <Gold.Protein.RotatedTorsions>
[ 6907 6896 6895 6894 ] final   79.50 input  -60.11 | X-H torsion
[ 7974 7965 7964 7962 ] final  150.78 input  175.53 | X-H torsion
[ 8008 7997 7996 7995 ] final -178.50 input   59.86 | X-H torsion
[ 10167 10162 10161 10158 ] final  140.53 input  -65.29 | X-H torsion
[ 10718 10713 10712 10709 ] final   40.25 input   66.30 | X-H torsion
[ 10763 10752 10751 10750 ] final  -17.74 input  -60.55 | X-H torsion
[ 11005 11000 10999 10996 ] final  168.37 input  -57.11 | X-H torsion

> <Gold.Protein.ActiveResidues>
 VAL166  LYS551  ARG553  GLY616  TRP617  ASP618  TYR619  PRO620  LYS621  CYS622 
 ASP623  PHE694  ASN695  SER759  ASP760  ASP761  ALA762  ILE779  LEU786  VAL792 
 PHE793  MET794  SER795  GLU796  ALA797  LYS798  CYS799  TRP800  GLU811  SER814 

> <Gold.Protein.RotatedAtoms>
  152.5201  134.3502  159.9248 H   0  0  0  0  0  0  0  0  0  0  0  0  # atno 6907 bound_to 6896
  151.3452  133.3940  159.2682 H   0  0  0  0  0  0  0  0  0  0  0  0  # atno 6908 bound_to 6896
  150.9771  134.9151  159.7880 H   0  0  0  0  0  0  0  0  0  0  0  0  # atno 6909 bound_to 6896
  144.8340  139.6452  143.6046 H   0  0  0  0  0  0  0  0  0  0  0  0  # atno 7974 bound_to 7965
  156.0195  140.1258  157.0372 H   0  0  0  0  0  0  0  0  0  0  0  0  # atno 8008 bound_to 7997
  154.4306  140.1071  156.6013 H   0  0  0  0  0  0  0  0  0  0  0  0  # atno 8009 bound_to 7997
  155.5965  140.3470  155.4583 H   0  0  0  0  0  0  0  0  0  0  0  0  # atno 8010 bound_to 7997
  139.5046  144.6228  151.6009 H   0  0  0  0  0  0  0  0  0  0  0  0  # atno 10167 bound_to 10162
  157.3800  130.7748  149.7185 H   0  0  0  0  0  0  0  0  0  0  0  0  # atno 10718 bound_to 10713
  153.5785  135.7005  153.5473 H   0  0  0  0  0  0  0  0  0  0  0  0  # atno 10763 bound_to 10752
  153.3282  135.4055  155.1473 H   0  0  0  0  0  0  0  0  0  0  0  0  # atno 10764 bound_to 10752
  154.8621  135.3712  154.5311 H   0  0  0  0  0  0  0  0  0  0  0  0  # atno 10765 bound_to 10752
  140.2866  134.7707  157.3803 H   0  0  0  0  0  0  0  0  0  0  0  0  # atno 11005 bound_to 11000
  146.2640  139.6477  142.9342 LP  0  0  0  0  0  0  0  0  0  0  0  0  # atno 17320 bound_to 7965
  145.4835  141.0438  143.2632 LP  0  0  0  0  0  0  0  0  0  0  0  0  # atno 17321 bound_to 7965
  140.5936  143.9736  150.6340 LP  0  0  0  0  0  0  0  0  0  0  0  0  # atno 17342 bound_to 10162
  140.2924  143.3315  152.1049 LP  0  0  0  0  0  0  0  0  0  0  0  0  # atno 17343 bound_to 10162
  155.9773  130.4064  150.3718 LP  0  0  0  0  0  0  0  0  0  0  0  0  # atno 17370 bound_to 10713
  157.1820  131.0394  151.2743 LP  0  0  0  0  0  0  0  0  0  0  0  0  # atno 17371 bound_to 10713
  140.1234  134.5189  155.8164 LP  0  0  0  0  0  0  0  0  0  0  0  0  # atno 17394 bound_to 11000
  141.2154  133.6764  156.6908 LP  0  0  0  0  0  0  0  0  0  0  0  0  # atno 17395 bound_to 11000

$$$$
