AV-unprocessed.smi:3031|AV-procd|sdf|11541|dock4
  -GOLD-   2272016493D 1   1.00000     0.00000
 Structure written by MMmdl.
 47 48  0  0  0  0  0  0  0  0  2 V2000
  145.3795  130.1429  151.7045 C   0  0  0  0  0  0  0  0  0  0  0  0
  144.9578  131.5105  151.2502 C   0  0  0  0  0  0  0  0  0  0  0  0
  143.7945  131.8677  150.5105 C   0  0  0  0  0  0  0  0  0  0  0  0
  143.7183  133.1663  150.2685 N   0  0  0  0  0  0  0  0  0  0  0  0
  144.8253  133.6818  150.8434 N   0  0  0  0  0  0  0  0  0  0  0  0
  145.0817  135.1081  150.7643 C   0  0  0  0  0  0  0  0  0  0  0  0
  145.2094  135.7722  152.1515 C   0  0  2  0  0  0  0  0  0  0  0  0
  143.8250  136.1152  152.7179 C   0  0  0  0  0  0  0  0  0  0  0  0
  146.0304  137.0027  152.0834 N   0  3  0  0  0  0  0  0  0  0  0  0
  145.8416  137.9463  153.2067 C   0  0  0  0  0  0  0  0  0  0  0  0
  146.9361  139.0293  153.2207 C   0  0  2  0  0  0  0  0  0  0  0  0
  146.8971  139.6835  151.9670 O   0  0  0  0  0  0  0  0  0  0  0  0
  148.3836  138.5140  153.3939 C   0  0  0  0  0  0  0  0  0  0  0  0
  149.1602  139.1182  154.4806 N   0  0  0  0  0  0  0  0  0  0  0  0
  150.5524  138.6666  154.4988 C   0  0  0  0  0  0  0  0  0  0  0  0
  151.3565  139.3240  155.6344 C   0  0  0  0  0  0  0  0  0  0  0  0
  151.3003  140.7396  155.5000 O   0  0  0  0  0  0  0  0  0  0  0  0
  149.9672  141.2376  155.5076 C   0  0  0  0  0  0  0  0  0  0  0  0
  149.1637  140.5758  154.3744 C   0  0  0  0  0  0  0  0  0  0  0  0
  145.5905  132.7055  151.4446 C   0  0  0  0  0  0  0  0  0  0  0  0
  144.6056  129.3972  151.5207 H   0  0  0  0  0  0  0  0  0  0  0  0
  145.5959  130.1230  152.7729 H   0  0  0  0  0  0  0  0  0  0  0  0
  146.2782  129.8070  151.1869 H   0  0  0  0  0  0  0  0  0  0  0  0
  143.0083  131.2246  150.1428 H   0  0  0  0  0  0  0  0  0  0  0  0
  145.9831  135.2769  150.1721 H   0  0  0  0  0  0  0  0  0  0  0  0
  144.2595  135.5609  150.2087 H   0  0  0  0  0  0  0  0  0  0  0  0
  145.6750  135.0666  152.8419 H   0  0  0  0  0  0  0  0  0  0  0  0
  143.2062  135.2220  152.8101 H   0  0  0  0  0  0  0  0  0  0  0  0
  143.2954  136.8212  152.0769 H   0  0  0  0  0  0  0  0  0  0  0  0
  143.9054  136.5606  153.7100 H   0  0  0  0  0  0  0  0  0  0  0  0
  147.0048  136.7374  152.0438 H   0  0  0  0  0  0  0  0  0  0  0  0
  144.8624  138.3977  153.0659 H   0  0  0  0  0  0  0  0  0  0  0  0
  145.8246  137.4132  154.1573 H   0  0  0  0  0  0  0  0  0  0  0  0
  146.7184  139.7692  153.9921 H   0  0  0  0  0  0  0  0  0  0  0  0
  147.7346  139.5721  151.5427 H   0  0  0  0  0  0  0  0  0  0  0  0
  148.3993  137.4258  153.4732 H   0  0  0  0  0  0  0  0  0  0  0  0
  148.8935  138.7344  152.4542 H   0  0  0  0  0  0  0  0  0  0  0  0
  150.6163  137.5890  154.6124 H   0  0  0  0  0  0  0  0  0  0  0  0
  151.0288  138.9014  153.5456 H   0  0  0  0  0  0  0  0  0  0  0  0
  150.9647  139.0266  156.6084 H   0  0  0  0  0  0  0  0  0  0  0  0
  152.3981  139.0043  155.5963 H   0  0  0  0  0  0  0  0  0  0  0  0
  149.5035  141.0417  156.4756 H   0  0  0  0  0  0  0  0  0  0  0  0
  149.9895  142.3195  155.3758 H   0  0  0  0  0  0  0  0  0  0  0  0
  149.5809  140.8767  153.4118 H   0  0  0  0  0  0  0  0  0  0  0  0
  148.1406  140.9524  154.4022 H   0  0  0  0  0  0  0  0  0  0  0  0
  146.5145  132.9390  151.9528 H   0  0  0  0  0  0  0  0  0  0  0  0
  145.7978  137.4936  151.2322 H   0  0  0  0  0  0  0  0  0  0  0  0
  1  2  1  0  0  0  0
  1 21  1  0  0  0  0
  1 22  1  0  0  0  0
  1 23  1  0  0  0  0
  2 20  2  0  0  0  0
  2  3  1  0  0  0  0
  3  4  2  0  0  0  0
  3 24  1  0  0  0  0
  4  5  1  0  0  0  0
  5  6  1  0  0  0  0
  5 20  1  0  0  0  0
  6  7  1  0  0  0  0
  6 25  1  0  0  0  0
  6 26  1  0  0  0  0
  7  8  1  0  0  0  0
  7  9  1  0  0  0  0
  7 27  1  0  0  0  0
  8 28  1  0  0  0  0
  8 29  1  0  0  0  0
  8 30  1  0  0  0  0
  9 10  1  0  0  0  0
  9 31  1  0  0  0  0
  9 47  1  0  0  0  0
 10 11  1  0  0  0  0
 10 32  1  0  0  0  0
 10 33  1  0  0  0  0
 11 12  1  0  0  0  0
 11 13  1  0  0  0  0
 11 34  1  0  0  0  0
 12 35  1  0  0  0  0
 13 14  1  0  0  0  0
 13 36  1  0  0  0  0
 13 37  1  0  0  0  0
 14 19  1  0  0  0  0
 14 15  1  0  0  0  0
 15 16  1  0  0  0  0
 15 38  1  0  0  0  0
 15 39  1  0  0  0  0
 16 17  1  0  0  0  0
 16 40  1  0  0  0  0
 16 41  1  0  0  0  0
 17 18  1  0  0  0  0
 18 19  1  0  0  0  0
 18 42  1  0  0  0  0
 18 43  1  0  0  0  0
 19 44  1  0  0  0  0
 19 45  1  0  0  0  0
 20 46  1  0  0  0  0
M  CHG  1   9   1
M  END
> <s_m_source_file>
AV-unprocessed.smi

> <i_m_source_file_index>
3031

> <i_lp_mmshare_version>
43012

> <i_f3d_flags>
0

> <s_epik_input>
W0NIM11jMVtjSF1ubihbY0hdMSlbQ0gyXVtDQEhdKFtDSDNdKVtOSF1bQ0gyXVtDQEhdKFtPSF0pW0NIMl1OMltDSDJdW0NIMl1PW0NIMl1bQ0gyXTI=

> <s_epik_cmdline>
J2VwaWtfcHl0aG9uJywgJy1waCcsICc3LjAnLCAnLXRuJywgJzgnLCAnLW1hJywgJzIwMCcsICctbWV0YWxfYmluZGluZycsICctaW1hZScsICc8aW5maWxlLm1hZT4nLCAnLW9tYWUnLCAnPG91dGZpbGUubWFlPic=

> <r_lp_tautomer_probability>
1

> <r_epik_Ionization_Penalty>
0.108564

> <r_epik_Ionization_Penalty_Charging>
0.01811

> <r_epik_Ionization_Penalty_Neutral>
0.0904541

> <r_epik_State_Penalty>
0.141043

> <r_epik_Charging_Adjusted_Penalty>
0.159153

> <i_epik_Tot_Q>
1

> <i_epik_Tot_abs_Q>
1

> <r_epik_Metal_State_Penalty>
0.141052

> <b_epik_Metal_Only>
0

> <s_lp_Force_Field>
OPLS_2005

> <r_lp_Energy>
31.5788

> <b_lp_Chiralities_Consistent>
1

> <s_lp_Variant>
AV-unprocessed.smi:3031-1

> <Gold.Version>
5.8.1

> <Gold.Id.Protein>
6NUR|6NUR_protein|mol2

> <Gold.PLP.Fitness>
48.8605

> <Gold.PLP.PLP>
-37.1366

> <Gold.PLP.part.hbond>
-3.0719

> <Gold.PLP.part.metal>
0.0000

> <Gold.PLP.part.buried>
-2.8646

> <Gold.PLP.part.nonpolar>
-32.5575

> <Gold.PLP.part.repulsive>
0.4297

> <Gold.PLP.ligand.clash>
0.0000

> <Gold.PLP.ligand.torsion>
1.2661

> <Gold.PLP.Chemscore.Hbond>
3.6768

> <Gold.PLP.Chemscore.CHOScore>
1.0000

> <Gold.PLP.Chemscore.Metal>
0.0000

> <Gold.Chemscore.Hbonds>
donor molecule, donor type, donor heavy atom, donor atom, acceptor molecule, acceptor atom, score
      L1  H     9    31       P1  7948  2.00
      L1  H    12    35       P1  7957  1.00
      P1  H  7989  7998       L1    17  0.66
      L1  C     3    24       P1 10952  1.00

> <Gold.PLP.Chemscore.Internal.Correction>
0.2257

> <Gold.Rescore>
     Score         DG    S(hbond)    S(metal)    S(lipo)     H(rot)  DE(clash)    DE(int)     intcor
     14.40     -16.96       2.01        0.00      98.40       2.63       1.25       1.31       ----

> <Gold.Chemscore.Fitness>
14.3993

> <Gold.Chemscore.DG>
-16.9647

> <Gold.Chemscore.ZeroCoef>
-5.4800

> <Gold.Chemscore.Hbond>
2.0051

> <Gold.Chemscore.Metal>
0.0000

> <Gold.Chemscore.Lipo>
98.3989

> <Gold.Chemscore.Internal_Hbond>
0.0000

> <Gold.Chemscore.DEClash>
1.2508

> <Gold.Chemscore.DEInternal>
1.3147

> <Gold.Chemscore.Rot>
2.6270

> <Gold.Chemscore.Internal.Correction>
   9.000000E+99

> <Gold.Chemscore.Hbonds>
donor molecule, donor type, donor heavy atom, donor atom, acceptor molecule, acceptor atom, score
      L1  H     9    31       P1  7948  0.96
      L1  H    12    35       P1  7957  0.98
      P1  H  7989  7998       L1    17  0.03

> <Gold.Chemscore.Hbond.Weighted>
-6.6972

> <Gold.Chemscore.Metal.Weighted>
-0.0000

> <Gold.Chemscore.Lipo.Weighted>
-11.5127

> <Gold.Chemscore.Internal_Hbond.Weighted>
0.0000

> <Gold.Chemscore.DEClash.Weighted>
1.2508

> <Gold.Chemscore.DEInternal.Weighted>
1.3147

> <Gold.Chemscore.Rot.Weighted>
6.7251

> <Gold.Chemscore.Internal.Correction.Weighted>
   9.000000E+99

> <Gold.Protein.RotatedTorsions>
[ 6907 6896 6895 6894 ] final -113.87 input  -60.11 | X-H torsion
[ 7974 7965 7964 7962 ] final  151.23 input  175.53 | X-H torsion
[ 8008 7997 7996 7995 ] final -156.15 input   59.86 | X-H torsion
[ 10167 10162 10161 10158 ] final  163.54 input  -65.29 | X-H torsion
[ 10718 10713 10712 10709 ] final  -28.59 input   66.30 | X-H torsion
[ 10763 10752 10751 10750 ] final  -11.04 input  -60.55 | X-H torsion
[ 11005 11000 10999 10996 ] final  -99.13 input  -57.11 | X-H torsion

> <Gold.Protein.ActiveResidues>
 VAL166  LYS551  ARG553  GLY616  TRP617  ASP618  TYR619  PRO620  LYS621  CYS622 
 ASP623  PHE694  ASN695  SER759  ASP760  ASP761  ALA762  ILE779  LEU786  VAL792 
 PHE793  MET794  SER795  GLU796  ALA797  LYS798  CYS799  TRP800  GLU811  SER814 

> <Gold.Protein.RotatedAtoms>
  150.7861  133.8882  159.3305 H   0  0  0  0  0  0  0  0  0  0  0  0  # atno 6907 bound_to 6896
  151.6732  135.0971  160.0211 H   0  0  0  0  0  0  0  0  0  0  0  0  # atno 6908 bound_to 6896
  152.3925  133.6660  159.6284 H   0  0  0  0  0  0  0  0  0  0  0  0  # atno 6909 bound_to 6896
  144.8307  139.6511  143.6060 H   0  0  0  0  0  0  0  0  0  0  0  0  # atno 7974 bound_to 7965
  155.7128  140.0780  157.2364 H   0  0  0  0  0  0  0  0  0  0  0  0  # atno 8008 bound_to 7997
  154.4056  140.1627  156.2369 H   0  0  0  0  0  0  0  0  0  0  0  0  # atno 8009 bound_to 7997
  155.9267  140.3394  155.6219 H   0  0  0  0  0  0  0  0  0  0  0  0  # atno 8010 bound_to 7997
  139.4875  144.4326  151.9052 H   0  0  0  0  0  0  0  0  0  0  0  0  # atno 10167 bound_to 10162
  156.4233  130.4431  149.7168 H   0  0  0  0  0  0  0  0  0  0  0  0  # atno 10718 bound_to 10713
  153.4780  135.7017  153.5954 H   0  0  0  0  0  0  0  0  0  0  0  0  # atno 10763 bound_to 10752
  153.4180  135.3832  155.2093 H   0  0  0  0  0  0  0  0  0  0  0  0  # atno 10764 bound_to 10752
  154.8723  135.3921  154.4226 H   0  0  0  0  0  0  0  0  0  0  0  0  # atno 10765 bound_to 10752
  141.1320  133.8298  157.0931 H   0  0  0  0  0  0  0  0  0  0  0  0  # atno 11005 bound_to 11000
  146.2610  139.6410  142.9362 LP  0  0  0  0  0  0  0  0  0  0  0  0  # atno 17320 bound_to 7965
  145.4902  141.0438  143.2597 LP  0  0  0  0  0  0  0  0  0  0  0  0  # atno 17321 bound_to 7965
  140.3774  144.2779  150.5912 LP  0  0  0  0  0  0  0  0  0  0  0  0  # atno 17342 bound_to 10162
  140.5264  143.2253  151.8308 LP  0  0  0  0  0  0  0  0  0  0  0  0  # atno 17343 bound_to 10162
  156.4100  130.7717  151.2730 LP  0  0  0  0  0  0  0  0  0  0  0  0  # atno 17370 bound_to 10713
  157.7508  131.0214  150.3749 LP  0  0  0  0  0  0  0  0  0  0  0  0  # atno 17371 bound_to 10713
  140.0380  134.9868  157.0908 LP  0  0  0  0  0  0  0  0  0  0  0  0  # atno 17394 bound_to 11000
  140.4180  134.1911  155.7164 LP  0  0  0  0  0  0  0  0  0  0  0  0  # atno 17395 bound_to 11000

$$$$
