AV-unprocessed.smi:3104|AV-procd|sdf|11818|dock6
  -GOLD-   2272017193D 1   1.00000     0.00000
 Structure written by MMmdl.
 37 38  0  0  0  0  0  0  0  0  2 V2000
  151.9289  145.5621  159.5342 C   0  0  0  0  0  0  0  0  0  0  0  0
  151.8548  144.1406  159.0569 C   0  0  0  0  0  0  0  0  0  0  0  0
  152.3009  142.9673  159.7284 C   0  0  0  0  0  0  0  0  0  0  0  0
  152.0868  141.8637  159.0313 N   0  0  0  0  0  0  0  0  0  0  0  0
  151.4954  142.2881  157.8940 N   0  0  0  0  0  0  0  0  0  0  0  0
  151.1194  141.3208  156.8707 C   0  0  1  0  0  0  0  0  0  0  0  0
  151.6306  139.9225  157.2633 C   0  0  0  0  0  0  0  0  0  0  0  0
  149.5952  141.3519  156.5798 C   0  0  1  0  0  0  0  0  0  0  0  0
  148.7547  141.7923  157.7921 C   0  0  0  0  0  0  0  0  0  0  0  0
  149.3056  142.2577  155.4457 N   0  3  0  0  0  0  0  0  0  0  0  0
  148.0079  142.0245  154.7812 C   0  0  0  0  0  0  0  0  0  0  0  0
  148.0523  140.7785  153.9223 C   0  0  0  0  0  0  0  0  0  0  0  0
  147.0178  140.5667  152.8412 C   0  0  0  0  0  0  0  0  0  0  0  0
  147.0085  139.6953  154.0725 C   0  0  0  0  0  0  0  0  0  0  0  0
  151.3468  143.6607  157.8835 C   0  0  0  0  0  0  0  0  0  0  0  0
  152.3798  145.6348  160.5242 H   0  0  0  0  0  0  0  0  0  0  0  0
  150.9398  146.0161  159.5982 H   0  0  0  0  0  0  0  0  0  0  0  0
  152.5252  146.1811  158.8639 H   0  0  0  0  0  0  0  0  0  0  0  0
  152.7718  142.8859  160.6972 H   0  0  0  0  0  0  0  0  0  0  0  0
  151.6376  141.6063  155.9528 H   0  0  0  0  0  0  0  0  0  0  0  0
  151.4963  139.2048  156.4539 H   0  0  0  0  0  0  0  0  0  0  0  0
  151.1095  139.5368  158.1399 H   0  0  0  0  0  0  0  0  0  0  0  0
  152.6961  139.9474  157.4949 H   0  0  0  0  0  0  0  0  0  0  0  0
  149.2715  140.3419  156.3214 H   0  0  0  0  0  0  0  0  0  0  0  0
  148.8455  141.0945  158.6248 H   0  0  0  0  0  0  0  0  0  0  0  0
  147.6960  141.8440  157.5354 H   0  0  0  0  0  0  0  0  0  0  0  0
  149.0589  142.7773  158.1485 H   0  0  0  0  0  0  0  0  0  0  0  0
  149.3142  143.2080  155.7884 H   0  0  0  0  0  0  0  0  0  0  0  0
  147.2134  141.9300  155.5225 H   0  0  0  0  0  0  0  0  0  0  0  0
  147.7673  142.8811  154.1506 H   0  0  0  0  0  0  0  0  0  0  0  0
  149.0593  140.4521  153.6682 H   0  0  0  0  0  0  0  0  0  0  0  0
  146.2260  141.3072  152.7439 H   0  0  0  0  0  0  0  0  0  0  0  0
  147.3496  140.1141  151.9089 H   0  0  0  0  0  0  0  0  0  0  0  0
  147.3349  138.6633  153.9603 H   0  0  0  0  0  0  0  0  0  0  0  0
  146.2092  139.8548  154.7937 H   0  0  0  0  0  0  0  0  0  0  0  0
  150.8957  144.1788  157.0500 H   0  0  0  0  0  0  0  0  0  0  0  0
  150.0436  142.1580  154.7632 H   0  0  0  0  0  0  0  0  0  0  0  0
  1  2  1  0  0  0  0
  1 16  1  0  0  0  0
  1 17  1  0  0  0  0
  1 18  1  0  0  0  0
  2 15  2  0  0  0  0
  2  3  1  0  0  0  0
  3  4  2  0  0  0  0
  3 19  1  0  0  0  0
  4  5  1  0  0  0  0
  5  6  1  0  0  0  0
  5 15  1  0  0  0  0
  6  7  1  0  0  0  0
  6  8  1  0  0  0  0
  6 20  1  0  0  0  0
  7 21  1  0  0  0  0
  7 22  1  0  0  0  0
  7 23  1  0  0  0  0
  8  9  1  0  0  0  0
  8 10  1  0  0  0  0
  8 24  1  0  0  0  0
  9 25  1  0  0  0  0
  9 26  1  0  0  0  0
  9 27  1  0  0  0  0
 10 11  1  0  0  0  0
 10 28  1  0  0  0  0
 10 37  1  0  0  0  0
 11 12  1  0  0  0  0
 11 29  1  0  0  0  0
 11 30  1  0  0  0  0
 12 14  1  0  0  0  0
 12 13  1  0  0  0  0
 12 31  1  0  0  0  0
 13 14  1  0  0  0  0
 13 32  1  0  0  0  0
 13 33  1  0  0  0  0
 14 34  1  0  0  0  0
 14 35  1  0  0  0  0
 15 36  1  0  0  0  0
M  CHG  1  10   1
M  END
> <s_m_source_file>
AV-unprocessed.smi

> <i_m_source_file_index>
3104

> <i_lp_mmshare_version>
43012

> <i_f3d_flags>
0

> <s_epik_input>
W0NIM11jMVtjSF1ubihbY0hdMSlbQ0BIXShbQ0gzXSlbQ0BIXShbQ0gzXSlbTkhdW0NIMl1bQ0hdMltDSDJdW0NIMl0y

> <s_epik_cmdline>
J2VwaWtfcHl0aG9uJywgJy1waCcsICc3LjAnLCAnLXRuJywgJzgnLCAnLW1hJywgJzIwMCcsICctbWV0YWxfYmluZGluZycsICctaW1hZScsICc8aW5maWxlLm1hZT4nLCAnLW9tYWUnLCAnPG91dGZpbGUubWFlPic=

> <r_lp_tautomer_probability>
1

> <r_epik_Ionization_Penalty>
0.00120445

> <r_epik_Ionization_Penalty_Charging>
0.00118273

> <r_epik_Ionization_Penalty_Neutral>
2.17265e-05

> <r_epik_State_Penalty>
-0

> <r_epik_Charging_Adjusted_Penalty>
0.00118273

> <i_epik_Tot_Q>
1

> <i_epik_Tot_abs_Q>
1

> <r_epik_Metal_State_Penalty>
-0

> <b_epik_Metal_Only>
0

> <s_lp_Force_Field>
OPLS_2005

> <r_lp_Energy>
22.3414

> <b_lp_Chiralities_Consistent>
1

> <s_lp_Variant>
AV-unprocessed.smi:3104-4

> <Gold.Version>
5.8.1

> <Gold.Id.Protein>
6NUR|6NUR_protein|mol2

> <Gold.PLP.Fitness>
39.9520

> <Gold.PLP.PLP>
-33.5575

> <Gold.PLP.part.hbond>
-0.9496

> <Gold.PLP.part.metal>
0.0000

> <Gold.PLP.part.buried>
-0.8463

> <Gold.PLP.part.nonpolar>
-30.8907

> <Gold.PLP.part.repulsive>
0.1841

> <Gold.PLP.ligand.clash>
0.0000

> <Gold.PLP.ligand.torsion>
1.6180

> <Gold.PLP.Chemscore.Hbond>
2.0000

> <Gold.PLP.Chemscore.CHOScore>
1.0000

> <Gold.PLP.Chemscore.Metal>
0.0000

> <Gold.Chemscore.Hbonds>
donor molecule, donor type, donor heavy atom, donor atom, acceptor molecule, acceptor atom, score
      L1  H    10    28       P1  8028  2.00
      L1  C    15    36       P1  8028  1.00

> <Gold.PLP.Chemscore.Internal.Correction>
0.6304

> <Gold.Rescore>
     Score         DG    S(hbond)    S(metal)    S(lipo)     H(rot)  DE(clash)    DE(int)     intcor
     14.72     -16.53       0.98        0.00      98.96       1.49       0.27       1.54       ----

> <Gold.Chemscore.Fitness>
14.7169

> <Gold.Chemscore.DG>
-16.5284

> <Gold.Chemscore.ZeroCoef>
-5.4800

> <Gold.Chemscore.Hbond>
0.9850

> <Gold.Chemscore.Metal>
0.0000

> <Gold.Chemscore.Lipo>
98.9646

> <Gold.Chemscore.Internal_Hbond>
0.0000

> <Gold.Chemscore.DEClash>
0.2695

> <Gold.Chemscore.DEInternal>
1.5419

> <Gold.Chemscore.Rot>
1.4923

> <Gold.Chemscore.Internal.Correction>
   9.000000E+99

> <Gold.Chemscore.Hbonds>
donor molecule, donor type, donor heavy atom, donor atom, acceptor molecule, acceptor atom, score
      L1  H    10    28       P1  8028  0.92

> <Gold.Chemscore.Hbond.Weighted>
-3.2899

> <Gold.Chemscore.Metal.Weighted>
-0.0000

> <Gold.Chemscore.Lipo.Weighted>
-11.5789

> <Gold.Chemscore.Internal_Hbond.Weighted>
0.0000

> <Gold.Chemscore.DEClash.Weighted>
0.2695

> <Gold.Chemscore.DEInternal.Weighted>
1.5419

> <Gold.Chemscore.Rot.Weighted>
3.8204

> <Gold.Chemscore.Internal.Correction.Weighted>
   9.000000E+99

> <Gold.Protein.RotatedTorsions>
[ 6907 6896 6895 6894 ] final  -50.79 input  -60.11 | X-H torsion
[ 7974 7965 7964 7962 ] final -132.83 input  175.53 | X-H torsion
[ 8008 7997 7996 7995 ] final  -51.68 input   59.86 | X-H torsion
[ 10167 10162 10161 10158 ] final -126.81 input  -65.29 | X-H torsion
[ 10718 10713 10712 10709 ] final  -55.40 input   66.30 | X-H torsion
[ 10763 10752 10751 10750 ] final  129.46 input  -60.55 | X-H torsion
[ 11005 11000 10999 10996 ] final -121.28 input  -57.11 | X-H torsion

> <Gold.Protein.ActiveResidues>
 VAL166  LYS551  ARG553  GLY616  TRP617  ASP618  TYR619  PRO620  LYS621  CYS622 
 ASP623  PHE694  ASN695  SER759  ASP760  ASP761  ALA762  ILE779  LEU786  VAL792 
 PHE793  MET794  SER795  GLU796  ALA797  LYS798  CYS799  TRP800  GLU811  SER814 

> <Gold.Protein.RotatedAtoms>
  150.8674  134.8040  159.7128 H   0  0  0  0  0  0  0  0  0  0  0  0  # atno 6907 bound_to 6896
  152.4690  134.5002  159.9732 H   0  0  0  0  0  0  0  0  0  0  0  0  # atno 6908 bound_to 6896
  151.5096  133.3449  159.2918 H   0  0  0  0  0  0  0  0  0  0  0  0  # atno 6909 bound_to 6896
  144.9249  140.7059  143.4942 H   0  0  0  0  0  0  0  0  0  0  0  0  # atno 7974 bound_to 7965
  154.4088  140.1242  156.4869 H   0  0  0  0  0  0  0  0  0  0  0  0  # atno 8008 bound_to 7997
  155.7029  140.3494  155.4921 H   0  0  0  0  0  0  0  0  0  0  0  0  # atno 8009 bound_to 7997
  155.9369  140.1080  157.1077 H   0  0  0  0  0  0  0  0  0  0  0  0  # atno 8010 bound_to 7997
  139.9675  143.5882  152.2424 H   0  0  0  0  0  0  0  0  0  0  0  0  # atno 10167 bound_to 10162
  156.1371  130.4156  150.0166 H   0  0  0  0  0  0  0  0  0  0  0  0  # atno 10718 bound_to 10713
  153.7421  135.3222  155.3306 H   0  0  0  0  0  0  0  0  0  0  0  0  # atno 10763 bound_to 10752
  154.8291  135.4547  154.1016 H   0  0  0  0  0  0  0  0  0  0  0  0  # atno 10764 bound_to 10752
  153.2194  135.6946  153.8100 H   0  0  0  0  0  0  0  0  0  0  0  0  # atno 10765 bound_to 10752
  141.0082  134.0304  157.3449 H   0  0  0  0  0  0  0  0  0  0  0  0  # atno 11005 bound_to 11000
  145.3236  139.1781  143.4574 LP  0  0  0  0  0  0  0  0  0  0  0  0  # atno 17320 bound_to 7965
  146.3221  140.3256  142.8636 LP  0  0  0  0  0  0  0  0  0  0  0  0  # atno 17321 bound_to 7965
  139.6506  144.7660  151.2155 LP  0  0  0  0  0  0  0  0  0  0  0  0  # atno 17342 bound_to 10162
  140.7533  143.6166  150.8553 LP  0  0  0  0  0  0  0  0  0  0  0  0  # atno 17343 bound_to 10162
  156.8062  130.9308  151.3645 LP  0  0  0  0  0  0  0  0  0  0  0  0  # atno 17370 bound_to 10713
  157.6542  130.8910  149.9695 LP  0  0  0  0  0  0  0  0  0  0  0  0  # atno 17371 bound_to 10713
  139.9075  135.0183  156.7548 LP  0  0  0  0  0  0  0  0  0  0  0  0  # atno 17394 bound_to 11000
  140.6778  133.9501  155.7893 LP  0  0  0  0  0  0  0  0  0  0  0  0  # atno 17395 bound_to 11000

$$$$
