AV-unprocessed.smi:1075|AV-procd|sdf|4694|dock5
  -GOLD-   22720 3213D 1   1.00000     0.00000
 Structure written by MMmdl.
 50 51  0  0  0  0  0  0  0  0  1 V2000
  146.2364  139.3378  156.4835 C   0  0  0  0  0  0  0  0  0  0  0  0
  147.5885  139.0153  157.0529 C   0  0  0  0  0  0  0  0  0  0  0  0
  148.5790  139.8755  156.8924 N   0  0  0  0  0  0  0  0  0  0  0  0
  149.6306  139.3092  157.5153 N   0  0  0  0  0  0  0  0  0  0  0  0
  150.9026  140.0054  157.5311 C   0  0  0  0  0  0  0  0  0  0  0  0
  149.3030  138.0897  158.0766 C   0  0  0  0  0  0  0  0  0  0  0  0
  150.3024  137.2754  158.8363 C   0  0  0  0  0  0  0  0  0  0  0  0
  147.9811  137.8584  157.7892 C   0  0  0  0  0  0  0  0  0  0  0  0
  147.0979  136.6828  158.1594 C   0  0  1  0  0  0  0  0  0  0  0  0
  147.5827  135.3739  157.5070 C   0  0  0  0  0  0  0  0  0  0  0  0
  146.9652  136.5888  159.6892 C   0  0  0  0  0  0  0  0  0  0  0  0
  147.7918  137.1267  160.4262 O   0  0  0  0  0  0  0  0  0  0  0  0
  145.9098  135.8869  160.1412 N   0  0  0  0  0  0  0  0  0  0  0  0
  145.4969  135.6249  161.5260 C   0  0  1  0  0  0  0  0  0  0  0  0
  144.5046  136.7118  161.9932 C   0  0  0  0  0  0  0  0  0  0  0  0
  144.7808  134.2532  161.5447 C   0  0  0  0  0  0  0  0  0  0  0  0
  145.7218  133.0804  161.2096 C   0  0  0  0  0  0  0  0  0  0  0  0
  146.9370  133.0400  162.1540 C   0  0  1  0  0  0  0  0  0  0  0  0
  147.8839  131.8842  161.8020 C   0  0  0  0  0  0  0  0  0  0  0  0
  147.6710  134.3935  162.1448 C   0  0  0  0  0  0  0  0  0  0  0  0
  146.7181  135.5558  162.4796 C   0  0  0  0  0  0  0  0  0  0  0  0
  145.4838  139.3808  157.2711 H   0  0  0  0  0  0  0  0  0  0  0  0
  145.9247  138.5777  155.7670 H   0  0  0  0  0  0  0  0  0  0  0  0
  146.2314  140.2995  155.9689 H   0  0  0  0  0  0  0  0  0  0  0  0
  151.1057  140.3720  158.5375 H   0  0  0  0  0  0  0  0  0  0  0  0
  150.8878  140.8514  156.8424 H   0  0  0  0  0  0  0  0  0  0  0  0
  151.6993  139.3244  157.2313 H   0  0  0  0  0  0  0  0  0  0  0  0
  149.8130  136.5813  159.5186 H   0  0  0  0  0  0  0  0  0  0  0  0
  150.9560  137.9099  159.4348 H   0  0  0  0  0  0  0  0  0  0  0  0
  150.9238  136.6953  158.1542 H   0  0  0  0  0  0  0  0  0  0  0  0
  146.0860  136.8536  157.7905 H   0  0  0  0  0  0  0  0  0  0  0  0
  148.5831  135.0958  157.8377 H   0  0  0  0  0  0  0  0  0  0  0  0
  147.6104  135.4713  156.4214 H   0  0  0  0  0  0  0  0  0  0  0  0
  146.9147  134.5438  157.7401 H   0  0  0  0  0  0  0  0  0  0  0  0
  145.3061  135.4936  159.4337 H   0  0  0  0  0  0  0  0  0  0  0  0
  144.1053  136.4820  162.9816 H   0  0  0  0  0  0  0  0  0  0  0  0
  143.6586  136.7961  161.3099 H   0  0  0  0  0  0  0  0  0  0  0  0
  144.9729  137.6935  162.0610 H   0  0  0  0  0  0  0  0  0  0  0  0
  144.3476  134.0809  162.5311 H   0  0  0  0  0  0  0  0  0  0  0  0
  143.9425  134.2572  160.8463 H   0  0  0  0  0  0  0  0  0  0  0  0
  145.1692  132.1429  161.2781 H   0  0  0  0  0  0  0  0  0  0  0  0
  146.0583  133.1582  160.1749 H   0  0  0  0  0  0  0  0  0  0  0  0
  146.5682  132.8659  163.1660 H   0  0  0  0  0  0  0  0  0  0  0  0
  148.2930  131.9981  160.7977 H   0  0  0  0  0  0  0  0  0  0  0  0
  147.3652  130.9262  161.8434 H   0  0  0  0  0  0  0  0  0  0  0  0
  148.7208  131.8361  162.4991 H   0  0  0  0  0  0  0  0  0  0  0  0
  148.4873  134.3757  162.8673 H   0  0  0  0  0  0  0  0  0  0  0  0
  148.1311  134.5614  161.1702 H   0  0  0  0  0  0  0  0  0  0  0  0
  147.2716  136.4948  162.4752 H   0  0  0  0  0  0  0  0  0  0  0  0
  146.3656  135.4315  163.5045 H   0  0  0  0  0  0  0  0  0  0  0  0
  1  2  1  0  0  0  0
  1 22  1  0  0  0  0
  1 23  1  0  0  0  0
  1 24  1  0  0  0  0
  2  8  1  0  0  0  0
  2  3  2  0  0  0  0
  3  4  1  0  0  0  0
  4  5  1  0  0  0  0
  4  6  1  0  0  0  0
  5 25  1  0  0  0  0
  5 26  1  0  0  0  0
  5 27  1  0  0  0  0
  6  7  1  0  0  0  0
  6  8  2  0  0  0  0
  7 28  1  0  0  0  0
  7 29  1  0  0  0  0
  7 30  1  0  0  0  0
  8  9  1  0  0  0  0
  9 10  1  0  0  0  0
  9 11  1  0  0  0  0
  9 31  1  0  0  0  0
 10 32  1  0  0  0  0
 10 33  1  0  0  0  0
 10 34  1  0  0  0  0
 11 12  2  0  0  0  0
 11 13  1  0  0  0  0
 13 14  1  0  0  0  0
 13 35  1  0  0  0  0
 14 21  1  0  0  0  0
 14 15  1  0  0  0  0
 14 16  1  0  0  0  0
 15 36  1  0  0  0  0
 15 37  1  0  0  0  0
 15 38  1  0  0  0  0
 16 17  1  0  0  0  0
 16 39  1  0  0  0  0
 16 40  1  0  0  0  0
 17 18  1  0  0  0  0
 17 41  1  0  0  0  0
 17 42  1  0  0  0  0
 18 19  1  0  0  0  0
 18 20  1  0  0  0  0
 18 43  1  0  0  0  0
 19 44  1  0  0  0  0
 19 45  1  0  0  0  0
 19 46  1  0  0  0  0
 20 21  1  0  0  0  0
 20 47  1  0  0  0  0
 20 48  1  0  0  0  0
 21 49  1  0  0  0  0
 21 50  1  0  0  0  0
M  END
> <s_m_source_file>
AV-unprocessed.smi

> <i_m_source_file_index>
1075

> <i_lp_mmshare_version>
43012

> <i_f3d_flags>
0

> <s_epik_input>
W0NIM11jMW5uKFtDSDNdKWMoW0NIM10pYzFbQ0BIXShbQ0gzXSlDKD1PKVtOSF1bQ0BAXTIoW0NIM10pW0NIMl1bQ0gyXVtDQEBIXShbQ0gzXSlbQ0gyXVtDSDJdMg==

> <s_epik_cmdline>
J2VwaWtfcHl0aG9uJywgJy1waCcsICc3LjAnLCAnLXRuJywgJzgnLCAnLW1hJywgJzIwMCcsICctbWV0YWxfYmluZGluZycsICctaW1hZScsICc8aW5maWxlLm1hZT4nLCAnLW9tYWUnLCAnPG91dGZpbGUubWFlPic=

> <r_lp_tautomer_probability>
1

> <r_epik_Ionization_Penalty>
0.00502928

> <r_epik_Ionization_Penalty_Charging>
0

> <r_epik_Ionization_Penalty_Neutral>
0.00502928

> <r_epik_State_Penalty>
0.0036576

> <r_epik_Charging_Adjusted_Penalty>
0.0036576

> <i_epik_Tot_Q>
0

> <i_epik_Tot_abs_Q>
0

> <r_epik_Metal_State_Penalty>
-0

> <b_epik_Metal_Only>
0

> <s_lp_Force_Field>
OPLS_2005

> <r_lp_Energy>
4.5461

> <b_lp_Chiralities_Consistent>
1

> <s_lp_Variant>
AV-unprocessed.smi:1075-2

> <Gold.Version>
5.8.1

> <Gold.Id.Protein>
6NUR|6NUR_protein|mol2

> <Gold.PLP.Fitness>
29.7093

> <Gold.PLP.PLP>
-26.9470

> <Gold.PLP.part.hbond>
-2.0000

> <Gold.PLP.part.metal>
0.0000

> <Gold.PLP.part.buried>
-4.5618

> <Gold.PLP.part.nonpolar>
-19.9694

> <Gold.PLP.part.repulsive>
0.0425

> <Gold.PLP.ligand.clash>
0.0000

> <Gold.PLP.ligand.torsion>
1.0413

> <Gold.PLP.Chemscore.Hbond>
1.5840

> <Gold.PLP.Chemscore.CHOScore>
0.0000

> <Gold.PLP.Chemscore.Metal>
0.0000

> <Gold.Chemscore.Hbonds>
donor molecule, donor type, donor heavy atom, donor atom, acceptor molecule, acceptor atom, score
      P1  H  6931  6943       L1    12  0.38
      P1  H  6934  6947       L1    12  0.84

> <Gold.PLP.Chemscore.Internal.Correction>
0.0930

> <Gold.Rescore>
     Score         DG    S(hbond)    S(metal)    S(lipo)     H(rot)  DE(clash)    DE(int)     intcor
     12.57     -15.20       1.52        0.00      66.78       1.23       0.05       2.58       ----

> <Gold.Chemscore.Fitness>
12.5709

> <Gold.Chemscore.DG>
-15.2013

> <Gold.Chemscore.ZeroCoef>
-5.4800

> <Gold.Chemscore.Hbond>
1.5157

> <Gold.Chemscore.Metal>
0.0000

> <Gold.Chemscore.Lipo>
66.7771

> <Gold.Chemscore.Internal_Hbond>
0.0000

> <Gold.Chemscore.DEClash>
0.0456

> <Gold.Chemscore.DEInternal>
2.5848

> <Gold.Chemscore.Rot>
1.2321

> <Gold.Chemscore.Internal.Correction>
   9.000000E+99

> <Gold.Chemscore.Hbonds>
donor molecule, donor type, donor heavy atom, donor atom, acceptor molecule, acceptor atom, score
      P1  H  6931  6943       L1    12  0.38
      P1  H  6934  6947       L1    12  0.61

> <Gold.Chemscore.Hbond.Weighted>
-5.0624

> <Gold.Chemscore.Metal.Weighted>
-0.0000

> <Gold.Chemscore.Lipo.Weighted>
-7.8129

> <Gold.Chemscore.Internal_Hbond.Weighted>
0.0000

> <Gold.Chemscore.DEClash.Weighted>
0.0456

> <Gold.Chemscore.DEInternal.Weighted>
2.5848

> <Gold.Chemscore.Rot.Weighted>
3.1541

> <Gold.Chemscore.Internal.Correction.Weighted>
   9.000000E+99

> <Gold.Protein.RotatedTorsions>
[ 6907 6896 6895 6894 ] final   85.31 input  -60.11 | X-H torsion
[ 7974 7965 7964 7962 ] final   34.27 input  175.53 | X-H torsion
[ 8008 7997 7996 7995 ] final    4.61 input   59.86 | X-H torsion
[ 10167 10162 10161 10158 ] final  110.13 input  -65.29 | X-H torsion
[ 10718 10713 10712 10709 ] final  -18.89 input   66.30 | X-H torsion
[ 10763 10752 10751 10750 ] final -120.50 input  -60.55 | X-H torsion
[ 11005 11000 10999 10996 ] final   36.99 input  -57.11 | X-H torsion

> <Gold.Protein.ActiveResidues>
 VAL166  LYS551  ARG553  GLY616  TRP617  ASP618  TYR619  PRO620  LYS621  CYS622 
 ASP623  PHE694  ASN695  SER759  ASP760  ASP761  ALA762  ILE779  LEU786  VAL792 
 PHE793  MET794  SER795  GLU796  ALA797  LYS798  CYS799  TRP800  GLU811  SER814 

> <Gold.Protein.RotatedAtoms>
  152.5372  134.2605  159.8933 H   0  0  0  0  0  0  0  0  0  0  0  0  # atno 6907 bound_to 6896
  151.2565  133.4317  159.2621 H   0  0  0  0  0  0  0  0  0  0  0  0  # atno 6908 bound_to 6896
  151.0491  134.9675  159.8258 H   0  0  0  0  0  0  0  0  0  0  0  0  # atno 6909 bound_to 6896
  146.1364  139.6290  142.9192 H   0  0  0  0  0  0  0  0  0  0  0  0  # atno 7974 bound_to 7965
  154.7181  140.2706  155.6567 H   0  0  0  0  0  0  0  0  0  0  0  0  # atno 8008 bound_to 7997
  156.2815  140.2740  156.1768 H   0  0  0  0  0  0  0  0  0  0  0  0  # atno 8009 bound_to 7997
  155.0544  140.0371  157.2545 H   0  0  0  0  0  0  0  0  0  0  0  0  # atno 8010 bound_to 7997
  139.6712  144.7125  151.1684 H   0  0  0  0  0  0  0  0  0  0  0  0  # atno 10167 bound_to 10162
  156.5532  130.4707  149.6442 H   0  0  0  0  0  0  0  0  0  0  0  0  # atno 10718 bound_to 10713
  154.8645  135.4201  154.2469 H   0  0  0  0  0  0  0  0  0  0  0  0  # atno 10763 bound_to 10752
  153.3423  135.6994  153.6862 H   0  0  0  0  0  0  0  0  0  0  0  0  # atno 10764 bound_to 10752
  153.5835  135.3568  155.2857 H   0  0  0  0  0  0  0  0  0  0  0  0  # atno 10765 bound_to 10752
  140.2270  134.3572  155.7980 H   0  0  0  0  0  0  0  0  0  0  0  0  # atno 11005 bound_to 11000
  145.5146  141.0434  143.2469 LP  0  0  0  0  0  0  0  0  0  0  0  0  # atno 17320 bound_to 7965
  144.7744  139.6662  143.7181 LP  0  0  0  0  0  0  0  0  0  0  0  0  # atno 17321 bound_to 7965
  140.7619  143.5841  150.8864 LP  0  0  0  0  0  0  0  0  0  0  0  0  # atno 17342 bound_to 10162
  139.9506  143.6276  152.3030 LP  0  0  0  0  0  0  0  0  0  0  0  0  # atno 17343 bound_to 10162
  156.2865  130.7100  151.1938 LP  0  0  0  0  0  0  0  0  0  0  0  0  # atno 17370 bound_to 10713
  157.7383  131.0542  150.5301 LP  0  0  0  0  0  0  0  0  0  0  0  0  # atno 17371 bound_to 10713
  141.2220  133.7225  156.8670 LP  0  0  0  0  0  0  0  0  0  0  0  0  # atno 17394 bound_to 11000
  140.1790  134.9047  157.2925 LP  0  0  0  0  0  0  0  0  0  0  0  0  # atno 17395 bound_to 11000

$$$$
