AV-unprocessed.smi:3293|AV-procd|sdf|12631|dock4
  -GOLD-   2272018563D 1   1.00000     0.00000
 Structure written by MMmdl.
 44 45  0  0  0  0  0  0  0  0  2 V2000
  151.7681  144.6733  159.2539 C   0  0  0  0  0  0  0  0  0  0  0  0
  152.2790  143.2427  159.2073 C   0  0  0  0  0  0  0  0  0  0  0  0
  153.4490  142.9317  159.7972 C   0  0  0  0  0  0  0  0  0  0  0  0
  154.0178  141.5341  159.8769 C   0  0  0  0  0  0  0  0  0  0  0  0
  152.9200  140.4848  159.6876 C   0  0  0  0  0  0  0  0  0  0  0  0
  152.0710  140.7802  158.4404 C   0  0  1  0  0  0  0  0  0  0  0  0
  151.0410  139.6514  158.2434 C   0  0  0  0  0  0  0  0  0  0  0  0
  151.4063  142.1910  158.4918 C   0  0  2  0  0  0  0  0  0  0  0  0
  150.9883  142.6316  157.0637 C   0  0  0  0  0  0  0  0  0  0  0  0
  149.5991  142.2577  156.7263 N   0  3  0  0  0  0  0  0  0  0  0  0
  149.4816  140.9812  155.9953 C   0  0  0  0  0  0  0  0  0  0  0  0
  148.9335  141.2015  154.5794 C   0  0  0  0  0  0  0  0  0  0  0  0
  147.5343  141.7499  154.6109 C   0  0  0  0  0  0  0  0  0  0  0  0
  146.3663  141.1335  155.1441 C   0  0  0  0  0  0  0  0  0  0  0  0
  145.2856  141.8861  155.0213 N   0  0  0  0  0  0  0  0  0  0  0  0
  145.7223  143.0047  154.4073 N   0  0  0  0  0  0  0  0  0  0  0  0
  144.7863  144.0675  154.1097 C   0  0  0  0  0  0  0  0  0  0  0  0
  147.0741  142.9494  154.1441 C   0  0  0  0  0  0  0  0  0  0  0  0
  150.7385  144.7006  159.6111 H   0  0  0  0  0  0  0  0  0  0  0  0
  151.8156  145.1368  158.2689 H   0  0  0  0  0  0  0  0  0  0  0  0
  152.3673  145.2856  159.9286 H   0  0  0  0  0  0  0  0  0  0  0  0
  154.0394  143.7055  160.2664 H   0  0  0  0  0  0  0  0  0  0  0  0
  154.7934  141.4278  159.1179 H   0  0  0  0  0  0  0  0  0  0  0  0
  154.4959  141.3962  160.8470 H   0  0  0  0  0  0  0  0  0  0  0  0
  153.3743  139.4959  159.6157 H   0  0  0  0  0  0  0  0  0  0  0  0
  152.2787  140.4658  160.5701 H   0  0  0  0  0  0  0  0  0  0  0  0
  152.7509  140.7587  157.5868 H   0  0  0  0  0  0  0  0  0  0  0  0
  150.3266  139.6209  159.0668 H   0  0  0  0  0  0  0  0  0  0  0  0
  151.5326  138.6790  158.2008 H   0  0  0  0  0  0  0  0  0  0  0  0
  150.4751  139.7593  157.3193 H   0  0  0  0  0  0  0  0  0  0  0  0
  150.5051  142.1000  159.1002 H   0  0  0  0  0  0  0  0  0  0  0  0
  151.1140  143.7105  156.9622 H   0  0  0  0  0  0  0  0  0  0  0  0
  151.6290  142.1784  156.3090 H   0  0  0  0  0  0  0  0  0  0  0  0
  149.0664  142.1934  157.5820 H   0  0  0  0  0  0  0  0  0  0  0  0
  150.4630  140.5074  155.9447 H   0  0  0  0  0  0  0  0  0  0  0  0
  148.8256  140.3089  156.5503 H   0  0  0  0  0  0  0  0  0  0  0  0
  149.5946  141.8787  154.0373 H   0  0  0  0  0  0  0  0  0  0  0  0
  148.9607  140.2589  154.0313 H   0  0  0  0  0  0  0  0  0  0  0  0
  146.2729  140.1669  155.6171 H   0  0  0  0  0  0  0  0  0  0  0  0
  145.3258  144.9689  153.8174 H   0  0  0  0  0  0  0  0  0  0  0  0
  144.1810  144.2882  154.9894 H   0  0  0  0  0  0  0  0  0  0  0  0
  144.1329  143.7630  153.2919 H   0  0  0  0  0  0  0  0  0  0  0  0
  147.5920  143.7610  153.6543 H   0  0  0  0  0  0  0  0  0  0  0  0
  149.2034  142.9896  156.1536 H   0  0  0  0  0  0  0  0  0  0  0  0
  1  2  1  0  0  0  0
  1 19  1  0  0  0  0
  1 20  1  0  0  0  0
  1 21  1  0  0  0  0
  2  8  1  0  0  0  0
  2  3  2  0  0  0  0
  3  4  1  0  0  0  0
  3 22  1  0  0  0  0
  4  5  1  0  0  0  0
  4 23  1  0  0  0  0
  4 24  1  0  0  0  0
  5  6  1  0  0  0  0
  5 25  1  0  0  0  0
  5 26  1  0  0  0  0
  6  7  1  0  0  0  0
  6  8  1  0  0  0  0
  6 27  1  0  0  0  0
  7 28  1  0  0  0  0
  7 29  1  0  0  0  0
  7 30  1  0  0  0  0
  8  9  1  0  0  0  0
  8 31  1  0  0  0  0
  9 10  1  0  0  0  0
  9 32  1  0  0  0  0
  9 33  1  0  0  0  0
 10 11  1  0  0  0  0
 10 34  1  0  0  0  0
 10 44  1  0  0  0  0
 11 12  1  0  0  0  0
 11 35  1  0  0  0  0
 11 36  1  0  0  0  0
 12 13  1  0  0  0  0
 12 37  1  0  0  0  0
 12 38  1  0  0  0  0
 13 18  2  0  0  0  0
 13 14  1  0  0  0  0
 14 15  2  0  0  0  0
 14 39  1  0  0  0  0
 15 16  1  0  0  0  0
 16 17  1  0  0  0  0
 16 18  1  0  0  0  0
 17 40  1  0  0  0  0
 17 41  1  0  0  0  0
 17 42  1  0  0  0  0
 18 43  1  0  0  0  0
M  CHG  1  10   1
M  END
> <s_m_source_file>
AV-unprocessed.smi

> <i_m_source_file_index>
3293

> <i_lp_mmshare_version>
43012

> <i_f3d_flags>
0

> <s_epik_input>
W0NIM11DMT1bQ0hdW0NIMl1bQ0gyXVtDQEBIXShbQ0gzXSlbQ0BIXTFbQ0gyXVtOSF1bQ0gyXVtDSDJdYzJbY0hdbm4oW0NIM10pW2NIXTI=

> <s_epik_cmdline>
J2VwaWtfcHl0aG9uJywgJy1waCcsICc3LjAnLCAnLXRuJywgJzgnLCAnLW1hJywgJzIwMCcsICctbWV0YWxfYmluZGluZycsICctaW1hZScsICc8aW5maWxlLm1hZT4nLCAnLW9tYWUnLCAnPG91dGZpbGUubWFlPic=

> <r_lp_tautomer_probability>
1

> <r_epik_Ionization_Penalty>
0.000598621

> <r_epik_Ionization_Penalty_Charging>
0.000582095

> <r_epik_Ionization_Penalty_Neutral>
1.65262e-05

> <r_epik_State_Penalty>
-0

> <r_epik_Charging_Adjusted_Penalty>
0.000582095

> <i_epik_Tot_Q>
1

> <i_epik_Tot_abs_Q>
1

> <r_epik_Metal_State_Penalty>
-0

> <b_epik_Metal_Only>
0

> <s_lp_Force_Field>
OPLS_2005

> <r_lp_Energy>
11.8092

> <b_lp_Chiralities_Consistent>
1

> <s_lp_Variant>
AV-unprocessed.smi:3293-3

> <Gold.Version>
5.8.1

> <Gold.Id.Protein>
6NUR|6NUR_protein|mol2

> <Gold.PLP.Fitness>
47.1425

> <Gold.PLP.PLP>
-42.1392

> <Gold.PLP.part.hbond>
-1.0000

> <Gold.PLP.part.metal>
0.0000

> <Gold.PLP.part.buried>
-2.8806

> <Gold.PLP.part.nonpolar>
-38.9720

> <Gold.PLP.part.repulsive>
0.1953

> <Gold.PLP.ligand.clash>
0.0000

> <Gold.PLP.ligand.torsion>
1.0974

> <Gold.PLP.Chemscore.Hbond>
2.0000

> <Gold.PLP.Chemscore.CHOScore>
0.3812

> <Gold.PLP.Chemscore.Metal>
0.0000

> <Gold.Chemscore.Hbonds>
donor molecule, donor type, donor heavy atom, donor atom, acceptor molecule, acceptor atom, score
      L1  H    10    44       P1  8028  2.00
      L1  C    18    43       P1  8028  0.41

> <Gold.PLP.Chemscore.Internal.Correction>
0.0544

> <Gold.Rescore>
     Score         DG    S(hbond)    S(metal)    S(lipo)     H(rot)  DE(clash)    DE(int)     intcor
     17.19     -19.15       1.00        0.00     120.81       1.48       0.18       1.77       ----

> <Gold.Chemscore.Fitness>
17.1869

> <Gold.Chemscore.DG>
-19.1464

> <Gold.Chemscore.ZeroCoef>
-5.4800

> <Gold.Chemscore.Hbond>
0.9978

> <Gold.Chemscore.Metal>
0.0000

> <Gold.Chemscore.Lipo>
120.8084

> <Gold.Chemscore.Internal_Hbond>
0.0000

> <Gold.Chemscore.DEClash>
0.1849

> <Gold.Chemscore.DEInternal>
1.7746

> <Gold.Chemscore.Rot>
1.4847

> <Gold.Chemscore.Internal.Correction>
   9.000000E+99

> <Gold.Chemscore.Hbonds>
donor molecule, donor type, donor heavy atom, donor atom, acceptor molecule, acceptor atom, score
      L1  H    10    44       P1  8028  0.98

> <Gold.Chemscore.Hbond.Weighted>
-3.3326

> <Gold.Chemscore.Metal.Weighted>
-0.0000

> <Gold.Chemscore.Lipo.Weighted>
-14.1346

> <Gold.Chemscore.Internal_Hbond.Weighted>
0.0000

> <Gold.Chemscore.DEClash.Weighted>
0.1849

> <Gold.Chemscore.DEInternal.Weighted>
1.7746

> <Gold.Chemscore.Rot.Weighted>
3.8008

> <Gold.Chemscore.Internal.Correction.Weighted>
   9.000000E+99

> <Gold.Protein.RotatedTorsions>
[ 6907 6896 6895 6894 ] final  -59.73 input  -60.11 | X-H torsion
[ 7974 7965 7964 7962 ] final   64.44 input  175.53 | X-H torsion
[ 8008 7997 7996 7995 ] final   60.36 input   59.86 | X-H torsion
[ 10167 10162 10161 10158 ] final  178.40 input  -65.29 | X-H torsion
[ 10718 10713 10712 10709 ] final    8.97 input   66.30 | X-H torsion
[ 10763 10752 10751 10750 ] final   16.70 input  -60.55 | X-H torsion
[ 11005 11000 10999 10996 ] final   89.50 input  -57.11 | X-H torsion

> <Gold.Protein.ActiveResidues>
 VAL166  LYS551  ARG553  GLY616  TRP617  ASP618  TYR619  PRO620  LYS621  CYS622 
 ASP623  PHE694  ASN695  SER759  ASP760  ASP761  ALA762  ILE779  LEU786  VAL792 
 PHE793  MET794  SER795  GLU796  ALA797  LYS798  CYS799  TRP800  GLU811  SER814 

> <Gold.Protein.RotatedAtoms>
  150.7909  134.6930  159.6507 H   0  0  0  0  0  0  0  0  0  0  0  0  # atno 6907 bound_to 6896
  152.4014  134.6277  160.0077 H   0  0  0  0  0  0  0  0  0  0  0  0  # atno 6908 bound_to 6896
  151.6548  133.3282  159.3196 H   0  0  0  0  0  0  0  0  0  0  0  0  # atno 6909 bound_to 6896
  145.8502  139.3249  143.0880 H   0  0  0  0  0  0  0  0  0  0  0  0  # atno 7974 bound_to 7965
  155.5811  140.3491  155.4540 H   0  0  0  0  0  0  0  0  0  0  0  0  # atno 8008 bound_to 7997
  156.0373  140.1288  157.0219 H   0  0  0  0  0  0  0  0  0  0  0  0  # atno 8009 bound_to 7997
  154.4377  140.1031  156.6171 H   0  0  0  0  0  0  0  0  0  0  0  0  # atno 8010 bound_to 7997
  139.5292  144.2685  152.0648 H   0  0  0  0  0  0  0  0  0  0  0  0  # atno 10167 bound_to 10162
  156.9594  130.5927  149.5661 H   0  0  0  0  0  0  0  0  0  0  0  0  # atno 10718 bound_to 10713
  153.1407  135.6759  153.9032 H   0  0  0  0  0  0  0  0  0  0  0  0  # atno 10763 bound_to 10752
  153.8490  135.3095  155.3432 H   0  0  0  0  0  0  0  0  0  0  0  0  # atno 10764 bound_to 10752
  154.7785  135.4901  153.9877 H   0  0  0  0  0  0  0  0  0  0  0  0  # atno 10765 bound_to 10752
  139.8874  134.8555  156.3151 H   0  0  0  0  0  0  0  0  0  0  0  0  # atno 11005 bound_to 11000
  145.9366  140.9010  143.0329 LP  0  0  0  0  0  0  0  0  0  0  0  0  # atno 17320 bound_to 7965
  144.6729  140.1492  143.7431 LP  0  0  0  0  0  0  0  0  0  0  0  0  # atno 17321 bound_to 7965
  140.2146  144.4528  150.6370 LP  0  0  0  0  0  0  0  0  0  0  0  0  # atno 17342 bound_to 10162
  140.6458  143.2213  151.6188 LP  0  0  0  0  0  0  0  0  0  0  0  0  # atno 17343 bound_to 10162
  156.0328  130.5418  150.8579 LP  0  0  0  0  0  0  0  0  0  0  0  0  # atno 17370 bound_to 10713
  157.5668  131.0946  150.9478 LP  0  0  0  0  0  0  0  0  0  0  0  0  # atno 17371 bound_to 10713
  140.9824  133.7259  156.0692 LP  0  0  0  0  0  0  0  0  0  0  0  0  # atno 17394 bound_to 11000
  140.7732  134.3809  157.5503 LP  0  0  0  0  0  0  0  0  0  0  0  0  # atno 17395 bound_to 11000

$$$$
