AV-unprocessed.smi:783|AV-procd|sdf|3717|dock2
  -GOLD-   22720 1143D 1   1.00000     0.00000
 Structure written by MMmdl.
 45 46  0  0  0  0  0  0  0  0  1 V2000
  152.3312  138.6749  154.7103 C   0  0  0  0  0  0  0  0  0  0  0  0
  150.9867  137.9999  154.3697 C   0  0  1  0  0  0  0  0  0  0  0  0
  150.6805  136.7988  155.2776 C   0  0  0  0  0  0  0  0  0  0  0  0
  151.0494  136.7885  156.4525 O   0  0  0  0  0  0  0  0  0  0  0  0
  150.0044  135.7874  154.7099 N   0  0  0  0  0  0  0  0  0  0  0  0
  149.6188  134.5373  155.3651 C   0  0  0  0  0  0  0  0  0  0  0  0
  148.6126  133.6845  154.5319 C   0  0  0  0  0  0  0  0  0  0  0  0
  148.0718  132.4606  155.3488 C   0  0  0  0  0  0  0  0  0  0  0  0
  146.8664  132.4321  155.6102 O   0  0  0  0  0  0  0  0  0  0  0  0
  148.8746  131.4483  155.7767 N   0  0  0  0  0  0  0  0  0  0  0  0
  150.3182  131.5186  155.5243 C   0  0  0  0  0  0  0  0  0  0  0  0
  148.4885  130.2245  156.4844 C   0  0  0  0  0  0  0  0  0  0  0  0
  147.4432  134.5999  154.0714 C   0  0  0  0  0  0  0  0  0  0  0  0
  146.8125  133.9386  152.8415 C   0  0  0  0  0  0  0  0  0  0  0  0
  147.9277  133.0916  152.2244 C   0  0  0  0  0  0  0  0  0  0  0  0
  149.1489  133.2793  153.1346 C   0  0  0  0  0  0  0  0  0  0  0  0
  149.8718  138.9400  154.3824 N   0  0  0  0  0  0  0  0  0  0  0  0
  148.5444  138.6827  154.1047 C   0  0  0  0  0  0  0  0  0  0  0  0
  147.8532  139.8469  154.2824 C   0  0  0  0  0  0  0  0  0  0  0  0
  148.8527  140.7739  154.6883 C   0  0  0  0  0  0  0  0  0  0  0  0
  150.0555  140.2279  154.7568 N   0  0  0  0  0  0  0  0  0  0  0  0
  153.1543  137.9622  154.6485 H   0  0  0  0  0  0  0  0  0  0  0  0
  152.3373  139.0981  155.7156 H   0  0  0  0  0  0  0  0  0  0  0  0
  152.5469  139.4830  154.0108 H   0  0  0  0  0  0  0  0  0  0  0  0
  151.0721  137.6209  153.3497 H   0  0  0  0  0  0  0  0  0  0  0  0
  149.7449  135.8859  153.7393 H   0  0  0  0  0  0  0  0  0  0  0  0
  150.5080  133.9483  155.5962 H   0  0  0  0  0  0  0  0  0  0  0  0
  149.2194  134.8068  156.3384 H   0  0  0  0  0  0  0  0  0  0  0  0
  150.7382  132.4420  155.9264 H   0  0  0  0  0  0  0  0  0  0  0  0
  150.5217  131.4886  154.4530 H   0  0  0  0  0  0  0  0  0  0  0  0
  150.8640  130.6938  155.9846 H   0  0  0  0  0  0  0  0  0  0  0  0
  147.4252  130.0166  156.5116 H   0  0  0  0  0  0  0  0  0  0  0  0
  148.8375  130.2731  157.5164 H   0  0  0  0  0  0  0  0  0  0  0  0
  148.9556  129.3562  156.0181 H   0  0  0  0  0  0  0  0  0  0  0  0
  146.7053  134.8136  154.8457 H   0  0  0  0  0  0  0  0  0  0  0  0
  147.8374  135.5707  153.7665 H   0  0  0  0  0  0  0  0  0  0  0  0
  145.9794  133.2998  153.1374 H   0  0  0  0  0  0  0  0  0  0  0  0
  146.4247  134.6805  152.1428 H   0  0  0  0  0  0  0  0  0  0  0  0
  147.6273  132.0432  152.2045 H   0  0  0  0  0  0  0  0  0  0  0  0
  148.1478  133.3886  151.1985 H   0  0  0  0  0  0  0  0  0  0  0  0
  149.7620  134.0897  152.7374 H   0  0  0  0  0  0  0  0  0  0  0  0
  149.7732  132.3906  153.1083 H   0  0  0  0  0  0  0  0  0  0  0  0
  148.2051  137.7016  153.8070 H   0  0  0  0  0  0  0  0  0  0  0  0
  146.7942  140.0103  154.1484 H   0  0  0  0  0  0  0  0  0  0  0  0
  148.7404  141.8185  154.9384 H   0  0  0  0  0  0  0  0  0  0  0  0
  1  2  1  0  0  0  0
  1 22  1  0  0  0  0
  1 23  1  0  0  0  0
  1 24  1  0  0  0  0
  2  3  1  0  0  0  0
  2 17  1  0  0  0  0
  2 25  1  0  0  0  0
  3  4  2  0  0  0  0
  3  5  1  0  0  0  0
  5  6  1  0  0  0  0
  5 26  1  0  0  0  0
  6  7  1  0  0  0  0
  6 27  1  0  0  0  0
  6 28  1  0  0  0  0
  7 16  1  0  0  0  0
  7  8  1  0  0  0  0
  7 13  1  0  0  0  0
  8  9  2  0  0  0  0
  8 10  1  0  0  0  0
 10 11  1  0  0  0  0
 10 12  1  0  0  0  0
 11 29  1  0  0  0  0
 11 30  1  0  0  0  0
 11 31  1  0  0  0  0
 12 32  1  0  0  0  0
 12 33  1  0  0  0  0
 12 34  1  0  0  0  0
 13 14  1  0  0  0  0
 13 35  1  0  0  0  0
 13 36  1  0  0  0  0
 14 15  1  0  0  0  0
 14 37  1  0  0  0  0
 14 38  1  0  0  0  0
 15 16  1  0  0  0  0
 15 39  1  0  0  0  0
 15 40  1  0  0  0  0
 16 41  1  0  0  0  0
 16 42  1  0  0  0  0
 17 21  1  0  0  0  0
 17 18  1  0  0  0  0
 18 19  2  0  0  0  0
 18 43  1  0  0  0  0
 19 20  1  0  0  0  0
 19 44  1  0  0  0  0
 20 21  2  0  0  0  0
 20 45  1  0  0  0  0
M  END
> <s_m_source_file>
AV-unprocessed.smi

> <i_m_source_file_index>
783

> <i_lp_mmshare_version>
43012

> <i_f3d_flags>
0

> <s_epik_input>
bjFbY0hdW2NIXVtjSF1uMVtDQEhdKFtDSDNdKUMoPU8pW05IXVtDSDJdQzIoQyg9TylOKFtDSDNdKVtDSDNdKVtDSDJdW0NIMl1bQ0gyXVtDSDJdMg==

> <s_epik_cmdline>
J2VwaWtfcHl0aG9uJywgJy1waCcsICc3LjAnLCAnLXRuJywgJzgnLCAnLW1hJywgJzIwMCcsICctbWV0YWxfYmluZGluZycsICctaW1hZScsICc8aW5maWxlLm1hZT4nLCAnLW9tYWUnLCAnPG91dGZpbGUubWFlPic=

> <r_lp_tautomer_probability>
1

> <r_epik_Ionization_Penalty>
3.31274e-05

> <r_epik_Ionization_Penalty_Charging>
0

> <r_epik_Ionization_Penalty_Neutral>
3.31274e-05

> <r_epik_State_Penalty>
-0

> <r_epik_Charging_Adjusted_Penalty>
0

> <i_epik_Tot_Q>
0

> <i_epik_Tot_abs_Q>
0

> <r_epik_Metal_State_Penalty>
-0

> <b_epik_Metal_Only>
0

> <s_lp_Force_Field>
OPLS_2005

> <r_lp_Energy>
40.1786

> <b_lp_Chiralities_Consistent>
1

> <s_lp_Variant>
AV-unprocessed.smi:783-2

> <Gold.Version>
5.8.1

> <Gold.Id.Protein>
6NUR|6NUR_protein|mol2

> <Gold.PLP.Fitness>
39.1751

> <Gold.PLP.PLP>
-32.1850

> <Gold.PLP.part.hbond>
-1.9956

> <Gold.PLP.part.metal>
0.0000

> <Gold.PLP.part.buried>
-1.5041

> <Gold.PLP.part.nonpolar>
-28.8891

> <Gold.PLP.part.repulsive>
0.1959

> <Gold.PLP.ligand.clash>
0.0000

> <Gold.PLP.ligand.torsion>
0.9380

> <Gold.PLP.Chemscore.Hbond>
1.8500

> <Gold.PLP.Chemscore.CHOScore>
0.9828

> <Gold.PLP.Chemscore.Metal>
0.0000

> <Gold.Chemscore.Hbonds>
donor molecule, donor type, donor heavy atom, donor atom, acceptor molecule, acceptor atom, score
      L1  H     5    26       P1  7948  0.90
      P1  H  7989  7998       L1    21  0.80
      L1  C    18    43       P1  7948  0.95

> <Gold.PLP.Chemscore.Internal.Correction>
0.3676

> <Gold.Rescore>
     Score         DG    S(hbond)    S(metal)    S(lipo)     H(rot)  DE(clash)    DE(int)     intcor
     11.45     -12.65       1.13        0.00      69.31       1.84       0.06       1.14       ----

> <Gold.Chemscore.Fitness>
11.4503

> <Gold.Chemscore.DG>
-12.6520

> <Gold.Chemscore.ZeroCoef>
-5.4800

> <Gold.Chemscore.Hbond>
1.1334

> <Gold.Chemscore.Metal>
0.0000

> <Gold.Chemscore.Lipo>
69.3097

> <Gold.Chemscore.Internal_Hbond>
0.0000

> <Gold.Chemscore.DEClash>
0.0640

> <Gold.Chemscore.DEInternal>
1.1378

> <Gold.Chemscore.Rot>
1.8449

> <Gold.Chemscore.Internal.Correction>
   9.000000E+99

> <Gold.Chemscore.Hbonds>
donor molecule, donor type, donor heavy atom, donor atom, acceptor molecule, acceptor atom, score
      L1  H     5    26       P1  7948  0.17
      P1  H  7989  7998       L1    21  0.30

> <Gold.Chemscore.Hbond.Weighted>
-3.7857

> <Gold.Chemscore.Metal.Weighted>
-0.0000

> <Gold.Chemscore.Lipo.Weighted>
-8.1092

> <Gold.Chemscore.Internal_Hbond.Weighted>
0.0000

> <Gold.Chemscore.DEClash.Weighted>
0.0640

> <Gold.Chemscore.DEInternal.Weighted>
1.1378

> <Gold.Chemscore.Rot.Weighted>
4.7229

> <Gold.Chemscore.Internal.Correction.Weighted>
   9.000000E+99

> <Gold.Protein.RotatedTorsions>
[ 6907 6896 6895 6894 ] final -118.28 input  -60.11 | X-H torsion
[ 7974 7965 7964 7962 ] final   76.25 input  175.53 | X-H torsion
[ 8008 7997 7996 7995 ] final  173.83 input   59.86 | X-H torsion
[ 10167 10162 10161 10158 ] final -123.95 input  -65.29 | X-H torsion
[ 10718 10713 10712 10709 ] final  146.91 input   66.30 | X-H torsion
[ 10763 10752 10751 10750 ] final  -11.51 input  -60.55 | X-H torsion
[ 11005 11000 10999 10996 ] final  -92.45 input  -57.11 | X-H torsion

> <Gold.Protein.ActiveResidues>
 VAL166  LYS551  ARG553  GLY616  TRP617  ASP618  TYR619  PRO620  LYS621  CYS622 
 ASP623  PHE694  ASN695  SER759  ASP760  ASP761  ALA762  ILE779  LEU786  VAL792 
 PHE793  MET794  SER795  GLU796  ALA797  LYS798  CYS799  TRP800  GLU811  SER814 

> <Gold.Protein.RotatedAtoms>
  150.8207  133.8258  159.3140 H   0  0  0  0  0  0  0  0  0  0  0  0  # atno 6907 bound_to 6896
  151.6017  135.1045  160.0071 H   0  0  0  0  0  0  0  0  0  0  0  0  # atno 6908 bound_to 6896
  152.4296  133.7213  159.6592 H   0  0  0  0  0  0  0  0  0  0  0  0  # atno 6909 bound_to 6896
  145.7052  139.2596  143.1682 H   0  0  0  0  0  0  0  0  0  0  0  0  # atno 7974 bound_to 7965
  156.1036  140.1450  156.9435 H   0  0  0  0  0  0  0  0  0  0  0  0  # atno 8008 bound_to 7997
  154.4718  140.0907  156.7209 H   0  0  0  0  0  0  0  0  0  0  0  0  # atno 8009 bound_to 7997
  155.4718  140.3442  155.4329 H   0  0  0  0  0  0  0  0  0  0  0  0  # atno 8010 bound_to 7997
  139.9981  143.5570  152.2315 H   0  0  0  0  0  0  0  0  0  0  0  0  # atno 10167 bound_to 10162
  157.3274  131.0914  151.1191 H   0  0  0  0  0  0  0  0  0  0  0  0  # atno 10718 bound_to 10713
  153.4848  135.7017  153.5917 H   0  0  0  0  0  0  0  0  0  0  0  0  # atno 10763 bound_to 10752
  153.4115  135.3847  155.2053 H   0  0  0  0  0  0  0  0  0  0  0  0  # atno 10764 bound_to 10752
  154.8720  135.3906  154.4302 H   0  0  0  0  0  0  0  0  0  0  0  0  # atno 10765 bound_to 10752
  141.1521  133.7822  157.0022 H   0  0  0  0  0  0  0  0  0  0  0  0  # atno 11005 bound_to 11000
  146.0762  140.7815  142.9664 LP  0  0  0  0  0  0  0  0  0  0  0  0  # atno 17320 bound_to 7965
  144.6957  140.3418  143.7198 LP  0  0  0  0  0  0  0  0  0  0  0  0  # atno 17321 bound_to 7965
  139.6292  144.7642  151.2573 LP  0  0  0  0  0  0  0  0  0  0  0  0  # atno 17342 bound_to 10162
  140.7429  143.6510  150.8248 LP  0  0  0  0  0  0  0  0  0  0  0  0  # atno 17343 bound_to 10162
  157.2452  130.6588  149.5907 LP  0  0  0  0  0  0  0  0  0  0  0  0  # atno 17370 bound_to 10713
  155.9692  130.4555  150.5892 LP  0  0  0  0  0  0  0  0  0  0  0  0  # atno 17371 bound_to 10713
  140.0933  134.9579  157.1810 LP  0  0  0  0  0  0  0  0  0  0  0  0  # atno 17394 bound_to 11000
  140.3417  134.2697  155.7211 LP  0  0  0  0  0  0  0  0  0  0  0  0  # atno 17395 bound_to 11000

$$$$
