#       Name:                AV-unprocessed.smi:2140
#       Creating user name   scv26
#       Creation time:       Fri Mar 27 11:47:58 2020


#       File generated by GOLD software.
#

@<TRIPOS>MOLECULE
AV-unprocessed.smi:2140
    45    46     1
SMALL
NO_CHARGES


@<TRIPOS>ATOM
      1 ****        -1.8021   0.3501  -0.5072 C.3            1 S1                 0.0000
      2 ****        -1.0626  -1.0103  -0.5785 C.3            1 S1                 0.0000
      3 ****         0.4715  -0.7585  -0.5330 C.3            1 S1                 0.0000
      4 ****         0.8958  -0.0296   0.6607 N.am           1 S1                 0.0000
      5 ****         1.4149   1.2067   0.6797 C.2            1 S1                 0.0000
      6 ****         1.5904   1.8883  -0.3297 O.2            1 S1                 0.0000
      7 ****         1.7244   1.5816   1.9327 N.am           1 S1                 0.0000
      8 ****         2.2786   2.8136   2.3728 C.ar           1 S1                 0.0000
      9 ****         2.9416   2.8342   3.6169 C.ar           1 S1                 0.0000
     10 ****         3.4848   4.0455   4.0853 C.ar           1 S1                 0.0000
     11 ****         3.3338   5.1984   3.2910 C.ar           1 S1                 0.0000
     12 ****         2.6884   5.2007   2.1058 N.ar           1 S1                 0.0000
     13 ****         2.1717   4.0345   1.6611 C.ar           1 S1                 0.0000
     14 ****        -1.4854  -1.8313  -1.7385 N.3            1 S1                 0.0000
     15 ****        -0.8163  -3.1370  -1.7843 C.3            1 S1                 0.0000
     16 ****        -1.2774  -4.0073  -2.9662 C.3            1 S1                 0.0000
     17 ****        -2.6862  -4.1818  -2.9124 O.3            1 S1                 0.0000
     18 ****        -3.3773  -2.9413  -2.9506 C.3            1 S1                 0.0000
     19 ****        -2.9342  -2.0647  -1.7664 C.3            1 S1                 0.0000
     20 ****        -1.4633   0.9648   0.3253 H              1 S1                 0.0000
     21 ****        -2.8728   0.2318  -0.3484 H              1 S1                 0.0000
     22 ****        -1.6564   0.9269  -1.4210 H              1 S1                 0.0000
     23 ****        -1.3207  -1.5575   0.3297 H              1 S1                 0.0000
     24 ****         1.0246  -1.6942  -0.4873 H              1 S1                 0.0000
     25 ****         0.7954  -0.2569  -1.4464 H              1 S1                 0.0000
     26 ****         0.7910  -0.5107   1.5418 H              1 S1                 0.0000
     27 ****         1.6024   0.8812   2.6492 H              1 S1                 0.0000
     28 ****         3.0390   1.9331   4.2049 H              1 S1                 0.0000
     29 ****         4.0041   4.0900   5.0312 H              1 S1                 0.0000
     30 ****         3.7378   6.1448   3.6188 H              1 S1                 0.0000
     31 ****         1.6454   4.1043   0.7220 H              1 S1                 0.0000
     32 ****         0.2602  -3.0161  -1.8861 H              1 S1                 0.0000
     33 ****        -0.9901  -3.6743  -0.8508 H              1 S1                 0.0000
     34 ****        -0.9942  -3.5516  -3.9162 H              1 S1                 0.0000
     35 ****        -0.7970  -4.9848  -2.9249 H              1 S1                 0.0000
     36 ****        -3.1851  -2.4369  -3.8989 H              1 S1                 0.0000
     37 ****        -4.4498  -3.1302  -2.9006 H              1 S1                 0.0000
     38 ****        -3.2520  -2.5309  -0.8326 H              1 S1                 0.0000
     39 ****        -3.4735  -1.1230  -1.8507 H              1 S1                 0.0000
     40 ****         1.3412   1.5254  -1.2276 LP             1 S1                 0.0000
     41 ****         1.9822   2.8050  -0.2520 LP             1 S1                 0.0000
     42 ****         2.5954   6.0413   1.5723 LP             1 S1                 0.0000
     43 ****        -1.2171  -1.2919  -2.5366 LP             1 S1                 0.0000
     44 ****        -2.9207  -4.6562  -2.0638 LP             1 S1                 0.0000
     45 ****        -2.9731  -4.7356  -3.6940 LP             1 S1                 0.0000
@<TRIPOS>BOND
    1    1    2 1     
    2    1   20 1     
    3    1   21 1     
    4    1   22 1     
    5    2    3 1     
    6    2   14 1     
    7    2   23 1     
    8    3    4 1     
    9    3   24 1     
   10    3   25 1     
   11    4    5 am    
   12    4   26 1     
   13    5    6 2     
   14    5    7 am    
   15    7    8 1     
   16    7   27 1     
   17    8   13 ar    
   18    8    9 ar    
   19    9   10 ar    
   20    9   28 1     
   21   10   11 ar    
   22   10   29 1     
   23   11   12 ar    
   24   11   30 1     
   25   12   13 ar    
   26   13   31 1     
   27   14   19 1     
   28   14   15 1     
   29   15   16 1     
   30   15   32 1     
   31   15   33 1     
   32   16   17 1     
   33   16   34 1     
   34   16   35 1     
   35   17   18 1     
   36   18   19 1     
   37   18   36 1     
   38   18   37 1     
   39   19   38 1     
   40   19   39 1     
   41    6   40 1     
   42    6   41 1     
   43   12   42 1     
   44   14   43 1     
   45   17   44 1     
   46   17   45 1     
@<TRIPOS>SUBSTRUCTURE
      1 S1             1
@<TRIPOS>SET
LONE_PAIRS      STATIC     ATOMS    <user>   **** ""
6 40 41 42 43 44 45
DONOR_HYDROGENS      STATIC     ATOMS    <user>   **** ""
2 26 27
ATOM$BLUE        STATIC     ATOMS    COLORGROUP SYSTEM
6 40 41 42 43 44 45
ATOM$RED        STATIC     ATOMS    COLORGROUP SYSTEM
2 26 27
