AV-unprocessed.smi:2062|AV-procd|sdf|8405|dock9
  -GOLD-   2272011 93D 1   1.00000     0.00000
 Structure written by MMmdl.
 42 43  0  0  0  0  0  0  0  0  3 V2000
  152.4642  144.3395  158.2695 C   0  0  0  0  0  0  0  0  0  0  0  0
  151.7467  143.4554  159.3034 C   0  0  0  0  0  0  0  0  0  0  0  0
  152.7230  142.4326  159.9031 C   0  0  0  0  0  0  0  0  0  0  0  0
  150.5181  142.7423  158.6977 C   0  0  0  0  0  0  0  0  0  0  0  0
  150.8545  141.4430  158.0614 N   0  3  2  0  0  0  0  0  0  0  0  0
  151.4406  141.5758  156.7047 C   0  0  0  0  0  0  0  0  0  0  0  0
  151.7999  140.1918  156.1401 C   0  0  0  0  0  0  0  0  0  0  0  0
  150.6424  139.3676  156.1354 O   0  0  0  0  0  0  0  0  0  0  0  0
  150.1281  139.1492  157.4455 C   0  0  2  0  0  0  0  0  0  0  0  0
  148.9506  138.1703  157.3455 C   0  0  0  0  0  0  0  0  0  0  0  0
  148.3415  137.9799  158.6568 N   0  0  0  0  0  0  0  0  0  0  0  0
  148.5583  136.9550  159.4913 C   0  0  0  0  0  0  0  0  0  0  0  0
  149.3178  136.0399  159.1654 O   0  0  0  0  0  0  0  0  0  0  0  0
  147.8794  137.0584  160.6558 N   0  5  0  0  0  0  0  0  0  0  0  0
  147.6297  135.9611  161.3889 C   0  0  0  0  0  0  0  0  0  0  0  0
  147.3287  134.7757  160.8469 N   0  0  0  0  0  0  0  0  0  0  0  0
  147.1000  133.7747  161.7928 C   0  0  0  0  0  0  0  0  0  0  0  0
  147.2216  134.2104  163.0855 C   0  0  0  0  0  0  0  0  0  0  0  0
  147.6283  135.9015  163.1540 S   0  0  0  0  0  0  0  0  0  0  0  0
  149.7049  140.5077  158.0367 C   0  0  0  0  0  0  0  0  0  0  0  0
  152.8088  143.7533  157.4170 H   0  0  0  0  0  0  0  0  0  0  0  0
  153.3346  144.8282  158.7087 H   0  0  0  0  0  0  0  0  0  0  0  0
  151.8094  145.1249  157.8913 H   0  0  0  0  0  0  0  0  0  0  0  0
  151.4214  144.0946  160.1236 H   0  0  0  0  0  0  0  0  0  0  0  0
  153.1075  141.7552  159.1399 H   0  0  0  0  0  0  0  0  0  0  0  0
  152.2384  141.8289  160.6709 H   0  0  0  0  0  0  0  0  0  0  0  0
  153.5765  142.9279  160.3672 H   0  0  0  0  0  0  0  0  0  0  0  0
  149.7925  142.5771  159.4957 H   0  0  0  0  0  0  0  0  0  0  0  0
  150.0228  143.3826  157.9658 H   0  0  0  0  0  0  0  0  0  0  0  0
  150.7277  142.0717  156.0439 H   0  0  0  0  0  0  0  0  0  0  0  0
  152.3364  142.1951  156.7309 H   0  0  0  0  0  0  0  0  0  0  0  0
  152.1696  140.2865  155.1190 H   0  0  0  0  0  0  0  0  0  0  0  0
  152.5940  139.7244  156.7248 H   0  0  0  0  0  0  0  0  0  0  0  0
  150.9040  138.7062  158.0733 H   0  0  0  0  0  0  0  0  0  0  0  0
  148.1873  138.5668  156.6754 H   0  0  0  0  0  0  0  0  0  0  0  0
  149.2919  137.2277  156.9142 H   0  0  0  0  0  0  0  0  0  0  0  0
  147.7075  138.6988  158.9727 H   0  0  0  0  0  0  0  0  0  0  0  0
  146.8541  132.7789  161.4558 H   0  0  0  0  0  0  0  0  0  0  0  0
  147.0962  133.6450  163.9964 H   0  0  0  0  0  0  0  0  0  0  0  0
  149.3283  140.3633  159.0502 H   0  0  0  0  0  0  0  0  0  0  0  0
  148.8928  140.9413  157.4505 H   0  0  0  0  0  0  0  0  0  0  0  0
  151.5551  141.0101  158.6461 H   0  0  0  0  0  0  0  0  0  0  0  0
  1  2  1  0  0  0  0
  1 21  1  0  0  0  0
  1 22  1  0  0  0  0
  1 23  1  0  0  0  0
  2  3  1  0  0  0  0
  2  4  1  0  0  0  0
  2 24  1  0  0  0  0
  3 25  1  0  0  0  0
  3 26  1  0  0  0  0
  3 27  1  0  0  0  0
  4  5  1  0  0  0  0
  4 28  1  0  0  0  0
  4 29  1  0  0  0  0
  5 20  1  0  0  0  0
  5  6  1  0  0  0  0
  5 42  1  0  0  0  0
  6  7  1  0  0  0  0
  6 30  1  0  0  0  0
  6 31  1  0  0  0  0
  7  8  1  0  0  0  0
  7 32  1  0  0  0  0
  7 33  1  0  0  0  0
  8  9  1  0  0  0  0
  9 10  1  0  0  0  0
  9 20  1  0  0  0  0
  9 34  1  0  0  0  0
 10 11  1  0  0  0  0
 10 35  1  0  0  0  0
 10 36  1  0  0  0  0
 11 12  1  0  0  0  0
 11 37  1  0  0  0  0
 12 13  2  0  0  0  0
 12 14  1  0  0  0  0
 14 15  1  0  0  0  0
 15 19  1  0  0  0  0
 15 16  2  0  0  0  0
 16 17  1  0  0  0  0
 17 18  2  0  0  0  0
 17 38  1  0  0  0  0
 18 19  1  0  0  0  0
 18 39  1  0  0  0  0
 20 40  1  0  0  0  0
 20 41  1  0  0  0  0
M  CHG  1   5   1
M  CHG  1  14  -1
M  END
> <s_m_source_file>
AV-unprocessed.smi

> <i_m_source_file_index>
2062

> <i_lp_mmshare_version>
43012

> <i_f3d_flags>
0

> <s_epik_input>
W0NIM11bQ0hdKFtDSDNdKVtDSDJdTjFbQ0gyXVtDSDJdT1tDQEhdKFtDSDJdMSlbQ0gyXVtOSF1DKD1PKVtOSF1jMm5bY0hdW2NIXXMy

> <s_epik_cmdline>
J2VwaWtfcHl0aG9uJywgJy1waCcsICc3LjAnLCAnLXRuJywgJzgnLCAnLW1hJywgJzIwMCcsICctbWV0YWxfYmluZGluZycsICctaW1hZScsICc8aW5maWxlLm1hZT4nLCAnLW9tYWUnLCAnPG91dGZpbGUubWFlPic=

> <r_lp_tautomer_probability>
0.999

> <r_epik_Ionization_Penalty>
6.35835

> <r_epik_Ionization_Penalty_Charging>
5.49938

> <r_epik_Ionization_Penalty_Neutral>
0.858963

> <r_epik_State_Penalty>
5.49328

> <r_epik_Charging_Adjusted_Penalty>
10.9927

> <i_epik_Tot_Q>
0

> <i_epik_Tot_abs_Q>
2

> <r_epik_Metal_State_Penalty>
1.51523

> <b_epik_Metal_Only>
1

> <s_lp_Force_Field>
OPLS_2005

> <r_lp_Energy>
7.82162

> <b_lp_Chiralities_Consistent>
1

> <s_lp_Variant>
AV-unprocessed.smi:2062-10

> <Gold.Version>
5.8.1

> <Gold.Id.Protein>
6NUR|6NUR_protein|mol2

> <Gold.PLP.Fitness>
49.2763

> <Gold.PLP.PLP>
-38.6375

> <Gold.PLP.part.hbond>
-2.9850

> <Gold.PLP.part.metal>
0.0000

> <Gold.PLP.part.buried>
-4.8223

> <Gold.PLP.part.nonpolar>
-32.2315

> <Gold.PLP.part.repulsive>
0.2311

> <Gold.PLP.ligand.clash>
0.0000

> <Gold.PLP.ligand.torsion>
1.0576

> <Gold.PLP.Chemscore.Hbond>
4.2233

> <Gold.PLP.Chemscore.CHOScore>
0.0000

> <Gold.PLP.Chemscore.Metal>
0.0000

> <Gold.Chemscore.Hbonds>
donor molecule, donor type, donor heavy atom, donor atom, acceptor molecule, acceptor atom, score
      P1  H  6896  6909       L1    13  1.00
      P1  H  6931  6943       L1    14  1.54
      P1  H  6934  6947       L1    14  1.41

> <Gold.PLP.Chemscore.Internal.Correction>
0.0843

> <Gold.Rescore>
     Score         DG    S(hbond)    S(metal)    S(lipo)     H(rot)  DE(clash)    DE(int)     intcor
     15.71     -18.14       1.89        0.00      91.88       1.72       0.07       2.37       ----

> <Gold.Chemscore.Fitness>
15.7066

> <Gold.Chemscore.DG>
-18.1445

> <Gold.Chemscore.ZeroCoef>
-5.4800

> <Gold.Chemscore.Hbond>
1.8910

> <Gold.Chemscore.Metal>
0.0000

> <Gold.Chemscore.Lipo>
91.8825

> <Gold.Chemscore.Internal_Hbond>
0.0000

> <Gold.Chemscore.DEClash>
0.0691

> <Gold.Chemscore.DEInternal>
2.3689

> <Gold.Chemscore.Rot>
1.7194

> <Gold.Chemscore.Internal.Correction>
   9.000000E+99

> <Gold.Chemscore.Hbonds>
donor molecule, donor type, donor heavy atom, donor atom, acceptor molecule, acceptor atom, score
      P1  H  6896  6909       L1    13  0.97
      P1  H  6931  6943       L1    14  0.20
      P1  H  6934  6947       L1    14  0.51

> <Gold.Chemscore.Hbond.Weighted>
-6.3160

> <Gold.Chemscore.Metal.Weighted>
-0.0000

> <Gold.Chemscore.Lipo.Weighted>
-10.7503

> <Gold.Chemscore.Internal_Hbond.Weighted>
0.0000

> <Gold.Chemscore.DEClash.Weighted>
0.0691

> <Gold.Chemscore.DEInternal.Weighted>
2.3689

> <Gold.Chemscore.Rot.Weighted>
4.4017

> <Gold.Chemscore.Internal.Correction.Weighted>
   9.000000E+99

> <Gold.Protein.RotatedTorsions>
[ 6907 6896 6895 6894 ] final   57.23 input  -60.11 | X-H torsion
[ 7974 7965 7964 7962 ] final  -82.63 input  175.53 | X-H torsion
[ 8008 7997 7996 7995 ] final   87.38 input   59.86 | X-H torsion
[ 10167 10162 10161 10158 ] final  101.66 input  -65.29 | X-H torsion
[ 10718 10713 10712 10709 ] final  114.83 input   66.30 | X-H torsion
[ 10763 10752 10751 10750 ] final -132.44 input  -60.55 | X-H torsion
[ 11005 11000 10999 10996 ] final   27.89 input  -57.11 | X-H torsion

> <Gold.Protein.ActiveResidues>
 VAL166  LYS551  ARG553  GLY616  TRP617  ASP618  TYR619  PRO620  LYS621  CYS622 
 ASP623  PHE694  ASN695  SER759  ASP760  ASP761  ALA762  ILE779  LEU786  VAL792 
 PHE793  MET794  SER795  GLU796  ALA797  LYS798  CYS799  TRP800  GLU811  SER814 

> <Gold.Protein.RotatedAtoms>
  152.3711  134.6732  160.0175 H   0  0  0  0  0  0  0  0  0  0  0  0  # atno 6907 bound_to 6896
  151.7025  133.3306  159.3278 H   0  0  0  0  0  0  0  0  0  0  0  0  # atno 6908 bound_to 6896
  150.7674  134.6538  159.6347 H   0  0  0  0  0  0  0  0  0  0  0  0  # atno 6909 bound_to 6896
  145.5307  140.9521  143.1605 H   0  0  0  0  0  0  0  0  0  0  0  0  # atno 7974 bound_to 7965
  155.9746  140.3382  155.6607 H   0  0  0  0  0  0  0  0  0  0  0  0  # atno 8008 bound_to 7997
  155.6629  140.0718  157.2566 H   0  0  0  0  0  0  0  0  0  0  0  0  # atno 8009 bound_to 7997
  154.4175  140.1705  156.1783 H   0  0  0  0  0  0  0  0  0  0  0  0  # atno 8010 bound_to 7997
  139.7418  144.7009  151.0564 H   0  0  0  0  0  0  0  0  0  0  0  0  # atno 10167 bound_to 10162
  157.6258  131.1004  150.7242 H   0  0  0  0  0  0  0  0  0  0  0  0  # atno 10718 bound_to 10713
  154.8743  135.3798  154.4410 H   0  0  0  0  0  0  0  0  0  0  0  0  # atno 10763 bound_to 10752
  153.5094  135.7030  153.5794 H   0  0  0  0  0  0  0  0  0  0  0  0  # atno 10764 bound_to 10752
  153.4090  135.3929  155.2004 H   0  0  0  0  0  0  0  0  0  0  0  0  # atno 10765 bound_to 10752
  140.3215  134.2538  155.7716 H   0  0  0  0  0  0  0  0  0  0  0  0  # atno 11005 bound_to 11000
  144.7627  139.6917  143.7227 LP  0  0  0  0  0  0  0  0  0  0  0  0  # atno 17320 bound_to 7965
  146.2046  139.5362  142.9721 LP  0  0  0  0  0  0  0  0  0  0  0  0  # atno 17321 bound_to 7965
  140.7787  143.4915  150.9887 LP  0  0  0  0  0  0  0  0  0  0  0  0  # atno 17342 bound_to 10162
  139.8603  143.7323  152.3173 LP  0  0  0  0  0  0  0  0  0  0  0  0  # atno 17343 bound_to 10162
  156.7590  130.4792  149.5441 LP  0  0  0  0  0  0  0  0  0  0  0  0  # atno 17370 bound_to 10713
  156.1430  130.6257  151.0493 LP  0  0  0  0  0  0  0  0  0  0  0  0  # atno 17371 bound_to 10713
  141.2085  133.7775  157.0052 LP  0  0  0  0  0  0  0  0  0  0  0  0  # atno 17394 bound_to 11000
  140.0938  134.9576  157.1817 LP  0  0  0  0  0  0  0  0  0  0  0  0  # atno 17395 bound_to 11000

$$$$
