AV-unprocessed.smi:2796|AV-procd|sdf|10782|dock2
  -GOLD-   2272015213D 1   1.00000     0.00000
 Structure written by MMmdl.
 27 28  0  0  0  0  0  0  0  0  1 V2000
  152.7703  137.5520  154.2648 N   0  0  0  0  0  0  0  0  0  0  0  0
  152.1341  138.3811  154.7618 C   0  0  0  0  0  0  0  0  0  0  0  0
  151.3355  139.4228  155.3849 C   0  0  0  0  0  0  0  0  0  0  0  0
  151.2186  139.4625  156.7901 C   0  0  0  0  0  0  0  0  0  0  0  0
  150.4386  140.4781  157.3758 C   0  0  0  0  0  0  0  0  0  0  0  0
  149.8003  141.4219  156.5382 C   0  0  0  0  0  0  0  0  0  0  0  0
  149.0001  142.4668  157.0216 N   0  0  0  0  0  0  0  0  0  0  0  0
  148.5891  142.5026  158.4175 C   0  0  0  0  0  0  0  0  0  0  0  0
  149.5377  143.2953  159.2947 C   0  0  0  0  0  0  0  0  0  0  0  0
  150.3702  144.2537  158.8382 C   0  0  0  0  0  0  0  0  0  0  0  0
  151.1673  145.0162  159.6538 O   0  0  0  0  0  0  0  0  0  0  0  0
  150.8397  144.9336  161.0366 C   0  0  0  0  0  0  0  0  0  0  0  0
  150.5294  143.4807  161.4316 C   0  0  0  0  0  0  0  0  0  0  0  0
  149.4842  142.9466  160.6240 O   0  0  0  0  0  0  0  0  0  0  0  0
  149.9848  141.2913  155.1456 C   0  0  0  0  0  0  0  0  0  0  0  0
  150.7309  140.3204  154.5766 N   0  0  0  0  0  0  0  0  0  0  0  0
  151.7142  138.7306  157.4118 H   0  0  0  0  0  0  0  0  0  0  0  0
  150.3428  140.5153  158.4506 H   0  0  0  0  0  0  0  0  0  0  0  0
  148.9271  143.3176  156.4818 H   0  0  0  0  0  0  0  0  0  0  0  0
  147.6020  142.9590  158.4961 H   0  0  0  0  0  0  0  0  0  0  0  0
  148.5127  141.4834  158.7986 H   0  0  0  0  0  0  0  0  0  0  0  0
  150.4482  144.5489  157.8023 H   0  0  0  0  0  0  0  0  0  0  0  0
  151.6722  145.3196  161.6254 H   0  0  0  0  0  0  0  0  0  0  0  0
  149.9799  145.5738  161.2390 H   0  0  0  0  0  0  0  0  0  0  0  0
  151.4186  142.8596  161.3163 H   0  0  0  0  0  0  0  0  0  0  0  0
  150.2342  143.4252  162.4794 H   0  0  0  0  0  0  0  0  0  0  0  0
  149.5191  141.9874  154.4632 H   0  0  0  0  0  0  0  0  0  0  0  0
  1  2  3  0  0  0  0
  2  3  1  0  0  0  0
  3 16  1  0  0  0  0
  3  4  2  0  0  0  0
  4  5  1  0  0  0  0
  4 17  1  0  0  0  0
  5  6  2  0  0  0  0
  5 18  1  0  0  0  0
  6  7  1  0  0  0  0
  6 15  1  0  0  0  0
  7  8  1  0  0  0  0
  7 19  1  0  0  0  0
  8  9  1  0  0  0  0
  8 20  1  0  0  0  0
  8 21  1  0  0  0  0
  9 14  1  0  0  0  0
  9 10  2  0  0  0  0
 10 11  1  0  0  0  0
 10 22  1  0  0  0  0
 11 12  1  0  0  0  0
 12 13  1  0  0  0  0
 12 23  1  0  0  0  0
 12 24  1  0  0  0  0
 13 14  1  0  0  0  0
 13 25  1  0  0  0  0
 13 26  1  0  0  0  0
 15 16  2  0  0  0  0
 15 27  1  0  0  0  0
M  END
> <s_m_source_file>
AV-unprocessed.smi

> <i_m_source_file_index>
2796

> <i_lp_mmshare_version>
43012

> <i_f3d_flags>
0

> <s_epik_input>
TiNDYzFbY0hdW2NIXWMoW2NIXW4xKVtOSF1bQ0gyXUMyPVtDSF1PW0NIMl1bQ0gyXU8y

> <s_epik_cmdline>
J2VwaWtfcHl0aG9uJywgJy1waCcsICc3LjAnLCAnLXRuJywgJzgnLCAnLW1hJywgJzIwMCcsICctbWV0YWxfYmluZGluZycsICctaW1hZScsICc8aW5maWxlLm1hZT4nLCAnLW9tYWUnLCAnPG91dGZpbGUubWFlPic=

> <r_lp_tautomer_probability>
1

> <r_epik_Ionization_Penalty>
1.57619e-06

> <r_epik_Ionization_Penalty_Charging>
0

> <r_epik_Ionization_Penalty_Neutral>
1.57619e-06

> <r_epik_State_Penalty>
-0

> <r_epik_Charging_Adjusted_Penalty>
0

> <i_epik_Tot_Q>
0

> <i_epik_Tot_abs_Q>
0

> <r_epik_Metal_State_Penalty>
-0

> <b_epik_Metal_Only>
0

> <s_lp_Force_Field>
OPLS_2005

> <r_lp_Energy>
3.17898

> <b_lp_Chiralities_Consistent>
1

> <s_lp_Variant>
AV-unprocessed.smi:2796-1

> <Gold.Version>
5.8.1

> <Gold.Id.Protein>
6NUR|6NUR_protein|mol2

> <Gold.PLP.Fitness>
44.1422

> <Gold.PLP.PLP>
-34.2982

> <Gold.PLP.part.hbond>
-4.7902

> <Gold.PLP.part.metal>
0.0000

> <Gold.PLP.part.buried>
-5.6740

> <Gold.PLP.part.nonpolar>
-25.5284

> <Gold.PLP.part.repulsive>
0.4186

> <Gold.PLP.ligand.clash>
0.0000

> <Gold.PLP.ligand.torsion>
0.5384

> <Gold.PLP.Chemscore.Hbond>
2.6400

> <Gold.PLP.Chemscore.CHOScore>
1.0000

> <Gold.PLP.Chemscore.Metal>
0.0000

> <Gold.Chemscore.Hbonds>
donor molecule, donor type, donor heavy atom, donor atom, acceptor molecule, acceptor atom, score
      L1  H     7    19       P1  8028  1.00
      P1  H  7989  7998       L1    16  0.94
      P1  H 10752 10765       L1     1  0.50
      L1  C    10    22       P1  8028  0.78

> <Gold.PLP.Chemscore.Internal.Correction>
0.0008

> <Gold.Rescore>
     Score         DG    S(hbond)    S(metal)    S(lipo)     H(rot)  DE(clash)    DE(int)     intcor
     18.79     -19.26       2.50        0.00      73.80       1.26       0.02       0.45       ----

> <Gold.Chemscore.Fitness>
18.7886

> <Gold.Chemscore.DG>
-19.2566

> <Gold.Chemscore.ZeroCoef>
-5.4800

> <Gold.Chemscore.Hbond>
2.5017

> <Gold.Chemscore.Metal>
0.0000

> <Gold.Chemscore.Lipo>
73.8018

> <Gold.Chemscore.Internal_Hbond>
0.0000

> <Gold.Chemscore.DEClash>
0.0223

> <Gold.Chemscore.DEInternal>
0.4457

> <Gold.Chemscore.Rot>
1.2554

> <Gold.Chemscore.Internal.Correction>
   9.000000E+99

> <Gold.Chemscore.Hbonds>
donor molecule, donor type, donor heavy atom, donor atom, acceptor molecule, acceptor atom, score
      L1  H     7    19       P1  8028  0.96
      P1  H  6933  6944       L1    14  0.02
      P1  H  7989  7998       L1    16  0.62
      P1  H 10752 10765       L1     1  0.50

> <Gold.Chemscore.Hbond.Weighted>
-8.3557

> <Gold.Chemscore.Metal.Weighted>
-0.0000

> <Gold.Chemscore.Lipo.Weighted>
-8.6348

> <Gold.Chemscore.Internal_Hbond.Weighted>
0.0000

> <Gold.Chemscore.DEClash.Weighted>
0.0223

> <Gold.Chemscore.DEInternal.Weighted>
0.4457

> <Gold.Chemscore.Rot.Weighted>
3.2139

> <Gold.Chemscore.Internal.Correction.Weighted>
   9.000000E+99

> <Gold.Protein.RotatedTorsions>
[ 6907 6896 6895 6894 ] final  151.74 input  -60.11 | X-H torsion
[ 7974 7965 7964 7962 ] final -138.97 input  175.53 | X-H torsion
[ 8008 7997 7996 7995 ] final    3.46 input   59.86 | X-H torsion
[ 10167 10162 10161 10158 ] final  146.80 input  -65.29 | X-H torsion
[ 10718 10713 10712 10709 ] final -112.91 input   66.30 | X-H torsion
[ 10763 10752 10751 10750 ] final  153.50 input  -60.55 | X-H torsion
[ 11005 11000 10999 10996 ] final -141.27 input  -57.11 | X-H torsion

> <Gold.Protein.ActiveResidues>
 VAL166  LYS551  ARG553  GLY616  TRP617  ASP618  TYR619  PRO620  LYS621  CYS622 
 ASP623  PHE694  ASN695  SER759  ASP760  ASP761  ALA762  ILE779  LEU786  VAL792 
 PHE793  MET794  SER795  GLU796  ALA797  LYS798  CYS799  TRP800  GLU811  SER814 

> <Gold.Protein.RotatedAtoms>
  152.0965  133.4227  159.4567 H   0  0  0  0  0  0  0  0  0  0  0  0  # atno 6907 bound_to 6896
  150.6863  134.2810  159.4636 H   0  0  0  0  0  0  0  0  0  0  0  0  # atno 6908 bound_to 6896
  152.0667  134.9559  160.0625 H   0  0  0  0  0  0  0  0  0  0  0  0  # atno 6909 bound_to 6896
  144.8715  140.6373  143.5264 H   0  0  0  0  0  0  0  0  0  0  0  0  # atno 7974 bound_to 7965
  154.7039  140.2679  155.6693 H   0  0  0  0  0  0  0  0  0  0  0  0  # atno 8008 bound_to 7997
  156.2774  140.2766  156.1582 H   0  0  0  0  0  0  0  0  0  0  0  0  # atno 8009 bound_to 7997
  155.0727  140.0372  157.2604 H   0  0  0  0  0  0  0  0  0  0  0  0  # atno 8010 bound_to 7997
  139.4901  144.5803  151.6885 H   0  0  0  0  0  0  0  0  0  0  0  0  # atno 10167 bound_to 10162
  156.0734  130.5945  150.8571 H   0  0  0  0  0  0  0  0  0  0  0  0  # atno 10718 bound_to 10713
  154.1373  135.2823  155.3170 H   0  0  0  0  0  0  0  0  0  0  0  0  # atno 10763 bound_to 10752
  154.6312  135.5434  153.7686 H   0  0  0  0  0  0  0  0  0  0  0  0  # atno 10764 bound_to 10752
  153.0262  135.6463  154.1521 H   0  0  0  0  0  0  0  0  0  0  0  0  # atno 10765 bound_to 10752
  140.8341  134.2481  157.4842 H   0  0  0  0  0  0  0  0  0  0  0  0  # atno 11005 bound_to 11000
  145.4122  139.1578  143.4119 LP  0  0  0  0  0  0  0  0  0  0  0  0  # atno 17320 bound_to 7965
  146.2933  140.4227  142.8731 LP  0  0  0  0  0  0  0  0  0  0  0  0  # atno 17321 bound_to 7965
  140.5408  144.0583  150.6087 LP  0  0  0  0  0  0  0  0  0  0  0  0  # atno 17342 bound_to 10162
  140.3604  143.2911  152.0390 LP  0  0  0  0  0  0  0  0  0  0  0  0  # atno 17343 bound_to 10162
  157.5817  131.0946  150.9260 LP  0  0  0  0  0  0  0  0  0  0  0  0  # atno 17370 bound_to 10713
  156.9455  130.5400  149.5281 LP  0  0  0  0  0  0  0  0  0  0  0  0  # atno 17371 bound_to 10713
  139.8704  134.9601  156.4354 LP  0  0  0  0  0  0  0  0  0  0  0  0  # atno 17394 bound_to 11000
  140.8966  133.7809  155.9632 LP  0  0  0  0  0  0  0  0  0  0  0  0  # atno 17395 bound_to 11000

$$$$
