AV-unprocessed.smi:3265|AV-procd|sdf|12496|dock8
  -GOLD-   2272018393D 1   1.00000     0.00000
 Structure written by MMmdl.
 41 42  0  0  0  0  0  0  0  0  2 V2000
  145.0062  133.2911  150.1252 C   0  0  0  0  0  0  0  0  0  0  0  0
  145.7663  134.2060  151.0958 C   0  0  2  0  0  0  0  0  0  0  0  0
  145.3079  133.9895  152.5475 C   0  0  0  0  0  0  0  0  0  0  0  0
  146.0669  134.9320  153.4893 C   0  0  0  0  0  0  0  0  0  0  0  0
  145.9157  136.3946  153.0423 C   0  0  0  0  0  0  0  0  0  0  0  0
  146.3663  136.5772  151.6381 N   0  3  2  0  0  0  0  0  0  0  0  0
  146.3539  138.0048  151.2296 C   0  0  0  0  0  0  0  0  0  0  0  0
  146.8270  138.9450  152.3552 C   0  0  0  0  0  0  0  0  0  0  0  0
  148.1785  138.6190  152.7942 N   0  0  0  0  0  0  0  0  0  0  0  0
  148.8440  139.2571  153.7708 C   0  0  0  0  0  0  0  0  0  0  0  0
  148.3829  140.2208  154.3819 O   0  0  0  0  0  0  0  0  0  0  0  0
  150.2464  138.7406  154.1036 C   0  0  0  0  0  0  0  0  0  0  0  0
  150.8045  139.4108  155.2657 N   0  0  0  0  0  0  0  0  0  0  0  0
  151.2125  138.8565  156.4614 C   0  0  0  0  0  0  0  0  0  0  0  0
  151.6568  139.8770  157.2521 C   0  0  0  0  0  0  0  0  0  0  0  0
  151.4841  141.0333  156.4410 C   0  0  0  0  0  0  0  0  0  0  0  0
  150.9742  140.7514  155.2531 N   0  0  0  0  0  0  0  0  0  0  0  0
  145.6197  135.6907  150.7048 C   0  0  0  0  0  0  0  0  0  0  0  0
  143.9371  133.5058  150.1319 H   0  0  0  0  0  0  0  0  0  0  0  0
  145.1357  132.2415  150.3911 H   0  0  0  0  0  0  0  0  0  0  0  0
  145.3652  133.4175  149.1034 H   0  0  0  0  0  0  0  0  0  0  0  0
  146.8237  133.9437  151.0322 H   0  0  0  0  0  0  0  0  0  0  0  0
  144.2356  134.1717  152.6316 H   0  0  0  0  0  0  0  0  0  0  0  0
  145.4729  132.9540  152.8472 H   0  0  0  0  0  0  0  0  0  0  0  0
  145.6992  134.8142  154.5090 H   0  0  0  0  0  0  0  0  0  0  0  0
  147.1234  134.6606  153.5083 H   0  0  0  0  0  0  0  0  0  0  0  0
  144.8762  136.7131  153.1371 H   0  0  0  0  0  0  0  0  0  0  0  0
  146.5042  137.0303  153.7053 H   0  0  0  0  0  0  0  0  0  0  0  0
  146.9585  138.1392  150.3312 H   0  0  0  0  0  0  0  0  0  0  0  0
  145.3349  138.2832  150.9572 H   0  0  0  0  0  0  0  0  0  0  0  0
  146.7831  139.9858  152.0291 H   0  0  0  0  0  0  0  0  0  0  0  0
  146.1790  138.8662  153.2272 H   0  0  0  0  0  0  0  0  0  0  0  0
  148.6318  137.8368  152.3436 H   0  0  0  0  0  0  0  0  0  0  0  0
  150.2053  137.6681  154.2977 H   0  0  0  0  0  0  0  0  0  0  0  0
  150.9145  138.8882  153.2533 H   0  0  0  0  0  0  0  0  0  0  0  0
  151.1509  137.7944  156.6488 H   0  0  0  0  0  0  0  0  0  0  0  0
  152.0472  139.8083  158.2566 H   0  0  0  0  0  0  0  0  0  0  0  0
  151.7113  142.0621  156.6788 H   0  0  0  0  0  0  0  0  0  0  0  0
  145.9880  135.8230  149.6882 H   0  0  0  0  0  0  0  0  0  0  0  0
  144.5667  135.9771  150.6974 H   0  0  0  0  0  0  0  0  0  0  0  0
  147.3326  136.2839  151.6151 H   0  0  0  0  0  0  0  0  0  0  0  0
  1  2  1  0  0  0  0
  1 19  1  0  0  0  0
  1 20  1  0  0  0  0
  1 21  1  0  0  0  0
  2 18  1  0  0  0  0
  2  3  1  0  0  0  0
  2 22  1  0  0  0  0
  3  4  1  0  0  0  0
  3 23  1  0  0  0  0
  3 24  1  0  0  0  0
  4  5  1  0  0  0  0
  4 25  1  0  0  0  0
  4 26  1  0  0  0  0
  5  6  1  0  0  0  0
  5 27  1  0  0  0  0
  5 28  1  0  0  0  0
  6  7  1  0  0  0  0
  6 18  1  0  0  0  0
  6 41  1  0  0  0  0
  7  8  1  0  0  0  0
  7 29  1  0  0  0  0
  7 30  1  0  0  0  0
  8  9  1  0  0  0  0
  8 31  1  0  0  0  0
  8 32  1  0  0  0  0
  9 10  1  0  0  0  0
  9 33  1  0  0  0  0
 10 11  2  0  0  0  0
 10 12  1  0  0  0  0
 12 13  1  0  0  0  0
 12 34  1  0  0  0  0
 12 35  1  0  0  0  0
 13 17  1  0  0  0  0
 13 14  1  0  0  0  0
 14 15  2  0  0  0  0
 14 36  1  0  0  0  0
 15 16  1  0  0  0  0
 15 37  1  0  0  0  0
 16 17  2  0  0  0  0
 16 38  1  0  0  0  0
 18 39  1  0  0  0  0
 18 40  1  0  0  0  0
M  CHG  1   6   1
M  END
> <s_m_source_file>
AV-unprocessed.smi

> <i_m_source_file_index>
3265

> <i_lp_mmshare_version>
43012

> <i_f3d_flags>
0

> <s_epik_input>
W0NIM11bQ0BASF0xW0NIMl1bQ0gyXVtDSDJdTihbQ0gyXTEpW0NIMl1bQ0gyXVtOSF1DKD1PKVtDSDJdbjJbY0hdW2NIXVtjSF1uMg==

> <s_epik_cmdline>
J2VwaWtfcHl0aG9uJywgJy1waCcsICc3LjAnLCAnLXRuJywgJzgnLCAnLW1hJywgJzIwMCcsICctbWV0YWxfYmluZGluZycsICctaW1hZScsICc8aW5maWxlLm1hZT4nLCAnLW9tYWUnLCAnPG91dGZpbGUubWFlPic=

> <r_lp_tautomer_probability>
1

> <r_epik_Ionization_Penalty>
0.00231455

> <r_epik_Ionization_Penalty_Charging>
0.00230623

> <r_epik_Ionization_Penalty_Neutral>
8.31727e-06

> <r_epik_State_Penalty>
0.00159065

> <r_epik_Charging_Adjusted_Penalty>
0.00389688

> <i_epik_Tot_Q>
1

> <i_epik_Tot_abs_Q>
1

> <r_epik_Metal_State_Penalty>
-0

> <b_epik_Metal_Only>
0

> <s_lp_Force_Field>
OPLS_2005

> <r_lp_Energy>
16.3652

> <b_lp_Chiralities_Consistent>
1

> <s_lp_Variant>
AV-unprocessed.smi:3265-1

> <Gold.Version>
5.8.1

> <Gold.Id.Protein>
6NUR|6NUR_protein|mol2

> <Gold.PLP.Fitness>
42.0734

> <Gold.PLP.PLP>
-30.7811

> <Gold.PLP.part.hbond>
-4.0000

> <Gold.PLP.part.metal>
0.0000

> <Gold.PLP.part.buried>
0.4034

> <Gold.PLP.part.nonpolar>
-27.0244

> <Gold.PLP.part.repulsive>
0.2831

> <Gold.PLP.ligand.clash>
0.0000

> <Gold.PLP.ligand.torsion>
0.1908

> <Gold.PLP.Chemscore.Hbond>
3.8800

> <Gold.PLP.Chemscore.CHOScore>
0.0000

> <Gold.PLP.Chemscore.Metal>
0.0000

> <Gold.Chemscore.Hbonds>
donor molecule, donor type, donor heavy atom, donor atom, acceptor molecule, acceptor atom, score
      L1  H     6    41       P1  7948  2.00
      L1  H     9    33       P1  7948  1.00
      P1  H  7989  7998       L1    17  0.75

> <Gold.PLP.Chemscore.Internal.Correction>
0.0338

> <Gold.Rescore>
     Score         DG    S(hbond)    S(metal)    S(lipo)     H(rot)  DE(clash)    DE(int)     intcor
     16.33     -18.00       2.89        0.00      64.68       1.84       0.31       1.36       ----

> <Gold.Chemscore.Fitness>
16.3283

> <Gold.Chemscore.DG>
-17.9992

> <Gold.Chemscore.ZeroCoef>
-5.4800

> <Gold.Chemscore.Hbond>
2.8917

> <Gold.Chemscore.Metal>
0.0000

> <Gold.Chemscore.Lipo>
64.6818

> <Gold.Chemscore.Internal_Hbond>
0.0000

> <Gold.Chemscore.DEClash>
0.3081

> <Gold.Chemscore.DEInternal>
1.3627

> <Gold.Chemscore.Rot>
1.8386

> <Gold.Chemscore.Internal.Correction>
   9.000000E+99

> <Gold.Chemscore.Hbonds>
donor molecule, donor type, donor heavy atom, donor atom, acceptor molecule, acceptor atom, score
      L1  H     6    41       P1  7948  0.99
      L1  H     9    33       P1  7948  1.00
      P1  H  7989  7998       L1    17  0.15

> <Gold.Chemscore.Hbond.Weighted>
-9.6583

> <Gold.Chemscore.Metal.Weighted>
-0.0000

> <Gold.Chemscore.Lipo.Weighted>
-7.5678

> <Gold.Chemscore.Internal_Hbond.Weighted>
0.0000

> <Gold.Chemscore.DEClash.Weighted>
0.3081

> <Gold.Chemscore.DEInternal.Weighted>
1.3627

> <Gold.Chemscore.Rot.Weighted>
4.7069

> <Gold.Chemscore.Internal.Correction.Weighted>
   9.000000E+99

> <Gold.Protein.RotatedTorsions>
[ 6907 6896 6895 6894 ] final   79.38 input  -60.11 | X-H torsion
[ 7974 7965 7964 7962 ] final -111.39 input  175.53 | X-H torsion
[ 8008 7997 7996 7995 ] final   -3.32 input   59.86 | X-H torsion
[ 10167 10162 10161 10158 ] final   77.88 input  -65.29 | X-H torsion
[ 10718 10713 10712 10709 ] final    0.11 input   66.30 | X-H torsion
[ 10763 10752 10751 10750 ] final   57.39 input  -60.55 | X-H torsion
[ 11005 11000 10999 10996 ] final -163.59 input  -57.11 | X-H torsion

> <Gold.Protein.ActiveResidues>
 VAL166  LYS551  ARG553  GLY616  TRP617  ASP618  TYR619  PRO620  LYS621  CYS622 
 ASP623  PHE694  ASN695  SER759  ASP760  ASP761  ALA762  ILE779  LEU786  VAL792 
 PHE793  MET794  SER795  GLU796  ALA797  LYS798  CYS799  TRP800  GLU811  SER814 

> <Gold.Protein.RotatedAtoms>
  152.5196  134.3520  159.9254 H   0  0  0  0  0  0  0  0  0  0  0  0  # atno 6907 bound_to 6896
  151.3470  133.3933  159.2684 H   0  0  0  0  0  0  0  0  0  0  0  0  # atno 6908 bound_to 6896
  150.9757  134.9140  159.7872 H   0  0  0  0  0  0  0  0  0  0  0  0  # atno 6909 bound_to 6896
  145.1567  140.8857  143.3615 H   0  0  0  0  0  0  0  0  0  0  0  0  # atno 7974 bound_to 7965
  154.6262  140.2512  155.7489 H   0  0  0  0  0  0  0  0  0  0  0  0  # atno 8008 bound_to 7997
  156.2454  140.2916  156.0512 H   0  0  0  0  0  0  0  0  0  0  0  0  # atno 8009 bound_to 7997
  155.1818  140.0389  157.2874 H   0  0  0  0  0  0  0  0  0  0  0  0  # atno 8010 bound_to 7997
  139.9768  144.5855  150.7936 H   0  0  0  0  0  0  0  0  0  0  0  0  # atno 10167 bound_to 10162
  156.8286  130.5480  149.5689 H   0  0  0  0  0  0  0  0  0  0  0  0  # atno 10718 bound_to 10713
  152.9849  135.5643  154.5383 H   0  0  0  0  0  0  0  0  0  0  0  0  # atno 10763 bound_to 10752
  154.4842  135.2790  155.1549 H   0  0  0  0  0  0  0  0  0  0  0  0  # atno 10764 bound_to 10752
  154.3045  135.6301  153.5492 H   0  0  0  0  0  0  0  0  0  0  0  0  # atno 10765 bound_to 10752
  140.5963  134.4993  157.5199 H   0  0  0  0  0  0  0  0  0  0  0  0  # atno 11005 bound_to 11000
  145.0374  139.3289  143.5994 LP  0  0  0  0  0  0  0  0  0  0  0  0  # atno 17320 bound_to 7965
  146.3488  139.9735  142.8703 LP  0  0  0  0  0  0  0  0  0  0  0  0  # atno 17321 bound_to 7965
  140.7503  143.2953  151.3222 LP  0  0  0  0  0  0  0  0  0  0  0  0  # atno 17342 bound_to 10162
  139.6439  144.0487  152.2576 LP  0  0  0  0  0  0  0  0  0  0  0  0  # atno 17343 bound_to 10162
  156.0947  130.5923  150.9794 LP  0  0  0  0  0  0  0  0  0  0  0  0  # atno 17370 bound_to 10713
  157.6419  131.0909  150.8234 LP  0  0  0  0  0  0  0  0  0  0  0  0  # atno 17371 bound_to 10713
  139.9252  134.8071  156.1091 LP  0  0  0  0  0  0  0  0  0  0  0  0  # atno 17394 bound_to 11000
  141.0901  133.6718  156.2523 LP  0  0  0  0  0  0  0  0  0  0  0  0  # atno 17395 bound_to 11000

$$$$
