#       Name:                AV-unprocessed.smi:1538
#       Creating user name   scv26
#       Creation time:       Fri Mar 27 06:36:00 2020


#       File generated by GOLD software.
#

@<TRIPOS>MOLECULE
AV-unprocessed.smi:1538
    41    42     1
SMALL
NO_CHARGES


@<TRIPOS>ATOM
      1 ****        -5.5675   1.9057   1.3690 C.3            1 S1                 0.0000
      2 ****        -4.1548   1.6406   1.0926 N.am           1 S1                 0.0000
      3 ****        -3.5621   0.5556   1.8872 C.3            1 S1                 0.0000
      4 ****        -2.0281   0.5699   1.8985 C.3            1 S1                 0.0000
      5 ****        -1.4936   0.7333   0.4701 C.3            1 S1                 0.0000
      6 ****         0.0405   0.6808   0.4567 C.2            1 S1                 0.0000
      7 ****         0.6984   1.4935   1.1072 O.2            1 S1                 0.0000
      8 ****         0.6009  -0.2854  -0.2851 N.am           1 S1                 0.0000
      9 ****         2.0365  -0.4947  -0.4078 C.3            1 S1                 0.0000
     10 ****         2.3347  -1.6781  -1.3377 C.3            1 S1                 0.0000
     11 ****         3.7741  -1.9126  -1.4684 N.pl3          1 S1                 0.0000
     12 ****         4.6426  -1.2879  -2.3263 C.2            1 S1                 0.0000
     13 ****         5.8812  -1.8260  -2.0883 C.2            1 S1                 0.0000
     14 ****         5.7162  -2.7555  -1.0965 N.pl3          1 S1                 1.0000
     15 ****         4.4341  -2.8060  -0.7200 C.2            1 S1                 0.0000
     16 ****        -2.0100   2.0582  -0.1265 C.3            1 S1                 0.0000
     17 ****        -3.5046   2.3249   0.1202 C.2            1 S1                 0.0000
     18 ****        -4.0586   3.1849  -0.5653 O.2            1 S1                 0.0000
     19 ****        -6.1607   1.8636   0.4541 H              1 S1                 0.0000
     20 ****        -5.6876   2.8964   1.8090 H              1 S1                 0.0000
     21 ****        -5.9940   1.1798   2.0624 H              1 S1                 0.0000
     22 ****        -3.9246   0.6029   2.9151 H              1 S1                 0.0000
     23 ****        -3.9140  -0.3913   1.4757 H              1 S1                 0.0000
     24 ****        -1.6790   1.3906   2.5276 H              1 S1                 0.0000
     25 ****        -1.6543  -0.3496   2.3509 H              1 S1                 0.0000
     26 ****        -1.8745  -0.0908  -0.1364 H              1 S1                 0.0000
     27 ****        -0.0058  -0.9144  -0.7910 H              1 S1                 0.0000
     28 ****         2.5025   0.4132  -0.7947 H              1 S1                 0.0000
     29 ****         2.4595  -0.6788   0.5812 H              1 S1                 0.0000
     30 ****         1.8690  -2.5925  -0.9662 H              1 S1                 0.0000
     31 ****         1.9352  -1.4953  -2.3362 H              1 S1                 0.0000
     32 ****         4.3237  -0.5258  -3.0227 H              1 S1                 0.0000
     33 ****         6.8421  -1.6217  -2.5381 H              1 S1                 0.0000
     34 ****         4.0158  -3.4426   0.0395 H              1 S1                 0.0000
     35 ****        -1.4642   2.9047   0.2934 H              1 S1                 0.0000
     36 ****        -1.8237   2.0748  -1.2013 H              1 S1                 0.0000
     37 ****         6.4561  -3.3231  -0.7023 H              1 S1                 0.0000
     38 ****         0.2335   2.1937   1.6490 LP             1 S1                 0.0000
     39 ****         1.6975   1.4531   1.0937 LP             1 S1                 0.0000
     40 ****        -5.0233   3.4002  -0.4137 LP             1 S1                 0.0000
     41 ****        -3.5438   3.6679  -1.2736 LP             1 S1                 0.0000
@<TRIPOS>BOND
    1    1    2 1     
    2    1   19 1     
    3    1   20 1     
    4    1   21 1     
    5    2   17 am    
    6    2    3 1     
    7    3    4 1     
    8    3   22 1     
    9    3   23 1     
   10    4    5 1     
   11    4   24 1     
   12    4   25 1     
   13    5    6 1     
   14    5   16 1     
   15    5   26 1     
   16    6    7 2     
   17    6    8 am    
   18    8    9 1     
   19    8   27 1     
   20    9   10 1     
   21    9   28 1     
   22    9   29 1     
   23   10   11 1     
   24   10   30 1     
   25   10   31 1     
   26   11   15 1     
   27   11   12 1     
   28   12   13 2     
   29   12   32 1     
   30   13   14 1     
   31   13   33 1     
   32   14   15 2     
   33   14   37 1     
   34   15   34 1     
   35   16   17 1     
   36   16   35 1     
   37   16   36 1     
   38   17   18 2     
   39    7   38 1     
   40    7   39 1     
   41   18   40 1     
   42   18   41 1     
@<TRIPOS>SUBSTRUCTURE
      1 S1             1
@<TRIPOS>SET
LONE_PAIRS      STATIC     ATOMS    <user>   **** ""
4 38 39 40 41
DONOR_HYDROGENS      STATIC     ATOMS    <user>   **** ""
2 27 37
ATOM$BLUE        STATIC     ATOMS    COLORGROUP SYSTEM
4 38 39 40 41
ATOM$RED        STATIC     ATOMS    COLORGROUP SYSTEM
2 27 37
