AV-unprocessed.smi:1783|AV-procd|sdf|7192|dock3
  -GOLD-   22720 8433D 1   1.00000     0.00000
 Structure written by MMmdl.
 30 31  0  0  0  0  0  0  0  0  1 V2000
  149.0941  141.6183  156.6882 O   0  0  0  0  0  0  0  0  0  0  0  0
  149.9945  140.8972  156.2585 C   0  0  0  0  0  0  0  0  0  0  0  0
  151.2288  140.7933  156.7898 N   0  0  0  0  0  0  0  0  0  0  0  0
  151.7771  141.4278  157.9179 C   0  0  0  0  0  0  0  0  0  0  0  0
  151.3551  142.6144  158.4290 C   0  0  0  0  0  0  0  0  0  0  0  0
  151.9695  143.2117  159.6028 C   0  0  0  0  0  0  0  0  0  0  0  0
  151.4519  144.5138  160.1945 C   0  0  0  0  0  0  0  0  0  0  0  0
  152.0428  144.7877  161.3585 F   0  0  0  0  0  0  0  0  0  0  0  0
  151.6973  145.5206  159.3573 F   0  0  0  0  0  0  0  0  0  0  0  0
  150.1356  144.4553  160.3972 F   0  0  0  0  0  0  0  0  0  0  0  0
  152.9641  142.5135  160.1806 C   0  0  0  0  0  0  0  0  0  0  0  0
  153.4040  141.2935  159.6627 N   0  0  0  0  0  0  0  0  0  0  0  0
  152.8770  140.6975  158.5697 C   0  0  0  0  0  0  0  0  0  0  0  0
  153.3173  139.6167  158.1793 O   0  0  0  0  0  0  0  0  0  0  0  0
  149.7429  140.0341  155.0163 C   0  0  2  0  0  0  0  0  0  0  0  0
  148.8641  138.7956  155.2764 C   0  0  0  0  0  0  0  0  0  0  0  0
  149.8162  137.6300  155.0893 C   0  0  0  0  0  0  0  0  0  0  0  0
  150.8218  138.2014  154.1007 C   0  0  0  0  0  0  0  0  0  0  0  0
  150.9977  139.5307  154.5630 O   0  0  0  0  0  0  0  0  0  0  0  0
  154.1616  140.8354  160.1482 H   0  0  0  0  0  0  0  0  0  0  0  0
  151.8748  140.1977  156.2918 H   0  0  0  0  0  0  0  0  0  0  0  0
  150.5359  143.1538  157.9836 H   0  0  0  0  0  0  0  0  0  0  0  0
  153.4896  142.8253  161.0713 H   0  0  0  0  0  0  0  0  0  0  0  0
  149.2974  140.6352  154.2216 H   0  0  0  0  0  0  0  0  0  0  0  0
  148.3900  138.7802  156.2589 H   0  0  0  0  0  0  0  0  0  0  0  0
  148.0678  138.7495  154.5325 H   0  0  0  0  0  0  0  0  0  0  0  0
  150.3126  137.3960  156.0319 H   0  0  0  0  0  0  0  0  0  0  0  0
  149.3238  136.7275  154.7264 H   0  0  0  0  0  0  0  0  0  0  0  0
  151.7631  137.6518  154.0879 H   0  0  0  0  0  0  0  0  0  0  0  0
  150.4124  138.2147  153.0894 H   0  0  0  0  0  0  0  0  0  0  0  0
  1  2  2  0  0  0  0
  2  3  1  0  0  0  0
  2 15  1  0  0  0  0
  3  4  1  0  0  0  0
  3 21  1  0  0  0  0
  4 13  1  0  0  0  0
  4  5  2  0  0  0  0
  5  6  1  0  0  0  0
  5 22  1  0  0  0  0
  6  7  1  0  0  0  0
  6 11  2  0  0  0  0
  7  8  1  0  0  0  0
  7  9  1  0  0  0  0
  7 10  1  0  0  0  0
 11 12  1  0  0  0  0
 11 23  1  0  0  0  0
 12 20  1  0  0  0  0
 12 13  1  0  0  0  0
 13 14  2  0  0  0  0
 15 19  1  0  0  0  0
 15 16  1  0  0  0  0
 15 24  1  0  0  0  0
 16 17  1  0  0  0  0
 16 25  1  0  0  0  0
 16 26  1  0  0  0  0
 17 18  1  0  0  0  0
 17 27  1  0  0  0  0
 17 28  1  0  0  0  0
 18 19  1  0  0  0  0
 18 29  1  0  0  0  0
 18 30  1  0  0  0  0
M  END
> <s_m_source_file>
AV-unprocessed.smi

> <i_m_source_file_index>
1783

> <i_lp_mmshare_version>
43012

> <i_f3d_flags>
0

> <s_epik_input>
TzFbQ0gyXVtDSDJdW0NIMl1bQ0BIXTFDKD1PKVtOSF1jMltjSF1jKEMoRikoRilGKVtjSF1bbkhdYzI9Tw==

> <s_epik_cmdline>
J2VwaWtfcHl0aG9uJywgJy1waCcsICc3LjAnLCAnLXRuJywgJzgnLCAnLW1hJywgJzIwMCcsICctbWV0YWxfYmluZGluZycsICctaW1hZScsICc8aW5maWxlLm1hZT4nLCAnLW9tYWUnLCAnPG91dGZpbGUubWFlPic=

> <r_lp_tautomer_probability>
0.999

> <r_epik_Ionization_Penalty>
0.00885957

> <r_epik_Ionization_Penalty_Charging>
0.00885947

> <r_epik_Ionization_Penalty_Neutral>
9.33956e-08

> <r_epik_State_Penalty>
0.00669851

> <r_epik_Charging_Adjusted_Penalty>
0.015558

> <i_epik_Tot_Q>
0

> <i_epik_Tot_abs_Q>
0

> <r_epik_Metal_State_Penalty>
0.320804

> <b_epik_Metal_Only>
0

> <s_lp_Force_Field>
OPLS_2005

> <r_lp_Energy>
32.169

> <b_lp_Chiralities_Consistent>
1

> <s_lp_Variant>
AV-unprocessed.smi:1783-1

> <Gold.Version>
5.8.1

> <Gold.Id.Protein>
6NUR|6NUR_protein|mol2

> <Gold.PLP.Fitness>
40.3146

> <Gold.PLP.PLP>
-36.4763

> <Gold.PLP.part.hbond>
-2.0000

> <Gold.PLP.part.metal>
0.0000

> <Gold.PLP.part.buried>
-5.1809

> <Gold.PLP.part.nonpolar>
-30.7433

> <Gold.PLP.part.repulsive>
0.9781

> <Gold.PLP.ligand.clash>
1.0212

> <Gold.PLP.ligand.torsion>
0.5892

> <Gold.PLP.Chemscore.Hbond>
2.0000

> <Gold.PLP.Chemscore.CHOScore>
0.0000

> <Gold.PLP.Chemscore.Metal>
0.0000

> <Gold.Chemscore.Hbonds>
donor molecule, donor type, donor heavy atom, donor atom, acceptor molecule, acceptor atom, score
      P1  H  7989  7998       L1    19  1.00
      P1  H  7997  8010       L1    14  1.00

> <Gold.PLP.Chemscore.Internal.Correction>
0.0380

> <Gold.Rescore>
     Score         DG    S(hbond)    S(metal)    S(lipo)     H(rot)  DE(clash)    DE(int)     intcor
     13.89     -16.67       1.62        0.00      71.36       1.00       0.49       2.29       ----

> <Gold.Chemscore.Fitness>
13.8884

> <Gold.Chemscore.DG>
-16.6668

> <Gold.Chemscore.ZeroCoef>
-5.4800

> <Gold.Chemscore.Hbond>
1.6161

> <Gold.Chemscore.Metal>
0.0000

> <Gold.Chemscore.Lipo>
71.3600

> <Gold.Chemscore.Internal_Hbond>
0.0000

> <Gold.Chemscore.DEClash>
0.4874

> <Gold.Chemscore.DEInternal>
2.2910

> <Gold.Chemscore.Rot>
1.0000

> <Gold.Chemscore.Internal.Correction>
   9.000000E+99

> <Gold.Chemscore.Hbonds>
donor molecule, donor type, donor heavy atom, donor atom, acceptor molecule, acceptor atom, score
      P1  H  7989  7998       L1    19  0.44
      P1  H  7997  8010       L1    14  0.50

> <Gold.Chemscore.Hbond.Weighted>
-5.3976

> <Gold.Chemscore.Metal.Weighted>
-0.0000

> <Gold.Chemscore.Lipo.Weighted>
-8.3491

> <Gold.Chemscore.Internal_Hbond.Weighted>
0.0000

> <Gold.Chemscore.DEClash.Weighted>
0.4874

> <Gold.Chemscore.DEInternal.Weighted>
2.2910

> <Gold.Chemscore.Rot.Weighted>
2.5600

> <Gold.Chemscore.Internal.Correction.Weighted>
   9.000000E+99

> <Gold.Protein.RotatedTorsions>
[ 6907 6896 6895 6894 ] final  -19.05 input  -60.11 | X-H torsion
[ 7974 7965 7964 7962 ] final  -68.94 input  175.53 | X-H torsion
[ 8008 7997 7996 7995 ] final   32.46 input   59.86 | X-H torsion
[ 10167 10162 10161 10158 ] final  122.17 input  -65.29 | X-H torsion
[ 10718 10713 10712 10709 ] final -100.65 input   66.30 | X-H torsion
[ 10763 10752 10751 10750 ] final  155.52 input  -60.55 | X-H torsion
[ 11005 11000 10999 10996 ] final  -62.46 input  -57.11 | X-H torsion

> <Gold.Protein.ActiveResidues>
 VAL166  LYS551  ARG553  GLY616  TRP617  ASP618  TYR619  PRO620  LYS621  CYS622 
 ASP623  PHE694  ASN695  SER759  ASP760  ASP761  ALA762  ILE779  LEU786  VAL792 
 PHE793  MET794  SER795  GLU796  ALA797  LYS798  CYS799  TRP800  GLU811  SER814 

> <Gold.Protein.RotatedAtoms>
  151.2689  135.0678  159.9126 H   0  0  0  0  0  0  0  0  0  0  0  0  # atno 6907 bound_to 6896
  152.5354  134.0152  159.7966 H   0  0  0  0  0  0  0  0  0  0  0  0  # atno 6908 bound_to 6896
  151.0386  133.5676  159.2684 H   0  0  0  0  0  0  0  0  0  0  0  0  # atno 6909 bound_to 6896
  145.7101  140.9082  143.0685 H   0  0  0  0  0  0  0  0  0  0  0  0  # atno 7974 bound_to 7965
  155.1228  140.3250  155.4493 H   0  0  0  0  0  0  0  0  0  0  0  0  # atno 8008 bound_to 7997
  156.2658  140.2024  156.6298 H   0  0  0  0  0  0  0  0  0  0  0  0  # atno 8009 bound_to 7997
  154.6671  140.0540  157.0112 H   0  0  0  0  0  0  0  0  0  0  0  0  # atno 8010 bound_to 7997
  139.5875  144.7012  151.3373 H   0  0  0  0  0  0  0  0  0  0  0  0  # atno 10167 bound_to 10162
  156.0169  130.5337  150.6847 H   0  0  0  0  0  0  0  0  0  0  0  0  # atno 10718 bound_to 10713
  154.1697  135.2805  155.3084 H   0  0  0  0  0  0  0  0  0  0  0  0  # atno 10763 bound_to 10752
  154.6084  135.5507  153.7451 H   0  0  0  0  0  0  0  0  0  0  0  0  # atno 10764 bound_to 10752
  153.0168  135.6409  154.1838 H   0  0  0  0  0  0  0  0  0  0  0  0  # atno 10765 bound_to 10752
  141.1360  133.6640  156.5530 H   0  0  0  0  0  0  0  0  0  0  0  0  # atno 11005 bound_to 11000
  144.6944  139.9062  143.7461 LP  0  0  0  0  0  0  0  0  0  0  0  0  # atno 17320 bound_to 7965
  146.0720  139.3709  143.0517 LP  0  0  0  0  0  0  0  0  0  0  0  0  # atno 17321 bound_to 7965
  140.7144  143.7305  150.7627 LP  0  0  0  0  0  0  0  0  0  0  0  0  # atno 17342 bound_to 10162
  140.0853  143.4929  152.2508 LP  0  0  0  0  0  0  0  0  0  0  0  0  # atno 17343 bound_to 10162
  157.4542  131.0876  151.0814 LP  0  0  0  0  0  0  0  0  0  0  0  0  # atno 17370 bound_to 10713
  157.1321  130.6106  149.5532 LP  0  0  0  0  0  0  0  0  0  0  0  0  # atno 17371 bound_to 10713
  140.4048  134.7324  157.4801 LP  0  0  0  0  0  0  0  0  0  0  0  0  # atno 17394 bound_to 11000
  140.0469  134.6186  155.8909 LP  0  0  0  0  0  0  0  0  0  0  0  0  # atno 17395 bound_to 11000

$$$$
