AV-unprocessed.smi:1195|AV-procd|sdf|4995|dock7
  -GOLD-   22720 4 03D 1   1.00000     0.00000
 Structure written by MMmdl.
 39 40  0  0  0  0  0  0  0  0  1 V2000
  146.7617  136.5738  153.0040 N   0  0  0  0  0  0  0  0  0  0  0  0
  146.0737  137.7178  152.9777 C   0  0  0  0  0  0  0  0  0  0  0  0
  144.9191  137.7916  153.3963 O   0  0  0  0  0  0  0  0  0  0  0  0
  146.8014  138.9380  152.3975 C   0  0  0  0  0  0  0  0  0  0  0  0
  147.7508  139.5255  153.3289 N   0  0  0  0  0  0  0  0  0  0  0  0
  147.7419  140.7983  153.8657 C   0  0  0  0  0  0  0  0  0  0  0  0
  148.8339  140.8622  154.6843 C   0  0  0  0  0  0  0  0  0  0  0  0
  149.2952  141.9374  155.4852 N   0  0  0  0  0  0  0  0  0  0  0  0
  150.2983  141.9153  156.3782 C   0  0  0  0  0  0  0  0  0  0  0  0
  150.9817  140.9278  156.6499 O   0  0  0  0  0  0  0  0  0  0  0  0
  150.4690  143.1159  156.9499 N   0  0  0  0  0  0  0  0  0  0  0  0
  151.4696  143.4289  157.9656 C   0  0  2  0  0  0  0  0  0  0  0  0
  151.5602  142.2722  158.9771 C   0  0  0  0  0  0  0  0  0  0  0  0
  152.5749  142.5763  160.0936 C   0  0  0  0  0  0  0  0  0  0  0  0
  152.2833  143.9135  160.8008 C   0  0  2  0  0  0  0  0  0  0  0  0
  151.1101  143.8030  161.5822 O   0  0  0  0  0  0  0  0  0  0  0  0
  152.1389  145.0692  159.7926 C   0  0  0  0  0  0  0  0  0  0  0  0
  151.1248  144.7507  158.6803 C   0  0  0  0  0  0  0  0  0  0  0  0
  149.4594  139.5916  154.5955 C   0  0  0  0  0  0  0  0  0  0  0  0
  148.8014  138.7900  153.7718 N   0  0  0  0  0  0  0  0  0  0  0  0
  146.3306  135.7401  153.3766 H   0  0  0  0  0  0  0  0  0  0  0  0
  147.7079  136.5447  152.6538 H   0  0  0  0  0  0  0  0  0  0  0  0
  147.3245  138.6497  151.4843 H   0  0  0  0  0  0  0  0  0  0  0  0
  146.0721  139.7011  152.1229 H   0  0  0  0  0  0  0  0  0  0  0  0
  146.9740  141.5173  153.6219 H   0  0  0  0  0  0  0  0  0  0  0  0
  148.8086  142.8141  155.3675 H   0  0  0  0  0  0  0  0  0  0  0  0
  149.8636  143.8707  156.6619 H   0  0  0  0  0  0  0  0  0  0  0  0
  152.4433  143.5319  157.4823 H   0  0  0  0  0  0  0  0  0  0  0  0
  150.5794  142.0880  159.4178 H   0  0  0  0  0  0  0  0  0  0  0  0
  151.8453  141.3513  158.4670 H   0  0  0  0  0  0  0  0  0  0  0  0
  152.5904  141.7608  160.8178 H   0  0  0  0  0  0  0  0  0  0  0  0
  153.5751  142.6151  159.6602 H   0  0  0  0  0  0  0  0  0  0  0  0
  153.1010  144.1386  161.4862 H   0  0  0  0  0  0  0  0  0  0  0  0
  150.3664  144.0160  161.0395 H   0  0  0  0  0  0  0  0  0  0  0  0
  151.8552  145.9881  160.3071 H   0  0  0  0  0  0  0  0  0  0  0  0
  153.1099  145.2651  159.3362 H   0  0  0  0  0  0  0  0  0  0  0  0
  151.1037  145.5727  157.9639 H   0  0  0  0  0  0  0  0  0  0  0  0
  150.1221  144.6902  159.1058 H   0  0  0  0  0  0  0  0  0  0  0  0
  150.3502  139.2318  155.0889 H   0  0  0  0  0  0  0  0  0  0  0  0
  1  2  1  0  0  0  0
  1 21  1  0  0  0  0
  1 22  1  0  0  0  0
  2  3  2  0  0  0  0
  2  4  1  0  0  0  0
  4  5  1  0  0  0  0
  4 23  1  0  0  0  0
  4 24  1  0  0  0  0
  5 20  1  0  0  0  0
  5  6  1  0  0  0  0
  6  7  2  0  0  0  0
  6 25  1  0  0  0  0
  7  8  1  0  0  0  0
  7 19  1  0  0  0  0
  8  9  1  0  0  0  0
  8 26  1  0  0  0  0
  9 10  2  0  0  0  0
  9 11  1  0  0  0  0
 11 12  1  0  0  0  0
 11 27  1  0  0  0  0
 12 18  1  0  0  0  0
 12 13  1  0  0  0  0
 12 28  1  0  0  0  0
 13 14  1  0  0  0  0
 13 29  1  0  0  0  0
 13 30  1  0  0  0  0
 14 15  1  0  0  0  0
 14 31  1  0  0  0  0
 14 32  1  0  0  0  0
 15 16  1  0  0  0  0
 15 17  1  0  0  0  0
 15 33  1  0  0  0  0
 16 34  1  0  0  0  0
 17 18  1  0  0  0  0
 17 35  1  0  0  0  0
 17 36  1  0  0  0  0
 18 37  1  0  0  0  0
 18 38  1  0  0  0  0
 19 20  2  0  0  0  0
 19 39  1  0  0  0  0
M  END
> <s_m_source_file>
AV-unprocessed.smi

> <i_m_source_file_index>
1195

> <i_lp_mmshare_version>
43012

> <i_f3d_flags>
0

> <s_epik_input>
W05IMl1DKD1PKVtDSDJdbjFbY0hdYyhbY0hdbjEpW05IXUMoPU8pW05IXVtDQEBIXTJbQ0gyXVtDSDJdW0NAQEhdKFtPSF0pW0NIMl1bQ0gyXTI=

> <s_epik_cmdline>
J2VwaWtfcHl0aG9uJywgJy1waCcsICc3LjAnLCAnLXRuJywgJzgnLCAnLW1hJywgJzIwMCcsICctbWV0YWxfYmluZGluZycsICctaW1hZScsICc8aW5maWxlLm1hZT4nLCAnLW9tYWUnLCAnPG91dGZpbGUubWFlPic=

> <r_lp_tautomer_probability>
1

> <r_epik_Ionization_Penalty>
4.75851e-05

> <r_epik_Ionization_Penalty_Charging>
0

> <r_epik_Ionization_Penalty_Neutral>
4.75851e-05

> <r_epik_State_Penalty>
-0

> <r_epik_Charging_Adjusted_Penalty>
0

> <i_epik_Tot_Q>
0

> <i_epik_Tot_abs_Q>
0

> <r_epik_Metal_State_Penalty>
-0

> <b_epik_Metal_Only>
0

> <s_lp_Force_Field>
OPLS_2005

> <r_lp_Energy>
14.5792

> <b_lp_Chiralities_Consistent>
1

> <s_lp_Variant>
AV-unprocessed.smi:1195-2

> <Gold.Version>
5.8.1

> <Gold.Id.Protein>
6NUR|6NUR_protein|mol2

> <Gold.PLP.Fitness>
50.1294

> <Gold.PLP.PLP>
-42.1497

> <Gold.PLP.part.hbond>
-5.0758

> <Gold.PLP.part.metal>
0.0000

> <Gold.PLP.part.buried>
-5.8941

> <Gold.PLP.part.nonpolar>
-33.7458

> <Gold.PLP.part.repulsive>
1.6560

> <Gold.PLP.ligand.clash>
0.0303

> <Gold.PLP.ligand.torsion>
0.4917

> <Gold.PLP.Chemscore.Hbond>
2.9920

> <Gold.PLP.Chemscore.CHOScore>
0.0000

> <Gold.PLP.Chemscore.Metal>
0.0000

> <Gold.Chemscore.Hbonds>
donor molecule, donor type, donor heavy atom, donor atom, acceptor molecule, acceptor atom, score
      L1  H     1    22       P1  7948  0.94
      L1  H     8    26       P1  8028  0.93
      L1  H    11    27       P1  8028  1.00
      P1  H  6933  6945       L1    16  0.02

> <Gold.PLP.Chemscore.Internal.Correction>
0.0173

> <Gold.Rescore>
     Score         DG    S(hbond)    S(metal)    S(lipo)     H(rot)  DE(clash)    DE(int)     intcor
     16.43     -19.40       2.79        0.00      96.79       2.62       0.07       2.90       ----

> <Gold.Chemscore.Fitness>
16.4308

> <Gold.Chemscore.DG>
-19.4022

> <Gold.Chemscore.ZeroCoef>
-5.4800

> <Gold.Chemscore.Hbond>
2.7870

> <Gold.Chemscore.Metal>
0.0000

> <Gold.Chemscore.Lipo>
96.7866

> <Gold.Chemscore.Internal_Hbond>
0.0000

> <Gold.Chemscore.DEClash>
0.0667

> <Gold.Chemscore.DEInternal>
2.9047

> <Gold.Chemscore.Rot>
2.6212

> <Gold.Chemscore.Internal.Correction>
   9.000000E+99

> <Gold.Chemscore.Hbonds>
donor molecule, donor type, donor heavy atom, donor atom, acceptor molecule, acceptor atom, score
      L1  H     1    22       P1  7948  0.90
      L1  H     8    26       P1  8028  0.89
      L1  H    11    27       P1  8028  0.98

> <Gold.Chemscore.Hbond.Weighted>
-9.3084

> <Gold.Chemscore.Metal.Weighted>
-0.0000

> <Gold.Chemscore.Lipo.Weighted>
-11.3240

> <Gold.Chemscore.Internal_Hbond.Weighted>
0.0000

> <Gold.Chemscore.DEClash.Weighted>
0.0667

> <Gold.Chemscore.DEInternal.Weighted>
2.9047

> <Gold.Chemscore.Rot.Weighted>
6.7103

> <Gold.Chemscore.Internal.Correction.Weighted>
   9.000000E+99

> <Gold.Protein.RotatedTorsions>
[ 6907 6896 6895 6894 ] final -136.47 input  -60.11 | X-H torsion
[ 7974 7965 7964 7962 ] final  147.82 input  175.53 | X-H torsion
[ 8008 7997 7996 7995 ] final  -84.29 input   59.86 | X-H torsion
[ 10167 10162 10161 10158 ] final   34.35 input  -65.29 | X-H torsion
[ 10718 10713 10712 10709 ] final  150.38 input   66.30 | X-H torsion
[ 10763 10752 10751 10750 ] final -144.26 input  -60.55 | X-H torsion
[ 11005 11000 10999 10996 ] final   33.26 input  -57.11 | X-H torsion

> <Gold.Protein.ActiveResidues>
 VAL166  LYS551  ARG553  GLY616  TRP617  ASP618  TYR619  PRO620  LYS621  CYS622 
 ASP623  PHE694  ASN695  SER759  ASP760  ASP761  ALA762  ILE779  LEU786  VAL792 
 PHE793  MET794  SER795  GLU796  ALA797  LYS798  CYS799  TRP800  GLU811  SER814 

> <Gold.Protein.RotatedAtoms>
  151.0104  133.5970  159.2683 H   0  0  0  0  0  0  0  0  0  0  0  0  # atno 6907 bound_to 6896
  151.3124  135.0796  159.9287 H   0  0  0  0  0  0  0  0  0  0  0  0  # atno 6908 bound_to 6896
  152.5298  133.9767  159.7841 H   0  0  0  0  0  0  0  0  0  0  0  0  # atno 6909 bound_to 6896
  144.8562  139.6076  143.5951 H   0  0  0  0  0  0  0  0  0  0  0  0  # atno 7974 bound_to 7965
  154.6282  140.0607  156.9700 H   0  0  0  0  0  0  0  0  0  0  0  0  # atno 8008 bound_to 7997
  155.1708  140.3291  155.4375 H   0  0  0  0  0  0  0  0  0  0  0  0  # atno 8009 bound_to 7997
  156.2469  140.1914  156.6810 H   0  0  0  0  0  0  0  0  0  0  0  0  # atno 8010 bound_to 7997
  140.4323  144.1307  150.6161 H   0  0  0  0  0  0  0  0  0  0  0  0  # atno 10167 bound_to 10162
  157.2842  131.0841  151.1509 H   0  0  0  0  0  0  0  0  0  0  0  0  # atno 10718 bound_to 10713
  154.8435  135.3445  154.6318 H   0  0  0  0  0  0  0  0  0  0  0  0  # atno 10763 bound_to 10752
  153.6928  135.6974  153.5089 H   0  0  0  0  0  0  0  0  0  0  0  0  # atno 10764 bound_to 10752
  153.2582  135.4331  155.0822 H   0  0  0  0  0  0  0  0  0  0  0  0  # atno 10765 bound_to 10752
  140.2650  134.3148  155.7845 H   0  0  0  0  0  0  0  0  0  0  0  0  # atno 11005 bound_to 11000
  146.2825  139.6914  142.9219 LP  0  0  0  0  0  0  0  0  0  0  0  0  # atno 17320 bound_to 7965
  145.4402  141.0422  143.2862 LP  0  0  0  0  0  0  0  0  0  0  0  0  # atno 17321 bound_to 7965
  140.4413  143.2525  151.9469 LP  0  0  0  0  0  0  0  0  0  0  0  0  # atno 17342 bound_to 10162
  139.4785  144.5652  151.8177 LP  0  0  0  0  0  0  0  0  0  0  0  0  # atno 17343 bound_to 10162
  157.2931  130.6806  149.6124 LP  0  0  0  0  0  0  0  0  0  0  0  0  # atno 17370 bound_to 10713
  155.9665  130.4415  150.5341 LP  0  0  0  0  0  0  0  0  0  0  0  0  # atno 17371 bound_to 10713
  141.2185  133.7432  156.9246 LP  0  0  0  0  0  0  0  0  0  0  0  0  # atno 17394 bound_to 11000
  140.1428  134.9282  157.2489 LP  0  0  0  0  0  0  0  0  0  0  0  0  # atno 17395 bound_to 11000

$$$$
