AV-unprocessed.smi:2397|AV-procd|sdf|9493|dock1
  -GOLD-   2272013123D 1   1.00000     0.00000
 Structure written by MMmdl.
 36 37  0  0  0  0  0  0  0  0  1 V2000
  152.6663  142.9920  160.5601 C   0  0  0  0  0  0  0  0  0  0  0  0
  152.6008  143.0577  159.0262 C   0  0  0  0  0  0  0  0  0  0  0  0
  152.6899  144.4915  158.4817 C   0  0  0  0  0  0  0  0  0  0  0  0
  151.3916  142.3135  158.4752 C   0  0  0  0  0  0  0  0  0  0  0  0
  150.1889  142.8214  158.7599 N   0  0  0  0  0  0  0  0  0  0  0  0
  149.1176  142.1632  158.2700 C   0  0  0  0  0  0  0  0  0  0  0  0
  149.2527  140.9940  157.4957 C   0  0  0  0  0  0  0  0  0  0  0  0
  150.5722  140.5364  157.2611 C   0  0  0  0  0  0  0  0  0  0  0  0
  150.8640  139.3872  156.4986 N   0  0  0  0  0  0  0  0  0  0  0  0
  151.9828  138.6368  157.0652 C   0  0  0  0  0  0  0  0  0  0  0  0
  152.1401  137.2811  156.3621 C   0  0  0  0  0  0  0  0  0  0  0  0
  152.2806  137.4939  154.9643 O   0  0  0  0  0  0  0  0  0  0  0  0
  151.1202  138.1027  154.4108 C   0  0  0  0  0  0  0  0  0  0  0  0
  150.8905  139.5007  155.0323 C   0  0  1  0  0  0  0  0  0  0  0  0
  149.6176  140.0989  154.4053 C   0  0  0  0  0  0  0  0  0  0  0  0
  148.4775  139.4297  154.5940 N   0  0  0  0  0  0  0  0  0  0  0  0
  149.6589  141.1528  153.7726 O   0  0  0  0  0  0  0  0  0  0  0  0
  151.6340  141.2146  157.7529 N   0  0  0  0  0  0  0  0  0  0  0  0
  152.6756  141.9586  160.9073 H   0  0  0  0  0  0  0  0  0  0  0  0
  151.8106  143.4898  161.0171 H   0  0  0  0  0  0  0  0  0  0  0  0
  153.5688  143.4749  160.9351 H   0  0  0  0  0  0  0  0  0  0  0  0
  153.4901  142.5396  158.6624 H   0  0  0  0  0  0  0  0  0  0  0  0
  152.7118  144.4952  157.3916 H   0  0  0  0  0  0  0  0  0  0  0  0
  153.5949  144.9884  158.8320 H   0  0  0  0  0  0  0  0  0  0  0  0
  151.8377  145.0924  158.7999 H   0  0  0  0  0  0  0  0  0  0  0  0
  148.1444  142.5738  158.4942 H   0  0  0  0  0  0  0  0  0  0  0  0
  148.3814  140.4888  157.1077 H   0  0  0  0  0  0  0  0  0  0  0  0
  152.8984  139.2201  156.9562 H   0  0  0  0  0  0  0  0  0  0  0  0
  151.8389  138.4687  158.1335 H   0  0  0  0  0  0  0  0  0  0  0  0
  153.0255  136.7652  156.7337 H   0  0  0  0  0  0  0  0  0  0  0  0
  151.2851  136.6334  156.5636 H   0  0  0  0  0  0  0  0  0  0  0  0
  151.2608  138.1837  153.3322 H   0  0  0  0  0  0  0  0  0  0  0  0
  150.2570  137.4522  154.5669 H   0  0  0  0  0  0  0  0  0  0  0  0
  151.7423  140.1266  154.7609 H   0  0  0  0  0  0  0  0  0  0  0  0
  147.6153  139.7803  154.2031 H   0  0  0  0  0  0  0  0  0  0  0  0
  148.4835  138.5732  155.1286 H   0  0  0  0  0  0  0  0  0  0  0  0
  1  2  1  0  0  0  0
  1 19  1  0  0  0  0
  1 20  1  0  0  0  0
  1 21  1  0  0  0  0
  2  3  1  0  0  0  0
  2  4  1  0  0  0  0
  2 22  1  0  0  0  0
  3 23  1  0  0  0  0
  3 24  1  0  0  0  0
  3 25  1  0  0  0  0
  4 18  1  0  0  0  0
  4  5  2  0  0  0  0
  5  6  1  0  0  0  0
  6  7  2  0  0  0  0
  6 26  1  0  0  0  0
  7  8  1  0  0  0  0
  7 27  1  0  0  0  0
  8  9  1  0  0  0  0
  8 18  2  0  0  0  0
  9 14  1  0  0  0  0
  9 10  1  0  0  0  0
 10 11  1  0  0  0  0
 10 28  1  0  0  0  0
 10 29  1  0  0  0  0
 11 12  1  0  0  0  0
 11 30  1  0  0  0  0
 11 31  1  0  0  0  0
 12 13  1  0  0  0  0
 13 14  1  0  0  0  0
 13 32  1  0  0  0  0
 13 33  1  0  0  0  0
 14 15  1  0  0  0  0
 14 34  1  0  0  0  0
 15 16  1  0  0  0  0
 15 17  2  0  0  0  0
 16 35  1  0  0  0  0
 16 36  1  0  0  0  0
M  END
> <s_m_source_file>
AV-unprocessed.smi

> <i_m_source_file_index>
2397

> <i_lp_mmshare_version>
43012

> <i_f3d_flags>
0

> <s_epik_input>
W0NIM11bQ0hdKFtDSDNdKWMxbltjSF1bY0hdYyhuMSlOMltDSDJdW0NIMl1PW0NIMl1bQ0BIXTJDKD1PKVtOSDJd

> <s_epik_cmdline>
J2VwaWtfcHl0aG9uJywgJy1waCcsICc3LjAnLCAnLXRuJywgJzgnLCAnLW1hJywgJzIwMCcsICctbWV0YWxfYmluZGluZycsICctaW1hZScsICc8aW5maWxlLm1hZT4nLCAnLW9tYWUnLCAnPG91dGZpbGUubWFlPic=

> <r_lp_tautomer_probability>
1

> <r_epik_Ionization_Penalty>
0.0323151

> <r_epik_Ionization_Penalty_Charging>
0

> <r_epik_Ionization_Penalty_Neutral>
0.0323151

> <r_epik_State_Penalty>
0.0267324

> <r_epik_Charging_Adjusted_Penalty>
0.0267324

> <i_epik_Tot_Q>
0

> <i_epik_Tot_abs_Q>
0

> <r_epik_Metal_State_Penalty>
0.0253461

> <b_epik_Metal_Only>
0

> <s_lp_Force_Field>
OPLS_2005

> <r_lp_Energy>
6.33426

> <b_lp_Chiralities_Consistent>
1

> <s_lp_Variant>
AV-unprocessed.smi:2397-1

> <Gold.Version>
5.8.1

> <Gold.Id.Protein>
6NUR|6NUR_protein|mol2

> <Gold.PLP.Fitness>
36.2968

> <Gold.PLP.PLP>
-32.1830

> <Gold.PLP.part.hbond>
-3.0000

> <Gold.PLP.part.metal>
0.0000

> <Gold.PLP.part.buried>
-5.1353

> <Gold.PLP.part.nonpolar>
-26.3071

> <Gold.PLP.part.repulsive>
2.2610

> <Gold.PLP.ligand.clash>
0.0000

> <Gold.PLP.ligand.torsion>
0.6740

> <Gold.PLP.Chemscore.Hbond>
1.7101

> <Gold.PLP.Chemscore.CHOScore>
0.0000

> <Gold.PLP.Chemscore.Metal>
0.0000

> <Gold.Chemscore.Hbonds>
donor molecule, donor type, donor heavy atom, donor atom, acceptor molecule, acceptor atom, score
      P1  H  7989  7998       L1    17  0.17
      P1  H  8011  8017       L1    17  0.90
      P1  H 10752 10764       L1    12  0.63

> <Gold.PLP.Chemscore.Internal.Correction>
0.3314

> <Gold.Rescore>
     Score         DG    S(hbond)    S(metal)    S(lipo)     H(rot)  DE(clash)    DE(int)     intcor
     11.91     -12.83       1.08        0.00      69.98       1.74       0.28       0.64       ----

> <Gold.Chemscore.Fitness>
11.9116

> <Gold.Chemscore.DG>
-12.8272

> <Gold.Chemscore.ZeroCoef>
-5.4800

> <Gold.Chemscore.Hbond>
1.0839

> <Gold.Chemscore.Metal>
0.0000

> <Gold.Chemscore.Lipo>
69.9820

> <Gold.Chemscore.Internal_Hbond>
0.0000

> <Gold.Chemscore.DEClash>
0.2782

> <Gold.Chemscore.DEInternal>
0.6373

> <Gold.Chemscore.Rot>
1.7426

> <Gold.Chemscore.Internal.Correction>
   9.000000E+99

> <Gold.Chemscore.Hbonds>
donor molecule, donor type, donor heavy atom, donor atom, acceptor molecule, acceptor atom, score
      P1  H  7989  7998       L1    17  0.01
      P1  H  8011  8017       L1    17  0.86
      P1  H 10752 10764       L1    12  0.20

> <Gold.Chemscore.Hbond.Weighted>
-3.6203

> <Gold.Chemscore.Metal.Weighted>
-0.0000

> <Gold.Chemscore.Lipo.Weighted>
-8.1879

> <Gold.Chemscore.Internal_Hbond.Weighted>
0.0000

> <Gold.Chemscore.DEClash.Weighted>
0.2782

> <Gold.Chemscore.DEInternal.Weighted>
0.6373

> <Gold.Chemscore.Rot.Weighted>
4.4610

> <Gold.Chemscore.Internal.Correction.Weighted>
   9.000000E+99

> <Gold.Protein.RotatedTorsions>
[ 6907 6896 6895 6894 ] final  123.35 input  -60.11 | X-H torsion
[ 7974 7965 7964 7962 ] final  -18.98 input  175.53 | X-H torsion
[ 8008 7997 7996 7995 ] final   93.13 input   59.86 | X-H torsion
[ 10167 10162 10161 10158 ] final   47.90 input  -65.29 | X-H torsion
[ 10718 10713 10712 10709 ] final -108.30 input   66.30 | X-H torsion
[ 10763 10752 10751 10750 ] final  -77.25 input  -60.55 | X-H torsion
[ 11005 11000 10999 10996 ] final   45.94 input  -57.11 | X-H torsion

> <Gold.Protein.ActiveResidues>
 VAL166  LYS551  ARG553  GLY616  TRP617  ASP618  TYR619  PRO620  LYS621  CYS622 
 ASP623  PHE694  ASN695  SER759  ASP760  ASP761  ALA762  ILE779  LEU786  VAL792 
 PHE793  MET794  SER795  GLU796  ALA797  LYS798  CYS799  TRP800  GLU811  SER814 

> <Gold.Protein.RotatedAtoms>
  152.4169  133.7053  159.6447 H   0  0  0  0  0  0  0  0  0  0  0  0  # atno 6907 bound_to 6896
  150.8046  133.8523  159.3217 H   0  0  0  0  0  0  0  0  0  0  0  0  # atno 6908 bound_to 6896
  151.6251  135.1030  160.0161 H   0  0  0  0  0  0  0  0  0  0  0  0  # atno 6909 bound_to 6896
  146.1864  140.3998  142.8474 H   0  0  0  0  0  0  0  0  0  0  0  0  # atno 7974 bound_to 7965
  156.0433  140.3317  155.7268 H   0  0  0  0  0  0  0  0  0  0  0  0  # atno 8008 bound_to 7997
  155.5712  140.0628  157.2823 H   0  0  0  0  0  0  0  0  0  0  0  0  # atno 8009 bound_to 7997
  154.4402  140.1860  156.0869 H   0  0  0  0  0  0  0  0  0  0  0  0  # atno 8010 bound_to 7997
  140.2989  144.2958  150.6223 H   0  0  0  0  0  0  0  0  0  0  0  0  # atno 10167 bound_to 10162
  156.0479  130.5706  150.7942 H   0  0  0  0  0  0  0  0  0  0  0  0  # atno 10718 bound_to 10713
  154.5105  135.5770  153.6601 H   0  0  0  0  0  0  0  0  0  0  0  0  # atno 10763 bound_to 10752
  152.9896  135.6157  154.2885 H   0  0  0  0  0  0  0  0  0  0  0  0  # atno 10764 bound_to 10752
  154.2799  135.2851  155.2681 H   0  0  0  0  0  0  0  0  0  0  0  0  # atno 10765 bound_to 10752
  140.1414  134.4578  155.8447 H   0  0  0  0  0  0  0  0  0  0  0  0  # atno 11005 bound_to 11000
  144.8406  140.6851  143.6232 LP  0  0  0  0  0  0  0  0  0  0  0  0  # atno 17320 bound_to 7965
  145.3924  139.1614  143.4222 LP  0  0  0  0  0  0  0  0  0  0  0  0  # atno 17321 bound_to 7965
  140.5668  143.2185  151.7669 LP  0  0  0  0  0  0  0  0  0  0  0  0  # atno 17342 bound_to 10162
  139.4920  144.4272  151.9912 LP  0  0  0  0  0  0  0  0  0  0  0  0  # atno 17343 bound_to 10162
  157.5374  131.0939  150.9873 LP  0  0  0  0  0  0  0  0  0  0  0  0  # atno 17370 bound_to 10713
  157.0165  130.5657  149.5326 LP  0  0  0  0  0  0  0  0  0  0  0  0  # atno 17371 bound_to 10713
  141.2186  133.6835  156.7254 LP  0  0  0  0  0  0  0  0  0  0  0  0  # atno 17394 bound_to 11000
  140.2717  134.8387  157.3853 LP  0  0  0  0  0  0  0  0  0  0  0  0  # atno 17395 bound_to 11000

$$$$
