AV-unprocessed.smi:249|AV-procd|sdf|1912|dock4
  -GOLD-   2262021 03D 1   1.00000     0.00000
 Structure written by MMmdl.
 64 67  0  0  0  0  0  0  0  0  2 V2000
  146.8026  135.2936  153.9435 C   0  0  0  0  0  0  0  0  0  0  0  0
  146.8839  136.8159  154.1445 C   0  0  0  0  0  0  0  0  0  0  0  0
  148.2817  137.3357  154.1827 N   0  3  2  0  0  0  0  0  0  0  0  0
  149.0573  136.7486  155.3127 C   0  0  0  0  0  0  0  0  0  0  0  0
  150.5246  137.2036  155.3064 C   0  0  0  0  0  0  0  0  0  0  0  0
  150.6424  138.7403  155.3761 C   0  0  2  0  0  0  0  0  0  0  0  0
  150.1857  139.3159  156.6521 N   0  0  0  0  0  0  0  0  0  0  0  0
  150.3921  140.7457  156.8606 C   0  0  0  0  0  0  0  0  0  0  0  0
  150.4919  138.6269  157.7749 C   0  0  0  0  0  0  0  0  0  0  0  0
  149.4963  137.9061  158.3466 N   0  0  0  0  0  0  0  0  0  0  0  0
  149.7375  137.1966  159.4531 C   0  0  0  0  0  0  0  0  0  0  0  0
  150.8783  137.0767  160.1356 N   0  0  0  0  0  0  0  0  0  0  0  0
  151.8770  137.8142  159.5706 C   0  0  0  0  0  0  0  0  0  0  0  0
  151.7719  138.6128  158.3975 C   0  0  0  0  0  0  0  0  0  0  0  0
  152.9941  139.2123  158.1199 N   0  0  0  0  0  0  0  0  0  0  0  0
  153.7808  138.7845  159.0694 C   0  0  0  0  0  0  0  0  0  0  0  0
  153.1870  137.9561  159.9953 N   0  0  0  0  0  0  0  0  0  0  0  0
  153.8325  137.3344  161.1388 C   0  0  0  0  0  0  0  0  0  0  0  0
  153.8704  135.7834  161.1047 C   0  0  1  0  0  0  0  0  0  0  0  0
  154.6847  135.3227  159.8734 C   0  0  0  0  0  0  0  0  0  0  0  0
  153.8571  134.7258  158.8954 O   0  0  0  0  0  0  0  0  0  0  0  0
  154.3634  135.1155  162.4218 C   0  0  1  0  0  0  0  0  0  0  0  0
  153.6146  135.4996  163.6889 C   0  0  0  0  0  0  0  0  0  0  0  0
  153.9714  134.3692  164.6479 C   0  0  0  0  0  0  0  0  0  0  0  0
  154.1775  133.2205  163.8363 O   0  0  0  0  0  0  0  0  0  0  0  0
  154.1755  133.5937  162.4637 C   0  0  0  0  0  0  0  0  0  0  0  0
  149.8535  139.2910  154.1735 C   0  0  0  0  0  0  0  0  0  0  0  0
  148.3757  138.8327  154.1629 C   0  0  1  0  0  0  0  0  0  0  0  0
  147.6743  139.4679  152.9440 C   0  0  0  0  0  0  0  0  0  0  0  0
  145.7711  134.9891  153.7641 H   0  0  0  0  0  0  0  0  0  0  0  0
  147.1454  134.7393  154.8164 H   0  0  0  0  0  0  0  0  0  0  0  0
  147.3920  134.9759  153.0829 H   0  0  0  0  0  0  0  0  0  0  0  0
  146.3387  137.2520  153.3110 H   0  0  0  0  0  0  0  0  0  0  0  0
  146.3523  137.1098  155.0507 H   0  0  0  0  0  0  0  0  0  0  0  0
  148.5822  137.0130  156.2585 H   0  0  0  0  0  0  0  0  0  0  0  0
  149.0525  135.6616  155.2555 H   0  0  0  0  0  0  0  0  0  0  0  0
  151.0701  136.7198  156.1166 H   0  0  0  0  0  0  0  0  0  0  0  0
  151.0005  136.8496  154.3910 H   0  0  0  0  0  0  0  0  0  0  0  0
  151.6890  139.0167  155.2458 H   0  0  0  0  0  0  0  0  0  0  0  0
  150.2734  141.0314  157.9075 H   0  0  0  0  0  0  0  0  0  0  0  0
  149.6657  141.3201  156.2857 H   0  0  0  0  0  0  0  0  0  0  0  0
  151.3925  141.0405  156.5419 H   0  0  0  0  0  0  0  0  0  0  0  0
  148.8970  136.6454  159.8484 H   0  0  0  0  0  0  0  0  0  0  0  0
  154.8202  139.0736  159.1275 H   0  0  0  0  0  0  0  0  0  0  0  0
  154.8479  137.7299  161.1839 H   0  0  0  0  0  0  0  0  0  0  0  0
  153.3324  137.6759  162.0461 H   0  0  0  0  0  0  0  0  0  0  0  0
  152.8535  135.4326  160.9284 H   0  0  0  0  0  0  0  0  0  0  0  0
  155.2201  136.1567  159.4198 H   0  0  0  0  0  0  0  0  0  0  0  0
  155.4467  134.6016  160.1708 H   0  0  0  0  0  0  0  0  0  0  0  0
  153.9434  135.2129  158.0902 H   0  0  0  0  0  0  0  0  0  0  0  0
  155.4225  135.3356  162.5666 H   0  0  0  0  0  0  0  0  0  0  0  0
  153.9063  136.4665  164.0944 H   0  0  0  0  0  0  0  0  0  0  0  0
  152.5385  135.5130  163.5085 H   0  0  0  0  0  0  0  0  0  0  0  0
  154.9022  134.5935  165.1701 H   0  0  0  0  0  0  0  0  0  0  0  0
  153.1965  134.1974  165.3952 H   0  0  0  0  0  0  0  0  0  0  0  0
  153.2110  133.3124  162.0385 H   0  0  0  0  0  0  0  0  0  0  0  0
  154.9532  133.0602  161.9170 H   0  0  0  0  0  0  0  0  0  0  0  0
  149.9151  140.3790  154.1448 H   0  0  0  0  0  0  0  0  0  0  0  0
  150.3348  138.9547  153.2537 H   0  0  0  0  0  0  0  0  0  0  0  0
  147.8900  139.2124  155.0635 H   0  0  0  0  0  0  0  0  0  0  0  0
  147.9022  140.5321  152.8749 H   0  0  0  0  0  0  0  0  0  0  0  0
  146.5888  139.3995  153.0054 H   0  0  0  0  0  0  0  0  0  0  0  0
  147.9962  139.0037  152.0112 H   0  0  0  0  0  0  0  0  0  0  0  0
  148.7262  137.0180  153.3332 H   0  0  0  0  0  0  0  0  0  0  0  0
  1  2  1  0  0  0  0
  1 30  1  0  0  0  0
  1 31  1  0  0  0  0
  1 32  1  0  0  0  0
  2  3  1  0  0  0  0
  2 33  1  0  0  0  0
  2 34  1  0  0  0  0
  3 28  1  0  0  0  0
  3  4  1  0  0  0  0
  3 64  1  0  0  0  0
  4  5  1  0  0  0  0
  4 35  1  0  0  0  0
  4 36  1  0  0  0  0
  5  6  1  0  0  0  0
  5 37  1  0  0  0  0
  5 38  1  0  0  0  0
  6  7  1  0  0  0  0
  6 27  1  0  0  0  0
  6 39  1  0  0  0  0
  7  8  1  0  0  0  0
  7  9  1  0  0  0  0
  8 40  1  0  0  0  0
  8 41  1  0  0  0  0
  8 42  1  0  0  0  0
  9 14  1  0  0  0  0
  9 10  2  0  0  0  0
 10 11  1  0  0  0  0
 11 12  2  0  0  0  0
 11 43  1  0  0  0  0
 12 13  1  0  0  0  0
 13 17  1  0  0  0  0
 13 14  2  0  0  0  0
 14 15  1  0  0  0  0
 15 16  2  0  0  0  0
 16 17  1  0  0  0  0
 16 44  1  0  0  0  0
 17 18  1  0  0  0  0
 18 19  1  0  0  0  0
 18 45  1  0  0  0  0
 18 46  1  0  0  0  0
 19 20  1  0  0  0  0
 19 22  1  0  0  0  0
 19 47  1  0  0  0  0
 20 21  1  0  0  0  0
 20 48  1  0  0  0  0
 20 49  1  0  0  0  0
 21 50  1  0  0  0  0
 22 26  1  0  0  0  0
 22 23  1  0  0  0  0
 22 51  1  0  0  0  0
 23 24  1  0  0  0  0
 23 52  1  0  0  0  0
 23 53  1  0  0  0  0
 24 25  1  0  0  0  0
 24 54  1  0  0  0  0
 24 55  1  0  0  0  0
 25 26  1  0  0  0  0
 26 56  1  0  0  0  0
 26 57  1  0  0  0  0
 27 28  1  0  0  0  0
 27 58  1  0  0  0  0
 27 59  1  0  0  0  0
 28 29  1  0  0  0  0
 28 60  1  0  0  0  0
 29 61  1  0  0  0  0
 29 62  1  0  0  0  0
 29 63  1  0  0  0  0
M  CHG  1   3   1
M  END
> <s_m_source_file>
AV-unprocessed.smi

> <i_m_source_file_index>
249

> <i_lp_mmshare_version>
43012

> <i_f3d_flags>
0

> <s_epik_input>
W0NIM11bQ0gyXU4xW0NIMl1bQ0gyXVtDQEhdKFtDSDJdW0NASF0xW0NIM10pTihbQ0gzXSljKG5bY0hdbjIpYyhjMjMpbltjSF1uM1tDSDJdW0NASF0oW0NIMl1bT0hdKVtDQEBIXTRbQ0gyXVtDSDJdT1tDSDJdNA==

> <s_epik_cmdline>
J2VwaWtfcHl0aG9uJywgJy1waCcsICc3LjAnLCAnLXRuJywgJzgnLCAnLW1hJywgJzIwMCcsICctbWV0YWxfYmluZGluZycsICctaW1hZScsICc8aW5maWxlLm1hZT4nLCAnLW9tYWUnLCAnPG91dGZpbGUubWFlPic=

> <r_lp_tautomer_probability>
1

> <r_epik_Ionization_Penalty>
0.00294688

> <r_epik_Ionization_Penalty_Charging>
0.00169971

> <r_epik_Ionization_Penalty_Neutral>
0.00124717

> <r_epik_State_Penalty>
-0

> <r_epik_Charging_Adjusted_Penalty>
0.00169971

> <i_epik_Tot_Q>
1

> <i_epik_Tot_abs_Q>
1

> <r_epik_Metal_State_Penalty>
-0

> <b_epik_Metal_Only>
0

> <s_lp_Force_Field>
OPLS_2005

> <r_lp_Energy>
57.4157

> <b_lp_Chiralities_Consistent>
1

> <s_lp_Variant>
AV-unprocessed.smi:249-15

> <Gold.Version>
5.8.1

> <Gold.Id.Protein>
6NUR|6NUR_protein|mol2

> <Gold.PLP.Fitness>
44.2953

> <Gold.PLP.PLP>
-32.7656

> <Gold.PLP.part.hbond>
-4.4051

> <Gold.PLP.part.metal>
0.0000

> <Gold.PLP.part.buried>
0.7847

> <Gold.PLP.part.nonpolar>
-29.8686

> <Gold.PLP.part.repulsive>
0.0228

> <Gold.PLP.ligand.clash>
0.0000

> <Gold.PLP.ligand.torsion>
1.2507

> <Gold.PLP.Chemscore.Hbond>
4.4577

> <Gold.PLP.Chemscore.CHOScore>
0.0000

> <Gold.PLP.Chemscore.Metal>
0.0000

> <Gold.Chemscore.Hbonds>
donor molecule, donor type, donor heavy atom, donor atom, acceptor molecule, acceptor atom, score
      L1  H     3    64       P1  7948  2.00
      P1  H  6896  6907       L1    21  0.85
      P1  H  6896  6909       L1    12  1.00
      P1  H  7997  8010       L1    15  0.52

> <Gold.PLP.Chemscore.Internal.Correction>
0.6578

> <Gold.Rescore>
     Score         DG    S(hbond)    S(metal)    S(lipo)     H(rot)  DE(clash)    DE(int)     intcor
     13.00     -14.42       1.98        0.00      83.44       2.90       0.27       1.14       ----

> <Gold.Chemscore.Fitness>
13.0034

> <Gold.Chemscore.DG>
-14.4163

> <Gold.Chemscore.ZeroCoef>
-5.4800

> <Gold.Chemscore.Hbond>
1.9759

> <Gold.Chemscore.Metal>
0.0000

> <Gold.Chemscore.Lipo>
83.4410

> <Gold.Chemscore.Internal_Hbond>
0.0000

> <Gold.Chemscore.DEClash>
0.2706

> <Gold.Chemscore.DEInternal>
1.1423

> <Gold.Chemscore.Rot>
2.9006

> <Gold.Chemscore.Internal.Correction>
   9.000000E+99

> <Gold.Chemscore.Hbonds>
donor molecule, donor type, donor heavy atom, donor atom, acceptor molecule, acceptor atom, score
      L1  H     3    64       P1  7948  1.00
      P1  H  6896  6907       L1    21  0.42
      P1  H  6896  6909       L1    12  0.25
      P1  H  7997  8010       L1    15  0.22

> <Gold.Chemscore.Hbond.Weighted>
-6.5994

> <Gold.Chemscore.Metal.Weighted>
-0.0000

> <Gold.Chemscore.Lipo.Weighted>
-9.7626

> <Gold.Chemscore.Internal_Hbond.Weighted>
0.0000

> <Gold.Chemscore.DEClash.Weighted>
0.2706

> <Gold.Chemscore.DEInternal.Weighted>
1.1423

> <Gold.Chemscore.Rot.Weighted>
7.4256

> <Gold.Chemscore.Internal.Correction.Weighted>
   9.000000E+99

> <Gold.Protein.RotatedTorsions>
[ 6907 6896 6895 6894 ] final  101.91 input  -60.11 | X-H torsion
[ 7974 7965 7964 7962 ] final  -67.54 input  175.53 | X-H torsion
[ 8008 7997 7996 7995 ] final   62.06 input   59.86 | X-H torsion
[ 10167 10162 10161 10158 ] final   47.60 input  -65.29 | X-H torsion
[ 10718 10713 10712 10709 ] final  -91.38 input   66.30 | X-H torsion
[ 10763 10752 10751 10750 ] final  138.46 input  -60.55 | X-H torsion
[ 11005 11000 10999 10996 ] final   -2.86 input  -57.11 | X-H torsion

> <Gold.Protein.ActiveResidues>
 VAL166  LYS551  ARG553  GLY616  TRP617  ASP618  TYR619  PRO620  LYS621  CYS622 
 ASP623  PHE694  ASN695  SER759  ASP760  ASP761  ALA762  ILE779  LEU786  VAL792 
 PHE793  MET794  SER795  GLU796  ALA797  LYS798  CYS799  TRP800  GLU811  SER814 

> <Gold.Protein.RotatedAtoms>
  152.5337  134.0055  159.7913 H   0  0  0  0  0  0  0  0  0  0  0  0  # atno 6907 bound_to 6896
  151.0266  133.5820  159.2672 H   0  0  0  0  0  0  0  0  0  0  0  0  # atno 6908 bound_to 6896
  151.2840  135.0729  159.9233 H   0  0  0  0  0  0  0  0  0  0  0  0  # atno 6909 bound_to 6896
  145.7279  140.9010  143.0596 H   0  0  0  0  0  0  0  0  0  0  0  0  # atno 7974 bound_to 7965
  155.6083  140.3494  155.4614 H   0  0  0  0  0  0  0  0  0  0  0  0  # atno 8008 bound_to 7997
  156.0174  140.1246  157.0417 H   0  0  0  0  0  0  0  0  0  0  0  0  # atno 8009 bound_to 7997
  154.4302  140.1069  156.5901 H   0  0  0  0  0  0  0  0  0  0  0  0  # atno 8010 bound_to 7997
  140.3020  144.2923  150.6217 H   0  0  0  0  0  0  0  0  0  0  0  0  # atno 10167 bound_to 10162
  155.9993  130.4946  150.5466 H   0  0  0  0  0  0  0  0  0  0  0  0  # atno 10718 bound_to 10713
  153.8900  135.3034  155.3447 H   0  0  0  0  0  0  0  0  0  0  0  0  # atno 10763 bound_to 10752
  154.7721  135.4880  153.9672 H   0  0  0  0  0  0  0  0  0  0  0  0  # atno 10764 bound_to 10752
  153.1303  135.6802  153.9288 H   0  0  0  0  0  0  0  0  0  0  0  0  # atno 10765 bound_to 10752
  140.6630  133.9304  155.8447 H   0  0  0  0  0  0  0  0  0  0  0  0  # atno 11005 bound_to 11000
  144.6900  139.9291  143.7471 LP  0  0  0  0  0  0  0  0  0  0  0  0  # atno 17320 bound_to 7965
  146.0565  139.3562  143.0607 LP  0  0  0  0  0  0  0  0  0  0  0  0  # atno 17321 bound_to 7965
  140.5643  143.2188  151.7711 LP  0  0  0  0  0  0  0  0  0  0  0  0  # atno 17342 bound_to 10162
  139.4913  144.4305  151.9877 LP  0  0  0  0  0  0  0  0  0  0  0  0  # atno 17343 bound_to 10162
  157.3395  131.0714  151.1799 LP  0  0  0  0  0  0  0  0  0  0  0  0  # atno 17370 bound_to 10713
  157.2653  130.6678  149.5993 LP  0  0  0  0  0  0  0  0  0  0  0  0  # atno 17371 bound_to 10713
  141.0451  134.0566  157.3854 LP  0  0  0  0  0  0  0  0  0  0  0  0  # atno 17394 bound_to 11000
  139.9007  135.0163  156.7252 LP  0  0  0  0  0  0  0  0  0  0  0  0  # atno 17395 bound_to 11000

$$$$
