AV-unprocessed.smi:243|AV-procd|sdf|1857|dock9
  -GOLD-   2262020483D 1   1.00000     0.00000
 Structure written by MMmdl.
 58 61  0  0  0  0  0  0  0  0  2 V2000
  143.2955  132.8924  148.9612 C   0  0  0  0  0  0  0  0  0  0  0  0
  144.3361  132.8054  150.0864 C   0  0  0  0  0  0  0  0  0  0  0  0
  145.2729  133.9613  150.0911 N   0  3  1  0  0  0  0  0  0  0  0  0
  144.6381  135.2332  150.5196 C   0  0  0  0  0  0  0  0  0  0  0  0
  144.3771  135.2557  152.0344 C   0  0  0  0  0  0  0  0  0  0  0  0
  145.6783  134.9993  152.8279 C   0  0  1  0  0  0  0  0  0  0  0  0
  145.4821  135.0783  154.2839 N   0  0  0  0  0  0  0  0  0  0  0  0
  145.4205  133.8297  155.0365 C   0  0  0  0  0  0  0  0  0  0  0  0
  145.8763  136.1524  155.0192 C   0  0  0  0  0  0  0  0  0  0  0  0
  145.8412  136.1055  156.3768 N   0  0  0  0  0  0  0  0  0  0  0  0
  146.2159  137.1628  157.1023 C   0  0  0  0  0  0  0  0  0  0  0  0
  146.6540  138.3496  156.6806 N   0  0  0  0  0  0  0  0  0  0  0  0
  146.6950  138.4061  155.3187 C   0  0  0  0  0  0  0  0  0  0  0  0
  146.3217  137.3658  154.4211 C   0  0  0  0  0  0  0  0  0  0  0  0
  146.4989  137.7892  153.1092 N   0  0  0  0  0  0  0  0  0  0  0  0
  146.9452  139.0098  153.2247 C   0  0  0  0  0  0  0  0  0  0  0  0
  147.1043  139.4574  154.5169 N   0  0  0  0  0  0  0  0  0  0  0  0
  147.5887  140.7656  154.9312 C   0  0  0  0  0  0  0  0  0  0  0  0
  149.1290  140.9010  154.8733 C   0  0  1  0  0  0  0  0  0  0  0  0
  149.5139  141.2013  153.5424 O   0  0  0  0  0  0  0  0  0  0  0  0
  149.6648  141.9977  155.7843 C   0  0  0  0  0  0  0  0  0  0  0  0
  151.0678  141.5044  156.1122 C   0  0  0  0  0  0  0  0  0  0  0  0
  150.8851  140.1079  156.2742 O   0  0  0  0  0  0  0  0  0  0  0  0
  149.9097  139.6542  155.3394 C   0  0  0  0  0  0  0  0  0  0  0  0
  146.3939  133.7070  152.3441 C   0  0  2  0  0  0  0  0  0  0  0  0
  147.7666  133.5228  153.0150 C   0  0  0  0  0  0  0  0  0  0  0  0
  146.5569  133.7301  150.8068 C   0  0  0  0  0  0  0  0  0  0  0  0
  142.5607  132.0928  149.0583 H   0  0  0  0  0  0  0  0  0  0  0  0
  143.7488  132.7931  147.9754 H   0  0  0  0  0  0  0  0  0  0  0  0
  142.7567  133.8400  148.9933 H   0  0  0  0  0  0  0  0  0  0  0  0
  143.7959  132.7893  151.0337 H   0  0  0  0  0  0  0  0  0  0  0  0
  144.8765  131.8607  150.0309 H   0  0  0  0  0  0  0  0  0  0  0  0
  145.2995  136.0582  150.2516 H   0  0  0  0  0  0  0  0  0  0  0  0
  143.7111  135.3975  149.9691 H   0  0  0  0  0  0  0  0  0  0  0  0
  143.9547  136.2225  152.3091 H   0  0  0  0  0  0  0  0  0  0  0  0
  143.6145  134.5170  152.2760 H   0  0  0  0  0  0  0  0  0  0  0  0
  146.3518  135.8232  152.5863 H   0  0  0  0  0  0  0  0  0  0  0  0
  146.2088  133.7816  155.7891 H   0  0  0  0  0  0  0  0  0  0  0  0
  145.5344  132.9660  154.3812 H   0  0  0  0  0  0  0  0  0  0  0  0
  144.4578  133.7365  155.5391 H   0  0  0  0  0  0  0  0  0  0  0  0
  146.1554  137.0407  158.1736 H   0  0  0  0  0  0  0  0  0  0  0  0
  147.1799  139.6196  152.3641 H   0  0  0  0  0  0  0  0  0  0  0  0
  147.1194  141.5202  154.2983 H   0  0  0  0  0  0  0  0  0  0  0  0
  147.2334  140.9554  155.9449 H   0  0  0  0  0  0  0  0  0  0  0  0
  149.1400  140.5493  152.9691 H   0  0  0  0  0  0  0  0  0  0  0  0
  149.6524  142.9907  155.3330 H   0  0  0  0  0  0  0  0  0  0  0  0
  149.0814  142.0439  156.7050 H   0  0  0  0  0  0  0  0  0  0  0  0
  151.7531  141.6905  155.2840 H   0  0  0  0  0  0  0  0  0  0  0  0
  151.4789  141.9640  157.0113 H   0  0  0  0  0  0  0  0  0  0  0  0
  149.2709  138.9350  155.8505 H   0  0  0  0  0  0  0  0  0  0  0  0
  150.3909  139.1318  154.5113 H   0  0  0  0  0  0  0  0  0  0  0  0
  145.7972  132.8321  152.5951 H   0  0  0  0  0  0  0  0  0  0  0  0
  148.4217  134.3721  152.8195 H   0  0  0  0  0  0  0  0  0  0  0  0
  148.2659  132.6261  152.6470 H   0  0  0  0  0  0  0  0  0  0  0  0
  147.6744  133.4175  154.0962 H   0  0  0  0  0  0  0  0  0  0  0  0
  147.0266  132.8106  150.4590 H   0  0  0  0  0  0  0  0  0  0  0  0
  147.2422  134.5326  150.5293 H   0  0  0  0  0  0  0  0  0  0  0  0
  145.5172  134.0996  149.1206 H   0  0  0  0  0  0  0  0  0  0  0  0
  1  2  1  0  0  0  0
  1 28  1  0  0  0  0
  1 29  1  0  0  0  0
  1 30  1  0  0  0  0
  2  3  1  0  0  0  0
  2 31  1  0  0  0  0
  2 32  1  0  0  0  0
  3 27  1  0  0  0  0
  3  4  1  0  0  0  0
  3 58  1  0  0  0  0
  4  5  1  0  0  0  0
  4 33  1  0  0  0  0
  4 34  1  0  0  0  0
  5  6  1  0  0  0  0
  5 35  1  0  0  0  0
  5 36  1  0  0  0  0
  6  7  1  0  0  0  0
  6 25  1  0  0  0  0
  6 37  1  0  0  0  0
  7  8  1  0  0  0  0
  7  9  1  0  0  0  0
  8 38  1  0  0  0  0
  8 39  1  0  0  0  0
  8 40  1  0  0  0  0
  9 14  1  0  0  0  0
  9 10  2  0  0  0  0
 10 11  1  0  0  0  0
 11 12  2  0  0  0  0
 11 41  1  0  0  0  0
 12 13  1  0  0  0  0
 13 17  1  0  0  0  0
 13 14  2  0  0  0  0
 14 15  1  0  0  0  0
 15 16  2  0  0  0  0
 16 17  1  0  0  0  0
 16 42  1  0  0  0  0
 17 18  1  0  0  0  0
 18 19  1  0  0  0  0
 18 43  1  0  0  0  0
 18 44  1  0  0  0  0
 19 24  1  0  0  0  0
 19 20  1  0  0  0  0
 19 21  1  0  0  0  0
 20 45  1  0  0  0  0
 21 22  1  0  0  0  0
 21 46  1  0  0  0  0
 21 47  1  0  0  0  0
 22 23  1  0  0  0  0
 22 48  1  0  0  0  0
 22 49  1  0  0  0  0
 23 24  1  0  0  0  0
 24 50  1  0  0  0  0
 24 51  1  0  0  0  0
 25 26  1  0  0  0  0
 25 27  1  0  0  0  0
 25 52  1  0  0  0  0
 26 53  1  0  0  0  0
 26 54  1  0  0  0  0
 26 55  1  0  0  0  0
 27 56  1  0  0  0  0
 27 57  1  0  0  0  0
M  CHG  1   3   1
M  END
> <s_m_source_file>
AV-unprocessed.smi

> <i_m_source_file_index>
243

> <i_lp_mmshare_version>
43012

> <i_f3d_flags>
0

> <s_epik_input>
W0NIM11bQ0gyXU4xW0NIMl1bQ0gyXVtDQEhdKFtDQEBIXShbQ0gzXSlbQ0gyXTEpTihbQ0gzXSljKG5bY0hdbjIpYyhjMjMpbltjSF1uM1tDSDJdW0NAQF00KFtPSF0pW0NIMl1bQ0gyXU9bQ0gyXTQ=

> <s_epik_cmdline>
J2VwaWtfcHl0aG9uJywgJy1waCcsICc3LjAnLCAnLXRuJywgJzgnLCAnLW1hJywgJzIwMCcsICctbWV0YWxfYmluZGluZycsICctaW1hZScsICc8aW5maWxlLm1hZT4nLCAnLW9tYWUnLCAnPG91dGZpbGUubWFlPic=

> <r_lp_tautomer_probability>
1

> <r_epik_Ionization_Penalty>
0.00253099

> <r_epik_Ionization_Penalty_Charging>
0.00137877

> <r_epik_Ionization_Penalty_Neutral>
0.00115221

> <r_epik_State_Penalty>
-0

> <r_epik_Charging_Adjusted_Penalty>
0.00137877

> <i_epik_Tot_Q>
1

> <i_epik_Tot_abs_Q>
1

> <r_epik_Metal_State_Penalty>
-0

> <b_epik_Metal_Only>
0

> <s_lp_Force_Field>
OPLS_2005

> <r_lp_Energy>
46.501

> <b_lp_Chiralities_Consistent>
1

> <s_lp_Variant>
AV-unprocessed.smi:243-10

> <Gold.Version>
5.8.1

> <Gold.Id.Protein>
6NUR|6NUR_protein|mol2

> <Gold.PLP.Fitness>
44.1398

> <Gold.PLP.PLP>
-34.1779

> <Gold.PLP.part.hbond>
-3.9548

> <Gold.PLP.part.metal>
0.0000

> <Gold.PLP.part.buried>
-1.4498

> <Gold.PLP.part.nonpolar>
-29.2424

> <Gold.PLP.part.repulsive>
1.0113

> <Gold.PLP.ligand.clash>
0.0000

> <Gold.PLP.ligand.torsion>
1.2303

> <Gold.PLP.Chemscore.Hbond>
2.8480

> <Gold.PLP.Chemscore.CHOScore>
0.9984

> <Gold.PLP.Chemscore.Metal>
0.0000

> <Gold.Chemscore.Hbonds>
donor molecule, donor type, donor heavy atom, donor atom, acceptor molecule, acceptor atom, score
      L1  H     3    58       P1  7921  1.00
      L1  H    20    45       P1  7957  0.61
      P1  H  7989  7998       L1    20  0.16
      P1  H  8011  8017       L1    20  0.83
      L1  C    16    42       P1  7957  0.53

> <Gold.PLP.Chemscore.Internal.Correction>
0.8833

> <Gold.Rescore>
     Score         DG    S(hbond)    S(metal)    S(lipo)     H(rot)  DE(clash)    DE(int)     intcor
     12.35     -17.61       2.18        0.00      90.29       2.24       2.48       2.78       ----

> <Gold.Chemscore.Fitness>
12.3524

> <Gold.Chemscore.DG>
-17.6112

> <Gold.Chemscore.ZeroCoef>
-5.4800

> <Gold.Chemscore.Hbond>
2.1845

> <Gold.Chemscore.Metal>
0.0000

> <Gold.Chemscore.Lipo>
90.2905

> <Gold.Chemscore.Internal_Hbond>
0.0000

> <Gold.Chemscore.DEClash>
2.4787

> <Gold.Chemscore.DEInternal>
2.7801

> <Gold.Chemscore.Rot>
2.2379

> <Gold.Chemscore.Internal.Correction>
   9.000000E+99

> <Gold.Chemscore.Hbonds>
donor molecule, donor type, donor heavy atom, donor atom, acceptor molecule, acceptor atom, score
      L1  H     3    58       P1  7921  0.78
      L1  H    20    45       P1  7957  0.60
      P1  H  7989  7998       L1    20  0.05
      P1  H  8011  8017       L1    20  0.14

> <Gold.Chemscore.Hbond.Weighted>
-7.2963

> <Gold.Chemscore.Metal.Weighted>
-0.0000

> <Gold.Chemscore.Lipo.Weighted>
-10.5640

> <Gold.Chemscore.Internal_Hbond.Weighted>
0.0000

> <Gold.Chemscore.DEClash.Weighted>
2.4787

> <Gold.Chemscore.DEInternal.Weighted>
2.7801

> <Gold.Chemscore.Rot.Weighted>
5.7291

> <Gold.Chemscore.Internal.Correction.Weighted>
   9.000000E+99

> <Gold.Protein.RotatedTorsions>
[ 6907 6896 6895 6894 ] final  151.44 input  -60.11 | X-H torsion
[ 7974 7965 7964 7962 ] final  -71.65 input  175.53 | X-H torsion
[ 8008 7997 7996 7995 ] final  179.34 input   59.86 | X-H torsion
[ 10167 10162 10161 10158 ] final   32.96 input  -65.29 | X-H torsion
[ 10718 10713 10712 10709 ] final   54.40 input   66.30 | X-H torsion
[ 10763 10752 10751 10750 ] final -104.60 input  -60.55 | X-H torsion
[ 11005 11000 10999 10996 ] final   33.63 input  -57.11 | X-H torsion

> <Gold.Protein.ActiveResidues>
 VAL166  LYS551  ARG553  GLY616  TRP617  ASP618  TYR619  PRO620  LYS621  CYS622 
 ASP623  PHE694  ASN695  SER759  ASP760  ASP761  ALA762  ILE779  LEU786  VAL792 
 PHE793  MET794  SER795  GLU796  ALA797  LYS798  CYS799  TRP800  GLU811  SER814 

> <Gold.Protein.RotatedAtoms>
  152.1007  133.4248  159.4585 H   0  0  0  0  0  0  0  0  0  0  0  0  # atno 6907 bound_to 6896
  150.6864  134.2764  159.4618 H   0  0  0  0  0  0  0  0  0  0  0  0  # atno 6908 bound_to 6896
  152.0624  134.9585  160.0625 H   0  0  0  0  0  0  0  0  0  0  0  0  # atno 6909 bound_to 6896
  145.6753  140.9207  143.0861 H   0  0  0  0  0  0  0  0  0  0  0  0  # atno 7974 bound_to 7965
  156.0445  140.1311  157.0118 H   0  0  0  0  0  0  0  0  0  0  0  0  # atno 8008 bound_to 7997
  154.4406  140.1023  156.6357 H   0  0  0  0  0  0  0  0  0  0  0  0  # atno 8009 bound_to 7997
  155.5616  140.3465  155.4495 H   0  0  0  0  0  0  0  0  0  0  0  0  # atno 8010 bound_to 7997
  140.4451  144.1131  150.6181 H   0  0  0  0  0  0  0  0  0  0  0  0  # atno 10167 bound_to 10162
  157.5253  130.8593  149.8613 H   0  0  0  0  0  0  0  0  0  0  0  0  # atno 10718 bound_to 10713
  154.7889  135.4780  154.0009 H   0  0  0  0  0  0  0  0  0  0  0  0  # atno 10763 bound_to 10752
  153.1602  135.6807  153.8761 H   0  0  0  0  0  0  0  0  0  0  0  0  # atno 10764 bound_to 10752
  153.8377  135.3183  155.3402 H   0  0  0  0  0  0  0  0  0  0  0  0  # atno 10765 bound_to 10752
  140.2612  134.3190  155.7857 H   0  0  0  0  0  0  0  0  0  0  0  0  # atno 11005 bound_to 11000
  144.7043  139.8626  143.7434 LP  0  0  0  0  0  0  0  0  0  0  0  0  # atno 17320 bound_to 7965
  146.1010  139.4006  143.0346 LP  0  0  0  0  0  0  0  0  0  0  0  0  # atno 17321 bound_to 7965
  140.4273  143.2584  151.9640 LP  0  0  0  0  0  0  0  0  0  0  0  0  # atno 17342 bound_to 10162
  139.4792  144.5776  151.7986 LP  0  0  0  0  0  0  0  0  0  0  0  0  # atno 17343 bound_to 10162
  156.0382  130.3745  150.1503 LP  0  0  0  0  0  0  0  0  0  0  0  0  # atno 17370 bound_to 10713
  156.9690  130.9828  151.3463 LP  0  0  0  0  0  0  0  0  0  0  0  0  # atno 17371 bound_to 10713
  141.2190  133.7410  156.9189 LP  0  0  0  0  0  0  0  0  0  0  0  0  # atno 17394 bound_to 11000
  140.1463  134.9260  157.2534 LP  0  0  0  0  0  0  0  0  0  0  0  0  # atno 17395 bound_to 11000

$$$$
