#       Name:                AV-unprocessed.smi:107
#       Creating user name   scv26
#       Creation time:       Thu Mar 26 18:02:16 2020


#       File generated by GOLD software.
#

@<TRIPOS>MOLECULE
AV-unprocessed.smi:107
    41    42     1
SMALL
NO_CHARGES


@<TRIPOS>ATOM
      1 ****        -3.3424   1.9483   0.3527 C.3            1 S1                 0.0000
      2 ****        -2.7413   0.5523   0.3453 C.2            1 S1                 0.0000
      3 ****        -1.4061   0.3339   0.4624 C.2            1 S1                 0.0000
      4 ****        -0.8275  -0.9307   0.4543 N.am           1 S1                 0.0000
      5 ****         0.6670  -1.1541   0.5972 C.3            1 S1                 0.0000
      6 ****         1.2732  -1.6796  -0.7189 C.3            1 S1                 0.0000
      7 ****         2.3768  -0.6802  -1.0218 C.3            1 S1                 0.0000
      8 ****         3.6180  -1.1384  -0.5176 O.3            1 S1                 0.0000
      9 ****         1.8950   0.5830  -0.3008 C.3            1 S1                 0.0000
     10 ****         2.9834   1.6181   0.0300 C.3            1 S1                 0.0000
     11 ****         2.3930   2.8776   0.2705 O.3            1 S1                 0.0000
     12 ****         1.3085   0.0539   0.8834 O.3            1 S1                 0.0000
     13 ****        -1.6592  -2.0649   0.3468 C.2            1 S1                 0.0000
     14 ****        -1.2205  -3.2145   0.3569 O.2            1 S1                 0.0000
     15 ****        -3.0286  -1.8410   0.2233 N.am           1 S1                 0.0000
     16 ****        -3.6489  -0.5900   0.2086 C.2            1 S1                 0.0000
     17 ****        -4.8711  -0.5194   0.0904 O.2            1 S1                 0.0000
     18 ****        -3.6239  -2.6521   0.1401 H              1 S1                 0.0000
     19 ****        -2.5820   2.7162   0.4978 H              1 S1                 0.0000
     20 ****        -4.0722   2.0460   1.1571 H              1 S1                 0.0000
     21 ****        -3.8457   2.1499  -0.5933 H              1 S1                 0.0000
     22 ****        -0.7764   1.2038   0.5689 H              1 S1                 0.0000
     23 ****         0.7814  -1.8335   1.4439 H              1 S1                 0.0000
     24 ****         1.6272  -2.7051  -0.6062 H              1 S1                 0.0000
     25 ****         0.5230  -1.6580  -1.5109 H              1 S1                 0.0000
     26 ****         2.4850  -0.5133  -2.0940 H              1 S1                 0.0000
     27 ****         4.2783  -0.4886  -0.7039 H              1 S1                 0.0000
     28 ****         1.1162   1.0423  -0.9126 H              1 S1                 0.0000
     29 ****         3.5798   1.3095   0.8891 H              1 S1                 0.0000
     30 ****         3.6622   1.7326  -0.8156 H              1 S1                 0.0000
     31 ****         3.0772   3.4964   0.4759 H              1 S1                 0.0000
     32 ****         3.8621  -2.0024  -0.9580 LP             1 S1                 0.0000
     33 ****         3.5500  -1.2756   0.4706 LP             1 S1                 0.0000
     34 ****         1.7573   2.8105   1.0395 LP             1 S1                 0.0000
     35 ****         1.8991   3.1795  -0.5449 LP             1 S1                 0.0000
     36 ****         2.0227  -0.1033   1.5655 LP             1 S1                 0.0000
     37 ****         0.6417   0.7064   1.2433 LP             1 S1                 0.0000
     38 ****        -0.2371  -3.3737   0.4440 LP             1 S1                 0.0000
     39 ****        -1.8474  -3.9896   0.2780 LP             1 S1                 0.0000
     40 ****        -5.3219   0.3732   0.0823 LP             1 S1                 0.0000
     41 ****        -5.4140  -1.3546   0.0024 LP             1 S1                 0.0000
@<TRIPOS>BOND
    1    1    2 1     
    2    1   19 1     
    3    1   20 1     
    4    1   21 1     
    5    2   16 1     
    6    2    3 2     
    7    3    4 1     
    8    3   22 1     
    9    4    5 1     
   10    4   13 1     
   11    5   12 1     
   12    5    6 1     
   13    5   23 1     
   14    6    7 1     
   15    6   24 1     
   16    6   25 1     
   17    7    8 1     
   18    7    9 1     
   19    7   26 1     
   20    8   27 1     
   21    9   10 1     
   22    9   12 1     
   23    9   28 1     
   24   10   11 1     
   25   10   29 1     
   26   10   30 1     
   27   11   31 1     
   28   13   14 2     
   29   13   15 1     
   30   15   18 1     
   31   15   16 1     
   32   16   17 2     
   33    8   32 1     
   34    8   33 1     
   35   11   34 1     
   36   11   35 1     
   37   12   36 1     
   38   12   37 1     
   39   14   38 1     
   40   14   39 1     
   41   17   40 1     
   42   17   41 1     
@<TRIPOS>SUBSTRUCTURE
      1 S1             1
@<TRIPOS>SET
LONE_PAIRS      STATIC     ATOMS    <user>   **** ""
10 32 33 34 35 36 37 38 39 40 41
DONOR_HYDROGENS      STATIC     ATOMS    <user>   **** ""
3 27 31 18
ATOM$BLUE        STATIC     ATOMS    COLORGROUP SYSTEM
10 32 33 34 35 36 37 38 39 40 41
ATOM$RED        STATIC     ATOMS    COLORGROUP SYSTEM
3 27 31 18
