AV-unprocessed.smi:979|AV-procd|sdf|4310|dock2
  -GOLD-   22720 2213D 1   1.00000     0.00000
 Structure written by MMmdl.
 43 44  0  0  0  0  0  0  0  0  1 V2000
  145.8775  144.1527  153.1254 C   0  0  0  0  0  0  0  0  0  0  0  0
  145.9783  143.5073  154.4196 N   0  0  0  0  0  0  0  0  0  0  0  0
  145.4366  143.8923  155.5848 C   0  0  0  0  0  0  0  0  0  0  0  0
  145.7142  143.1058  156.6235 N   0  0  0  0  0  0  0  0  0  0  0  0
  146.5139  142.1095  156.1005 N   0  0  0  0  0  0  0  0  0  0  0  0
  146.6329  142.3883  154.7964 C   0  0  0  0  0  0  0  0  0  0  0  0
  147.4273  141.5414  153.8454 C   0  0  0  0  0  0  0  0  0  0  0  0
  148.9170  141.9302  153.7601 C   0  0  0  0  0  0  0  0  0  0  0  0
  149.5391  142.1037  155.0690 N   0  0  0  0  0  0  0  0  0  0  0  0
  150.4308  141.2655  155.6172 C   0  0  0  0  0  0  0  0  0  0  0  0
  150.8393  140.2504  155.0535 O   0  0  0  0  0  0  0  0  0  0  0  0
  150.9316  141.6222  157.0181 C   0  0  0  0  0  0  0  0  0  0  0  0
  151.4544  143.0691  157.0912 C   0  0  0  0  0  0  0  0  0  0  0  0
  152.2127  143.3994  158.3928 C   0  0  0  0  0  0  0  0  0  0  0  0
  152.5547  142.1370  159.2155 C   0  0  0  0  0  0  0  0  0  0  0  0
  153.2778  142.4864  160.5270 C   0  0  0  0  0  0  0  0  0  0  0  0
  152.4626  143.4784  161.3693 C   0  0  0  0  0  0  0  0  0  0  0  0
  152.1332  144.7420  160.5616 C   0  0  0  0  0  0  0  0  0  0  0  0
  151.4030  144.3897  159.2559 C   0  0  0  0  0  0  0  0  0  0  0  0
  145.1033  144.9200  153.1490 H   0  0  0  0  0  0  0  0  0  0  0  0
  145.6219  143.4227  152.3592 H   0  0  0  0  0  0  0  0  0  0  0  0
  146.8310  144.6167  152.8725 H   0  0  0  0  0  0  0  0  0  0  0  0
  144.8244  144.7776  155.6789 H   0  0  0  0  0  0  0  0  0  0  0  0
  147.3393  140.4922  154.1268 H   0  0  0  0  0  0  0  0  0  0  0  0
  146.9751  141.6200  152.8563 H   0  0  0  0  0  0  0  0  0  0  0  0
  149.4692  141.1977  153.1695 H   0  0  0  0  0  0  0  0  0  0  0  0
  149.0101  142.8803  153.2332 H   0  0  0  0  0  0  0  0  0  0  0  0
  149.2581  142.9135  155.6031 H   0  0  0  0  0  0  0  0  0  0  0  0
  150.1058  141.4771  157.7144 H   0  0  0  0  0  0  0  0  0  0  0  0
  151.7191  140.9284  157.3162 H   0  0  0  0  0  0  0  0  0  0  0  0
  152.1267  143.2332  156.2477 H   0  0  0  0  0  0  0  0  0  0  0  0
  150.6307  143.7726  156.9604 H   0  0  0  0  0  0  0  0  0  0  0  0
  153.1481  143.8909  158.1205 H   0  0  0  0  0  0  0  0  0  0  0  0
  151.6404  141.5861  159.4411 H   0  0  0  0  0  0  0  0  0  0  0  0
  153.1855  141.4632  158.6362 H   0  0  0  0  0  0  0  0  0  0  0  0
  153.4643  141.5785  161.1014 H   0  0  0  0  0  0  0  0  0  0  0  0
  154.2552  142.9155  160.3023 H   0  0  0  0  0  0  0  0  0  0  0  0
  151.5377  143.0044  161.7006 H   0  0  0  0  0  0  0  0  0  0  0  0
  153.0149  143.7453  162.2706 H   0  0  0  0  0  0  0  0  0  0  0  0
  151.5202  145.4167  161.1601 H   0  0  0  0  0  0  0  0  0  0  0  0
  153.0536  145.2803  160.3323 H   0  0  0  0  0  0  0  0  0  0  0  0
  151.2096  145.3038  158.6934 H   0  0  0  0  0  0  0  0  0  0  0  0
  150.4273  143.9616  159.4906 H   0  0  0  0  0  0  0  0  0  0  0  0
  1  2  1  0  0  0  0
  1 20  1  0  0  0  0
  1 21  1  0  0  0  0
  1 22  1  0  0  0  0
  2  6  1  0  0  0  0
  2  3  1  0  0  0  0
  3  4  2  0  0  0  0
  3 23  1  0  0  0  0
  4  5  1  0  0  0  0
  5  6  2  0  0  0  0
  6  7  1  0  0  0  0
  7  8  1  0  0  0  0
  7 24  1  0  0  0  0
  7 25  1  0  0  0  0
  8  9  1  0  0  0  0
  8 26  1  0  0  0  0
  8 27  1  0  0  0  0
  9 10  1  0  0  0  0
  9 28  1  0  0  0  0
 10 11  2  0  0  0  0
 10 12  1  0  0  0  0
 12 13  1  0  0  0  0
 12 29  1  0  0  0  0
 12 30  1  0  0  0  0
 13 14  1  0  0  0  0
 13 31  1  0  0  0  0
 13 32  1  0  0  0  0
 14 19  1  0  0  0  0
 14 15  1  0  0  0  0
 14 33  1  0  0  0  0
 15 16  1  0  0  0  0
 15 34  1  0  0  0  0
 15 35  1  0  0  0  0
 16 17  1  0  0  0  0
 16 36  1  0  0  0  0
 16 37  1  0  0  0  0
 17 18  1  0  0  0  0
 17 38  1  0  0  0  0
 17 39  1  0  0  0  0
 18 19  1  0  0  0  0
 18 40  1  0  0  0  0
 18 41  1  0  0  0  0
 19 42  1  0  0  0  0
 19 43  1  0  0  0  0
M  END
> <s_m_source_file>
AV-unprocessed.smi

> <i_m_source_file_index>
979

> <i_lp_mmshare_version>
43012

> <i_f3d_flags>
0

> <s_epik_input>
W0NIM11uMVtjSF1ubmMxW0NIMl1bQ0gyXVtOSF1DKD1PKVtDSDJdW0NIMl1bQ0hdMltDSDJdW0NIMl1bQ0gyXVtDSDJdW0NIMl0y

> <s_epik_cmdline>
J2VwaWtfcHl0aG9uJywgJy1waCcsICc3LjAnLCAnLXRuJywgJzgnLCAnLW1hJywgJzIwMCcsICctbWV0YWxfYmluZGluZycsICctaW1hZScsICc8aW5maWxlLm1hZT4nLCAnLW9tYWUnLCAnPG91dGZpbGUubWFlPic=

> <r_lp_tautomer_probability>
1

> <r_epik_Ionization_Penalty>
0.000191268

> <r_epik_Ionization_Penalty_Charging>
0

> <r_epik_Ionization_Penalty_Neutral>
0.000191268

> <r_epik_State_Penalty>
-0

> <r_epik_Charging_Adjusted_Penalty>
0

> <i_epik_Tot_Q>
0

> <i_epik_Tot_abs_Q>
0

> <r_epik_Metal_State_Penalty>
-0

> <b_epik_Metal_Only>
0

> <s_lp_Force_Field>
OPLS_2005

> <r_lp_Energy>
9.56688

> <b_lp_Chiralities_Consistent>
1

> <s_lp_Variant>
AV-unprocessed.smi:979-1

> <Gold.Version>
5.8.1

> <Gold.Id.Protein>
6NUR|6NUR_protein|mol2

> <Gold.PLP.Fitness>
49.8048

> <Gold.PLP.PLP>
-46.6381

> <Gold.PLP.part.hbond>
-2.0000

> <Gold.PLP.part.metal>
0.0000

> <Gold.PLP.part.buried>
-2.8206

> <Gold.PLP.part.nonpolar>
-41.2256

> <Gold.PLP.part.repulsive>
0.4596

> <Gold.PLP.ligand.clash>
0.0000

> <Gold.PLP.ligand.torsion>
1.2531

> <Gold.PLP.Chemscore.Hbond>
1.8640

> <Gold.PLP.Chemscore.CHOScore>
0.0000

> <Gold.PLP.Chemscore.Metal>
0.0000

> <Gold.Chemscore.Hbonds>
donor molecule, donor type, donor heavy atom, donor atom, acceptor molecule, acceptor atom, score
      L1  H     9    28       P1  8028  0.98
      P1  H  7989  7998       L1    11  1.00

> <Gold.PLP.Chemscore.Internal.Correction>
0.0809

> <Gold.Rescore>
     Score         DG    S(hbond)    S(metal)    S(lipo)     H(rot)  DE(clash)    DE(int)     intcor
     15.08     -17.82       1.61        0.00     110.04       2.32       1.64       1.10       ----

> <Gold.Chemscore.Fitness>
15.0822

> <Gold.Chemscore.DG>
-17.8161

> <Gold.Chemscore.ZeroCoef>
-5.4800

> <Gold.Chemscore.Hbond>
1.6140

> <Gold.Chemscore.Metal>
0.0000

> <Gold.Chemscore.Lipo>
110.0400

> <Gold.Chemscore.Internal_Hbond>
0.0000

> <Gold.Chemscore.DEClash>
1.6368

> <Gold.Chemscore.DEInternal>
1.0971

> <Gold.Chemscore.Rot>
2.3161

> <Gold.Chemscore.Internal.Correction>
   9.000000E+99

> <Gold.Chemscore.Hbonds>
donor molecule, donor type, donor heavy atom, donor atom, acceptor molecule, acceptor atom, score
      L1  H     9    28       P1  8028  0.93
      P1  H  7989  7998       L1    11  0.44

> <Gold.Chemscore.Hbond.Weighted>
-5.3906

> <Gold.Chemscore.Metal.Weighted>
-0.0000

> <Gold.Chemscore.Lipo.Weighted>
-12.8747

> <Gold.Chemscore.Internal_Hbond.Weighted>
0.0000

> <Gold.Chemscore.DEClash.Weighted>
1.6368

> <Gold.Chemscore.DEInternal.Weighted>
1.0971

> <Gold.Chemscore.Rot.Weighted>
5.9292

> <Gold.Chemscore.Internal.Correction.Weighted>
   9.000000E+99

> <Gold.Protein.RotatedTorsions>
[ 6907 6896 6895 6894 ] final  -55.64 input  -60.11 | X-H torsion
[ 7974 7965 7964 7962 ] final   -3.59 input  175.53 | X-H torsion
[ 8008 7997 7996 7995 ] final  159.81 input   59.86 | X-H torsion
[ 10167 10162 10161 10158 ] final   83.35 input  -65.29 | X-H torsion
[ 10718 10713 10712 10709 ] final  -74.79 input   66.30 | X-H torsion
[ 10763 10752 10751 10750 ] final   44.34 input  -60.55 | X-H torsion
[ 11005 11000 10999 10996 ] final  130.62 input  -57.11 | X-H torsion

> <Gold.Protein.ActiveResidues>
 VAL166  LYS551  ARG553  GLY616  TRP617  ASP618  TYR619  PRO620  LYS621  CYS622 
 ASP623  PHE694  ASN695  SER759  ASP760  ASP761  ALA762  ILE779  LEU786  VAL792 
 PHE793  MET794  SER795  GLU796  ALA797  LYS798  CYS799  TRP800  GLU811  SER814 

> <Gold.Protein.RotatedAtoms>
  150.8234  134.7453  159.6791 H   0  0  0  0  0  0  0  0  0  0  0  0  # atno 6907 bound_to 6896
  152.4348  134.5705  159.9929 H   0  0  0  0  0  0  0  0  0  0  0  0  # atno 6908 bound_to 6896
  151.5883  133.3332  159.3058 H   0  0  0  0  0  0  0  0  0  0  0  0  # atno 6909 bound_to 6896
  146.2387  140.1744  142.8332 H   0  0  0  0  0  0  0  0  0  0  0  0  # atno 7974 bound_to 7965
  156.2214  140.1821  156.7468 H   0  0  0  0  0  0  0  0  0  0  0  0  # atno 8008 bound_to 7997
  154.5871  140.0656  156.9215 H   0  0  0  0  0  0  0  0  0  0  0  0  # atno 8009 bound_to 7997
  155.2400  140.3321  155.4296 H   0  0  0  0  0  0  0  0  0  0  0  0  # atno 8010 bound_to 7997
  139.9193  144.6222  150.8456 H   0  0  0  0  0  0  0  0  0  0  0  0  # atno 10167 bound_to 10162
  156.0230  130.4425  150.2945 H   0  0  0  0  0  0  0  0  0  0  0  0  # atno 10718 bound_to 10713
  152.9843  135.6073  154.3259 H   0  0  0  0  0  0  0  0  0  0  0  0  # atno 10763 bound_to 10752
  154.2965  135.2773  155.2632 H   0  0  0  0  0  0  0  0  0  0  0  0  # atno 10764 bound_to 10752
  154.4904  135.5893  153.6511 H   0  0  0  0  0  0  0  0  0  0  0  0  # atno 10765 bound_to 10752
  139.9682  134.9585  156.9320 H   0  0  0  0  0  0  0  0  0  0  0  0  # atno 11005 bound_to 11000
  144.9985  140.8611  143.5296 LP  0  0  0  0  0  0  0  0  0  0  0  0  # atno 17320 bound_to 7965
  145.1760  139.2378  143.5317 LP  0  0  0  0  0  0  0  0  0  0  0  0  # atno 17321 bound_to 7965
  140.7666  143.3308  151.2414 LP  0  0  0  0  0  0  0  0  0  0  0  0  # atno 17342 bound_to 10162
  139.6875  143.9749  152.2842 LP  0  0  0  0  0  0  0  0  0  0  0  0  # atno 17343 bound_to 10162
  157.1048  131.0205  151.3071 LP  0  0  0  0  0  0  0  0  0  0  0  0  # atno 17370 bound_to 10713
  157.4751  130.7732  149.7360 LP  0  0  0  0  0  0  0  0  0  0  0  0  # atno 17371 bound_to 10713
  140.5350  134.0776  155.7326 LP  0  0  0  0  0  0  0  0  0  0  0  0  # atno 17394 bound_to 11000
  141.1362  133.9217  157.2428 LP  0  0  0  0  0  0  0  0  0  0  0  0  # atno 17395 bound_to 11000

$$$$
