AV-unprocessed.smi:3047|AV-procd|sdf|11624|dock9
  -GOLD-   2272017 13D 1   1.00000     0.00000
 Structure written by MMmdl.
 37 38  0  0  0  0  0  0  0  0  1 V2000
  149.9694  139.2036  156.8542 C   0  0  0  0  0  0  0  0  0  0  0  0
  150.0821  138.9910  155.0293 S   0  0  0  0  0  0  0  0  0  0  0  0
  151.3815  139.5227  154.5911 O   0  0  0  0  0  0  0  0  0  0  0  0
  149.6994  137.6119  154.6895 O   0  0  0  0  0  0  0  0  0  0  0  0
  148.8551  140.0581  154.4230 N   0  0  0  0  0  0  0  0  0  0  0  0
  148.5655  141.3472  155.0459 C   0  0  0  0  0  0  0  0  0  0  0  0
  147.6147  142.0293  154.0667 C   0  0  0  0  0  0  0  0  0  0  0  0
  146.8431  140.8725  153.4364 C   0  0  0  0  0  0  0  0  0  0  0  0
  147.8350  139.6892  153.4246 C   0  0  2  0  0  0  0  0  0  0  0  0
  147.1371  138.3420  153.6697 C   0  0  0  0  0  0  0  0  0  0  0  0
  147.1848  137.8006  154.7749 O   0  0  0  0  0  0  0  0  0  0  0  0
  146.5145  137.7954  152.6160 N   0  0  0  0  0  0  0  0  0  0  0  0
  145.8626  136.4945  152.6286 C   0  0  0  0  0  0  0  0  0  0  0  0
  145.3708  136.1276  151.2226 C   0  0  0  0  0  0  0  0  0  0  0  0
  145.4465  134.6997  150.9899 N   0  0  0  0  0  0  0  0  0  0  0  0
  146.5483  133.8764  151.1806 C   0  0  0  0  0  0  0  0  0  0  0  0
  146.1545  132.6055  150.8266 C   0  0  0  0  0  0  0  0  0  0  0  0
  144.8232  132.6242  150.4165 N   0  0  0  0  0  0  0  0  0  0  0  0
  144.4718  133.8977  150.5399 C   0  0  0  0  0  0  0  0  0  0  0  0
  150.7691  138.6377  157.3314 H   0  0  0  0  0  0  0  0  0  0  0  0
  149.0115  138.8359  157.2175 H   0  0  0  0  0  0  0  0  0  0  0  0
  150.0747  140.2582  157.1069 H   0  0  0  0  0  0  0  0  0  0  0  0
  148.0850  141.1783  156.0101 H   0  0  0  0  0  0  0  0  0  0  0  0
  149.4770  141.9239  155.2043 H   0  0  0  0  0  0  0  0  0  0  0  0
  146.9644  142.7600  154.5482 H   0  0  0  0  0  0  0  0  0  0  0  0
  148.1901  142.5482  153.2988 H   0  0  0  0  0  0  0  0  0  0  0  0
  145.9605  140.6656  154.0432 H   0  0  0  0  0  0  0  0  0  0  0  0
  146.4936  141.1226  152.4341 H   0  0  0  0  0  0  0  0  0  0  0  0
  148.3330  139.6600  152.4540 H   0  0  0  0  0  0  0  0  0  0  0  0
  146.5299  138.2957  151.7389 H   0  0  0  0  0  0  0  0  0  0  0  0
  146.5671  135.7414  152.9858 H   0  0  0  0  0  0  0  0  0  0  0  0
  145.0261  136.5147  153.3292 H   0  0  0  0  0  0  0  0  0  0  0  0
  144.3374  136.4479  151.0824 H   0  0  0  0  0  0  0  0  0  0  0  0
  145.9681  136.6353  150.4637 H   0  0  0  0  0  0  0  0  0  0  0  0
  147.4947  134.2522  151.5408 H   0  0  0  0  0  0  0  0  0  0  0  0
  146.7222  131.6866  150.8345 H   0  0  0  0  0  0  0  0  0  0  0  0
  143.4823  134.2558  150.2953 H   0  0  0  0  0  0  0  0  0  0  0  0
  1  2  1  0  0  0  0
  1 20  1  0  0  0  0
  1 21  1  0  0  0  0
  1 22  1  0  0  0  0
  2  3  2  0  0  0  0
  2  4  2  0  0  0  0
  2  5  1  0  0  0  0
  5  9  1  0  0  0  0
  5  6  1  0  0  0  0
  6  7  1  0  0  0  0
  6 23  1  0  0  0  0
  6 24  1  0  0  0  0
  7  8  1  0  0  0  0
  7 25  1  0  0  0  0
  7 26  1  0  0  0  0
  8  9  1  0  0  0  0
  8 27  1  0  0  0  0
  8 28  1  0  0  0  0
  9 10  1  0  0  0  0
  9 29  1  0  0  0  0
 10 11  2  0  0  0  0
 10 12  1  0  0  0  0
 12 13  1  0  0  0  0
 12 30  1  0  0  0  0
 13 14  1  0  0  0  0
 13 31  1  0  0  0  0
 13 32  1  0  0  0  0
 14 15  1  0  0  0  0
 14 33  1  0  0  0  0
 14 34  1  0  0  0  0
 15 19  1  0  0  0  0
 15 16  1  0  0  0  0
 16 17  2  0  0  0  0
 16 35  1  0  0  0  0
 17 18  1  0  0  0  0
 17 36  1  0  0  0  0
 18 19  2  0  0  0  0
 19 37  1  0  0  0  0
M  END
> <s_m_source_file>
AV-unprocessed.smi

> <i_m_source_file_index>
3047

> <i_lp_mmshare_version>
43012

> <i_f3d_flags>
0

> <s_epik_input>
W0NIM11TKD1PKSg9TylOMVtDSDJdW0NIMl1bQ0gyXVtDQEhdMUMoPU8pW05IXVtDSDJdW0NIMl1uMltjSF1bY0hdbltjSF0y

> <s_epik_cmdline>
J2VwaWtfcHl0aG9uJywgJy1waCcsICc3LjAnLCAnLXRuJywgJzgnLCAnLW1hJywgJzIwMCcsICctbWV0YWxfYmluZGluZycsICctaW1hZScsICc8aW5maWxlLm1hZT4nLCAnLW9tYWUnLCAnPG91dGZpbGUubWFlPic=

> <r_lp_tautomer_probability>
1

> <r_epik_Ionization_Penalty>
0.575721

> <r_epik_Ionization_Penalty_Charging>
0.575721

> <r_epik_Ionization_Penalty_Neutral>
1.33078e-07

> <r_epik_State_Penalty>
0.588056

> <r_epik_Charging_Adjusted_Penalty>
1.16378

> <i_epik_Tot_Q>
0

> <i_epik_Tot_abs_Q>
0

> <r_epik_Metal_State_Penalty>
0.294357

> <b_epik_Metal_Only>
0

> <s_lp_Force_Field>
OPLS_2005

> <r_lp_Energy>
9.27481

> <b_lp_Chiralities_Consistent>
1

> <s_lp_Variant>
AV-unprocessed.smi:3047-4

> <Gold.Version>
5.8.1

> <Gold.Id.Protein>
6NUR|6NUR_protein|mol2

> <Gold.PLP.Fitness>
39.9365

> <Gold.PLP.PLP>
-30.0888

> <Gold.PLP.part.hbond>
-2.0000

> <Gold.PLP.part.metal>
0.0000

> <Gold.PLP.part.buried>
-3.3296

> <Gold.PLP.part.nonpolar>
-26.4531

> <Gold.PLP.part.repulsive>
0.5199

> <Gold.PLP.ligand.clash>
0.0000

> <Gold.PLP.ligand.torsion>
1.9422

> <Gold.PLP.Chemscore.Hbond>
1.0000

> <Gold.PLP.Chemscore.CHOScore>
2.8975

> <Gold.PLP.Chemscore.Metal>
0.0000

> <Gold.Chemscore.Hbonds>
donor molecule, donor type, donor heavy atom, donor atom, acceptor molecule, acceptor atom, score
      P1  H  7989  7998       L1     3  1.00
      L1  C    16    35       P1  7948  0.86
      L1  C    17    36       P1 10747  1.00
      L1  C    19    37       P1 10186  0.86

> <Gold.PLP.Chemscore.Internal.Correction>
2.0395

> <Gold.Rescore>
     Score         DG    S(hbond)    S(metal)    S(lipo)     H(rot)  DE(clash)    DE(int)     intcor
      5.03     -10.04       1.00        0.00      54.76       2.03       0.08       4.93       ----

> <Gold.Chemscore.Fitness>
5.0301

> <Gold.Chemscore.DG>
-10.0402

> <Gold.Chemscore.ZeroCoef>
-5.4800

> <Gold.Chemscore.Hbond>
1.0000

> <Gold.Chemscore.Metal>
0.0000

> <Gold.Chemscore.Lipo>
54.7563

> <Gold.Chemscore.Internal_Hbond>
0.0000

> <Gold.Chemscore.DEClash>
0.0772

> <Gold.Chemscore.DEInternal>
4.9328

> <Gold.Chemscore.Rot>
2.0259

> <Gold.Chemscore.Internal.Correction>
   9.000000E+99

> <Gold.Chemscore.Hbonds>
donor molecule, donor type, donor heavy atom, donor atom, acceptor molecule, acceptor atom, score
      P1  H  7989  7998       L1     3  1.00

> <Gold.Chemscore.Hbond.Weighted>
-3.3399

> <Gold.Chemscore.Metal.Weighted>
-0.0000

> <Gold.Chemscore.Lipo.Weighted>
-6.4065

> <Gold.Chemscore.Internal_Hbond.Weighted>
0.0000

> <Gold.Chemscore.DEClash.Weighted>
0.0772

> <Gold.Chemscore.DEInternal.Weighted>
4.9328

> <Gold.Chemscore.Rot.Weighted>
5.1863

> <Gold.Chemscore.Internal.Correction.Weighted>
   9.000000E+99

> <Gold.Protein.RotatedTorsions>
[ 6907 6896 6895 6894 ] final   48.44 input  -60.11 | X-H torsion
[ 7974 7965 7964 7962 ] final  -95.09 input  175.53 | X-H torsion
[ 8008 7997 7996 7995 ] final    1.71 input   59.86 | X-H torsion
[ 10167 10162 10161 10158 ] final    6.89 input  -65.29 | X-H torsion
[ 10718 10713 10712 10709 ] final  -82.05 input   66.30 | X-H torsion
[ 10763 10752 10751 10750 ] final  147.63 input  -60.55 | X-H torsion
[ 11005 11000 10999 10996 ] final   15.93 input  -57.11 | X-H torsion

> <Gold.Protein.ActiveResidues>
 VAL166  LYS551  ARG553  GLY616  TRP617  ASP618  TYR619  PRO620  LYS621  CYS622 
 ASP623  PHE694  ASN695  SER759  ASP760  ASP761  ALA762  ILE779  LEU786  VAL792 
 PHE793  MET794  SER795  GLU796  ALA797  LYS798  CYS799  TRP800  GLU811  SER814 

> <Gold.Protein.RotatedAtoms>
  152.2795  134.7844  160.0398 H   0  0  0  0  0  0  0  0  0  0  0  0  # atno 6907 bound_to 6896
  151.8428  133.3421  159.3656 H   0  0  0  0  0  0  0  0  0  0  0  0  # atno 6908 bound_to 6896
  150.7184  134.5303  159.5741 H   0  0  0  0  0  0  0  0  0  0  0  0  # atno 6909 bound_to 6896
  145.3647  140.9497  143.2481 H   0  0  0  0  0  0  0  0  0  0  0  0  # atno 7974 bound_to 7965
  154.6830  140.2637  155.6889 H   0  0  0  0  0  0  0  0  0  0  0  0  # atno 8008 bound_to 7997
  156.2704  140.2806  156.1304 H   0  0  0  0  0  0  0  0  0  0  0  0  # atno 8009 bound_to 7997
  155.1004  140.0374  157.2685 H   0  0  0  0  0  0  0  0  0  0  0  0  # atno 8010 bound_to 7997
  140.6402  143.7791  150.7417 H   0  0  0  0  0  0  0  0  0  0  0  0  # atno 10167 bound_to 10162
  156.0039  130.4622  150.4046 H   0  0  0  0  0  0  0  0  0  0  0  0  # atno 10718 bound_to 10713
  154.0415  135.2889  155.3354 H   0  0  0  0  0  0  0  0  0  0  0  0  # atno 10763 bound_to 10752
  154.6926  135.5220  153.8417 H   0  0  0  0  0  0  0  0  0  0  0  0  # atno 10764 bound_to 10752
  153.0598  135.6609  154.0619 H   0  0  0  0  0  0  0  0  0  0  0  0  # atno 10765 bound_to 10752
  140.4528  134.1207  155.7705 H   0  0  0  0  0  0  0  0  0  0  0  0  # atno 11005 bound_to 11000
  144.8620  139.5163  143.6807 LP  0  0  0  0  0  0  0  0  0  0  0  0  # atno 17320 bound_to 7965
  146.2912  139.7144  142.9160 LP  0  0  0  0  0  0  0  0  0  0  0  0  # atno 17321 bound_to 7965
  140.1421  143.4432  152.2187 LP  0  0  0  0  0  0  0  0  0  0  0  0  # atno 17342 bound_to 10162
  139.5612  144.7406  151.4151 LP  0  0  0  0  0  0  0  0  0  0  0  0  # atno 17343 bound_to 10162
  157.2112  131.0461  151.2598 LP  0  0  0  0  0  0  0  0  0  0  0  0  # atno 17370 bound_to 10713
  157.3886  130.7270  149.6681 LP  0  0  0  0  0  0  0  0  0  0  0  0  # atno 17371 bound_to 10713
  141.1656  133.8708  157.1722 LP  0  0  0  0  0  0  0  0  0  0  0  0  # atno 17394 bound_to 11000
  139.9996  135.0033  157.0160 LP  0  0  0  0  0  0  0  0  0  0  0  0  # atno 17395 bound_to 11000

$$$$
