AV-unprocessed.smi:1244|AV-procd|sdf|5234|dock1
  -GOLD-   22720 4333D 1   1.00000     0.00000
 Structure written by MMmdl.
 56 58  0  0  0  0  0  0  0  0  3 V2000
  148.4356  139.8787  154.6064 C   0  0  0  0  0  0  0  0  0  0  0  0
  149.5405  138.9895  155.1874 C   0  0  1  0  0  0  0  0  0  0  0  0
  149.1140  137.5124  155.2592 C   0  0  0  0  0  0  0  0  0  0  0  0
  150.2334  136.6710  155.7426 N   0  3  1  0  0  0  0  0  0  0  0  0
  149.8358  135.2526  155.9265 C   0  0  0  0  0  0  0  0  0  0  0  0
  149.7007  134.5008  154.5884 C   0  0  0  0  0  0  0  0  0  0  0  0
  148.3585  134.6296  154.0329 N   0  0  0  0  0  0  0  0  0  0  0  0
  147.8322  133.8214  153.1017 C   0  0  0  0  0  0  0  0  0  0  0  0
  148.4317  132.8596  152.6220 O   0  0  0  0  0  0  0  0  0  0  0  0
  146.5921  134.2119  152.7619 N   0  0  0  0  0  0  0  0  0  0  0  0
  145.7292  133.6529  151.7758 C   0  0  0  0  0  0  0  0  0  0  0  0
  146.2060  132.7197  150.8188 C   0  0  0  0  0  0  0  0  0  0  0  0
  145.3330  132.2043  149.8424 C   0  0  0  0  0  0  0  0  0  0  0  0
  143.9929  132.6260  149.8382 C   0  0  0  0  0  0  0  0  0  0  0  0
  143.5637  133.4976  150.7737 N   0  3  0  0  0  0  0  0  0  0  0  0
  144.3508  134.0173  151.7490 C   0  0  0  0  0  0  0  0  0  0  0  0
  143.7551  134.9087  152.6708 N   0  0  0  0  0  0  0  0  0  0  0  0
  143.8437  136.3505  152.4689 C   0  0  0  0  0  0  0  0  0  0  0  0
  142.8138  136.9485  153.4238 C   0  0  0  0  0  0  0  0  0  0  0  0
  141.7024  135.9035  153.4050 C   0  0  0  0  0  0  0  0  0  0  0  0
  142.4528  134.5774  153.2407 C   0  0  0  0  0  0  0  0  0  0  0  0
  151.4214  136.8479  154.8708 C   0  0  0  0  0  0  0  0  0  0  0  0
  151.8128  138.3346  154.7579 C   0  0  2  0  0  0  0  0  0  0  0  0
  152.4796  138.8937  156.0279 C   0  0  0  0  0  0  0  0  0  0  0  0
  150.6872  139.1120  154.3502 O   0  0  0  0  0  0  0  0  0  0  0  0
  147.5331  139.8334  155.2163 H   0  0  0  0  0  0  0  0  0  0  0  0
  148.1719  139.5712  153.5939 H   0  0  0  0  0  0  0  0  0  0  0  0
  148.7555  140.9203  154.5653 H   0  0  0  0  0  0  0  0  0  0  0  0
  149.7734  139.3534  156.1884 H   0  0  0  0  0  0  0  0  0  0  0  0
  148.2604  137.4134  155.9313 H   0  0  0  0  0  0  0  0  0  0  0  0
  148.7917  137.1605  154.2774 H   0  0  0  0  0  0  0  0  0  0  0  0
  150.5964  134.7516  156.5274 H   0  0  0  0  0  0  0  0  0  0  0  0
  148.9075  135.1988  156.4974 H   0  0  0  0  0  0  0  0  0  0  0  0
  150.3922  134.8993  153.8472 H   0  0  0  0  0  0  0  0  0  0  0  0
  149.9545  133.4468  154.7145 H   0  0  0  0  0  0  0  0  0  0  0  0
  147.7986  135.3994  154.3701 H   0  0  0  0  0  0  0  0  0  0  0  0
  146.2709  135.0730  153.1795 H   0  0  0  0  0  0  0  0  0  0  0  0
  147.2313  132.3830  150.8197 H   0  0  0  0  0  0  0  0  0  0  0  0
  145.6882  131.4971  149.1069 H   0  0  0  0  0  0  0  0  0  0  0  0
  143.2531  132.2887  149.1266 H   0  0  0  0  0  0  0  0  0  0  0  0
  144.8487  136.7204  152.6752 H   0  0  0  0  0  0  0  0  0  0  0  0
  143.5846  136.6102  151.4415 H   0  0  0  0  0  0  0  0  0  0  0  0
  143.2348  137.0259  154.4273 H   0  0  0  0  0  0  0  0  0  0  0  0
  142.4759  137.9394  153.1193 H   0  0  0  0  0  0  0  0  0  0  0  0
  141.0774  135.9292  154.2981 H   0  0  0  0  0  0  0  0  0  0  0  0
  141.0586  136.0709  152.5404 H   0  0  0  0  0  0  0  0  0  0  0  0
  141.8934  133.8810  152.6145 H   0  0  0  0  0  0  0  0  0  0  0  0
  142.6053  134.1138  154.2157 H   0  0  0  0  0  0  0  0  0  0  0  0
  152.2705  136.2784  155.2467 H   0  0  0  0  0  0  0  0  0  0  0  0
  151.1947  136.4546  153.8783 H   0  0  0  0  0  0  0  0  0  0  0  0
  152.5455  138.4231  153.9553 H   0  0  0  0  0  0  0  0  0  0  0  0
  153.4091  138.3650  156.2406 H   0  0  0  0  0  0  0  0  0  0  0  0
  151.8449  138.7966  156.9083 H   0  0  0  0  0  0  0  0  0  0  0  0
  152.7234  139.9493  155.9058 H   0  0  0  0  0  0  0  0  0  0  0  0
  150.4786  137.0239  156.6568 H   0  0  0  0  0  0  0  0  0  0  0  0
  142.5826  133.7760  150.7508 H   0  0  0  0  0  0  0  0  0  0  0  0
  1  2  1  0  0  0  0
  1 26  1  0  0  0  0
  1 27  1  0  0  0  0
  1 28  1  0  0  0  0
  2 25  1  0  0  0  0
  2  3  1  0  0  0  0
  2 29  1  0  0  0  0
  3  4  1  0  0  0  0
  3 30  1  0  0  0  0
  3 31  1  0  0  0  0
  4  5  1  0  0  0  0
  4 22  1  0  0  0  0
  4 55  1  0  0  0  0
  5  6  1  0  0  0  0
  5 32  1  0  0  0  0
  5 33  1  0  0  0  0
  6  7  1  0  0  0  0
  6 34  1  0  0  0  0
  6 35  1  0  0  0  0
  7  8  1  0  0  0  0
  7 36  1  0  0  0  0
  8  9  2  0  0  0  0
  8 10  1  0  0  0  0
 10 11  1  0  0  0  0
 10 37  1  0  0  0  0
 11 16  1  0  0  0  0
 11 12  2  0  0  0  0
 12 13  1  0  0  0  0
 12 38  1  0  0  0  0
 13 14  2  0  0  0  0
 13 39  1  0  0  0  0
 14 15  1  0  0  0  0
 14 40  1  0  0  0  0
 15 16  2  0  0  0  0
 15 56  1  0  0  0  0
 16 17  1  0  0  0  0
 17 21  1  0  0  0  0
 17 18  1  0  0  0  0
 18 19  1  0  0  0  0
 18 41  1  0  0  0  0
 18 42  1  0  0  0  0
 19 20  1  0  0  0  0
 19 43  1  0  0  0  0
 19 44  1  0  0  0  0
 20 21  1  0  0  0  0
 20 45  1  0  0  0  0
 20 46  1  0  0  0  0
 21 47  1  0  0  0  0
 21 48  1  0  0  0  0
 22 23  1  0  0  0  0
 22 49  1  0  0  0  0
 22 50  1  0  0  0  0
 23 24  1  0  0  0  0
 23 25  1  0  0  0  0
 23 51  1  0  0  0  0
 24 52  1  0  0  0  0
 24 53  1  0  0  0  0
 24 54  1  0  0  0  0
M  CHG  1   4   1
M  CHG  1  15   1
M  END
> <s_m_source_file>
AV-unprocessed.smi

> <i_m_source_file_index>
1244

> <i_lp_mmshare_version>
43012

> <i_f3d_flags>
0

> <s_epik_input>
W0NIM11bQ0BASF0xW0NIMl1OKFtDSDJdW0NASF0oTzEpW0NIM10pW0NIMl1bQ0gyXVtOSF1DKD1PKVtOSF1jMltjSF1bY0hdW2NIXW5jMk4zW0NIMl1bQ0gyXVtDSDJdW0NIMl0z

> <s_epik_cmdline>
J2VwaWtfcHl0aG9uJywgJy1waCcsICc3LjAnLCAnLXRuJywgJzgnLCAnLW1hJywgJzIwMCcsICctbWV0YWxfYmluZGluZycsICctaW1hZScsICc8aW5maWxlLm1hZT4nLCAnLW9tYWUnLCAnPG91dGZpbGUubWFlPic=

> <r_lp_tautomer_probability>
0.999994

> <r_epik_Ionization_Penalty>
1.81601

> <r_epik_Ionization_Penalty_Charging>
1.81599

> <r_epik_Ionization_Penalty_Neutral>
2.01972e-05

> <r_epik_State_Penalty>
1.85672

> <r_epik_Charging_Adjusted_Penalty>
3.6727

> <i_epik_Tot_Q>
2

> <i_epik_Tot_abs_Q>
2

> <r_epik_Metal_State_Penalty>
1.93796

> <b_epik_Metal_Only>
0

> <s_lp_Force_Field>
OPLS_2005

> <r_lp_Energy>
54.6365

> <b_lp_Chiralities_Consistent>
1

> <s_lp_Variant>
AV-unprocessed.smi:1244-14

> <Gold.Version>
5.8.1

> <Gold.Id.Protein>
6NUR|6NUR_protein|mol2

> <Gold.PLP.Fitness>
48.0623

> <Gold.PLP.PLP>
-40.5547

> <Gold.PLP.part.hbond>
-3.4999

> <Gold.PLP.part.metal>
0.0000

> <Gold.PLP.part.buried>
-2.7218

> <Gold.PLP.part.nonpolar>
-34.8136

> <Gold.PLP.part.repulsive>
0.5976

> <Gold.PLP.ligand.clash>
0.0000

> <Gold.PLP.ligand.torsion>
0.9586

> <Gold.PLP.Chemscore.Hbond>
2.9840

> <Gold.PLP.Chemscore.CHOScore>
0.0000

> <Gold.PLP.Chemscore.Metal>
0.0000

> <Gold.Chemscore.Hbonds>
donor molecule, donor type, donor heavy atom, donor atom, acceptor molecule, acceptor atom, score
      L1  H    15    56       P1 10186  1.63
      P1  H  7989  7998       L1    25  0.67

> <Gold.PLP.Chemscore.Internal.Correction>
0.4728

> <Gold.Rescore>
     Score         DG    S(hbond)    S(metal)    S(lipo)     H(rot)  DE(clash)    DE(int)     intcor
     15.05     -18.68       1.66        0.00     100.92       1.63       1.37       2.25       ----

> <Gold.Chemscore.Fitness>
15.0521

> <Gold.Chemscore.DG>
-18.6756

> <Gold.Chemscore.ZeroCoef>
-5.4800

> <Gold.Chemscore.Hbond>
1.6642

> <Gold.Chemscore.Metal>
0.0000

> <Gold.Chemscore.Lipo>
100.9228

> <Gold.Chemscore.Internal_Hbond>
0.0000

> <Gold.Chemscore.DEClash>
1.3699

> <Gold.Chemscore.DEInternal>
2.2536

> <Gold.Chemscore.Rot>
1.6293

> <Gold.Chemscore.Internal.Correction>
   9.000000E+99

> <Gold.Chemscore.Hbonds>
donor molecule, donor type, donor heavy atom, donor atom, acceptor molecule, acceptor atom, score
      L1  H    15    56       P1 10186  0.65
      P1  H  7989  7998       L1    25  0.23

> <Gold.Chemscore.Hbond.Weighted>
-5.5585

> <Gold.Chemscore.Metal.Weighted>
-0.0000

> <Gold.Chemscore.Lipo.Weighted>
-11.8080

> <Gold.Chemscore.Internal_Hbond.Weighted>
0.0000

> <Gold.Chemscore.DEClash.Weighted>
1.3699

> <Gold.Chemscore.DEInternal.Weighted>
2.2536

> <Gold.Chemscore.Rot.Weighted>
4.1709

> <Gold.Chemscore.Internal.Correction.Weighted>
   9.000000E+99

> <Gold.Protein.RotatedTorsions>
[ 6907 6896 6895 6894 ] final   85.88 input  -60.11 | X-H torsion
[ 7974 7965 7964 7962 ] final  135.17 input  175.53 | X-H torsion
[ 8008 7997 7996 7995 ] final -170.78 input   59.86 | X-H torsion
[ 10167 10162 10161 10158 ] final  164.56 input  -65.29 | X-H torsion
[ 10718 10713 10712 10709 ] final -179.10 input   66.30 | X-H torsion
[ 10763 10752 10751 10750 ] final  -41.15 input  -60.55 | X-H torsion
[ 11005 11000 10999 10996 ] final   15.79 input  -57.11 | X-H torsion

> <Gold.Protein.ActiveResidues>
 VAL166  LYS551  ARG553  GLY616  TRP617  ASP618  TYR619  PRO620  LYS621  CYS622 
 ASP623  PHE694  ASN695  SER759  ASP760  ASP761  ALA762  ILE779  LEU786  VAL792 
 PHE793  MET794  SER795  GLU796  ALA797  LYS798  CYS799  TRP800  GLU811  SER814 

> <Gold.Protein.RotatedAtoms>
  152.5383  134.2518  159.8901 H   0  0  0  0  0  0  0  0  0  0  0  0  # atno 6907 bound_to 6896
  151.2481  133.4357  159.2618 H   0  0  0  0  0  0  0  0  0  0  0  0  # atno 6908 bound_to 6896
  151.0564  134.9722  159.8294 H   0  0  0  0  0  0  0  0  0  0  0  0  # atno 6909 bound_to 6896
  144.9690  139.4626  143.5442 H   0  0  0  0  0  0  0  0  0  0  0  0  # atno 7974 bound_to 7965
  155.9229  140.1077  157.1193 H   0  0  0  0  0  0  0  0  0  0  0  0  # atno 8008 bound_to 7997
  154.4057  140.1252  156.4768 H   0  0  0  0  0  0  0  0  0  0  0  0  # atno 8009 bound_to 7997
  155.7174  140.3470  155.5003 H   0  0  0  0  0  0  0  0  0  0  0  0  # atno 8010 bound_to 7997
  139.4891  144.4223  151.9171 H   0  0  0  0  0  0  0  0  0  0  0  0  # atno 10167 bound_to 10162
  156.8541  130.9729  151.3089 H   0  0  0  0  0  0  0  0  0  0  0  0  # atno 10718 bound_to 10713
  153.9577  135.6743  153.4745 H   0  0  0  0  0  0  0  0  0  0  0  0  # atno 10763 bound_to 10752
  153.0853  135.4902  154.8582 H   0  0  0  0  0  0  0  0  0  0  0  0  # atno 10764 bound_to 10752
  154.7290  135.3134  154.8882 H   0  0  0  0  0  0  0  0  0  0  0  0  # atno 10765 bound_to 10752
  140.4543  134.1192  155.7707 H   0  0  0  0  0  0  0  0  0  0  0  0  # atno 11005 bound_to 11000
  146.3376  139.8889  142.8812 LP  0  0  0  0  0  0  0  0  0  0  0  0  # atno 17320 bound_to 7965
  145.2587  141.0069  143.3839 LP  0  0  0  0  0  0  0  0  0  0  0  0  # atno 17321 bound_to 7965
  140.3668  144.2905  150.5925 LP  0  0  0  0  0  0  0  0  0  0  0  0  # atno 17342 bound_to 10162
  140.5355  143.2234  151.8170 LP  0  0  0  0  0  0  0  0  0  0  0  0  # atno 17343 bound_to 10162
  157.6287  130.8712  149.9235 LP  0  0  0  0  0  0  0  0  0  0  0  0  # atno 17370 bound_to 10713
  156.0812  130.3673  150.0576 LP  0  0  0  0  0  0  0  0  0  0  0  0  # atno 17371 bound_to 10713
  141.1650  133.8721  157.1741 LP  0  0  0  0  0  0  0  0  0  0  0  0  # atno 17394 bound_to 11000
  139.9986  135.0037  157.0139 LP  0  0  0  0  0  0  0  0  0  0  0  0  # atno 17395 bound_to 11000

$$$$
