AV-unprocessed.smi:1051|AV-procd|sdf|4615|dock3
  -GOLD-   22720 3113D 1   1.00000     0.00000
 Structure written by MMmdl.
 45 47  0  0  0  0  0  0  0  0  1 V2000
  146.5202  135.3385  161.1011 C   0  0  0  0  0  0  0  0  0  0  0  0
  147.8038  136.1174  160.8169 C   0  0  0  0  0  0  0  0  0  0  0  0
  148.2499  136.8575  161.6933 O   0  0  0  0  0  0  0  0  0  0  0  0
  148.4505  135.9369  159.4854 C   0  0  0  0  0  0  0  0  0  0  0  0
  148.4938  134.6478  158.9085 C   0  0  0  0  0  0  0  0  0  0  0  0
  149.0955  134.4480  157.6531 C   0  0  0  0  0  0  0  0  0  0  0  0
  149.6617  135.5345  156.9631 C   0  0  0  0  0  0  0  0  0  0  0  0
  149.6351  136.8295  157.5163 C   0  0  0  0  0  0  0  0  0  0  0  0
  150.2154  137.8342  156.7726 O   0  0  0  0  0  0  0  0  0  0  0  0
  150.3631  139.1182  157.3648 C   0  0  0  0  0  0  0  0  0  0  0  0
  151.4344  139.8978  156.5882 C   0  0  1  0  0  0  0  0  0  0  0  0
  151.0424  139.9101  155.2302 O   0  0  0  0  0  0  0  0  0  0  0  0
  151.5646  141.3548  157.0776 C   0  0  0  0  0  0  0  0  0  0  0  0
  152.2196  141.4284  158.3817 N   0  0  0  0  0  0  0  0  0  0  0  0
  153.1389  140.5621  158.8705 C   0  0  0  0  0  0  0  0  0  0  0  0
  153.5712  139.5663  158.2899 O   0  0  0  0  0  0  0  0  0  0  0  0
  153.5004  140.9870  160.1039 N   0  0  0  0  0  0  0  0  0  0  0  0
  154.4576  140.3566  161.0050 C   0  0  0  0  0  0  0  0  0  0  0  0
  152.7991  142.1603  160.4097 C   0  0  0  0  0  0  0  0  0  0  0  0
  152.8265  142.9804  161.5505 C   0  0  0  0  0  0  0  0  0  0  0  0
  151.9864  144.1188  161.5475 C   0  0  0  0  0  0  0  0  0  0  0  0
  151.1571  144.4076  160.4324 C   0  0  0  0  0  0  0  0  0  0  0  0
  151.1499  143.5644  159.2965 C   0  0  0  0  0  0  0  0  0  0  0  0
  151.9929  142.4397  159.3261 C   0  0  0  0  0  0  0  0  0  0  0  0
  149.0241  137.0235  158.7815 C   0  0  0  0  0  0  0  0  0  0  0  0
  145.7435  135.6057  160.3842 H   0  0  0  0  0  0  0  0  0  0  0  0
  146.1514  135.5640  162.1019 H   0  0  0  0  0  0  0  0  0  0  0  0
  146.7026  134.2655  161.0390 H   0  0  0  0  0  0  0  0  0  0  0  0
  148.0655  133.7988  159.4213 H   0  0  0  0  0  0  0  0  0  0  0  0
  149.1231  133.4595  157.2193 H   0  0  0  0  0  0  0  0  0  0  0  0
  150.1233  135.3724  156.0000 H   0  0  0  0  0  0  0  0  0  0  0  0
  149.4111  139.6495  157.3132 H   0  0  0  0  0  0  0  0  0  0  0  0
  150.6490  139.0323  158.4148 H   0  0  0  0  0  0  0  0  0  0  0  0
  152.3851  139.3693  156.6727 H   0  0  0  0  0  0  0  0  0  0  0  0
  150.8176  139.0283  154.9749 H   0  0  0  0  0  0  0  0  0  0  0  0
  152.0781  141.9761  156.3429 H   0  0  0  0  0  0  0  0  0  0  0  0
  150.5731  141.7975  157.1848 H   0  0  0  0  0  0  0  0  0  0  0  0
  153.9530  140.0180  161.9103 H   0  0  0  0  0  0  0  0  0  0  0  0
  155.2330  141.0678  161.2914 H   0  0  0  0  0  0  0  0  0  0  0  0
  154.9448  139.4943  160.5481 H   0  0  0  0  0  0  0  0  0  0  0  0
  153.4619  142.7548  162.3942 H   0  0  0  0  0  0  0  0  0  0  0  0
  151.9766  144.7770  162.4038 H   0  0  0  0  0  0  0  0  0  0  0  0
  150.5238  145.2822  160.4504 H   0  0  0  0  0  0  0  0  0  0  0  0
  150.5226  143.7812  158.4446 H   0  0  0  0  0  0  0  0  0  0  0  0
  148.9928  138.0102  159.2150 H   0  0  0  0  0  0  0  0  0  0  0  0
  1  2  1  0  0  0  0
  1 26  1  0  0  0  0
  1 27  1  0  0  0  0
  1 28  1  0  0  0  0
  2  3  2  0  0  0  0
  2  4  1  0  0  0  0
  4 25  1  0  0  0  0
  4  5  2  0  0  0  0
  5  6  1  0  0  0  0
  5 29  1  0  0  0  0
  6  7  2  0  0  0  0
  6 30  1  0  0  0  0
  7  8  1  0  0  0  0
  7 31  1  0  0  0  0
  8  9  1  0  0  0  0
  8 25  2  0  0  0  0
  9 10  1  0  0  0  0
 10 11  1  0  0  0  0
 10 32  1  0  0  0  0
 10 33  1  0  0  0  0
 11 12  1  0  0  0  0
 11 13  1  0  0  0  0
 11 34  1  0  0  0  0
 12 35  1  0  0  0  0
 13 14  1  0  0  0  0
 13 36  1  0  0  0  0
 13 37  1  0  0  0  0
 14 24  1  0  0  0  0
 14 15  1  0  0  0  0
 15 16  2  0  0  0  0
 15 17  1  0  0  0  0
 17 18  1  0  0  0  0
 17 19  1  0  0  0  0
 18 38  1  0  0  0  0
 18 39  1  0  0  0  0
 18 40  1  0  0  0  0
 19 24  2  0  0  0  0
 19 20  1  0  0  0  0
 20 21  2  0  0  0  0
 20 41  1  0  0  0  0
 21 22  1  0  0  0  0
 21 42  1  0  0  0  0
 22 23  2  0  0  0  0
 22 43  1  0  0  0  0
 23 24  1  0  0  0  0
 23 44  1  0  0  0  0
 25 45  1  0  0  0  0
M  END
> <s_m_source_file>
AV-unprocessed.smi

> <i_m_source_file_index>
1051

> <i_lp_mmshare_version>
43012

> <i_f3d_flags>
0

> <s_epik_input>
W0NIM11DKD1PKWMxW2NIXVtjSF1bY0hdYyhbY0hdMSlPW0NIMl1bQ0BIXShbT0hdKVtDSDJdbihjKD1PKW4yW0NIM10pYyhjMjMpW2NIXVtjSF1bY0hdW2NIXTM=

> <s_epik_cmdline>
J2VwaWtfcHl0aG9uJywgJy1waCcsICc3LjAnLCAnLXRuJywgJzgnLCAnLW1hJywgJzIwMCcsICctbWV0YWxfYmluZGluZycsICctaW1hZScsICc8aW5maWxlLm1hZT4nLCAnLW9tYWUnLCAnPG91dGZpbGUubWFlPic=

> <r_lp_tautomer_probability>
1

> <r_epik_Ionization_Penalty>
2.40143e-06

> <r_epik_Ionization_Penalty_Charging>
2.1343e-09

> <r_epik_Ionization_Penalty_Neutral>
2.3993e-06

> <r_epik_State_Penalty>
-0

> <r_epik_Charging_Adjusted_Penalty>
2.1343e-09

> <i_epik_Tot_Q>
0

> <i_epik_Tot_abs_Q>
0

> <r_epik_Metal_State_Penalty>
-0

> <b_epik_Metal_Only>
0

> <s_lp_Force_Field>
OPLS_2005

> <r_lp_Energy>
51.4738

> <b_lp_Chiralities_Consistent>
1

> <s_lp_Variant>
AV-unprocessed.smi:1051-2

> <Gold.Version>
5.8.1

> <Gold.Id.Protein>
6NUR|6NUR_protein|mol2

> <Gold.PLP.Fitness>
53.1842

> <Gold.PLP.PLP>
-44.3725

> <Gold.PLP.part.hbond>
-4.0000

> <Gold.PLP.part.metal>
0.0000

> <Gold.PLP.part.buried>
-5.9142

> <Gold.PLP.part.nonpolar>
-33.2784

> <Gold.PLP.part.repulsive>
0.0000

> <Gold.PLP.ligand.clash>
0.0000

> <Gold.PLP.ligand.torsion>
1.2277

> <Gold.PLP.Chemscore.Hbond>
3.7040

> <Gold.PLP.Chemscore.CHOScore>
0.0000

> <Gold.PLP.Chemscore.Metal>
0.0000

> <Gold.Chemscore.Hbonds>
donor molecule, donor type, donor heavy atom, donor atom, acceptor molecule, acceptor atom, score
      P1  H  6931  6943       L1     3  1.00
      P1  H  7989  7998       L1    12  0.91
      P1  H  7997  8008       L1    16  1.00

> <Gold.PLP.Chemscore.Internal.Correction>
0.1551

> <Gold.Rescore>
     Score         DG    S(hbond)    S(metal)    S(lipo)     H(rot)  DE(clash)    DE(int)     intcor
     18.82     -21.72       2.93        0.00     105.47       2.30       0.09       2.82       ----

> <Gold.Chemscore.Fitness>
18.8198

> <Gold.Chemscore.DG>
-21.7249

> <Gold.Chemscore.ZeroCoef>
-5.4800

> <Gold.Chemscore.Hbond>
2.9309

> <Gold.Chemscore.Metal>
0.0000

> <Gold.Chemscore.Lipo>
105.4663

> <Gold.Chemscore.Internal_Hbond>
0.0000

> <Gold.Chemscore.DEClash>
0.0863

> <Gold.Chemscore.DEInternal>
2.8188

> <Gold.Chemscore.Rot>
2.2984

> <Gold.Chemscore.Internal.Correction>
   9.000000E+99

> <Gold.Chemscore.Hbonds>
donor molecule, donor type, donor heavy atom, donor atom, acceptor molecule, acceptor atom, score
      P1  H  6931  6943       L1     3  0.99
      P1  H  7989  7998       L1    12  0.49
      P1  H  7997  8008       L1    16  0.74

> <Gold.Chemscore.Hbond.Weighted>
-9.7893

> <Gold.Chemscore.Metal.Weighted>
-0.0000

> <Gold.Chemscore.Lipo.Weighted>
-12.3396

> <Gold.Chemscore.Internal_Hbond.Weighted>
0.0000

> <Gold.Chemscore.DEClash.Weighted>
0.0863

> <Gold.Chemscore.DEInternal.Weighted>
2.8188

> <Gold.Chemscore.Rot.Weighted>
5.8839

> <Gold.Chemscore.Internal.Correction.Weighted>
   9.000000E+99

> <Gold.Protein.RotatedTorsions>
[ 6907 6896 6895 6894 ] final  -43.32 input  -60.11 | X-H torsion
[ 7974 7965 7964 7962 ] final  -75.75 input  175.53 | X-H torsion
[ 8008 7997 7996 7995 ] final  -80.15 input   59.86 | X-H torsion
[ 10167 10162 10161 10158 ] final   47.49 input  -65.29 | X-H torsion
[ 10718 10713 10712 10709 ] final  132.05 input   66.30 | X-H torsion
[ 10763 10752 10751 10750 ] final  168.21 input  -60.55 | X-H torsion
[ 11005 11000 10999 10996 ] final   73.73 input  -57.11 | X-H torsion

> <Gold.Protein.ActiveResidues>
 VAL166  LYS551  ARG553  GLY616  TRP617  ASP618  TYR619  PRO620  LYS621  CYS622 
 ASP623  PHE694  ASN695  SER759  ASP760  ASP761  ALA762  ILE779  LEU786  VAL792 
 PHE793  MET794  SER795  GLU796  ALA797  LYS798  CYS799  TRP800  GLU811  SER814 

> <Gold.Protein.RotatedAtoms>
  150.9453  134.8858  159.7637 H   0  0  0  0  0  0  0  0  0  0  0  0  # atno 6907 bound_to 6896
  152.5097  134.3884  159.9385 H   0  0  0  0  0  0  0  0  0  0  0  0  # atno 6908 bound_to 6896
  151.3903  133.3751  159.2755 H   0  0  0  0  0  0  0  0  0  0  0  0  # atno 6909 bound_to 6896
  145.6219  140.9361  143.1133 H   0  0  0  0  0  0  0  0  0  0  0  0  # atno 7974 bound_to 7965
  154.5854  140.0667  156.9164 H   0  0  0  0  0  0  0  0  0  0  0  0  # atno 8008 bound_to 7997
  155.2388  140.3343  155.4276 H   0  0  0  0  0  0  0  0  0  0  0  0  # atno 8009 bound_to 7997
  156.2219  140.1802  156.7440 H   0  0  0  0  0  0  0  0  0  0  0  0  # atno 8010 bound_to 7997
  140.3031  144.2910  150.6215 H   0  0  0  0  0  0  0  0  0  0  0  0  # atno 10167 bound_to 10162
  157.4909  131.1090  150.9558 H   0  0  0  0  0  0  0  0  0  0  0  0  # atno 10718 bound_to 10713
  154.3652  135.2753  155.2297 H   0  0  0  0  0  0  0  0  0  0  0  0  # atno 10763 bound_to 10752
  154.4468  135.5940  153.6169 H   0  0  0  0  0  0  0  0  0  0  0  0  # atno 10764 bound_to 10752
  152.9841  135.6032  154.3877 H   0  0  0  0  0  0  0  0  0  0  0  0  # atno 10765 bound_to 10752
  139.9426  134.7372  156.1061 H   0  0  0  0  0  0  0  0  0  0  0  0  # atno 11005 bound_to 11000
  144.7228  139.7974  143.7376 LP  0  0  0  0  0  0  0  0  0  0  0  0  # atno 17320 bound_to 7965
  146.1424  139.4485  143.0100 LP  0  0  0  0  0  0  0  0  0  0  0  0  # atno 17321 bound_to 7965
  140.5633  143.2189  151.7727 LP  0  0  0  0  0  0  0  0  0  0  0  0  # atno 17342 bound_to 10162
  139.4910  144.4318  151.9864 LP  0  0  0  0  0  0  0  0  0  0  0  0  # atno 17343 bound_to 10162
  157.0260  130.5692  149.5337 LP  0  0  0  0  0  0  0  0  0  0  0  0  # atno 17370 bound_to 10713
  156.0173  130.5267  150.8171 LP  0  0  0  0  0  0  0  0  0  0  0  0  # atno 17371 bound_to 10713
  141.1065  133.6658  156.2877 LP  0  0  0  0  0  0  0  0  0  0  0  0  # atno 17394 bound_to 11000
  140.5914  134.5646  157.5500 LP  0  0  0  0  0  0  0  0  0  0  0  0  # atno 17395 bound_to 11000

$$$$
