AV-unprocessed.smi:153|AV-procd|sdf|1251|dock3
  -GOLD-   2262018483D 1   1.00000     0.00000
 Structure written by MMmdl.
 60 63  0  0  0  0  0  0  0  0  2 V2000
  144.3155  133.3146  148.5309 C   0  0  0  0  0  0  0  0  0  0  0  0
  144.8216  133.0150  149.9512 C   0  0  1  0  0  0  0  0  0  0  0  0
  145.7380  131.9275  149.9083 O   0  0  0  0  0  0  0  0  0  0  0  0
  146.5848  132.0270  151.0384 C   0  0  0  0  0  0  0  0  0  0  0  0
  146.8950  133.5155  151.0784 C   0  0  0  0  0  0  0  0  0  0  0  0
  145.5622  134.1637  150.6909 C   0  0  1  0  0  0  0  0  0  0  0  0
  145.8363  135.2617  149.8373 O   0  0  0  0  0  0  0  0  0  0  0  0
  144.7337  134.6700  151.9015 C   0  0  0  0  0  0  0  0  0  0  0  0
  145.4560  135.5614  152.7986 N   0  0  0  0  0  0  0  0  0  0  0  0
  145.7651  135.3278  154.1184 C   0  0  0  0  0  0  0  0  0  0  0  0
  146.4212  136.2857  154.7123 N   0  0  0  0  0  0  0  0  0  0  0  0
  146.5552  137.2726  153.7406 C   0  0  0  0  0  0  0  0  0  0  0  0
  147.1591  138.5670  153.6987 C   0  0  0  0  0  0  0  0  0  0  0  0
  147.7983  139.1650  154.7420 N   0  0  0  0  0  0  0  0  0  0  0  0
  147.7536  138.5548  156.0648 C   0  0  0  0  0  0  0  0  0  0  0  0
  148.7979  140.2055  154.4885 C   0  0  0  0  0  0  0  0  0  0  0  0
  148.6638  141.4090  155.4435 C   0  0  2  0  0  0  0  0  0  0  0  0
  147.9713  142.4213  154.7408 O   0  0  0  0  0  0  0  0  0  0  0  0
  150.0276  141.9751  155.8995 C   0  0  0  0  0  0  0  0  0  0  0  0
  149.9067  142.9801  156.9857 N   0  3  0  0  0  0  0  0  0  0  0  0
  149.1803  142.4782  158.1795 C   0  0  0  0  0  0  0  0  0  0  0  0
  149.0748  143.5788  159.2488 C   0  0  0  0  0  0  0  0  0  0  0  0
  150.3760  144.0390  159.5909 O   0  0  0  0  0  0  0  0  0  0  0  0
  151.0487  144.6070  158.4744 C   0  0  0  0  0  0  0  0  0  0  0  0
  151.2214  143.5404  157.3799 C   0  0  0  0  0  0  0  0  0  0  0  0
  147.1011  139.2350  152.5163 N   0  0  0  0  0  0  0  0  0  0  0  0
  146.4915  138.6988  151.4564 C   0  0  0  0  0  0  0  0  0  0  0  0
  145.8887  137.5147  151.3546 N   0  0  0  0  0  0  0  0  0  0  0  0
  145.9504  136.8261  152.5291 C   0  0  0  0  0  0  0  0  0  0  0  0
  143.6146  134.1500  148.5311 H   0  0  0  0  0  0  0  0  0  0  0  0
  143.7983  132.4500  148.1150 H   0  0  0  0  0  0  0  0  0  0  0  0
  145.1369  133.5608  147.8576 H   0  0  0  0  0  0  0  0  0  0  0  0
  143.9739  132.6819  150.5527 H   0  0  0  0  0  0  0  0  0  0  0  0
  146.0500  131.7103  151.9352 H   0  0  0  0  0  0  0  0  0  0  0  0
  147.4777  131.4110  150.9285 H   0  0  0  0  0  0  0  0  0  0  0  0
  147.2944  133.8335  152.0400 H   0  0  0  0  0  0  0  0  0  0  0  0
  147.6582  133.7269  150.3273 H   0  0  0  0  0  0  0  0  0  0  0  0
  146.0921  134.9273  148.9915 H   0  0  0  0  0  0  0  0  0  0  0  0
  143.8431  135.1932  151.5501 H   0  0  0  0  0  0  0  0  0  0  0  0
  144.3743  133.8237  152.4889 H   0  0  0  0  0  0  0  0  0  0  0  0
  145.4941  134.4148  154.6287 H   0  0  0  0  0  0  0  0  0  0  0  0
  146.7460  138.2127  156.3039 H   0  0  0  0  0  0  0  0  0  0  0  0
  148.0449  139.2753  156.8296 H   0  0  0  0  0  0  0  0  0  0  0  0
  148.4379  137.7082  156.1231 H   0  0  0  0  0  0  0  0  0  0  0  0
  149.8155  139.8150  154.5129 H   0  0  0  0  0  0  0  0  0  0  0  0
  148.6506  140.5468  153.4630 H   0  0  0  0  0  0  0  0  0  0  0  0
  148.0514  141.1163  156.2953 H   0  0  0  0  0  0  0  0  0  0  0  0
  148.3558  143.2585  154.9493 H   0  0  0  0  0  0  0  0  0  0  0  0
  150.6861  141.1809  156.2496 H   0  0  0  0  0  0  0  0  0  0  0  0
  150.5255  142.4188  155.0357 H   0  0  0  0  0  0  0  0  0  0  0  0
  148.1790  142.1451  157.9084 H   0  0  0  0  0  0  0  0  0  0  0  0
  149.7028  141.6125  158.5905 H   0  0  0  0  0  0  0  0  0  0  0  0
  148.4626  144.4099  158.8947 H   0  0  0  0  0  0  0  0  0  0  0  0
  148.5923  143.1870  160.1443 H   0  0  0  0  0  0  0  0  0  0  0  0
  150.4927  145.4671  158.0973 H   0  0  0  0  0  0  0  0  0  0  0  0
  152.0228  144.9745  158.7973 H   0  0  0  0  0  0  0  0  0  0  0  0
  151.8690  142.7384  157.7382 H   0  0  0  0  0  0  0  0  0  0  0  0
  151.7102  143.9842  156.5118 H   0  0  0  0  0  0  0  0  0  0  0  0
  146.4874  139.3045  150.5619 H   0  0  0  0  0  0  0  0  0  0  0  0
  149.3725  143.7509  156.6109 H   0  0  0  0  0  0  0  0  0  0  0  0
  1  2  1  0  0  0  0
  1 30  1  0  0  0  0
  1 31  1  0  0  0  0
  1 32  1  0  0  0  0
  2  6  1  0  0  0  0
  2  3  1  0  0  0  0
  2 33  1  0  0  0  0
  3  4  1  0  0  0  0
  4  5  1  0  0  0  0
  4 34  1  0  0  0  0
  4 35  1  0  0  0  0
  5  6  1  0  0  0  0
  5 36  1  0  0  0  0
  5 37  1  0  0  0  0
  6  7  1  0  0  0  0
  6  8  1  0  0  0  0
  7 38  1  0  0  0  0
  8  9  1  0  0  0  0
  8 39  1  0  0  0  0
  8 40  1  0  0  0  0
  9 29  1  0  0  0  0
  9 10  1  0  0  0  0
 10 11  2  0  0  0  0
 10 41  1  0  0  0  0
 11 12  1  0  0  0  0
 12 29  2  0  0  0  0
 12 13  1  0  0  0  0
 13 14  1  0  0  0  0
 13 26  2  0  0  0  0
 14 15  1  0  0  0  0
 14 16  1  0  0  0  0
 15 42  1  0  0  0  0
 15 43  1  0  0  0  0
 15 44  1  0  0  0  0
 16 17  1  0  0  0  0
 16 45  1  0  0  0  0
 16 46  1  0  0  0  0
 17 18  1  0  0  0  0
 17 19  1  0  0  0  0
 17 47  1  0  0  0  0
 18 48  1  0  0  0  0
 19 20  1  0  0  0  0
 19 49  1  0  0  0  0
 19 50  1  0  0  0  0
 20 25  1  0  0  0  0
 20 21  1  0  0  0  0
 20 60  1  0  0  0  0
 21 22  1  0  0  0  0
 21 51  1  0  0  0  0
 21 52  1  0  0  0  0
 22 23  1  0  0  0  0
 22 53  1  0  0  0  0
 22 54  1  0  0  0  0
 23 24  1  0  0  0  0
 24 25  1  0  0  0  0
 24 55  1  0  0  0  0
 24 56  1  0  0  0  0
 25 57  1  0  0  0  0
 25 58  1  0  0  0  0
 26 27  1  0  0  0  0
 27 28  2  0  0  0  0
 27 59  1  0  0  0  0
 28 29  1  0  0  0  0
M  CHG  1  20   1
M  END
> <s_m_source_file>
AV-unprocessed.smi

> <i_m_source_file_index>
153

> <i_lp_mmshare_version>
43012

> <i_f3d_flags>
0

> <s_epik_input>
W0NIMl0xW0NIMl1PW0NAQEhdKFtDSDNdKVtDQEBdMShbT0hdKVtDSDJdbihbY0hdbjIpYyhjMjMpbltjSF1uYzNOKFtDSDNdKVtDSDJdW0NASF0oW09IXSlbQ0gyXU40W0NIMl1bQ0gyXU9bQ0gyXVtDSDJdNA==

> <s_epik_cmdline>
J2VwaWtfcHl0aG9uJywgJy1waCcsICc3LjAnLCAnLXRuJywgJzgnLCAnLW1hJywgJzIwMCcsICctbWV0YWxfYmluZGluZycsICctaW1hZScsICc8aW5maWxlLm1hZT4nLCAnLW9tYWUnLCAnPG91dGZpbGUubWFlPic=

> <r_lp_tautomer_probability>
1

> <r_epik_Ionization_Penalty>
0.403509

> <r_epik_Ionization_Penalty_Charging>
0.40072

> <r_epik_Ionization_Penalty_Neutral>
0.00278876

> <r_epik_State_Penalty>
0.400058

> <r_epik_Charging_Adjusted_Penalty>
0.800778

> <i_epik_Tot_Q>
1

> <i_epik_Tot_abs_Q>
1

> <r_epik_Metal_State_Penalty>
0.400321

> <b_epik_Metal_Only>
0

> <s_lp_Force_Field>
OPLS_2005

> <r_lp_Energy>
45.7554

> <b_lp_Chiralities_Consistent>
1

> <s_lp_Variant>
AV-unprocessed.smi:153-2

> <Gold.Version>
5.8.1

> <Gold.Id.Protein>
6NUR|6NUR_protein|mol2

> <Gold.PLP.Fitness>
51.6127

> <Gold.PLP.PLP>
-40.5029

> <Gold.PLP.part.hbond>
-3.3765

> <Gold.PLP.part.metal>
0.0000

> <Gold.PLP.part.buried>
-7.9833

> <Gold.PLP.part.nonpolar>
-31.0744

> <Gold.PLP.part.repulsive>
2.1296

> <Gold.PLP.ligand.clash>
0.0000

> <Gold.PLP.ligand.torsion>
0.9251

> <Gold.PLP.Chemscore.Hbond>
3.8560

> <Gold.PLP.Chemscore.CHOScore>
0.2762

> <Gold.PLP.Chemscore.Metal>
0.0000

> <Gold.Chemscore.Hbonds>
donor molecule, donor type, donor heavy atom, donor atom, acceptor molecule, acceptor atom, score
      L1  H     7    38       P1  7921  0.55
      L1  H    18    48       P1  8028  1.00
      L1  H    20    60       P1  8028  1.53
      L1  C    27    59       P1 10171  0.12

> <Gold.PLP.Chemscore.Internal.Correction>
0.5633

> <Gold.Rescore>
     Score         DG    S(hbond)    S(metal)    S(lipo)     H(rot)  DE(clash)    DE(int)     intcor
     12.48     -17.09       2.97        0.00      93.54       3.62       0.95       3.66       ----

> <Gold.Chemscore.Fitness>
12.4782

> <Gold.Chemscore.DG>
-17.0863

> <Gold.Chemscore.ZeroCoef>
-5.4800

> <Gold.Chemscore.Hbond>
2.9716

> <Gold.Chemscore.Metal>
0.0000

> <Gold.Chemscore.Lipo>
93.5363

> <Gold.Chemscore.Internal_Hbond>
0.0000

> <Gold.Chemscore.DEClash>
0.9526

> <Gold.Chemscore.DEInternal>
3.6555

> <Gold.Chemscore.Rot>
3.6182

> <Gold.Chemscore.Internal.Correction>
   9.000000E+99

> <Gold.Chemscore.Hbonds>
donor molecule, donor type, donor heavy atom, donor atom, acceptor molecule, acceptor atom, score
      L1  H     7    38       P1  7921  0.42
      L1  H    18    48       P1  8028  0.99
      L1  H    20    60       P1  8028  0.73

> <Gold.Chemscore.Hbond.Weighted>
-9.9251

> <Gold.Chemscore.Metal.Weighted>
-0.0000

> <Gold.Chemscore.Lipo.Weighted>
-10.9437

> <Gold.Chemscore.Internal_Hbond.Weighted>
0.0000

> <Gold.Chemscore.DEClash.Weighted>
0.9526

> <Gold.Chemscore.DEInternal.Weighted>
3.6555

> <Gold.Chemscore.Rot.Weighted>
9.2625

> <Gold.Chemscore.Internal.Correction.Weighted>
   9.000000E+99

> <Gold.Protein.RotatedTorsions>
[ 6907 6896 6895 6894 ] final  126.14 input  -60.11 | X-H torsion
[ 7974 7965 7964 7962 ] final -130.02 input  175.53 | X-H torsion
[ 8008 7997 7996 7995 ] final -154.51 input   59.86 | X-H torsion
[ 10167 10162 10161 10158 ] final   92.63 input  -65.29 | X-H torsion
[ 10718 10713 10712 10709 ] final    7.74 input   66.30 | X-H torsion
[ 10763 10752 10751 10750 ] final   97.53 input  -60.55 | X-H torsion
[ 11005 11000 10999 10996 ] final -134.00 input  -57.11 | X-H torsion

> <Gold.Protein.ActiveResidues>
 VAL166  LYS551  ARG553  GLY616  TRP617  ASP618  TYR619  PRO620  LYS621  CYS622 
 ASP623  PHE694  ASN695  SER759  ASP760  ASP761  ALA762  ILE779  LEU786  VAL792 
 PHE793  MET794  SER795  GLU796  ALA797  LYS798  CYS799  TRP800  GLU811  SER814 

> <Gold.Protein.RotatedAtoms>
  152.3930  133.6706  159.6252 H   0  0  0  0  0  0  0  0  0  0  0  0  # atno 6907 bound_to 6896
  150.7835  133.8922  159.3325 H   0  0  0  0  0  0  0  0  0  0  0  0  # atno 6908 bound_to 6896
  151.6704  135.0978  160.0248 H   0  0  0  0  0  0  0  0  0  0  0  0  # atno 6909 bound_to 6896
  144.9515  140.7350  143.4784 H   0  0  0  0  0  0  0  0  0  0  0  0  # atno 7974 bound_to 7965
  155.6875  140.0751  157.2461 H   0  0  0  0  0  0  0  0  0  0  0  0  # atno 8008 bound_to 7997
  154.4094  140.1670  156.2102 H   0  0  0  0  0  0  0  0  0  0  0  0  # atno 8009 bound_to 7997
  155.9481  140.3379  155.6387 H   0  0  0  0  0  0  0  0  0  0  0  0  # atno 8010 bound_to 7997
  139.8258  144.6710  150.9462 H   0  0  0  0  0  0  0  0  0  0  0  0  # atno 10167 bound_to 10162
  156.9414  130.5862  149.5652 H   0  0  0  0  0  0  0  0  0  0  0  0  # atno 10718 bound_to 10713
  153.2780  135.4180  155.1052 H   0  0  0  0  0  0  0  0  0  0  0  0  # atno 10763 bound_to 10752
  154.8479  135.3488  154.6151 H   0  0  0  0  0  0  0  0  0  0  0  0  # atno 10764 bound_to 10752
  153.6572  135.7050  153.5247 H   0  0  0  0  0  0  0  0  0  0  0  0  # atno 10765 bound_to 10752
  140.9030  134.1666  157.4446 H   0  0  0  0  0  0  0  0  0  0  0  0  # atno 11005 bound_to 11000
  145.2836  139.1909  143.4778 LP  0  0  0  0  0  0  0  0  0  0  0  0  # atno 17320 bound_to 7965
  146.3323  140.2802  142.8610 LP  0  0  0  0  0  0  0  0  0  0  0  0  # atno 17321 bound_to 7965
  140.7810  143.4048  151.1089 LP  0  0  0  0  0  0  0  0  0  0  0  0  # atno 17342 bound_to 10162
  139.7705  143.8501  152.3119 LP  0  0  0  0  0  0  0  0  0  0  0  0  # atno 17343 bound_to 10162
  156.0403  130.5486  150.8754 LP  0  0  0  0  0  0  0  0  0  0  0  0  # atno 17370 bound_to 10713
  157.5783  131.0946  150.9312 LP  0  0  0  0  0  0  0  0  0  0  0  0  # atno 17371 bound_to 10713
  139.8745  134.9905  156.5508 LP  0  0  0  0  0  0  0  0  0  0  0  0  # atno 17394 bound_to 11000
  140.8206  133.8357  155.8892 LP  0  0  0  0  0  0  0  0  0  0  0  0  # atno 17395 bound_to 11000

$$$$
