AV-unprocessed.smi:189|AV-procd|sdf|1480|dock3
  -GOLD-   2262019303D 1   1.00000     0.00000
 Structure written by MMmdl.
 53 57  0  0  0  0  0  0  0  0  1 V2000
  150.0317  140.5592  156.3850 C   0  0  0  0  0  0  0  0  0  0  0  0
  151.3214  141.3060  156.7849 C   0  0  1  0  0  0  0  0  0  0  0  0
  151.1339  142.8377  156.6546 C   0  0  0  0  0  0  0  0  0  0  0  0
  151.7679  143.3869  157.9291 C   0  0  1  0  0  0  0  0  0  0  0  0
  151.3001  144.7474  158.4592 C   0  0  0  0  0  0  0  0  0  0  0  0
  152.0228  145.0433  159.7904 C   0  0  0  0  0  0  0  0  0  0  0  0
  151.8701  143.8933  160.8121 C   0  0  0  0  0  0  0  0  0  0  0  0
  152.2599  142.5213  160.2219 C   0  0  0  0  0  0  0  0  0  0  0  0
  151.4559  142.2846  158.9302 C   0  0  2  0  0  0  0  0  0  0  0  0
  151.7486  141.0773  158.1733 N   0  0  0  0  0  0  0  0  0  0  0  0
  151.6230  139.8369  158.7082 C   0  0  0  0  0  0  0  0  0  0  0  0
  150.4020  139.2440  158.7706 N   0  0  0  0  0  0  0  0  0  0  0  0
  150.2763  138.0131  159.2752 C   0  0  0  0  0  0  0  0  0  0  0  0
  151.2246  137.2096  159.7612 N   0  0  0  0  0  0  0  0  0  0  0  0
  152.4520  137.8011  159.7037 C   0  0  0  0  0  0  0  0  0  0  0  0
  152.7373  139.0998  159.1960 C   0  0  0  0  0  0  0  0  0  0  0  0
  154.0981  139.3613  159.2993 N   0  0  0  0  0  0  0  0  0  0  0  0
  154.5904  138.2769  159.8322 C   0  0  0  0  0  0  0  0  0  0  0  0
  153.6718  137.2907  160.1137 N   0  0  0  0  0  0  0  0  0  0  0  0
  153.9495  135.9904  160.7043 C   0  0  0  0  0  0  0  0  0  0  0  0
  154.2706  136.0547  162.2155 C   0  0  1  0  0  0  0  0  0  0  0  0
  155.5395  136.6612  162.3936 O   0  0  0  0  0  0  0  0  0  0  0  0
  153.2447  136.8256  163.0413 C   0  0  0  0  0  0  0  0  0  0  0  0
  153.2852  136.1100  164.3841 C   0  0  0  0  0  0  0  0  0  0  0  0
  153.4024  134.7502  164.0024 O   0  0  0  0  0  0  0  0  0  0  0  0
  154.2928  134.6699  162.8939 C   0  0  0  0  0  0  0  0  0  0  0  0
  149.7247  140.8336  155.3755 H   0  0  0  0  0  0  0  0  0  0  0  0
  149.2081  140.7987  157.0587 H   0  0  0  0  0  0  0  0  0  0  0  0
  150.1665  139.4778  156.3939 H   0  0  0  0  0  0  0  0  0  0  0  0
  152.1387  140.9952  156.1335 H   0  0  0  0  0  0  0  0  0  0  0  0
  151.5941  143.2405  155.7519 H   0  0  0  0  0  0  0  0  0  0  0  0
  150.0746  143.0996  156.6317 H   0  0  0  0  0  0  0  0  0  0  0  0
  152.8476  143.4287  157.7691 H   0  0  0  0  0  0  0  0  0  0  0  0
  151.5113  145.5318  157.7321 H   0  0  0  0  0  0  0  0  0  0  0  0
  150.2205  144.7405  158.6140 H   0  0  0  0  0  0  0  0  0  0  0  0
  153.0833  145.2053  159.5932 H   0  0  0  0  0  0  0  0  0  0  0  0
  151.6470  145.9731  160.2184 H   0  0  0  0  0  0  0  0  0  0  0  0
  152.4735  144.1007  161.6963 H   0  0  0  0  0  0  0  0  0  0  0  0
  150.8342  143.8537  161.1517 H   0  0  0  0  0  0  0  0  0  0  0  0
  153.3295  142.4961  160.0103 H   0  0  0  0  0  0  0  0  0  0  0  0
  152.0685  141.7413  160.9579 H   0  0  0  0  0  0  0  0  0  0  0  0
  150.3891  142.2884  159.1630 H   0  0  0  0  0  0  0  0  0  0  0  0
  149.2727  137.6145  159.2896 H   0  0  0  0  0  0  0  0  0  0  0  0
  155.6448  138.1669  160.0410 H   0  0  0  0  0  0  0  0  0  0  0  0
  153.0893  135.3432  160.5285 H   0  0  0  0  0  0  0  0  0  0  0  0
  154.7834  135.5415  160.1626 H   0  0  0  0  0  0  0  0  0  0  0  0
  155.9798  136.2280  163.1090 H   0  0  0  0  0  0  0  0  0  0  0  0
  153.4473  137.8950  163.1141 H   0  0  0  0  0  0  0  0  0  0  0  0
  152.2482  136.7044  162.6157 H   0  0  0  0  0  0  0  0  0  0  0  0
  154.1599  136.4094  164.9633 H   0  0  0  0  0  0  0  0  0  0  0  0
  152.3931  136.2852  164.9852 H   0  0  0  0  0  0  0  0  0  0  0  0
  153.9578  133.8749  162.2268 H   0  0  0  0  0  0  0  0  0  0  0  0
  155.2901  134.4005  163.2460 H   0  0  0  0  0  0  0  0  0  0  0  0
  1  2  1  0  0  0  0
  1 27  1  0  0  0  0
  1 28  1  0  0  0  0
  1 29  1  0  0  0  0
  2 10  1  0  0  0  0
  2  3  1  0  0  0  0
  2 30  1  0  0  0  0
  3  4  1  0  0  0  0
  3 31  1  0  0  0  0
  3 32  1  0  0  0  0
  4  9  1  0  0  0  0
  4  5  1  0  0  0  0
  4 33  1  0  0  0  0
  5  6  1  0  0  0  0
  5 34  1  0  0  0  0
  5 35  1  0  0  0  0
  6  7  1  0  0  0  0
  6 36  1  0  0  0  0
  6 37  1  0  0  0  0
  7  8  1  0  0  0  0
  7 38  1  0  0  0  0
  7 39  1  0  0  0  0
  8  9  1  0  0  0  0
  8 40  1  0  0  0  0
  8 41  1  0  0  0  0
  9 10  1  0  0  0  0
  9 42  1  0  0  0  0
 10 11  1  0  0  0  0
 11 16  1  0  0  0  0
 11 12  2  0  0  0  0
 12 13  1  0  0  0  0
 13 14  2  0  0  0  0
 13 43  1  0  0  0  0
 14 15  1  0  0  0  0
 15 19  1  0  0  0  0
 15 16  2  0  0  0  0
 16 17  1  0  0  0  0
 17 18  2  0  0  0  0
 18 19  1  0  0  0  0
 18 44  1  0  0  0  0
 19 20  1  0  0  0  0
 20 21  1  0  0  0  0
 20 45  1  0  0  0  0
 20 46  1  0  0  0  0
 21 26  1  0  0  0  0
 21 22  1  0  0  0  0
 21 23  1  0  0  0  0
 22 47  1  0  0  0  0
 23 24  1  0  0  0  0
 23 48  1  0  0  0  0
 23 49  1  0  0  0  0
 24 25  1  0  0  0  0
 24 50  1  0  0  0  0
 24 51  1  0  0  0  0
 25 26  1  0  0  0  0
 26 52  1  0  0  0  0
 26 53  1  0  0  0  0
M  END
> <s_m_source_file>
AV-unprocessed.smi

> <i_m_source_file_index>
189

> <i_lp_mmshare_version>
43012

> <i_f3d_flags>
0

> <s_epik_input>
W0NIMl0xW0NIMl1bQ0gyXVtDSDJdW0NASF0oW0NASF0xMilOKFtDQEhdKFtDSDNdKVtDSDJdMiljKG5bY0hdbjMpYyhjMzQpbltjSF1uNFtDSDJdW0NAQF01KFtPSF0pW0NIMl1bQ0gyXU9bQ0gyXTU=

> <s_epik_cmdline>
J2VwaWtfcHl0aG9uJywgJy1waCcsICc3LjAnLCAnLXRuJywgJzgnLCAnLW1hJywgJzIwMCcsICctbWV0YWxfYmluZGluZycsICctaW1hZScsICc8aW5maWxlLm1hZT4nLCAnLW9tYWUnLCAnPG91dGZpbGUubWFlPic=

> <r_lp_tautomer_probability>
1

> <r_epik_Ionization_Penalty>
0.00594261

> <r_epik_Ionization_Penalty_Charging>
0

> <r_epik_Ionization_Penalty_Neutral>
0.00594261

> <r_epik_State_Penalty>
0.00429776

> <r_epik_Charging_Adjusted_Penalty>
0.00429776

> <i_epik_Tot_Q>
0

> <i_epik_Tot_abs_Q>
0

> <r_epik_Metal_State_Penalty>
-0

> <b_epik_Metal_Only>
0

> <s_lp_Force_Field>
OPLS_2005

> <r_lp_Energy>
58.915

> <b_lp_Chiralities_Consistent>
1

> <s_lp_Variant>
AV-unprocessed.smi:189-6

> <Gold.Version>
5.8.1

> <Gold.Id.Protein>
6NUR|6NUR_protein|mol2

> <Gold.PLP.Fitness>
52.5439

> <Gold.PLP.PLP>
-47.2459

> <Gold.PLP.part.hbond>
-2.0000

> <Gold.PLP.part.metal>
0.0000

> <Gold.PLP.part.buried>
-5.3291

> <Gold.PLP.part.nonpolar>
-40.1841

> <Gold.PLP.part.repulsive>
0.0578

> <Gold.PLP.ligand.clash>
0.0280

> <Gold.PLP.ligand.torsion>
0.5297

> <Gold.PLP.Chemscore.Hbond>
2.0000

> <Gold.PLP.Chemscore.CHOScore>
0.0000

> <Gold.PLP.Chemscore.Metal>
0.0000

> <Gold.Chemscore.Hbonds>
donor molecule, donor type, donor heavy atom, donor atom, acceptor molecule, acceptor atom, score
      P1  H  6896  6907       L1    14  0.88
      P1  H  7997  8009       L1    17  0.37

> <Gold.PLP.Chemscore.Internal.Correction>
0.3855

> <Gold.Rescore>
     Score         DG    S(hbond)    S(metal)    S(lipo)     H(rot)  DE(clash)    DE(int)     intcor
     18.59     -20.59       1.84        0.00     120.98       2.03       0.01       2.00       ----

> <Gold.Chemscore.Fitness>
18.5869

> <Gold.Chemscore.DG>
-20.5942

> <Gold.Chemscore.ZeroCoef>
-5.4800

> <Gold.Chemscore.Hbond>
1.8429

> <Gold.Chemscore.Metal>
0.0000

> <Gold.Chemscore.Lipo>
120.9828

> <Gold.Chemscore.Internal_Hbond>
0.0000

> <Gold.Chemscore.DEClash>
0.0098

> <Gold.Chemscore.DEInternal>
1.9975

> <Gold.Chemscore.Rot>
2.0297

> <Gold.Chemscore.Internal.Correction>
   9.000000E+99

> <Gold.Chemscore.Hbonds>
donor molecule, donor type, donor heavy atom, donor atom, acceptor molecule, acceptor atom, score
      P1  H  6896  6907       L1    14  0.46
      P1  H  7997  8009       L1    17  0.29

> <Gold.Chemscore.Hbond.Weighted>
-6.1552

> <Gold.Chemscore.Metal.Weighted>
-0.0000

> <Gold.Chemscore.Lipo.Weighted>
-14.1550

> <Gold.Chemscore.Internal_Hbond.Weighted>
0.0000

> <Gold.Chemscore.DEClash.Weighted>
0.0098

> <Gold.Chemscore.DEInternal.Weighted>
1.9975

> <Gold.Chemscore.Rot.Weighted>
5.1960

> <Gold.Chemscore.Internal.Correction.Weighted>
   9.000000E+99

> <Gold.Protein.RotatedTorsions>
[ 6907 6896 6895 6894 ] final    1.91 input  -60.11 | X-H torsion
[ 7974 7965 7964 7962 ] final -130.80 input  175.53 | X-H torsion
[ 8008 7997 7996 7995 ] final  126.33 input   59.86 | X-H torsion
[ 10167 10162 10161 10158 ] final  112.96 input  -65.29 | X-H torsion
[ 10718 10713 10712 10709 ] final   40.71 input   66.30 | X-H torsion
[ 10763 10752 10751 10750 ] final  -57.74 input  -60.55 | X-H torsion
[ 11005 11000 10999 10996 ] final  -12.22 input  -57.11 | X-H torsion

> <Gold.Protein.ActiveResidues>
 VAL166  LYS551  ARG553  GLY616  TRP617  ASP618  TYR619  PRO620  LYS621  CYS622 
 ASP623  PHE694  ASN695  SER759  ASP760  ASP761  ALA762  ILE779  LEU786  VAL792 
 PHE793  MET794  SER795  GLU796  ALA797  LYS798  CYS799  TRP800  GLU811  SER814 

> <Gold.Protein.RotatedAtoms>
  151.6003  135.1048  160.0058 H   0  0  0  0  0  0  0  0  0  0  0  0  # atno 6907 bound_to 6896
  152.4261  133.7194  159.6535 H   0  0  0  0  0  0  0  0  0  0  0  0  # atno 6908 bound_to 6896
  150.8150  133.8281  159.3187 H   0  0  0  0  0  0  0  0  0  0  0  0  # atno 6909 bound_to 6896
  144.9440  140.7271  143.4829 H   0  0  0  0  0  0  0  0  0  0  0  0  # atno 7974 bound_to 7965
  156.2860  140.2695  156.2093 H   0  0  0  0  0  0  0  0  0  0  0  0  # atno 8008 bound_to 7997
  155.0280  140.0386  157.2481 H   0  0  0  0  0  0  0  0  0  0  0  0  # atno 8009 bound_to 7997
  154.7378  140.2719  155.6404 H   0  0  0  0  0  0  0  0  0  0  0  0  # atno 8010 bound_to 7997
  139.6496  144.7128  151.2073 H   0  0  0  0  0  0  0  0  0  0  0  0  # atno 10167 bound_to 10162
  157.3852  130.7776  149.7225 H   0  0  0  0  0  0  0  0  0  0  0  0  # atno 10718 bound_to 10713
  154.2272  135.6367  153.5163 H   0  0  0  0  0  0  0  0  0  0  0  0  # atno 10763 bound_to 10752
  152.9956  135.5511  154.6051 H   0  0  0  0  0  0  0  0  0  0  0  0  # atno 10764 bound_to 10752
  154.5525  135.2902  155.0969 H   0  0  0  0  0  0  0  0  0  0  0  0  # atno 10765 bound_to 10752
  140.7634  133.8496  155.9144 H   0  0  0  0  0  0  0  0  0  0  0  0  # atno 11005 bound_to 11000
  145.2946  139.1871  143.4722 LP  0  0  0  0  0  0  0  0  0  0  0  0  # atno 17320 bound_to 7965
  146.3296  140.2928  142.8616 LP  0  0  0  0  0  0  0  0  0  0  0  0  # atno 17321 bound_to 7965
  140.7531  143.6172  150.8548 LP  0  0  0  0  0  0  0  0  0  0  0  0  # atno 17342 bound_to 10162
  139.9818  143.5942  152.2940 LP  0  0  0  0  0  0  0  0  0  0  0  0  # atno 17343 bound_to 10162
  155.9785  130.4050  150.3645 LP  0  0  0  0  0  0  0  0  0  0  0  0  # atno 17370 bound_to 10713
  157.1754  131.0379  151.2775 LP  0  0  0  0  0  0  0  0  0  0  0  0  # atno 17371 bound_to 10713
  140.9641  134.1617  157.4630 LP  0  0  0  0  0  0  0  0  0  0  0  0  # atno 17394 bound_to 11000
  139.8767  134.9955  156.5749 LP  0  0  0  0  0  0  0  0  0  0  0  0  # atno 17395 bound_to 11000

$$$$
