AV-unprocessed.smi:183|AV-procd|sdf|1458|dock3
  -GOLD-   2262019263D 1   1.00000     0.00000
 Structure written by MMmdl.
 55 57  0  0  0  0  0  0  0  0  1 V2000
  148.6108  145.1047  160.2330 C   0  0  0  0  0  0  0  0  0  0  0  0
  148.3233  143.7645  159.5653 C   0  0  0  0  0  0  0  0  0  0  0  0
  147.5504  142.9654  160.0944 O   0  0  0  0  0  0  0  0  0  0  0  0
  148.9503  143.5342  158.4003 N   0  0  0  0  0  0  0  0  0  0  0  0
  148.7954  142.3231  157.6037 C   0  0  0  0  0  0  0  0  0  0  0  0
  150.1328  141.5622  157.4678 C   0  0  0  0  0  0  0  0  0  0  0  0
  150.0226  140.3014  156.7261 N   0  0  0  0  0  0  0  0  0  0  0  0
  150.0650  139.2421  157.5736 C   0  0  0  0  0  0  0  0  0  0  0  0
  151.2687  138.9447  158.1260 N   0  0  0  0  0  0  0  0  0  0  0  0
  151.4005  137.8767  158.9173 C   0  0  0  0  0  0  0  0  0  0  0  0
  150.4778  136.9792  159.2675 N   0  0  0  0  0  0  0  0  0  0  0  0
  149.2673  137.2708  158.7112 C   0  0  0  0  0  0  0  0  0  0  0  0
  148.9685  138.3818  157.8731 C   0  0  0  0  0  0  0  0  0  0  0  0
  147.6269  138.3476  157.5092 N   0  0  0  0  0  0  0  0  0  0  0  0
  147.1648  137.2736  158.0867 C   0  0  0  0  0  0  0  0  0  0  0  0
  148.0897  136.5503  158.8041 N   0  0  0  0  0  0  0  0  0  0  0  0
  147.8589  135.3027  159.5138 C   0  0  0  0  0  0  0  0  0  0  0  0
  147.4464  135.4696  161.0002 C   0  0  2  0  0  0  0  0  0  0  0  0
  148.3461  136.4136  161.5557 O   0  0  0  0  0  0  0  0  0  0  0  0
  147.4953  134.1974  161.8358 C   0  0  0  0  0  0  0  0  0  0  0  0
  146.6230  134.5473  163.0372 C   0  0  0  0  0  0  0  0  0  0  0  0
  145.6423  135.4578  162.5506 O   0  0  0  0  0  0  0  0  0  0  0  0
  145.9888  135.9167  161.2457 C   0  0  1  0  0  0  0  0  0  0  0  0
  145.6955  137.4161  161.0847 C   0  0  0  0  0  0  0  0  0  0  0  0
  150.6575  140.1659  155.4045 C   0  0  0  0  0  0  0  0  0  0  0  0
  149.9601  139.0946  154.5452 C   0  0  0  0  0  0  0  0  0  0  0  0
  152.1588  139.8178  155.5048 C   0  0  0  0  0  0  0  0  0  0  0  0
  148.3010  145.9262  159.5865 H   0  0  0  0  0  0  0  0  0  0  0  0
  149.6765  145.2079  160.4382 H   0  0  0  0  0  0  0  0  0  0  0  0
  148.0709  145.1908  161.1766 H   0  0  0  0  0  0  0  0  0  0  0  0
  149.5682  144.2468  158.0398 H   0  0  0  0  0  0  0  0  0  0  0  0
  148.0494  141.6815  158.0724 H   0  0  0  0  0  0  0  0  0  0  0  0
  148.3811  142.5960  156.6339 H   0  0  0  0  0  0  0  0  0  0  0  0
  150.8700  142.1987  156.9754 H   0  0  0  0  0  0  0  0  0  0  0  0
  150.5553  141.3741  158.4544 H   0  0  0  0  0  0  0  0  0  0  0  0
  152.3900  137.7100  159.3163 H   0  0  0  0  0  0  0  0  0  0  0  0
  146.1345  136.9648  157.9858 H   0  0  0  0  0  0  0  0  0  0  0  0
  147.0915  134.7453  158.9749 H   0  0  0  0  0  0  0  0  0  0  0  0
  148.7696  134.7058  159.4450 H   0  0  0  0  0  0  0  0  0  0  0  0
  149.1565  135.9699  161.7549 H   0  0  0  0  0  0  0  0  0  0  0  0
  147.0289  133.3665  161.3082 H   0  0  0  0  0  0  0  0  0  0  0  0
  148.5051  133.8915  162.1117 H   0  0  0  0  0  0  0  0  0  0  0  0
  146.1616  133.6676  163.4865 H   0  0  0  0  0  0  0  0  0  0  0  0
  147.2130  135.0490  163.8051 H   0  0  0  0  0  0  0  0  0  0  0  0
  145.3266  135.3669  160.5786 H   0  0  0  0  0  0  0  0  0  0  0  0
  145.9664  137.7628  160.0873 H   0  0  0  0  0  0  0  0  0  0  0  0
  146.2438  138.0159  161.8115 H   0  0  0  0  0  0  0  0  0  0  0  0
  144.6342  137.6185  161.2288 H   0  0  0  0  0  0  0  0  0  0  0  0
  150.5619  141.1162  154.8797 H   0  0  0  0  0  0  0  0  0  0  0  0
  150.4654  138.9721  153.5868 H   0  0  0  0  0  0  0  0  0  0  0  0
  148.9272  139.3606  154.3215 H   0  0  0  0  0  0  0  0  0  0  0  0
  149.9585  138.1250  155.0443 H   0  0  0  0  0  0  0  0  0  0  0  0
  152.5958  139.6897  154.5143 H   0  0  0  0  0  0  0  0  0  0  0  0
  152.3122  138.8887  156.0547 H   0  0  0  0  0  0  0  0  0  0  0  0
  152.7377  140.5957  156.0014 H   0  0  0  0  0  0  0  0  0  0  0  0
  1  2  1  0  0  0  0
  1 28  1  0  0  0  0
  1 29  1  0  0  0  0
  1 30  1  0  0  0  0
  2  3  2  0  0  0  0
  2  4  1  0  0  0  0
  4  5  1  0  0  0  0
  4 31  1  0  0  0  0
  5  6  1  0  0  0  0
  5 32  1  0  0  0  0
  5 33  1  0  0  0  0
  6  7  1  0  0  0  0
  6 34  1  0  0  0  0
  6 35  1  0  0  0  0
  7  8  1  0  0  0  0
  7 25  1  0  0  0  0
  8 13  1  0  0  0  0
  8  9  2  0  0  0  0
  9 10  1  0  0  0  0
 10 11  2  0  0  0  0
 10 36  1  0  0  0  0
 11 12  1  0  0  0  0
 12 16  1  0  0  0  0
 12 13  2  0  0  0  0
 13 14  1  0  0  0  0
 14 15  2  0  0  0  0
 15 16  1  0  0  0  0
 15 37  1  0  0  0  0
 16 17  1  0  0  0  0
 17 18  1  0  0  0  0
 17 38  1  0  0  0  0
 17 39  1  0  0  0  0
 18 23  1  0  0  0  0
 18 19  1  0  0  0  0
 18 20  1  0  0  0  0
 19 40  1  0  0  0  0
 20 21  1  0  0  0  0
 20 41  1  0  0  0  0
 20 42  1  0  0  0  0
 21 22  1  0  0  0  0
 21 43  1  0  0  0  0
 21 44  1  0  0  0  0
 22 23  1  0  0  0  0
 23 24  1  0  0  0  0
 23 45  1  0  0  0  0
 24 46  1  0  0  0  0
 24 47  1  0  0  0  0
 24 48  1  0  0  0  0
 25 26  1  0  0  0  0
 25 27  1  0  0  0  0
 25 49  1  0  0  0  0
 26 50  1  0  0  0  0
 26 51  1  0  0  0  0
 26 52  1  0  0  0  0
 27 53  1  0  0  0  0
 27 54  1  0  0  0  0
 27 55  1  0  0  0  0
M  END
> <s_m_source_file>
AV-unprocessed.smi

> <i_m_source_file_index>
183

> <i_lp_mmshare_version>
43012

> <i_f3d_flags>
0

> <s_epik_input>
W0NIM11DKD1PKVtOSF1bQ0gyXVtDSDJdTihbQ0hdKFtDSDNdKVtDSDNdKWMobltjSF1uMSljKGMxMiluW2NIXW4yW0NIMl1bQ0BAXTMoW09IXSlbQ0gyXVtDSDJdT1tDQEhdM1tDSDNd

> <s_epik_cmdline>
J2VwaWtfcHl0aG9uJywgJy1waCcsICc3LjAnLCAnLXRuJywgJzgnLCAnLW1hJywgJzIwMCcsICctbWV0YWxfYmluZGluZycsICctaW1hZScsICc8aW5maWxlLm1hZT4nLCAnLW9tYWUnLCAnPG91dGZpbGUubWFlPic=

> <r_lp_tautomer_probability>
1

> <r_epik_Ionization_Penalty>
0.00156158

> <r_epik_Ionization_Penalty_Charging>
0

> <r_epik_Ionization_Penalty_Neutral>
0.00156158

> <r_epik_State_Penalty>
0.000865808

> <r_epik_Charging_Adjusted_Penalty>
0.000865808

> <i_epik_Tot_Q>
0

> <i_epik_Tot_abs_Q>
0

> <r_epik_Metal_State_Penalty>
-0

> <b_epik_Metal_Only>
0

> <s_lp_Force_Field>
OPLS_2005

> <r_lp_Energy>
32.608

> <b_lp_Chiralities_Consistent>
1

> <s_lp_Variant>
AV-unprocessed.smi:183-2

> <Gold.Version>
5.8.1

> <Gold.Id.Protein>
6NUR|6NUR_protein|mol2

> <Gold.PLP.Fitness>
39.9862

> <Gold.PLP.PLP>
-34.1490

> <Gold.PLP.part.hbond>
-5.7929

> <Gold.PLP.part.metal>
0.0000

> <Gold.PLP.part.buried>
0.6592

> <Gold.PLP.part.nonpolar>
-28.7044

> <Gold.PLP.part.repulsive>
0.1417

> <Gold.PLP.ligand.clash>
0.0000

> <Gold.PLP.ligand.torsion>
1.7191

> <Gold.PLP.Chemscore.Hbond>
2.6904

> <Gold.PLP.Chemscore.CHOScore>
0.0000

> <Gold.PLP.Chemscore.Metal>
0.0000

> <Gold.Chemscore.Hbonds>
donor molecule, donor type, donor heavy atom, donor atom, acceptor molecule, acceptor atom, score
      P1  H  6896  6909       L1    11  0.81
      P1  H  6931  6943       L1    19  0.75
      P1  H  6933  6944       L1     3  0.90
      P1  H  6934  6946       L1     3  0.25

> <Gold.PLP.Chemscore.Internal.Correction>
1.2042

> <Gold.Rescore>
     Score         DG    S(hbond)    S(metal)    S(lipo)     H(rot)  DE(clash)    DE(int)     intcor
      9.73     -11.76       1.82        0.00      76.98       3.45       0.28       1.76       ----

> <Gold.Chemscore.Fitness>
9.7259

> <Gold.Chemscore.DG>
-11.7626

> <Gold.Chemscore.ZeroCoef>
-5.4800

> <Gold.Chemscore.Hbond>
1.8248

> <Gold.Chemscore.Metal>
0.0000

> <Gold.Chemscore.Lipo>
76.9830

> <Gold.Chemscore.Internal_Hbond>
0.0000

> <Gold.Chemscore.DEClash>
0.2816

> <Gold.Chemscore.DEInternal>
1.7551

> <Gold.Chemscore.Rot>
3.4451

> <Gold.Chemscore.Internal.Correction>
   9.000000E+99

> <Gold.Chemscore.Hbonds>
donor molecule, donor type, donor heavy atom, donor atom, acceptor molecule, acceptor atom, score
      P1  H  6896  6909       L1    11  0.78
      P1  H  6931  6943       L1    19  0.09
      P1  H  6933  6944       L1     3  0.35
      P1  H  6934  6946       L1     3  0.25

> <Gold.Chemscore.Hbond.Weighted>
-6.0950

> <Gold.Chemscore.Metal.Weighted>
-0.0000

> <Gold.Chemscore.Lipo.Weighted>
-9.0070

> <Gold.Chemscore.Internal_Hbond.Weighted>
0.0000

> <Gold.Chemscore.DEClash.Weighted>
0.2816

> <Gold.Chemscore.DEInternal.Weighted>
1.7551

> <Gold.Chemscore.Rot.Weighted>
8.8194

> <Gold.Chemscore.Internal.Correction.Weighted>
   9.000000E+99

> <Gold.Protein.RotatedTorsions>
[ 6907 6896 6895 6894 ] final   81.57 input  -60.11 | X-H torsion
[ 7974 7965 7964 7962 ] final   36.21 input  175.53 | X-H torsion
[ 8008 7997 7996 7995 ] final  112.58 input   59.86 | X-H torsion
[ 10167 10162 10161 10158 ] final -123.03 input  -65.29 | X-H torsion
[ 10718 10713 10712 10709 ] final  159.86 input   66.30 | X-H torsion
[ 10763 10752 10751 10750 ] final   67.92 input  -60.55 | X-H torsion
[ 11005 11000 10999 10996 ] final  -18.30 input  -57.11 | X-H torsion

> <Gold.Protein.ActiveResidues>
 VAL166  LYS551  ARG553  GLY616  TRP617  ASP618  TYR619  PRO620  LYS621  CYS622 
 ASP623  PHE694  ASN695  SER759  ASP760  ASP761  ALA762  ILE779  LEU786  VAL792 
 PHE793  MET794  SER795  GLU796  ALA797  LYS798  CYS799  TRP800  GLU811  SER814 

> <Gold.Protein.RotatedAtoms>
  152.5272  134.3184  159.9138 H   0  0  0  0  0  0  0  0  0  0  0  0  # atno 6907 bound_to 6896
  151.3133  133.4065  159.2656 H   0  0  0  0  0  0  0  0  0  0  0  0  # atno 6908 bound_to 6896
  151.0020  134.9346  159.8016 H   0  0  0  0  0  0  0  0  0  0  0  0  # atno 6909 bound_to 6896
  146.1228  139.6046  142.9279 H   0  0  0  0  0  0  0  0  0  0  0  0  # atno 7974 bound_to 7965
  156.2201  140.2997  155.9933 H   0  0  0  0  0  0  0  0  0  0  0  0  # atno 8008 bound_to 7997
  155.2502  140.0425  157.3003 H   0  0  0  0  0  0  0  0  0  0  0  0  # atno 8009 bound_to 7997
  154.5828  140.2380  155.8037 H   0  0  0  0  0  0  0  0  0  0  0  0  # atno 8010 bound_to 7997
  140.0079  143.5472  152.2276 H   0  0  0  0  0  0  0  0  0  0  0  0  # atno 10167 bound_to 10162
  157.1583  131.0581  151.2245 H   0  0  0  0  0  0  0  0  0  0  0  0  # atno 10718 bound_to 10713
  153.0210  135.5266  154.7054 H   0  0  0  0  0  0  0  0  0  0  0  0  # atno 10763 bound_to 10752
  154.6151  135.2882  155.0391 H   0  0  0  0  0  0  0  0  0  0  0  0  # atno 10764 bound_to 10752
  154.1398  135.6580  153.4992 H   0  0  0  0  0  0  0  0  0  0  0  0  # atno 10765 bound_to 10752
  140.8254  133.8037  155.9703 H   0  0  0  0  0  0  0  0  0  0  0  0  # atno 11005 bound_to 11000
  145.5430  141.0419  143.2320 LP  0  0  0  0  0  0  0  0  0  0  0  0  # atno 17320 bound_to 7965
  144.7613  139.6950  143.7233 LP  0  0  0  0  0  0  0  0  0  0  0  0  # atno 17321 bound_to 7965
  139.6226  144.7631  151.2708 LP  0  0  0  0  0  0  0  0  0  0  0  0  # atno 17342 bound_to 10162
  140.7393  143.6622  150.8154 LP  0  0  0  0  0  0  0  0  0  0  0  0  # atno 17343 bound_to 10162
  157.4156  130.7409  149.6873 LP  0  0  0  0  0  0  0  0  0  0  0  0  # atno 17370 bound_to 10713
  155.9758  130.4084  150.3823 LP  0  0  0  0  0  0  0  0  0  0  0  0  # atno 17371 bound_to 10713
  140.9055  134.2326  157.5017 LP  0  0  0  0  0  0  0  0  0  0  0  0  # atno 17394 bound_to 11000
  139.8707  134.9726  156.4779 LP  0  0  0  0  0  0  0  0  0  0  0  0  # atno 17395 bound_to 11000

$$$$
