AV-unprocessed.smi:1046|AV-procd|sdf|4551|dock10
  -GOLD-   22720 2583D 1   1.00000     0.00000
 Structure written by MMmdl.
 53 55  0  0  0  0  0  0  0  0  2 V2000
  153.7262  142.1841  162.0055 C   0  0  0  0  0  0  0  0  0  0  0  0
  153.0323  141.8477  160.6973 C   0  0  0  0  0  0  0  0  0  0  0  0
  152.1056  142.7670  160.1553 C   0  0  0  0  0  0  0  0  0  0  0  0
  151.4392  142.4925  158.9409 C   0  0  0  0  0  0  0  0  0  0  0  0
  150.5081  143.2377  158.2375 N   0  0  0  0  0  0  0  0  0  0  0  0
  150.2681  142.4498  157.1931 C   0  0  0  0  0  0  0  0  0  0  0  0
  150.9345  141.2804  157.1372 N   0  0  0  0  0  0  0  0  0  0  0  0
  150.8435  140.2641  156.1045 C   0  0  0  0  0  0  0  0  0  0  0  0
  149.7188  140.5537  155.0926 C   0  0  1  0  0  0  0  0  0  0  0  0
  150.1067  140.0772  153.8187 O   0  0  0  0  0  0  0  0  0  0  0  0
  148.3999  139.8688  155.5041 C   0  0  0  0  0  0  0  0  0  0  0  0
  147.3876  139.7469  154.4470 N   0  0  0  0  0  0  0  0  0  0  0  0
  146.0790  139.3467  154.9636 C   0  0  0  0  0  0  0  0  0  0  0  0
  145.3665  140.4661  155.7512 C   0  0  0  0  0  0  0  0  0  0  0  0
  145.2193  141.6820  154.9100 N   0  3  0  0  0  0  0  0  0  0  0  0
  144.4778  142.7648  155.6045 C   0  0  0  0  0  0  0  0  0  0  0  0
  143.1651  142.2732  156.2381 C   0  0  0  0  0  0  0  0  0  0  0  0
  142.4114  141.5492  155.2886 O   0  0  0  0  0  0  0  0  0  0  0  0
  146.5369  142.1107  154.3689 C   0  0  0  0  0  0  0  0  0  0  0  0
  147.2105  140.9437  153.6199 C   0  0  0  0  0  0  0  0  0  0  0  0
  151.7280  141.2638  158.2786 C   0  0  0  0  0  0  0  0  0  0  0  0
  152.6473  140.3408  158.8078 C   0  0  0  0  0  0  0  0  0  0  0  0
  153.3037  140.6304  160.0224 C   0  0  0  0  0  0  0  0  0  0  0  0
  154.2936  139.6272  160.5871 C   0  0  0  0  0  0  0  0  0  0  0  0
  153.4131  143.1575  162.3835 H   0  0  0  0  0  0  0  0  0  0  0  0
  154.8075  142.2110  161.8693 H   0  0  0  0  0  0  0  0  0  0  0  0
  153.4906  141.4389  162.7653 H   0  0  0  0  0  0  0  0  0  0  0  0
  151.8981  143.6939  160.6692 H   0  0  0  0  0  0  0  0  0  0  0  0
  149.5657  142.7384  156.4249 H   0  0  0  0  0  0  0  0  0  0  0  0
  151.8074  140.1883  155.5987 H   0  0  0  0  0  0  0  0  0  0  0  0
  150.6717  139.3041  156.5930 H   0  0  0  0  0  0  0  0  0  0  0  0
  149.5878  141.6330  155.0300 H   0  0  0  0  0  0  0  0  0  0  0  0
  149.5080  140.4192  153.1728 H   0  0  0  0  0  0  0  0  0  0  0  0
  148.6420  138.8733  155.8791 H   0  0  0  0  0  0  0  0  0  0  0  0
  147.9811  140.4040  156.3555 H   0  0  0  0  0  0  0  0  0  0  0  0
  145.4450  139.0443  154.1287 H   0  0  0  0  0  0  0  0  0  0  0  0
  146.1831  138.4605  155.5907 H   0  0  0  0  0  0  0  0  0  0  0  0
  144.3809  140.1143  156.0585 H   0  0  0  0  0  0  0  0  0  0  0  0
  145.9112  140.7086  156.6647 H   0  0  0  0  0  0  0  0  0  0  0  0
  145.1015  143.1901  156.3924 H   0  0  0  0  0  0  0  0  0  0  0  0
  144.2790  143.5762  154.9028 H   0  0  0  0  0  0  0  0  0  0  0  0
  143.3866  141.6091  157.0739 H   0  0  0  0  0  0  0  0  0  0  0  0
  142.5675  143.0913  156.6385 H   0  0  0  0  0  0  0  0  0  0  0  0
  142.4500  142.0049  154.4608 H   0  0  0  0  0  0  0  0  0  0  0  0
  146.4063  142.9409  153.6759 H   0  0  0  0  0  0  0  0  0  0  0  0
  147.1742  142.4759  155.1750 H   0  0  0  0  0  0  0  0  0  0  0  0
  148.1609  141.2683  153.1993 H   0  0  0  0  0  0  0  0  0  0  0  0
  146.5937  140.6841  152.7581 H   0  0  0  0  0  0  0  0  0  0  0  0
  152.8443  139.4180  158.2830 H   0  0  0  0  0  0  0  0  0  0  0  0
  154.3703  138.7437  159.9527 H   0  0  0  0  0  0  0  0  0  0  0  0
  153.9826  139.3002  161.5795 H   0  0  0  0  0  0  0  0  0  0  0  0
  155.2862  140.0716  160.6638 H   0  0  0  0  0  0  0  0  0  0  0  0
  144.6511  141.4090  154.1204 H   0  0  0  0  0  0  0  0  0  0  0  0
  1  2  1  0  0  0  0
  1 25  1  0  0  0  0
  1 26  1  0  0  0  0
  1 27  1  0  0  0  0
  2 23  1  0  0  0  0
  2  3  2  0  0  0  0
  3  4  1  0  0  0  0
  3 28  1  0  0  0  0
  4 21  2  0  0  0  0
  4  5  1  0  0  0  0
  5  6  2  0  0  0  0
  6  7  1  0  0  0  0
  6 29  1  0  0  0  0
  7  8  1  0  0  0  0
  7 21  1  0  0  0  0
  8  9  1  0  0  0  0
  8 30  1  0  0  0  0
  8 31  1  0  0  0  0
  9 10  1  0  0  0  0
  9 11  1  0  0  0  0
  9 32  1  0  0  0  0
 10 33  1  0  0  0  0
 11 12  1  0  0  0  0
 11 34  1  0  0  0  0
 11 35  1  0  0  0  0
 12 20  1  0  0  0  0
 12 13  1  0  0  0  0
 13 14  1  0  0  0  0
 13 36  1  0  0  0  0
 13 37  1  0  0  0  0
 14 15  1  0  0  0  0
 14 38  1  0  0  0  0
 14 39  1  0  0  0  0
 15 16  1  0  0  0  0
 15 19  1  0  0  0  0
 15 53  1  0  0  0  0
 16 17  1  0  0  0  0
 16 40  1  0  0  0  0
 16 41  1  0  0  0  0
 17 18  1  0  0  0  0
 17 42  1  0  0  0  0
 17 43  1  0  0  0  0
 18 44  1  0  0  0  0
 19 20  1  0  0  0  0
 19 45  1  0  0  0  0
 19 46  1  0  0  0  0
 20 47  1  0  0  0  0
 20 48  1  0  0  0  0
 21 22  1  0  0  0  0
 22 23  2  0  0  0  0
 22 49  1  0  0  0  0
 23 24  1  0  0  0  0
 24 50  1  0  0  0  0
 24 51  1  0  0  0  0
 24 52  1  0  0  0  0
M  CHG  1  15   1
M  END
> <s_m_source_file>
AV-unprocessed.smi

> <i_m_source_file_index>
1046

> <i_lp_mmshare_version>
43012

> <i_f3d_flags>
0

> <s_epik_input>
W0NIM11jKFtjSF0xKWMoW0NIM10pW2NIXWMoYzEyKW4oW2NIXW4yKVtDSDJdW0NASF0oW09IXSlbQ0gyXU4zW0NIMl1bQ0gyXU4oW0NIMl1bQ0gyXTMpW0NIMl1bQ0gyXVtPSF0=

> <s_epik_cmdline>
J2VwaWtfcHl0aG9uJywgJy1waCcsICc3LjAnLCAnLXRuJywgJzgnLCAnLW1hJywgJzIwMCcsICctbWV0YWxfYmluZGluZycsICctaW1hZScsICc8aW5maWxlLm1hZT4nLCAnLW9tYWUnLCAnPG91dGZpbGUubWFlPic=

> <r_epik_Ionization_Penalty>
0.218081

> <r_epik_Ionization_Penalty_Charging>
0.0909554

> <r_epik_Ionization_Penalty_Neutral>
0.127126

> <r_epik_State_Penalty>
0.825642

> <r_epik_Charging_Adjusted_Penalty>
0.916597

> <i_epik_Tot_Q>
1

> <i_epik_Tot_abs_Q>
1

> <r_epik_Metal_State_Penalty>
0.740189

> <b_epik_Metal_Only>
0

> <s_lp_Force_Field>
OPLS_2005

> <r_lp_Energy>
34.993

> <b_lp_Chiralities_Consistent>
1

> <s_lp_Variant>
AV-unprocessed.smi:1046-4

> <Gold.Version>
5.8.1

> <Gold.Id.Protein>
6NUR|6NUR_protein|mol2

> <Gold.PLP.Fitness>
58.7815

> <Gold.PLP.PLP>
-43.7169

> <Gold.PLP.part.hbond>
-5.0000

> <Gold.PLP.part.metal>
0.0000

> <Gold.PLP.part.buried>
-3.8191

> <Gold.PLP.part.nonpolar>
-35.2821

> <Gold.PLP.part.repulsive>
0.2682

> <Gold.PLP.ligand.clash>
0.0000

> <Gold.PLP.ligand.torsion>
0.7794

> <Gold.PLP.Chemscore.Hbond>
4.5200

> <Gold.PLP.Chemscore.CHOScore>
1.0000

> <Gold.PLP.Chemscore.Metal>
0.0000

> <Gold.Chemscore.Hbonds>
donor molecule, donor type, donor heavy atom, donor atom, acceptor molecule, acceptor atom, score
      L1  H    10    33       P1  7957  0.48
      L1  H    15    53       P1 10175  1.66
      L1  H    18    44       P1 10174  0.15
      P1  H  7989  7998       L1    10  0.83
      L1  C     6    29       P1  8028  1.00

> <Gold.PLP.Chemscore.Internal.Correction>
0.0634

> <Gold.Rescore>
     Score         DG    S(hbond)    S(metal)    S(lipo)     H(rot)  DE(clash)    DE(int)     intcor
     15.26     -15.87       1.91        0.00     104.50       3.21       0.08       0.53       ----

> <Gold.Chemscore.Fitness>
15.2556

> <Gold.Chemscore.DG>
-15.8660

> <Gold.Chemscore.ZeroCoef>
-5.4800

> <Gold.Chemscore.Hbond>
1.9061

> <Gold.Chemscore.Metal>
0.0000

> <Gold.Chemscore.Lipo>
104.4978

> <Gold.Chemscore.Internal_Hbond>
0.0000

> <Gold.Chemscore.DEClash>
0.0772

> <Gold.Chemscore.DEInternal>
0.5332

> <Gold.Chemscore.Rot>
3.2058

> <Gold.Chemscore.Internal.Correction>
   9.000000E+99

> <Gold.Chemscore.Hbonds>
donor molecule, donor type, donor heavy atom, donor atom, acceptor molecule, acceptor atom, score
      L1  H    10    33       P1  7957  0.45
      L1  H    15    53       P1 10175  0.37
      L1  H    18    44       P1 10174  0.04
      P1  H  7989  7998       L1    10  0.21

> <Gold.Chemscore.Hbond.Weighted>
-6.3665

> <Gold.Chemscore.Metal.Weighted>
-0.0000

> <Gold.Chemscore.Lipo.Weighted>
-12.2262

> <Gold.Chemscore.Internal_Hbond.Weighted>
0.0000

> <Gold.Chemscore.DEClash.Weighted>
0.0772

> <Gold.Chemscore.DEInternal.Weighted>
0.5332

> <Gold.Chemscore.Rot.Weighted>
8.2067

> <Gold.Chemscore.Internal.Correction.Weighted>
   9.000000E+99

> <Gold.Protein.RotatedTorsions>
[ 6907 6896 6895 6894 ] final  -98.64 input  -60.11 | X-H torsion
[ 7974 7965 7964 7962 ] final  -61.50 input  175.53 | X-H torsion
[ 8008 7997 7996 7995 ] final -129.47 input   59.86 | X-H torsion
[ 10167 10162 10161 10158 ] final   38.00 input  -65.29 | X-H torsion
[ 10718 10713 10712 10709 ] final -119.42 input   66.30 | X-H torsion
[ 10763 10752 10751 10750 ] final   71.62 input  -60.55 | X-H torsion
[ 11005 11000 10999 10996 ] final   95.35 input  -57.11 | X-H torsion

> <Gold.Protein.ActiveResidues>
 VAL166  LYS551  ARG553  GLY616  TRP617  ASP618  TYR619  PRO620  LYS621  CYS622 
 ASP623  PHE694  ASN695  SER759  ASP760  ASP761  ALA762  ILE779  LEU786  VAL792 
 PHE793  MET794  SER795  GLU796  ALA797  LYS798  CYS799  TRP800  GLU811  SER814 

> <Gold.Protein.RotatedAtoms>
  150.7053  134.1164  159.4018 H   0  0  0  0  0  0  0  0  0  0  0  0  # atno 6907 bound_to 6896
  151.9150  135.0320  160.0527 H   0  0  0  0  0  0  0  0  0  0  0  0  # atno 6908 bound_to 6896
  152.2304  133.5018  159.5249 H   0  0  0  0  0  0  0  0  0  0  0  0  # atno 6909 bound_to 6896
  145.8028  140.8645  143.0222 H   0  0  0  0  0  0  0  0  0  0  0  0  # atno 7974 bound_to 7965
  155.2797  140.0443  157.3014 H   0  0  0  0  0  0  0  0  0  0  0  0  # atno 8008 bound_to 7997
  154.5604  140.2344  155.8312 H   0  0  0  0  0  0  0  0  0  0  0  0  # atno 8009 bound_to 7997
  156.2042  140.3017  155.9599 H   0  0  0  0  0  0  0  0  0  0  0  0  # atno 8010 bound_to 7997
  140.3979  144.1764  150.6132 H   0  0  0  0  0  0  0  0  0  0  0  0  # atno 10167 bound_to 10162
  156.1180  130.6301  150.9414 H   0  0  0  0  0  0  0  0  0  0  0  0  # atno 10718 bound_to 10713
  153.0410  135.5130  154.7621 H   0  0  0  0  0  0  0  0  0  0  0  0  # atno 10763 bound_to 10752
  154.6559  135.2931  154.9931 H   0  0  0  0  0  0  0  0  0  0  0  0  # atno 10764 bound_to 10752
  154.0799  135.6665  153.4889 H   0  0  0  0  0  0  0  0  0  0  0  0  # atno 10765 bound_to 10752
  139.8790  134.8894  156.3998 H   0  0  0  0  0  0  0  0  0  0  0  0  # atno 11005 bound_to 11000
  144.6766  140.0283  143.7483 LP  0  0  0  0  0  0  0  0  0  0  0  0  # atno 17320 bound_to 7965
  145.9860  139.2978  143.1013 LP  0  0  0  0  0  0  0  0  0  0  0  0  # atno 17321 bound_to 7965
  140.4771  143.2392  151.9008 LP  0  0  0  0  0  0  0  0  0  0  0  0  # atno 17342 bound_to 10162
  139.4786  144.5309  151.8668 LP  0  0  0  0  0  0  0  0  0  0  0  0  # atno 17343 bound_to 10162
  157.6363  131.0915  150.8341 LP  0  0  0  0  0  0  0  0  0  0  0  0  # atno 17370 bound_to 10713
  156.8441  130.5058  149.5318 LP  0  0  0  0  0  0  0  0  0  0  0  0  # atno 17371 bound_to 10713
  140.9275  133.7602  155.9982 LP  0  0  0  0  0  0  0  0  0  0  0  0  # atno 17394 bound_to 11000
  140.8369  134.3112  157.5328 LP  0  0  0  0  0  0  0  0  0  0  0  0  # atno 17395 bound_to 11000

$$$$
