AV-unprocessed.smi:1073|AV-procd|sdf|4689|dock5
  -GOLD-   22720 3203D 1   1.00000     0.00000
 Structure written by MMmdl.
 44 44  0  0  0  0  0  0  0  0  1 V2000
  153.7644  138.2763  159.4484 C   0  0  0  0  0  0  0  0  0  0  0  0
  152.5419  138.5504  158.7093 N   0  0  0  0  0  0  0  0  0  0  0  0
  151.4977  137.7120  158.6392 C   0  0  0  0  0  0  0  0  0  0  0  0
  151.4724  136.6221  159.2136 O   0  0  0  0  0  0  0  0  0  0  0  0
  150.2932  138.1881  157.8160 C   0  0  2  0  0  0  0  0  0  0  0  0
  150.3091  139.7210  157.6026 C   0  0  0  0  0  0  0  0  0  0  0  0
  151.2356  140.2419  156.4798 C   0  0  0  0  0  0  0  0  0  0  0  0
  150.9213  141.6945  156.0842 C   0  0  0  0  0  0  0  0  0  0  0  0
  151.1554  139.3274  155.2480 C   0  0  0  0  0  0  0  0  0  0  0  0
  149.0483  137.7662  158.4606 N   0  0  0  0  0  0  0  0  0  0  0  0
  148.5961  136.5072  158.5673 C   0  0  0  0  0  0  0  0  0  0  0  0
  149.1903  135.5324  158.1048 O   0  0  0  0  0  0  0  0  0  0  0  0
  147.2547  136.3418  159.2955 C   0  0  0  0  0  0  0  0  0  0  0  0
  147.3253  135.4376  160.4554 N   0  0  0  0  0  0  0  0  0  0  0  0
  147.2737  134.0546  160.1926 C   0  0  0  0  0  0  0  0  0  0  0  0
  147.3211  133.1220  161.1628 C   0  0  0  0  0  0  0  0  0  0  0  0
  147.3256  131.6354  160.8418 C   0  0  0  0  0  0  0  0  0  0  0  0
  148.3837  131.0298  161.3811 F   0  0  0  0  0  0  0  0  0  0  0  0
  146.2259  131.0636  161.3305 F   0  0  0  0  0  0  0  0  0  0  0  0
  147.3502  131.4281  159.5246 F   0  0  0  0  0  0  0  0  0  0  0  0
  147.4621  133.6102  162.5207 C   0  0  0  0  0  0  0  0  0  0  0  0
  147.5275  134.9292  162.7881 C   0  0  0  0  0  0  0  0  0  0  0  0
  147.4578  135.9320  161.7226 C   0  0  0  0  0  0  0  0  0  0  0  0
  147.5166  137.1398  161.9543 O   0  0  0  0  0  0  0  0  0  0  0  0
  154.4569  139.1116  159.3449 H   0  0  0  0  0  0  0  0  0  0  0  0
  154.2538  137.3784  159.0693 H   0  0  0  0  0  0  0  0  0  0  0  0
  153.5542  138.1369  160.5096 H   0  0  0  0  0  0  0  0  0  0  0  0
  152.4862  139.4299  158.2162 H   0  0  0  0  0  0  0  0  0  0  0  0
  150.3787  137.6972  156.8457 H   0  0  0  0  0  0  0  0  0  0  0  0
  149.2881  140.0469  157.3966 H   0  0  0  0  0  0  0  0  0  0  0  0
  150.5883  140.2135  158.5357 H   0  0  0  0  0  0  0  0  0  0  0  0
  152.2672  140.2040  156.8291 H   0  0  0  0  0  0  0  0  0  0  0  0
  149.8899  141.7992  155.7463 H   0  0  0  0  0  0  0  0  0  0  0  0
  151.5707  142.0275  155.2741 H   0  0  0  0  0  0  0  0  0  0  0  0
  151.0717  142.3832  156.9148 H   0  0  0  0  0  0  0  0  0  0  0  0
  150.1477  139.3107  154.8314 H   0  0  0  0  0  0  0  0  0  0  0  0
  151.4290  138.3020  155.4988 H   0  0  0  0  0  0  0  0  0  0  0  0
  151.8342  139.6632  154.4635 H   0  0  0  0  0  0  0  0  0  0  0  0
  148.4927  138.5004  158.8758 H   0  0  0  0  0  0  0  0  0  0  0  0
  146.8909  137.3235  159.6043 H   0  0  0  0  0  0  0  0  0  0  0  0
  146.5193  135.9799  158.5757 H   0  0  0  0  0  0  0  0  0  0  0  0
  147.2045  133.7990  159.1450 H   0  0  0  0  0  0  0  0  0  0  0  0
  147.5143  132.9067  163.3386 H   0  0  0  0  0  0  0  0  0  0  0  0
  147.6326  135.2568  163.8120 H   0  0  0  0  0  0  0  0  0  0  0  0
  1  2  1  0  0  0  0
  1 25  1  0  0  0  0
  1 26  1  0  0  0  0
  1 27  1  0  0  0  0
  2  3  1  0  0  0  0
  2 28  1  0  0  0  0
  3  4  2  0  0  0  0
  3  5  1  0  0  0  0
  5  6  1  0  0  0  0
  5 10  1  0  0  0  0
  5 29  1  0  0  0  0
  6  7  1  0  0  0  0
  6 30  1  0  0  0  0
  6 31  1  0  0  0  0
  7  8  1  0  0  0  0
  7  9  1  0  0  0  0
  7 32  1  0  0  0  0
  8 33  1  0  0  0  0
  8 34  1  0  0  0  0
  8 35  1  0  0  0  0
  9 36  1  0  0  0  0
  9 37  1  0  0  0  0
  9 38  1  0  0  0  0
 10 11  1  0  0  0  0
 10 39  1  0  0  0  0
 11 12  2  0  0  0  0
 11 13  1  0  0  0  0
 13 14  1  0  0  0  0
 13 40  1  0  0  0  0
 13 41  1  0  0  0  0
 14 23  1  0  0  0  0
 14 15  1  0  0  0  0
 15 16  2  0  0  0  0
 15 42  1  0  0  0  0
 16 17  1  0  0  0  0
 16 21  1  0  0  0  0
 17 18  1  0  0  0  0
 17 19  1  0  0  0  0
 17 20  1  0  0  0  0
 21 22  2  0  0  0  0
 21 43  1  0  0  0  0
 22 23  1  0  0  0  0
 22 44  1  0  0  0  0
 23 24  2  0  0  0  0
M  END
> <s_m_source_file>
AV-unprocessed.smi

> <i_m_source_file_index>
1073

> <i_lp_mmshare_version>
43012

> <i_f3d_flags>
0

> <s_epik_input>
W0NIM11bTkhdQyg9TylbQ0BIXShbQ0gyXVtDSF0oW0NIM10pW0NIM10pW05IXUMoPU8pW0NIMl1uMVtjSF1jKEMoRikoRilGKVtjSF1bY0hdYzE9Tw==

> <s_epik_cmdline>
J2VwaWtfcHl0aG9uJywgJy1waCcsICc3LjAnLCAnLXRuJywgJzgnLCAnLW1hJywgJzIwMCcsICctbWV0YWxfYmluZGluZycsICctaW1hZScsICc8aW5maWxlLm1hZT4nLCAnLW9tYWUnLCAnPG91dGZpbGUubWFlPic=

> <r_lp_tautomer_probability>
1

> <r_epik_Ionization_Penalty>
7.02352e-08

> <r_epik_Ionization_Penalty_Charging>
1.57869e-08

> <r_epik_Ionization_Penalty_Neutral>
5.44484e-08

> <r_epik_State_Penalty>
-0

> <r_epik_Charging_Adjusted_Penalty>
1.57869e-08

> <i_epik_Tot_Q>
0

> <i_epik_Tot_abs_Q>
0

> <r_epik_Metal_State_Penalty>
-0

> <b_epik_Metal_Only>
0

> <s_lp_Force_Field>
OPLS_2005

> <r_lp_Energy>
18.1755

> <b_lp_Chiralities_Consistent>
1

> <s_lp_Variant>
AV-unprocessed.smi:1073-1

> <Gold.Version>
5.8.1

> <Gold.Id.Protein>
6NUR|6NUR_protein|mol2

> <Gold.PLP.Fitness>
46.0849

> <Gold.PLP.PLP>
-42.5678

> <Gold.PLP.part.hbond>
-4.0000

> <Gold.PLP.part.metal>
0.0000

> <Gold.PLP.part.buried>
-6.1027

> <Gold.PLP.part.nonpolar>
-32.1806

> <Gold.PLP.part.repulsive>
0.2743

> <Gold.PLP.ligand.clash>
1.4026

> <Gold.PLP.ligand.torsion>
1.4963

> <Gold.PLP.Chemscore.Hbond>
2.5840

> <Gold.PLP.Chemscore.CHOScore>
0.0000

> <Gold.PLP.Chemscore.Metal>
0.0000

> <Gold.Chemscore.Hbonds>
donor molecule, donor type, donor heavy atom, donor atom, acceptor molecule, acceptor atom, score
      P1  H  6896  6909       L1    12  0.34
      P1  H  6931  6943       L1    24  0.96
      P1  H  6934  6947       L1    24  0.48

> <Gold.PLP.Chemscore.Internal.Correction>
0.1603

> <Gold.Rescore>
     Score         DG    S(hbond)    S(metal)    S(lipo)     H(rot)  DE(clash)    DE(int)     intcor
     14.01     -16.28       2.54        0.00      74.87       2.51       0.02       2.26       ----

> <Gold.Chemscore.Fitness>
14.0080

> <Gold.Chemscore.DG>
-16.2819

> <Gold.Chemscore.ZeroCoef>
-5.4800

> <Gold.Chemscore.Hbond>
2.5388

> <Gold.Chemscore.Metal>
0.0000

> <Gold.Chemscore.Lipo>
74.8743

> <Gold.Chemscore.Internal_Hbond>
0.0000

> <Gold.Chemscore.DEClash>
0.0186

> <Gold.Chemscore.DEInternal>
2.2553

> <Gold.Chemscore.Rot>
2.5149

> <Gold.Chemscore.Internal.Correction>
   9.000000E+99

> <Gold.Chemscore.Hbonds>
donor molecule, donor type, donor heavy atom, donor atom, acceptor molecule, acceptor atom, score
      P1  H  6896  6907       L1     4  0.03
      P1  H  6896  6909       L1    12  0.27
      P1  H  6931  6943       L1    24  0.92
      P1  H  6934  6947       L1    24  0.48

> <Gold.Chemscore.Hbond.Weighted>
-8.4797

> <Gold.Chemscore.Metal.Weighted>
-0.0000

> <Gold.Chemscore.Lipo.Weighted>
-8.7603

> <Gold.Chemscore.Internal_Hbond.Weighted>
0.0000

> <Gold.Chemscore.DEClash.Weighted>
0.0186

> <Gold.Chemscore.DEInternal.Weighted>
2.2553

> <Gold.Chemscore.Rot.Weighted>
6.4381

> <Gold.Chemscore.Internal.Correction.Weighted>
   9.000000E+99

> <Gold.Protein.RotatedTorsions>
[ 6907 6896 6895 6894 ] final   56.87 input  -60.11 | X-H torsion
[ 7974 7965 7964 7962 ] final   15.36 input  175.53 | X-H torsion
[ 8008 7997 7996 7995 ] final -118.77 input   59.86 | X-H torsion
[ 10167 10162 10161 10158 ] final  -43.16 input  -65.29 | X-H torsion
[ 10718 10713 10712 10709 ] final -115.31 input   66.30 | X-H torsion
[ 10763 10752 10751 10750 ] final -143.58 input  -60.55 | X-H torsion
[ 11005 11000 10999 10996 ] final   84.95 input  -57.11 | X-H torsion

> <Gold.Protein.ActiveResidues>
 VAL166  LYS551  ARG553  GLY616  TRP617  ASP618  TYR619  PRO620  LYS621  CYS622 
 ASP623  PHE694  ASN695  SER759  ASP760  ASP761  ALA762  ILE779  LEU786  VAL792 
 PHE793  MET794  SER795  GLU796  ALA797  LYS798  CYS799  TRP800  GLU811  SER814 

> <Gold.Protein.RotatedAtoms>
  152.3677  134.6780  160.0186 H   0  0  0  0  0  0  0  0  0  0  0  0  # atno 6907 bound_to 6896
  151.7083  133.3306  159.3292 H   0  0  0  0  0  0  0  0  0  0  0  0  # atno 6908 bound_to 6896
  150.7650  134.6490  159.6322 H   0  0  0  0  0  0  0  0  0  0  0  0  # atno 6909 bound_to 6896
  146.2280  139.8906  142.8555 H   0  0  0  0  0  0  0  0  0  0  0  0  # atno 7974 bound_to 7965
  155.1051  140.0396  157.2708 H   0  0  0  0  0  0  0  0  0  0  0  0  # atno 8008 bound_to 7997
  154.6728  140.2616  155.6963 H   0  0  0  0  0  0  0  0  0  0  0  0  # atno 8009 bound_to 7997
  156.2665  140.2794  156.1244 H   0  0  0  0  0  0  0  0  0  0  0  0  # atno 8010 bound_to 7997
  140.6944  143.2998  151.3313 H   0  0  0  0  0  0  0  0  0  0  0  0  # atno 10167 bound_to 10162
  156.0887  130.6074  150.8889 H   0  0  0  0  0  0  0  0  0  0  0  0  # atno 10718 bound_to 10713
  154.8464  135.3464  154.6210 H   0  0  0  0  0  0  0  0  0  0  0  0  # atno 10763 bound_to 10752
  153.6819  135.6979  153.5120 H   0  0  0  0  0  0  0  0  0  0  0  0  # atno 10764 bound_to 10752
  153.2662  135.4307  155.0899 H   0  0  0  0  0  0  0  0  0  0  0  0  # atno 10765 bound_to 10752
  139.8985  134.8252  156.2515 H   0  0  0  0  0  0  0  0  0  0  0  0  # atno 11005 bound_to 11000
  145.2422  141.0013  143.3929 LP  0  0  0  0  0  0  0  0  0  0  0  0  # atno 17320 bound_to 7965
  144.9443  139.4154  143.6434 LP  0  0  0  0  0  0  0  0  0  0  0  0  # atno 17321 bound_to 7965
  139.6381  144.0591  152.2532 LP  0  0  0  0  0  0  0  0  0  0  0  0  # atno 17342 bound_to 10162
  140.0088  144.6239  150.7665 LP  0  0  0  0  0  0  0  0  0  0  0  0  # atno 17343 bound_to 10162
  157.6030  131.0940  150.8928 LP  0  0  0  0  0  0  0  0  0  0  0  0  # atno 17370 bound_to 10713
  156.9082  130.5271  149.5281 LP  0  0  0  0  0  0  0  0  0  0  0  0  # atno 17371 bound_to 10713
  141.0221  133.7036  156.1285 LP  0  0  0  0  0  0  0  0  0  0  0  0  # atno 17394 bound_to 11000
  140.7219  134.4349  157.5574 LP  0  0  0  0  0  0  0  0  0  0  0  0  # atno 17395 bound_to 11000

$$$$
