AV-unprocessed.smi:3132|AV-procd|sdf|11935|dock7
  -GOLD-   2272017323D 1   1.00000     0.00000
 Structure written by MMmdl.
 33 34  0  0  0  0  0  0  0  0  1 V2000
  153.1261  138.8779  159.1667 C   0  0  0  0  0  0  0  0  0  0  0  0
  152.7998  140.2352  158.5249 C   0  0  2  0  0  0  0  0  0  0  0  0
  152.4783  141.3012  159.5893 C   0  0  0  0  0  0  0  0  0  0  0  0
  152.2719  142.6158  159.0091 N   0  0  0  0  0  0  0  0  0  0  0  0
  153.0769  143.7371  159.1641 C   0  0  0  0  0  0  0  0  0  0  0  0
  152.4872  144.7473  158.4386 C   0  0  0  0  0  0  0  0  0  0  0  0
  151.3278  144.2725  157.8301 N   0  0  0  0  0  0  0  0  0  0  0  0
  151.2665  143.0036  158.2127 C   0  0  0  0  0  0  0  0  0  0  0  0
  151.6726  140.0924  157.6063 N   0  0  0  0  0  0  0  0  0  0  0  0
  151.7535  139.7342  156.3151 C   0  0  0  0  0  0  0  0  0  0  0  0
  152.8177  139.4612  155.7594 O   0  0  0  0  0  0  0  0  0  0  0  0
  150.4414  139.6949  155.5184 C   0  0  1  0  0  0  0  0  0  0  0  0
  149.2011  140.1288  156.3230 C   0  0  0  0  0  0  0  0  0  0  0  0
  148.6245  141.2827  155.5206 C   0  0  0  0  0  0  0  0  0  0  0  0
  149.1935  141.0424  154.1296 C   0  0  0  0  0  0  0  0  0  0  0  0
  150.5076  140.5943  154.4120 O   0  0  0  0  0  0  0  0  0  0  0  0
  153.9781  138.9590  159.8423 H   0  0  0  0  0  0  0  0  0  0  0  0
  153.3780  138.1334  158.4106 H   0  0  0  0  0  0  0  0  0  0  0  0
  152.2812  138.4969  159.7414 H   0  0  0  0  0  0  0  0  0  0  0  0
  153.6790  140.5673  157.9695 H   0  0  0  0  0  0  0  0  0  0  0  0
  151.5887  141.0236  160.1566 H   0  0  0  0  0  0  0  0  0  0  0  0
  153.2965  141.3753  160.3069 H   0  0  0  0  0  0  0  0  0  0  0  0
  153.9754  143.7248  159.7634 H   0  0  0  0  0  0  0  0  0  0  0  0
  152.8059  145.7710  158.3080 H   0  0  0  0  0  0  0  0  0  0  0  0
  150.4692  142.3408  157.9095 H   0  0  0  0  0  0  0  0  0  0  0  0
  150.7555  140.2994  157.9752 H   0  0  0  0  0  0  0  0  0  0  0  0
  150.2952  138.6845  155.1332 H   0  0  0  0  0  0  0  0  0  0  0  0
  148.4879  139.3053  156.3749 H   0  0  0  0  0  0  0  0  0  0  0  0
  149.4204  140.4362  157.3465 H   0  0  0  0  0  0  0  0  0  0  0  0
  147.5348  141.3133  155.5366 H   0  0  0  0  0  0  0  0  0  0  0  0
  148.9981  142.2296  155.9122 H   0  0  0  0  0  0  0  0  0  0  0  0
  148.6397  140.2612  153.6065 H   0  0  0  0  0  0  0  0  0  0  0  0
  149.1970  141.9409  153.5125 H   0  0  0  0  0  0  0  0  0  0  0  0
  1  2  1  0  0  0  0
  1 17  1  0  0  0  0
  1 18  1  0  0  0  0
  1 19  1  0  0  0  0
  2  3  1  0  0  0  0
  2  9  1  0  0  0  0
  2 20  1  0  0  0  0
  3  4  1  0  0  0  0
  3 21  1  0  0  0  0
  3 22  1  0  0  0  0
  4  8  1  0  0  0  0
  4  5  1  0  0  0  0
  5  6  2  0  0  0  0
  5 23  1  0  0  0  0
  6  7  1  0  0  0  0
  6 24  1  0  0  0  0
  7  8  2  0  0  0  0
  8 25  1  0  0  0  0
  9 10  1  0  0  0  0
  9 26  1  0  0  0  0
 10 11  2  0  0  0  0
 10 12  1  0  0  0  0
 12 16  1  0  0  0  0
 12 13  1  0  0  0  0
 12 27  1  0  0  0  0
 13 14  1  0  0  0  0
 13 28  1  0  0  0  0
 13 29  1  0  0  0  0
 14 15  1  0  0  0  0
 14 30  1  0  0  0  0
 14 31  1  0  0  0  0
 15 16  1  0  0  0  0
 15 32  1  0  0  0  0
 15 33  1  0  0  0  0
M  END
> <s_m_source_file>
AV-unprocessed.smi

> <i_m_source_file_index>
3132

> <i_lp_mmshare_version>
43012

> <i_f3d_flags>
0

> <s_epik_input>
W2NIXTFuW2NIXVtjSF1uMVtDSDJdW0NAQEhdKFtDSDNdKVtOSF1DKD1PKVtDQEBIXTJbQ0gyXVtDSDJdW0NIMl1PMg==

> <s_epik_cmdline>
J2VwaWtfcHl0aG9uJywgJy1waCcsICc3LjAnLCAnLXRuJywgJzgnLCAnLW1hJywgJzIwMCcsICctbWV0YWxfYmluZGluZycsICctaW1hZScsICc8aW5maWxlLm1hZT4nLCAnLW9tYWUnLCAnPG91dGZpbGUubWFlPic=

> <r_lp_tautomer_probability>
1

> <r_epik_Ionization_Penalty>
0.630322

> <r_epik_Ionization_Penalty_Charging>
0.630322

> <r_epik_Ionization_Penalty_Neutral>
3.82652e-08

> <r_epik_State_Penalty>
0.647117

> <r_epik_Charging_Adjusted_Penalty>
1.27744

> <i_epik_Tot_Q>
0

> <i_epik_Tot_abs_Q>
0

> <r_epik_Metal_State_Penalty>
0.309095

> <b_epik_Metal_Only>
0

> <s_lp_Force_Field>
OPLS_2005

> <r_lp_Energy>
19.804

> <b_lp_Chiralities_Consistent>
1

> <s_lp_Variant>
AV-unprocessed.smi:3132-7

> <Gold.Version>
5.8.1

> <Gold.Id.Protein>
6NUR|6NUR_protein|mol2

> <Gold.PLP.Fitness>
36.8484

> <Gold.PLP.PLP>
-31.6990

> <Gold.PLP.part.hbond>
-2.0000

> <Gold.PLP.part.metal>
0.0000

> <Gold.PLP.part.buried>
-4.1482

> <Gold.PLP.part.nonpolar>
-25.8829

> <Gold.PLP.part.repulsive>
0.3265

> <Gold.PLP.ligand.clash>
0.0000

> <Gold.PLP.ligand.torsion>
0.4338

> <Gold.PLP.Chemscore.Hbond>
2.0000

> <Gold.PLP.Chemscore.CHOScore>
0.0000

> <Gold.PLP.Chemscore.Metal>
0.0000

> <Gold.Chemscore.Hbonds>
donor molecule, donor type, donor heavy atom, donor atom, acceptor molecule, acceptor atom, score
      P1  H  7989  7998       L1    16  0.78
      P1  H  7997  8010       L1    11  1.00

> <Gold.PLP.Chemscore.Internal.Correction>
0.0169

> <Gold.Rescore>
     Score         DG    S(hbond)    S(metal)    S(lipo)     H(rot)  DE(clash)    DE(int)     intcor
     15.03     -15.61       1.92        0.00      72.57       1.86       0.05       0.53       ----

> <Gold.Chemscore.Fitness>
15.0319

> <Gold.Chemscore.DG>
-15.6149

> <Gold.Chemscore.ZeroCoef>
-5.4800

> <Gold.Chemscore.Hbond>
1.9206

> <Gold.Chemscore.Metal>
0.0000

> <Gold.Chemscore.Lipo>
72.5717

> <Gold.Chemscore.Internal_Hbond>
0.0000

> <Gold.Chemscore.DEClash>
0.0504

> <Gold.Chemscore.DEInternal>
0.5326

> <Gold.Chemscore.Rot>
1.8636

> <Gold.Chemscore.Internal.Correction>
   9.000000E+99

> <Gold.Chemscore.Hbonds>
donor molecule, donor type, donor heavy atom, donor atom, acceptor molecule, acceptor atom, score
      P1  H  7989  7998       L1    16  0.74
      P1  H  7997  8010       L1    11  1.00

> <Gold.Chemscore.Hbond.Weighted>
-6.4149

> <Gold.Chemscore.Metal.Weighted>
-0.0000

> <Gold.Chemscore.Lipo.Weighted>
-8.4909

> <Gold.Chemscore.Internal_Hbond.Weighted>
0.0000

> <Gold.Chemscore.DEClash.Weighted>
0.0504

> <Gold.Chemscore.DEInternal.Weighted>
0.5326

> <Gold.Chemscore.Rot.Weighted>
4.7709

> <Gold.Chemscore.Internal.Correction.Weighted>
   9.000000E+99

> <Gold.Protein.RotatedTorsions>
[ 6907 6896 6895 6894 ] final   54.09 input  -60.11 | X-H torsion
[ 7974 7965 7964 7962 ] final  117.39 input  175.53 | X-H torsion
[ 8008 7997 7996 7995 ] final   85.48 input   59.86 | X-H torsion
[ 10167 10162 10161 10158 ] final  -33.62 input  -65.29 | X-H torsion
[ 10718 10713 10712 10709 ] final  167.15 input   66.30 | X-H torsion
[ 10763 10752 10751 10750 ] final  -18.54 input  -60.55 | X-H torsion
[ 11005 11000 10999 10996 ] final -138.22 input  -57.11 | X-H torsion

> <Gold.Protein.ActiveResidues>
 VAL166  LYS551  ARG553  GLY616  TRP617  ASP618  TYR619  PRO620  LYS621  CYS622 
 ASP623  PHE694  ASN695  SER759  ASP760  ASP761  ALA762  ILE779  LEU786  VAL792 
 PHE793  MET794  SER795  GLU796  ALA797  LYS798  CYS799  TRP800  GLU811  SER814 

> <Gold.Protein.RotatedAtoms>
  152.3404  134.7142  160.0265 H   0  0  0  0  0  0  0  0  0  0  0  0  # atno 6907 bound_to 6896
  151.7530  133.3323  159.3404 H   0  0  0  0  0  0  0  0  0  0  0  0  # atno 6908 bound_to 6896
  150.7476  134.6108  159.6129 H   0  0  0  0  0  0  0  0  0  0  0  0  # atno 6909 bound_to 6896
  145.1679  139.3118  143.4483 H   0  0  0  0  0  0  0  0  0  0  0  0  # atno 7974 bound_to 7965
  155.9505  140.3401  155.6404 H   0  0  0  0  0  0  0  0  0  0  0  0  # atno 8008 bound_to 7997
  155.6926  140.0750  157.2460 H   0  0  0  0  0  0  0  0  0  0  0  0  # atno 8009 bound_to 7997
  154.4121  140.1654  156.2090 H   0  0  0  0  0  0  0  0  0  0  0  0  # atno 8010 bound_to 7997
  140.7201  143.3607  151.1969 H   0  0  0  0  0  0  0  0  0  0  0  0  # atno 10167 bound_to 10162
  157.0556  131.0326  151.2665 H   0  0  0  0  0  0  0  0  0  0  0  0  # atno 10718 bound_to 10713
  153.5909  135.7002  153.5424 H   0  0  0  0  0  0  0  0  0  0  0  0  # atno 10763 bound_to 10752
  153.3179  135.4082  155.1392 H   0  0  0  0  0  0  0  0  0  0  0  0  # atno 10764 bound_to 10752
  154.8601  135.3688  154.5440 H   0  0  0  0  0  0  0  0  0  0  0  0  # atno 10765 bound_to 10752
  140.8637  134.2137  157.4692 H   0  0  0  0  0  0  0  0  0  0  0  0  # atno 11005 bound_to 11000
  146.3473  140.1814  142.8589 LP  0  0  0  0  0  0  0  0  0  0  0  0  # atno 17320 bound_to 7965
  145.0263  140.8834  143.5136 LP  0  0  0  0  0  0  0  0  0  0  0  0  # atno 17321 bound_to 7965
  139.7158  143.9303  152.2966 LP  0  0  0  0  0  0  0  0  0  0  0  0  # atno 17342 bound_to 10162
  139.9043  144.6893  150.8631 LP  0  0  0  0  0  0  0  0  0  0  0  0  # atno 17343 bound_to 10162
  157.4995  130.7871  149.7590 LP  0  0  0  0  0  0  0  0  0  0  0  0  # atno 17370 bound_to 10713
  155.9994  130.3889  150.2666 LP  0  0  0  0  0  0  0  0  0  0  0  0  # atno 17371 bound_to 10713
  139.8708  134.9741  156.4835 LP  0  0  0  0  0  0  0  0  0  0  0  0  # atno 17394 bound_to 11000
  140.8654  133.8028  155.9308 LP  0  0  0  0  0  0  0  0  0  0  0  0  # atno 17395 bound_to 11000

$$$$
