AV-unprocessed.smi:292|AV-procd|sdf|2250|dock2
  -GOLD-   2262022133D 1   1.00000     0.00000
 Structure written by MMmdl.
 33 34  0  0  0  0  0  0  0  0  1 V2000
  147.4914  135.7573  161.6279 N   0  0  0  0  0  0  0  0  0  0  0  0
  148.1490  136.1627  160.7661 C   0  0  0  0  0  0  0  0  0  0  0  0
  148.9747  136.6722  159.6843 C   0  0  0  0  0  0  0  0  0  0  0  0
  148.4558  136.9160  158.4458 N   0  0  0  0  0  0  0  0  0  0  0  0
  149.5562  137.3493  157.8434 C   0  0  0  0  0  0  0  0  0  0  0  0
  150.6366  137.3672  158.6317 N   0  0  0  0  0  0  0  0  0  0  0  0
  152.0067  137.7567  158.3465 C   0  0  0  0  0  0  0  0  0  0  0  0
  152.1111  139.2577  158.0705 C   0  0  0  0  0  0  0  0  0  0  0  0
  152.6915  139.6590  157.0621 O   0  0  0  0  0  0  0  0  0  0  0  0
  151.5429  140.0732  158.9733 N   0  0  0  0  0  0  0  0  0  0  0  0
  151.5621  141.5355  158.9430 C   0  0  1  0  0  0  0  0  0  0  0  0
  153.0033  142.0536  159.1439 C   0  0  0  0  0  0  0  0  0  0  0  0
  153.0794  143.4969  159.6674 C   0  0  0  0  0  0  0  0  0  0  0  0
  152.4918  144.5578  158.7245 C   0  0  0  0  0  0  0  0  0  0  0  0
  150.9743  144.4224  158.5091 C   0  0  0  0  0  0  0  0  0  0  0  0
  150.6345  143.3764  157.5523 N   0  0  0  0  0  0  0  0  0  0  0  0
  150.8703  142.0609  157.6707 C   0  0  0  0  0  0  0  0  0  0  0  0
  150.5437  141.2846  156.7730 O   0  0  0  0  0  0  0  0  0  0  0  0
  150.2704  136.9233  159.8590 N   0  0  0  0  0  0  0  0  0  0  0  0
  149.5780  137.6528  156.8070 H   0  0  0  0  0  0  0  0  0  0  0  0
  152.6299  137.4873  159.2004 H   0  0  0  0  0  0  0  0  0  0  0  0
  152.3769  137.1969  157.4862 H   0  0  0  0  0  0  0  0  0  0  0  0
  151.0906  139.6493  159.7711 H   0  0  0  0  0  0  0  0  0  0  0  0
  150.9529  141.8767  159.7822 H   0  0  0  0  0  0  0  0  0  0  0  0
  153.5208  141.4207  159.8661 H   0  0  0  0  0  0  0  0  0  0  0  0
  153.5682  141.9614  158.2151 H   0  0  0  0  0  0  0  0  0  0  0  0
  152.5840  143.5573  160.6373 H   0  0  0  0  0  0  0  0  0  0  0  0
  154.1258  143.7410  159.8546 H   0  0  0  0  0  0  0  0  0  0  0  0
  152.6883  145.5382  159.1595 H   0  0  0  0  0  0  0  0  0  0  0  0
  153.0142  144.5467  157.7670 H   0  0  0  0  0  0  0  0  0  0  0  0
  150.4547  144.2580  159.4541 H   0  0  0  0  0  0  0  0  0  0  0  0
  150.5862  145.3586  158.1068 H   0  0  0  0  0  0  0  0  0  0  0  0
  150.1779  143.6825  156.7051 H   0  0  0  0  0  0  0  0  0  0  0  0
  1  2  3  0  0  0  0
  2  3  1  0  0  0  0
  3 19  2  0  0  0  0
  3  4  1  0  0  0  0
  4  5  2  0  0  0  0
  5  6  1  0  0  0  0
  5 20  1  0  0  0  0
  6  7  1  0  0  0  0
  6 19  1  0  0  0  0
  7  8  1  0  0  0  0
  7 21  1  0  0  0  0
  7 22  1  0  0  0  0
  8  9  2  0  0  0  0
  8 10  1  0  0  0  0
 10 11  1  0  0  0  0
 10 23  1  0  0  0  0
 11 17  1  0  0  0  0
 11 12  1  0  0  0  0
 11 24  1  0  0  0  0
 12 13  1  0  0  0  0
 12 25  1  0  0  0  0
 12 26  1  0  0  0  0
 13 14  1  0  0  0  0
 13 27  1  0  0  0  0
 13 28  1  0  0  0  0
 14 15  1  0  0  0  0
 14 29  1  0  0  0  0
 14 30  1  0  0  0  0
 15 16  1  0  0  0  0
 15 31  1  0  0  0  0
 15 32  1  0  0  0  0
 16 17  1  0  0  0  0
 16 33  1  0  0  0  0
 17 18  2  0  0  0  0
M  END
> <s_m_source_file>
AV-unprocessed.smi

> <i_m_source_file_index>
292

> <i_lp_mmshare_version>
43012

> <i_f3d_flags>
0

> <s_epik_input>
TiNDYzFuW2NIXW4objEpW0NIMl1DKD1PKVtOSF1bQ0BASF0yW0NIMl1bQ0gyXVtDSDJdW0NIMl1bTkhdQzI9Tw==

> <s_epik_cmdline>
J2VwaWtfcHl0aG9uJywgJy1waCcsICc3LjAnLCAnLXRuJywgJzgnLCAnLW1hJywgJzIwMCcsICctbWV0YWxfYmluZGluZycsICctaW1hZScsICc8aW5maWxlLm1hZT4nLCAnLW9tYWUnLCAnPG91dGZpbGUubWFlPic=

> <r_lp_tautomer_probability>
1

> <r_epik_Ionization_Penalty>
1.99744e-07

> <r_epik_Ionization_Penalty_Charging>
0

> <r_epik_Ionization_Penalty_Neutral>
1.99744e-07

> <r_epik_State_Penalty>
-0

> <r_epik_Charging_Adjusted_Penalty>
0

> <i_epik_Tot_Q>
0

> <i_epik_Tot_abs_Q>
0

> <r_epik_Metal_State_Penalty>
-0

> <b_epik_Metal_Only>
0

> <s_lp_Force_Field>
OPLS_2005

> <r_lp_Energy>
14.2569

> <b_lp_Chiralities_Consistent>
1

> <s_lp_Variant>
AV-unprocessed.smi:292-2

> <Gold.Version>
5.8.1

> <Gold.Id.Protein>
6NUR|6NUR_protein|mol2

> <Gold.PLP.Fitness>
42.8095

> <Gold.PLP.PLP>
-34.1070

> <Gold.PLP.part.hbond>
-3.3355

> <Gold.PLP.part.metal>
0.0000

> <Gold.PLP.part.buried>
-6.6143

> <Gold.PLP.part.nonpolar>
-25.2374

> <Gold.PLP.part.repulsive>
0.2242

> <Gold.PLP.ligand.clash>
0.0000

> <Gold.PLP.ligand.torsion>
0.1512

> <Gold.PLP.Chemscore.Hbond>
2.9920

> <Gold.PLP.Chemscore.CHOScore>
0.0000

> <Gold.PLP.Chemscore.Metal>
0.0000

> <Gold.Chemscore.Hbonds>
donor molecule, donor type, donor heavy atom, donor atom, acceptor molecule, acceptor atom, score
      L1  H    16    33       P1  8028  1.00
      P1  H  6896  6907       L1    19  1.00
      P1  H  7997  8010       L1     9  1.00

> <Gold.PLP.Chemscore.Internal.Correction>
0.0290

> <Gold.Rescore>
     Score         DG    S(hbond)    S(metal)    S(lipo)     H(rot)  DE(clash)    DE(int)     intcor
     14.08     -16.70       2.95        0.00      58.57       2.14       0.01       2.62       ----

> <Gold.Chemscore.Fitness>
14.0756

> <Gold.Chemscore.DG>
-16.6995

> <Gold.Chemscore.ZeroCoef>
-5.4800

> <Gold.Chemscore.Hbond>
2.9511

> <Gold.Chemscore.Metal>
0.0000

> <Gold.Chemscore.Lipo>
58.5667

> <Gold.Chemscore.Internal_Hbond>
0.0000

> <Gold.Chemscore.DEClash>
0.0073

> <Gold.Chemscore.DEInternal>
2.6166

> <Gold.Chemscore.Rot>
2.1444

> <Gold.Chemscore.Internal.Correction>
   9.000000E+99

> <Gold.Chemscore.Hbonds>
donor molecule, donor type, donor heavy atom, donor atom, acceptor molecule, acceptor atom, score
      L1  H    16    33       P1  8028  0.97
      P1  H  6896  6907       L1    19  0.11
      P1  H  7997  8010       L1     9  0.99

> <Gold.Chemscore.Hbond.Weighted>
-9.8568

> <Gold.Chemscore.Metal.Weighted>
-0.0000

> <Gold.Chemscore.Lipo.Weighted>
-6.8523

> <Gold.Chemscore.Internal_Hbond.Weighted>
0.0000

> <Gold.Chemscore.DEClash.Weighted>
0.0073

> <Gold.Chemscore.DEInternal.Weighted>
2.6166

> <Gold.Chemscore.Rot.Weighted>
5.4896

> <Gold.Chemscore.Internal.Correction.Weighted>
   9.000000E+99

> <Gold.Protein.RotatedTorsions>
[ 6907 6896 6895 6894 ] final  -28.89 input  -60.11 | X-H torsion
[ 7974 7965 7964 7962 ] final  -71.77 input  175.53 | X-H torsion
[ 8008 7997 7996 7995 ] final   46.38 input   59.86 | X-H torsion
[ 10167 10162 10161 10158 ] final -126.83 input  -65.29 | X-H torsion
[ 10718 10713 10712 10709 ] final  157.62 input   66.30 | X-H torsion
[ 10763 10752 10751 10750 ] final  -20.68 input  -60.55 | X-H torsion
[ 11005 11000 10999 10996 ] final   78.48 input  -57.11 | X-H torsion

> <Gold.Protein.ActiveResidues>
 VAL166  LYS551  ARG553  GLY616  TRP617  ASP618  TYR619  PRO620  LYS621  CYS622 
 ASP623  PHE694  ASN695  SER759  ASP760  ASP761  ALA762  ILE779  LEU786  VAL792 
 PHE793  MET794  SER795  GLU796  ALA797  LYS798  CYS799  TRP800  GLU811  SER814 

> <Gold.Protein.RotatedAtoms>
  151.1267  135.0108  159.8563 H   0  0  0  0  0  0  0  0  0  0  0  0  # atno 6907 bound_to 6896
  152.5450  134.1659  159.8587 H   0  0  0  0  0  0  0  0  0  0  0  0  # atno 6908 bound_to 6896
  151.1722  133.4732  159.2627 H   0  0  0  0  0  0  0  0  0  0  0  0  # atno 6909 bound_to 6896
  145.6738  140.9212  143.0869 H   0  0  0  0  0  0  0  0  0  0  0  0  # atno 7974 bound_to 7965
  155.3515  140.3414  155.4239 H   0  0  0  0  0  0  0  0  0  0  0  0  # atno 8008 bound_to 7997
  156.1761  140.1648  156.8395 H   0  0  0  0  0  0  0  0  0  0  0  0  # atno 8009 bound_to 7997
  154.5284  140.0751  156.8282 H   0  0  0  0  0  0  0  0  0  0  0  0  # atno 8010 bound_to 7997
  139.9673  143.5884  152.2425 H   0  0  0  0  0  0  0  0  0  0  0  0  # atno 10167 bound_to 10162
  157.1890  131.0650  151.2090 H   0  0  0  0  0  0  0  0  0  0  0  0  # atno 10718 bound_to 10713
  153.6242  135.6991  153.5299 H   0  0  0  0  0  0  0  0  0  0  0  0  # atno 10763 bound_to 10752
  153.2912  135.4156  155.1168 H   0  0  0  0  0  0  0  0  0  0  0  0  # atno 10764 bound_to 10752
  154.8536  135.3626  154.5783 H   0  0  0  0  0  0  0  0  0  0  0  0  # atno 10765 bound_to 10752
  139.9211  134.7766  156.1654 H   0  0  0  0  0  0  0  0  0  0  0  0  # atno 11005 bound_to 11000
  144.7048  139.8607  143.7433 LP  0  0  0  0  0  0  0  0  0  0  0  0  # atno 17320 bound_to 7965
  146.1023  139.4019  143.0339 LP  0  0  0  0  0  0  0  0  0  0  0  0  # atno 17321 bound_to 7965
  139.6508  144.7660  151.2153 LP  0  0  0  0  0  0  0  0  0  0  0  0  # atno 17342 bound_to 10162
  140.7533  143.6165  150.8555 LP  0  0  0  0  0  0  0  0  0  0  0  0  # atno 17343 bound_to 10162
  157.3879  130.7266  149.6676 LP  0  0  0  0  0  0  0  0  0  0  0  0  # atno 17370 bound_to 10713
  155.9714  130.4154  150.4182 LP  0  0  0  0  0  0  0  0  0  0  0  0  # atno 17371 bound_to 10713
  141.0732  133.6787  156.2183 LP  0  0  0  0  0  0  0  0  0  0  0  0  # atno 17394 bound_to 11000
  140.6472  134.5105  157.5574 LP  0  0  0  0  0  0  0  0  0  0  0  0  # atno 17395 bound_to 11000

$$$$
