AV-unprocessed.smi:55|AV-procd|sdf|576|dock3
  -GOLD-   2262016483D 1   1.00000     0.00000
 Structure written by MMmdl.
 30 31  0  0  0  0  0  0  0  0  2 V2000
  150.6951  143.1779  158.6306 C   0  0  0  0  0  0  0  0  0  0  0  0
  151.0904  142.0366  157.7101 C   0  0  0  0  0  0  0  0  0  0  0  0
  150.4878  141.8294  156.5183 C   0  0  0  0  0  0  0  0  0  0  0  0
  150.8503  140.7876  155.6819 N   0  0  0  0  0  0  0  0  0  0  0  0
  150.1545  140.5683  154.3543 C   0  0  1  0  0  0  0  0  0  0  0  0
  149.4442  139.2124  154.3437 C   0  0  0  0  0  0  0  0  0  0  0  0
  148.0305  139.6024  154.7215 C   0  0  2  0  0  0  0  0  0  0  0  0
  147.1004  138.6508  154.2464 O   0  0  0  0  0  0  0  0  0  0  0  0
  147.8864  140.9599  154.0291 C   0  0  1  0  0  0  0  0  0  0  0  0
  146.8136  141.8625  154.6581 C   0  0  0  0  0  0  0  0  0  0  0  0
  146.8672  143.1497  154.0817 O   0  0  0  0  0  0  0  0  0  0  0  0
  149.1771  141.5536  154.1717 O   0  0  0  0  0  0  0  0  0  0  0  0
  151.8709  139.8877  156.0875 C   0  0  0  0  0  0  0  0  0  0  0  0
  152.1489  138.9512  155.3380 O   0  0  0  0  0  0  0  0  0  0  0  0
  152.4895  140.0925  157.2852 N   0  5  0  0  0  0  0  0  0  0  0  0
  152.1609  141.1198  158.1199 C   0  0  0  0  0  0  0  0  0  0  0  0
  152.7306  141.2957  159.1964 O   0  0  0  0  0  0  0  0  0  0  0  0
  150.9229  140.6724  153.5869 H   0  0  0  0  0  0  0  0  0  0  0  0
  147.9445  139.7064  155.8042 H   0  0  0  0  0  0  0  0  0  0  0  0
  147.6932  140.8031  152.9658 H   0  0  0  0  0  0  0  0  0  0  0  0
  149.8846  143.7694  158.2040 H   0  0  0  0  0  0  0  0  0  0  0  0
  151.5441  143.8409  158.8003 H   0  0  0  0  0  0  0  0  0  0  0  0
  150.3609  142.7922  159.5942 H   0  0  0  0  0  0  0  0  0  0  0  0
  149.6973  142.5000  156.2207 H   0  0  0  0  0  0  0  0  0  0  0  0
  149.4838  138.8168  153.3275 H   0  0  0  0  0  0  0  0  0  0  0  0
  149.9050  138.4917  155.0204 H   0  0  0  0  0  0  0  0  0  0  0  0
  146.2714  138.8039  154.6739 H   0  0  0  0  0  0  0  0  0  0  0  0
  145.8208  141.4575  154.4609 H   0  0  0  0  0  0  0  0  0  0  0  0
  146.9266  141.9272  155.7402 H   0  0  0  0  0  0  0  0  0  0  0  0
  147.5897  143.6192  154.4703 H   0  0  0  0  0  0  0  0  0  0  0  0
  1  2  1  0  0  0  0
  1 21  1  0  0  0  0
  1 22  1  0  0  0  0
  1 23  1  0  0  0  0
  2 16  1  0  0  0  0
  2  3  2  0  0  0  0
  3  4  1  0  0  0  0
  3 24  1  0  0  0  0
  4  5  1  0  0  0  0
  4 13  1  0  0  0  0
  5 18  1  0  0  0  0
  5 12  1  0  0  0  0
  5  6  1  0  0  0  0
  6  7  1  0  0  0  0
  6 25  1  0  0  0  0
  6 26  1  0  0  0  0
  7 19  1  0  0  0  0
  7  8  1  0  0  0  0
  7  9  1  0  0  0  0
  8 27  1  0  0  0  0
  9 20  1  0  0  0  0
  9 10  1  0  0  0  0
  9 12  1  0  0  0  0
 10 11  1  0  0  0  0
 10 28  1  0  0  0  0
 10 29  1  0  0  0  0
 11 30  1  0  0  0  0
 13 14  2  0  0  0  0
 13 15  1  0  0  0  0
 15 16  1  0  0  0  0
 16 17  2  0  0  0  0
M  CHG  1  15  -1
M  END
> <s_m_source_file>
AV-unprocessed.smi

> <i_m_source_file_index>
55

> <i_lp_mmshare_version>
43012

> <i_f3d_flags>
0

> <s_epik_input>
Tz1jMVtuSF1jKD1PKW4oW2NIXWMxW0NIM10pW0NAQEhdMltDSDJdW0NAQEhdKFtPSF0pW0NAQEhdKE8yKVtDSDJdW09IXQ==

> <s_epik_cmdline>
J2VwaWtfcHl0aG9uJywgJy1waCcsICc3LjAnLCAnLXRuJywgJzgnLCAnLW1hJywgJzIwMCcsICctbWV0YWxfYmluZGluZycsICctaW1hZScsICc8aW5maWxlLm1hZT4nLCAnLW9tYWUnLCAnPG91dGZpbGUubWFlPic=

> <r_lp_tautomer_probability>
0.999537

> <r_epik_Ionization_Penalty>
3.66603

> <r_epik_Ionization_Penalty_Charging>
1.09773e-07

> <r_epik_Ionization_Penalty_Neutral>
3.66603

> <r_epik_State_Penalty>
3.66562

> <r_epik_Charging_Adjusted_Penalty>
3.66562

> <i_epik_Tot_Q>
-1

> <i_epik_Tot_abs_Q>
1

> <r_epik_Metal_State_Penalty>
0.234536

> <b_epik_Metal_Only>
1

> <s_epik_Chemistry_Notes>
This compound contains an acetal/aminal-like group ( X-CH(R)-Y where X, Y are N, S, or O) that may be acid/base labile, releasing an aldehyde.

> <s_lp_Force_Field>
OPLS_2005

> <r_lp_Energy>
34.1834

> <b_lp_Chiralities_Consistent>
1

> <s_lp_Variant>
AV-unprocessed.smi:55-16

> <Gold.Version>
5.8.1

> <Gold.Id.Protein>
6NUR|6NUR_protein|mol2

> <Gold.PLP.Fitness>
41.2193

> <Gold.PLP.PLP>
-27.4341

> <Gold.PLP.part.hbond>
-4.7775

> <Gold.PLP.part.metal>
0.0000

> <Gold.PLP.part.buried>
0.9504

> <Gold.PLP.part.nonpolar>
-23.2237

> <Gold.PLP.part.repulsive>
0.1896

> <Gold.PLP.ligand.clash>
0.0000

> <Gold.PLP.ligand.torsion>
0.0242

> <Gold.PLP.Chemscore.Hbond>
3.6076

> <Gold.PLP.Chemscore.CHOScore>
1.0000

> <Gold.PLP.Chemscore.Metal>
0.0000

> <Gold.Chemscore.Hbonds>
donor molecule, donor type, donor heavy atom, donor atom, acceptor molecule, acceptor atom, score
      L1  H    11    30       P1  8028  1.00
      P1  H  7997  8010       L1    15  1.70
      P1  H  8011  8017       L1    12  0.49
      L1  C     3    24       P1  8028  1.00

> <Gold.PLP.Chemscore.Internal.Correction>
0.0107

> <Gold.Rescore>
     Score         DG    S(hbond)    S(metal)    S(lipo)     H(rot)  DE(clash)    DE(int)     intcor
      4.02      -7.43       1.00        0.00      47.06       2.69       2.21       1.21       ----

> <Gold.Chemscore.Fitness>
4.0164

> <Gold.Chemscore.DG>
-7.4315

> <Gold.Chemscore.ZeroCoef>
-5.4800

> <Gold.Chemscore.Hbond>
0.9953

> <Gold.Chemscore.Metal>
0.0000

> <Gold.Chemscore.Lipo>
47.0607

> <Gold.Chemscore.Internal_Hbond>
0.0000

> <Gold.Chemscore.DEClash>
2.2076

> <Gold.Chemscore.DEInternal>
1.2075

> <Gold.Chemscore.Rot>
2.6871

> <Gold.Chemscore.Internal.Correction>
   9.000000E+99

> <Gold.Chemscore.Hbonds>
donor molecule, donor type, donor heavy atom, donor atom, acceptor molecule, acceptor atom, score
      L1  H    11    30       P1  8028  0.24
      P1  H  7997  8010       L1    15  0.13
      P1  H  8011  8017       L1    12  0.13

> <Gold.Chemscore.Hbond.Weighted>
-3.3244

> <Gold.Chemscore.Metal.Weighted>
-0.0000

> <Gold.Chemscore.Lipo.Weighted>
-5.5061

> <Gold.Chemscore.Internal_Hbond.Weighted>
0.0000

> <Gold.Chemscore.DEClash.Weighted>
2.2076

> <Gold.Chemscore.DEInternal.Weighted>
1.2075

> <Gold.Chemscore.Rot.Weighted>
6.8791

> <Gold.Chemscore.Internal.Correction.Weighted>
   9.000000E+99

> <Gold.Protein.RotatedTorsions>
[ 6907 6896 6895 6894 ] final    4.65 input  -60.11 | X-H torsion
[ 7974 7965 7964 7962 ] final   91.51 input  175.53 | X-H torsion
[ 8008 7997 7996 7995 ] final   62.39 input   59.86 | X-H torsion
[ 10167 10162 10161 10158 ] final  111.17 input  -65.29 | X-H torsion
[ 10718 10713 10712 10709 ] final -100.54 input   66.30 | X-H torsion
[ 10763 10752 10751 10750 ] final  -25.66 input  -60.55 | X-H torsion
[ 11005 11000 10999 10996 ] final -169.49 input  -57.11 | X-H torsion

> <Gold.Protein.ActiveResidues>
 VAL166  LYS551  ARG553  GLY616  TRP617  ASP618  TYR619  PRO620  LYS621  CYS622 
 ASP623  PHE694  ASN695  SER759  ASP760  ASP761  ALA762  ILE779  LEU786  VAL792 
 PHE793  MET794  SER795  GLU796  ALA797  LYS798  CYS799  TRP800  GLU811  SER814 

> <Gold.Protein.RotatedAtoms>
  151.6447  135.1008  160.0148 H   0  0  0  0  0  0  0  0  0  0  0  0  # atno 6907 bound_to 6896
  152.4034  133.6848  159.6344 H   0  0  0  0  0  0  0  0  0  0  0  0  # atno 6908 bound_to 6896
  150.7931  133.8668  159.3288 H   0  0  0  0  0  0  0  0  0  0  0  0  # atno 6909 bound_to 6896
  145.5046  139.2276  143.2758 H   0  0  0  0  0  0  0  0  0  0  0  0  # atno 7974 bound_to 7965
  155.6136  140.3495  155.4630 H   0  0  0  0  0  0  0  0  0  0  0  0  # atno 8008 bound_to 7997
  156.0135  140.1238  157.0454 H   0  0  0  0  0  0  0  0  0  0  0  0  # atno 8009 bound_to 7997
  154.4289  140.1077  156.5848 H   0  0  0  0  0  0  0  0  0  0  0  0  # atno 8010 bound_to 7997
  139.6632  144.7128  151.1827 H   0  0  0  0  0  0  0  0  0  0  0  0  # atno 10167 bound_to 10162
  156.0166  130.5332  150.6832 H   0  0  0  0  0  0  0  0  0  0  0  0  # atno 10718 bound_to 10713
  153.7035  135.6955  153.5056 H   0  0  0  0  0  0  0  0  0  0  0  0  # atno 10763 bound_to 10752
  153.2325  135.4333  155.0610 H   0  0  0  0  0  0  0  0  0  0  0  0  # atno 10764 bound_to 10752
  154.8337  135.3487  154.6574 H   0  0  0  0  0  0  0  0  0  0  0  0  # atno 10765 bound_to 10752
  140.5302  134.5624  157.5072 H   0  0  0  0  0  0  0  0  0  0  0  0  # atno 11005 bound_to 11000
  146.2204  140.5849  142.9019 LP  0  0  0  0  0  0  0  0  0  0  0  0  # atno 17320 bound_to 7965
  144.7761  140.5742  143.6637 LP  0  0  0  0  0  0  0  0  0  0  0  0  # atno 17321 bound_to 7965
  140.7588  143.5962  150.8746 LP  0  0  0  0  0  0  0  0  0  0  0  0  # atno 17342 bound_to 10162
  139.9621  143.6152  152.2999 LP  0  0  0  0  0  0  0  0  0  0  0  0  # atno 17343 bound_to 10162
  157.4530  131.0874  151.0826 LP  0  0  0  0  0  0  0  0  0  0  0  0  # atno 17370 bound_to 10713
  157.1336  130.6113  149.5536 LP  0  0  0  0  0  0  0  0  0  0  0  0  # atno 17371 bound_to 10713
  139.9558  134.7537  156.0345 LP  0  0  0  0  0  0  0  0  0  0  0  0  # atno 17394 bound_to 11000
  141.1285  133.6592  156.3402 LP  0  0  0  0  0  0  0  0  0  0  0  0  # atno 17395 bound_to 11000

$$$$
