#       Name:                AV-unprocessed.smi:468
#       Creating user name   scv26
#       Creation time:       Thu Mar 26 23:06:17 2020


#       File generated by GOLD software.
#

@<TRIPOS>MOLECULE
AV-unprocessed.smi:468
    58    59     1
SMALL
NO_CHARGES


@<TRIPOS>ATOM
      1 ****        -2.3542  -2.7646  -1.5491 C.3            1 S1                 0.0000
      2 ****        -1.8193  -2.3083  -0.3202 O.3            1 S1                 0.0000
      3 ****        -2.8091  -1.7799   0.5462 C.3            1 S1                 0.0000
      4 ****        -2.1413  -1.2694   1.8336 C.3            1 S1                 0.0000
      5 ****        -1.4124  -0.0063   1.6307 N.am           1 S1                 0.0000
      6 ****        -2.0625   1.1875   1.6547 C.2            1 S1                 0.0000
      7 ****        -3.2897   1.2551   1.7477 O.2            1 S1                 0.0000
      8 ****        -1.2429   2.4982   1.6102 C.3            1 S1                 0.0000
      9 ****        -1.9761   3.7707   2.0829 C.3            1 S1                 0.0000
     10 ****        -1.3829   4.5063   0.8784 C.3            1 S1                 0.0000
     11 ****        -1.1703   3.1428   0.2159 C.3            1 S1                 0.0000
     12 ****        -0.0182  -0.0980   1.4605 C.2            1 S1                 0.0000
     13 ****         0.5766  -0.0209   0.2398 C.2            1 S1                 0.0000
     14 ****        -0.1778   0.1450  -0.9130 N.pl3          1 S1                 0.0000
     15 ****         1.9901  -0.1177   0.1301 N.am           1 S1                 0.0000
     16 ****         2.6066  -0.0434  -1.2151 C.3            1 S1                 0.0000
     17 ****         2.5244  -1.3750  -2.0016 C.3            1 S1                 0.0000
     18 ****         3.2460  -2.5374  -1.2989 C.3            1 S1                 0.0000
     19 ****         3.0647  -1.1909  -3.4273 C.3            1 S1                 0.0000
     20 ****         2.7670  -0.2790   1.2465 C.2            1 S1                 0.0000
     21 ****         3.9895  -0.3676   1.1254 O.2            1 S1                 0.0000
     22 ****         2.1663  -0.3439   2.4691 N.pl3          1 S1                -1.0000
     23 ****         0.8221  -0.2627   2.6511 C.2            1 S1                 0.0000
     24 ****         0.3068  -0.3163   3.7681 O.2            1 S1                 0.0000
     25 ****        -1.5515  -3.1611  -2.1707 H              1 S1                 0.0000
     26 ****        -2.8326  -1.9514  -2.0963 H              1 S1                 0.0000
     27 ****        -3.0839  -3.5595  -1.3912 H              1 S1                 0.0000
     28 ****        -3.3703  -0.9832   0.0555 H              1 S1                 0.0000
     29 ****        -3.5194  -2.5693   0.7957 H              1 S1                 0.0000
     30 ****        -2.8979  -1.1339   2.6083 H              1 S1                 0.0000
     31 ****        -1.4734  -2.0396   2.2230 H              1 S1                 0.0000
     32 ****        -0.2631   2.4305   2.0856 H              1 S1                 0.0000
     33 ****        -3.0653   3.7251   2.0405 H              1 S1                 0.0000
     34 ****        -1.6348   4.1533   3.0451 H              1 S1                 0.0000
     35 ****        -2.0792   5.1631   0.3562 H              1 S1                 0.0000
     36 ****        -0.4447   5.0118   1.1128 H              1 S1                 0.0000
     37 ****        -0.2044   3.0365  -0.2788 H              1 S1                 0.0000
     38 ****        -1.9916   2.8576  -0.4440 H              1 S1                 0.0000
     39 ****        -1.1846   0.2123  -0.8722 H              1 S1                 0.0000
     40 ****         0.2174  -0.0412  -1.8234 H              1 S1                 0.0000
     41 ****         2.1282   0.7532  -1.7861 H              1 S1                 0.0000
     42 ****         3.6477   0.2788  -1.1676 H              1 S1                 0.0000
     43 ****         1.4756  -1.6577  -2.0938 H              1 S1                 0.0000
     44 ****         4.2979  -2.3059  -1.1294 H              1 S1                 0.0000
     45 ****         3.1973  -3.4484  -1.8958 H              1 S1                 0.0000
     46 ****         2.7935  -2.7635  -0.3333 H              1 S1                 0.0000
     47 ****         4.1211  -0.9202  -3.4182 H              1 S1                 0.0000
     48 ****         2.5235  -0.4046  -3.9543 H              1 S1                 0.0000
     49 ****         2.9604  -2.1068  -4.0096 H              1 S1                 0.0000
     50 ****        -1.1463  -1.5935  -0.5103 LP             1 S1                 0.0000
     51 ****        -1.3704  -3.0756   0.1376 LP             1 S1                 0.0000
     52 ****        -3.8335   0.4181   1.8078 LP             1 S1                 0.0000
     53 ****        -3.7416   2.1471   1.7630 LP             1 S1                 0.0000
     54 ****         4.4066  -0.3216   0.2177 LP             1 S1                 0.0000
     55 ****         4.5648  -0.4855   1.9347 LP             1 S1                 0.0000
     56 ****         2.7465  -0.4574   3.2755 LP             1 S1                 0.0000
     57 ****        -0.6862  -0.2475   3.8644 LP             1 S1                 0.0000
     58 ****         0.8812  -0.4286   4.5788 LP             1 S1                 0.0000
@<TRIPOS>BOND
    1    1    2 1     
    2    1   25 1     
    3    1   26 1     
    4    1   27 1     
    5    2    3 1     
    6    3    4 1     
    7    3   28 1     
    8    3   29 1     
    9    4    5 1     
   10    4   30 1     
   11    4   31 1     
   12    5    6 am    
   13    5   12 1     
   14    6    7 2     
   15    6    8 1     
   16    8   11 1     
   17    8    9 1     
   18    8   32 1     
   19    9   10 1     
   20    9   33 1     
   21    9   34 1     
   22   10   11 1     
   23   10   35 1     
   24   10   36 1     
   25   11   37 1     
   26   11   38 1     
   27   12   23 1     
   28   12   13 2     
   29   13   14 1     
   30   13   15 1     
   31   14   39 1     
   32   14   40 1     
   33   15   16 1     
   34   15   20 am    
   35   16   17 1     
   36   16   41 1     
   37   16   42 1     
   38   17   18 1     
   39   17   19 1     
   40   17   43 1     
   41   18   44 1     
   42   18   45 1     
   43   18   46 1     
   44   19   47 1     
   45   19   48 1     
   46   19   49 1     
   47   20   21 2     
   48   20   22 1     
   49   22   23 1     
   50   23   24 2     
   51    2   50 1     
   52    2   51 1     
   53    7   52 1     
   54    7   53 1     
   55   21   54 1     
   56   21   55 1     
   57   22   56 1     
   58   24   57 1     
   59   24   58 1     
@<TRIPOS>SUBSTRUCTURE
      1 S1             1
@<TRIPOS>SET
LONE_PAIRS      STATIC     ATOMS    <user>   **** ""
9 50 51 52 53 54 55 56 57 58
DONOR_HYDROGENS      STATIC     ATOMS    <user>   **** ""
2 39 40
ATOM$BLUE        STATIC     ATOMS    COLORGROUP SYSTEM
9 50 51 52 53 54 55 56 57 58
ATOM$RED        STATIC     ATOMS    COLORGROUP SYSTEM
2 39 40
