AV-unprocessed.smi:3274|AV-procd|sdf|12522|dock8
  -GOLD-   2272018433D 1   1.00000     0.00000
 Structure written by MMmdl.
 43 44  0  0  0  0  0  0  0  0  2 V2000
  152.1196  144.9047  157.3380 C   0  0  0  0  0  0  0  0  0  0  0  0
  152.2658  143.9129  158.4802 C   0  0  0  0  0  0  0  0  0  0  0  0
  152.5371  144.3375  159.7303 C   0  0  0  0  0  0  0  0  0  0  0  0
  152.7506  143.4283  160.9276 C   0  0  0  0  0  0  0  0  0  0  0  0
  152.4372  141.9531  160.6286 C   0  0  0  0  0  0  0  0  0  0  0  0
  152.8747  141.5632  159.2065 C   0  0  1  0  0  0  0  0  0  0  0  0
  152.7932  140.0449  158.9726 C   0  0  0  0  0  0  0  0  0  0  0  0
  152.1348  142.4214  158.1409 C   0  0  1  0  0  0  0  0  0  0  0  0
  150.6562  141.9986  157.9412 C   0  0  0  0  0  0  0  0  0  0  0  0
  150.5177  140.7622  157.1423 N   0  3  0  0  0  0  0  0  0  0  0  0
  149.5505  140.8339  156.0251 C   0  0  2  0  0  0  0  0  0  0  0  0
  148.2142  141.3901  156.5451 C   0  0  0  0  0  0  0  0  0  0  0  0
  149.3878  139.4533  155.3468 C   0  0  0  0  0  0  0  0  0  0  0  0
  150.6482  138.8833  154.9071 N   0  0  0  0  0  0  0  0  0  0  0  0
  150.9223  137.7010  154.3529 C   0  0  0  0  0  0  0  0  0  0  0  0
  152.2097  137.5166  154.0967 N   0  0  0  0  0  0  0  0  0  0  0  0
  152.7078  138.7019  154.5593 C   0  0  0  0  0  0  0  0  0  0  0  0
  151.8139  139.5544  155.0608 N   0  0  0  0  0  0  0  0  0  0  0  0
  152.7166  144.5937  156.4804 H   0  0  0  0  0  0  0  0  0  0  0  0
  152.4610  145.8968  157.6357 H   0  0  0  0  0  0  0  0  0  0  0  0
  151.0812  145.0026  157.0255 H   0  0  0  0  0  0  0  0  0  0  0  0
  152.6456  145.3950  159.9233 H   0  0  0  0  0  0  0  0  0  0  0  0
  153.7935  143.5275  161.2300 H   0  0  0  0  0  0  0  0  0  0  0  0
  152.1456  143.7790  161.7644 H   0  0  0  0  0  0  0  0  0  0  0  0
  152.9331  141.3229  161.3678 H   0  0  0  0  0  0  0  0  0  0  0  0
  151.3686  141.7729  160.7481 H   0  0  0  0  0  0  0  0  0  0  0  0
  153.9343  141.8136  159.1253 H   0  0  0  0  0  0  0  0  0  0  0  0
  151.7974  139.6516  159.1769 H   0  0  0  0  0  0  0  0  0  0  0  0
  153.4850  139.5167  159.6294 H   0  0  0  0  0  0  0  0  0  0  0  0
  153.0574  139.7882  157.9463 H   0  0  0  0  0  0  0  0  0  0  0  0
  152.6584  142.2597  157.1973 H   0  0  0  0  0  0  0  0  0  0  0  0
  150.1761  141.8053  158.8994 H   0  0  0  0  0  0  0  0  0  0  0  0
  150.1037  142.8097  157.4686 H   0  0  0  0  0  0  0  0  0  0  0  0
  151.4212  140.5022  156.7734 H   0  0  0  0  0  0  0  0  0  0  0  0
  149.9364  141.5472  155.2949 H   0  0  0  0  0  0  0  0  0  0  0  0
  147.4996  141.5417  155.7357 H   0  0  0  0  0  0  0  0  0  0  0  0
  148.3551  142.3555  157.0326 H   0  0  0  0  0  0  0  0  0  0  0  0
  147.7583  140.7147  157.2699 H   0  0  0  0  0  0  0  0  0  0  0  0
  148.9210  138.7358  156.0215 H   0  0  0  0  0  0  0  0  0  0  0  0
  148.7299  139.5376  154.4803 H   0  0  0  0  0  0  0  0  0  0  0  0
  150.1674  136.9608  154.1312 H   0  0  0  0  0  0  0  0  0  0  0  0
  153.7603  138.9428  154.5277 H   0  0  0  0  0  0  0  0  0  0  0  0
  150.2093  140.0350  157.7718 H   0  0  0  0  0  0  0  0  0  0  0  0
  1  2  1  0  0  0  0
  1 19  1  0  0  0  0
  1 20  1  0  0  0  0
  1 21  1  0  0  0  0
  2  8  1  0  0  0  0
  2  3  2  0  0  0  0
  3  4  1  0  0  0  0
  3 22  1  0  0  0  0
  4  5  1  0  0  0  0
  4 23  1  0  0  0  0
  4 24  1  0  0  0  0
  5  6  1  0  0  0  0
  5 25  1  0  0  0  0
  5 26  1  0  0  0  0
  6  7  1  0  0  0  0
  6  8  1  0  0  0  0
  6 27  1  0  0  0  0
  7 28  1  0  0  0  0
  7 29  1  0  0  0  0
  7 30  1  0  0  0  0
  8  9  1  0  0  0  0
  8 31  1  0  0  0  0
  9 10  1  0  0  0  0
  9 32  1  0  0  0  0
  9 33  1  0  0  0  0
 10 11  1  0  0  0  0
 10 34  1  0  0  0  0
 10 43  1  0  0  0  0
 11 12  1  0  0  0  0
 11 13  1  0  0  0  0
 11 35  1  0  0  0  0
 12 36  1  0  0  0  0
 12 37  1  0  0  0  0
 12 38  1  0  0  0  0
 13 14  1  0  0  0  0
 13 39  1  0  0  0  0
 13 40  1  0  0  0  0
 14 18  1  0  0  0  0
 14 15  1  0  0  0  0
 15 16  2  0  0  0  0
 15 41  1  0  0  0  0
 16 17  1  0  0  0  0
 17 18  2  0  0  0  0
 17 42  1  0  0  0  0
M  CHG  1  10   1
M  END
> <s_m_source_file>
AV-unprocessed.smi

> <i_m_source_file_index>
3274

> <i_lp_mmshare_version>
43012

> <i_f3d_flags>
0

> <s_epik_input>
W0NIM11DMT1bQ0hdW0NIMl1bQ0gyXVtDQEBIXShbQ0gzXSlbQ0BIXTFbQ0gyXVtOSF1bQ0BIXShbQ0gzXSlbQ0gyXW4yW2NIXW5bY0hdbjI=

> <s_epik_cmdline>
J2VwaWtfcHl0aG9uJywgJy1waCcsICc3LjAnLCAnLXRuJywgJzgnLCAnLW1hJywgJzIwMCcsICctbWV0YWxfYmluZGluZycsICctaW1hZScsICc8aW5maWxlLm1hZT4nLCAnLW9tYWUnLCAnPG91dGZpbGUubWFlPic=

> <r_lp_tautomer_probability>
1

> <r_epik_Ionization_Penalty>
0.0017527

> <r_epik_Ionization_Penalty_Charging>
0.00175191

> <r_epik_Ionization_Penalty_Neutral>
7.94565e-07

> <r_epik_State_Penalty>
0.00118605

> <r_epik_Charging_Adjusted_Penalty>
0.00293796

> <i_epik_Tot_Q>
1

> <i_epik_Tot_abs_Q>
1

> <r_epik_Metal_State_Penalty>
-0

> <b_epik_Metal_Only>
0

> <s_lp_Force_Field>
OPLS_2005

> <r_lp_Energy>
17.2811

> <b_lp_Chiralities_Consistent>
1

> <s_lp_Variant>
AV-unprocessed.smi:3274-1

> <Gold.Version>
5.8.1

> <Gold.Id.Protein>
6NUR|6NUR_protein|mol2

> <Gold.PLP.Fitness>
45.4483

> <Gold.PLP.PLP>
-38.7881

> <Gold.PLP.part.hbond>
-2.0000

> <Gold.PLP.part.metal>
0.0000

> <Gold.PLP.part.buried>
-7.1921

> <Gold.PLP.part.nonpolar>
-30.1067

> <Gold.PLP.part.repulsive>
0.2163

> <Gold.PLP.ligand.clash>
0.0000

> <Gold.PLP.ligand.torsion>
0.5697

> <Gold.PLP.Chemscore.Hbond>
1.8320

> <Gold.PLP.Chemscore.CHOScore>
0.7565

> <Gold.PLP.Chemscore.Metal>
0.0000

> <Gold.Chemscore.Hbonds>
donor molecule, donor type, donor heavy atom, donor atom, acceptor molecule, acceptor atom, score
      P1  H  7989  7998       L1    18  0.98
      P1  H 10752 10763       L1    16  0.83
      L1  C    15    41       P1  7948  0.74

> <Gold.PLP.Chemscore.Internal.Correction>
0.0341

> <Gold.Rescore>
     Score         DG    S(hbond)    S(metal)    S(lipo)     H(rot)  DE(clash)    DE(int)     intcor
     12.63     -15.92       1.14        0.00     108.42       2.36       0.42       2.87       ----

> <Gold.Chemscore.Fitness>
12.6263

> <Gold.Chemscore.DG>
-15.9211

> <Gold.Chemscore.ZeroCoef>
-5.4800

> <Gold.Chemscore.Hbond>
1.1380

> <Gold.Chemscore.Metal>
0.0000

> <Gold.Chemscore.Lipo>
108.4242

> <Gold.Chemscore.Internal_Hbond>
0.0000

> <Gold.Chemscore.DEClash>
0.4212

> <Gold.Chemscore.DEInternal>
2.8736

> <Gold.Chemscore.Rot>
2.3615

> <Gold.Chemscore.Internal.Correction>
   9.000000E+99

> <Gold.Chemscore.Hbonds>
donor molecule, donor type, donor heavy atom, donor atom, acceptor molecule, acceptor atom, score
      P1  H  7989  7998       L1    18  0.06
      P1  H 10752 10763       L1    16  0.78

> <Gold.Chemscore.Hbond.Weighted>
-3.8009

> <Gold.Chemscore.Metal.Weighted>
-0.0000

> <Gold.Chemscore.Lipo.Weighted>
-12.6856

> <Gold.Chemscore.Internal_Hbond.Weighted>
0.0000

> <Gold.Chemscore.DEClash.Weighted>
0.4212

> <Gold.Chemscore.DEInternal.Weighted>
2.8736

> <Gold.Chemscore.Rot.Weighted>
6.0454

> <Gold.Chemscore.Internal.Correction.Weighted>
   9.000000E+99

> <Gold.Protein.RotatedTorsions>
[ 6907 6896 6895 6894 ] final  149.01 input  -60.11 | X-H torsion
[ 7974 7965 7964 7962 ] final  126.97 input  175.53 | X-H torsion
[ 8008 7997 7996 7995 ] final    2.05 input   59.86 | X-H torsion
[ 10167 10162 10161 10158 ] final  -32.56 input  -65.29 | X-H torsion
[ 10718 10713 10712 10709 ] final -126.66 input   66.30 | X-H torsion
[ 10763 10752 10751 10750 ] final   31.14 input  -60.55 | X-H torsion
[ 11005 11000 10999 10996 ] final  108.68 input  -57.11 | X-H torsion

> <Gold.Protein.ActiveResidues>
 VAL166  LYS551  ARG553  GLY616  TRP617  ASP618  TYR619  PRO620  LYS621  CYS622 
 ASP623  PHE694  ASN695  SER759  ASP760  ASP761  ALA762  ILE779  LEU786  VAL792 
 PHE793  MET794  SER795  GLU796  ALA797  LYS798  CYS799  TRP800  GLU811  SER814 

> <Gold.Protein.RotatedAtoms>
  152.1338  133.4423  159.4733 H   0  0  0  0  0  0  0  0  0  0  0  0  # atno 6907 bound_to 6896
  150.6880  134.2388  159.4473 H   0  0  0  0  0  0  0  0  0  0  0  0  # atno 6908 bound_to 6896
  152.0274  134.9787  160.0622 H   0  0  0  0  0  0  0  0  0  0  0  0  # atno 6909 bound_to 6896
  145.0558  139.3845  143.5031 H   0  0  0  0  0  0  0  0  0  0  0  0  # atno 7974 bound_to 7965
  154.6869  140.2645  155.6851 H   0  0  0  0  0  0  0  0  0  0  0  0  # atno 8008 bound_to 7997
  156.2718  140.2799  156.1357 H   0  0  0  0  0  0  0  0  0  0  0  0  # atno 8009 bound_to 7997
  155.0951  140.0374  157.2670 H   0  0  0  0  0  0  0  0  0  0  0  0  # atno 8010 bound_to 7997
  140.7219  143.3686  151.1823 H   0  0  0  0  0  0  0  0  0  0  0  0  # atno 10167 bound_to 10162
  156.1785  130.6716  151.0274 H   0  0  0  0  0  0  0  0  0  0  0  0  # atno 10718 bound_to 10713
  153.0332  135.6446  154.1153 H   0  0  0  0  0  0  0  0  0  0  0  0  # atno 10763 bound_to 10752
  154.0872  135.2869  155.3280 H   0  0  0  0  0  0  0  0  0  0  0  0  # atno 10764 bound_to 10752
  154.6490  135.5433  153.7942 H   0  0  0  0  0  0  0  0  0  0  0  0  # atno 10765 bound_to 10752
  139.8848  134.9437  156.6010 H   0  0  0  0  0  0  0  0  0  0  0  0  # atno 11005 bound_to 11000
  146.3521  140.0231  142.8657 LP  0  0  0  0  0  0  0  0  0  0  0  0  # atno 17320 bound_to 7965
  145.1470  140.9602  143.4455 LP  0  0  0  0  0  0  0  0  0  0  0  0  # atno 17321 bound_to 7965
  139.7252  143.9159  152.3000 LP  0  0  0  0  0  0  0  0  0  0  0  0  # atno 17342 bound_to 10162
  139.8930  144.6955  150.8750 LP  0  0  0  0  0  0  0  0  0  0  0  0  # atno 17343 bound_to 10162
  157.6852  131.0827  150.7261 LP  0  0  0  0  0  0  0  0  0  0  0  0  # atno 17370 bound_to 10713
  156.7319  130.4712  149.5497 LP  0  0  0  0  0  0  0  0  0  0  0  0  # atno 17371 bound_to 10713
  140.7884  133.8603  155.8625 LP  0  0  0  0  0  0  0  0  0  0  0  0  # atno 17394 bound_to 11000
  140.9699  134.1545  157.4585 LP  0  0  0  0  0  0  0  0  0  0  0  0  # atno 17395 bound_to 11000

$$$$
