#       Name:                AV-unprocessed.smi:1538
#       Creating user name   scv26
#       Creation time:       Fri Mar 27 06:36:14 2020


#       File generated by GOLD software.
#

@<TRIPOS>MOLECULE
AV-unprocessed.smi:1538
    41    42     1
SMALL
NO_CHARGES


@<TRIPOS>ATOM
      1 ****        -5.1846   2.2263   1.2140 C.3            1 S1                 0.0000
      2 ****        -3.8422   1.6969   0.9669 N.am           1 S1                 0.0000
      3 ****        -3.3088   0.8352   2.0315 C.3            1 S1                 0.0000
      4 ****        -1.7878   0.6475   1.9644 C.3            1 S1                 0.0000
      5 ****        -1.3650   0.2916   0.5333 C.3            1 S1                 0.0000
      6 ****         0.1467   0.0365   0.4592 C.2            1 S1                 0.0000
      7 ****         0.9433   0.9077   0.8102 O.2            1 S1                 0.0000
      8 ****         0.5286  -1.1645  -0.0018 N.am           1 S1                 0.0000
      9 ****         1.9112  -1.5997  -0.1588 C.3            1 S1                 0.0000
     10 ****         2.5404  -1.0292  -1.4404 C.3            1 S1                 0.0000
     11 ****         3.9047  -1.4851  -1.6095 N.pl3          1 S1                 0.0000
     12 ****         5.0509  -0.9128  -1.0742 C.2            1 S1                 0.0000
     13 ****         6.1096  -1.6839  -1.4983 C.2            1 S1                 0.0000
     14 ****         5.6405  -2.7298  -2.2897 N.2            1 S1                 0.0000
     15 ****         4.3265  -2.5467  -2.3099 C.2            1 S1                 0.0000
     16 ****        -1.7816   1.4244  -0.4264 C.3            1 S1                 0.0000
     17 ****        -3.2087   1.9530  -0.2034 C.2            1 S1                 0.0000
     18 ****        -3.7213   2.6264  -1.0979 O.2            1 S1                 0.0000
     19 ****        -5.8681   1.9450   0.4113 H              1 S1                 0.0000
     20 ****        -5.1589   3.3151   1.2753 H              1 S1                 0.0000
     21 ****        -5.6102   1.8519   2.1457 H              1 S1                 0.0000
     22 ****        -3.5722   1.2404   3.0095 H              1 S1                 0.0000
     23 ****        -3.7993  -0.1358   1.9538 H              1 S1                 0.0000
     24 ****        -1.2961   1.5676   2.2852 H              1 S1                 0.0000
     25 ****        -1.4809  -0.1302   2.6652 H              1 S1                 0.0000
     26 ****        -1.8859  -0.6215   0.2379 H              1 S1                 0.0000
     27 ****        -0.1903  -1.8226  -0.2662 H              1 S1                 0.0000
     28 ****         2.4955  -1.3124   0.7171 H              1 S1                 0.0000
     29 ****         1.9200  -2.6896  -0.1935 H              1 S1                 0.0000
     30 ****         1.9618  -1.3270  -2.3160 H              1 S1                 0.0000
     31 ****         2.5440   0.0613  -1.4180 H              1 S1                 0.0000
     32 ****         5.0191  -0.0299  -0.4526 H              1 S1                 0.0000
     33 ****         7.1641  -1.5677  -1.2959 H              1 S1                 0.0000
     34 ****         3.6549  -3.2009  -2.8465 H              1 S1                 0.0000
     35 ****        -1.1093   2.2776  -0.3242 H              1 S1                 0.0000
     36 ****        -1.6909   1.0838  -1.4588 H              1 S1                 0.0000
     37 ****         0.6064   1.7874   1.1459 LP             1 S1                 0.0000
     38 ****         1.9271   0.7355   0.7596 LP             1 S1                 0.0000
     39 ****         6.1701  -3.4500  -2.7377 LP             1 S1                 0.0000
     40 ****        -4.6379   3.0067  -0.9746 LP             1 S1                 0.0000
     41 ****        -3.2209   2.7930  -1.9475 LP             1 S1                 0.0000
@<TRIPOS>BOND
    1    1    2 1     
    2    1   19 1     
    3    1   20 1     
    4    1   21 1     
    5    2   17 am    
    6    2    3 1     
    7    3    4 1     
    8    3   22 1     
    9    3   23 1     
   10    4    5 1     
   11    4   24 1     
   12    4   25 1     
   13    5    6 1     
   14    5   16 1     
   15    5   26 1     
   16    6    7 2     
   17    6    8 am    
   18    8    9 1     
   19    8   27 1     
   20    9   10 1     
   21    9   28 1     
   22    9   29 1     
   23   10   11 1     
   24   10   30 1     
   25   10   31 1     
   26   11   15 1     
   27   11   12 1     
   28   12   13 2     
   29   12   32 1     
   30   13   14 1     
   31   13   33 1     
   32   14   15 2     
   33   15   34 1     
   34   16   17 1     
   35   16   35 1     
   36   16   36 1     
   37   17   18 2     
   38    7   37 1     
   39    7   38 1     
   40   14   39 1     
   41   18   40 1     
   42   18   41 1     
@<TRIPOS>SUBSTRUCTURE
      1 S1             1
@<TRIPOS>SET
LONE_PAIRS      STATIC     ATOMS    <user>   **** ""
5 37 38 39 40 41
DONOR_HYDROGENS      STATIC     ATOMS    <user>   **** ""
1 27
ATOM$BLUE        STATIC     ATOMS    COLORGROUP SYSTEM
5 37 38 39 40 41
ATOM$RED        STATIC     ATOMS    COLORGROUP SYSTEM
1 27
