AV-unprocessed.smi:1920|AV-procd|sdf|7778|dock10
  -GOLD-   22720 9523D 1   1.00000     0.00000
 Structure written by MMmdl.
 37 38  0  0  0  0  0  0  0  0  2 V2000
  147.2040  137.9951  154.4153 C   0  0  0  0  0  0  0  0  0  0  0  0
  146.3313  138.3994  153.2194 C   0  0  1  0  0  0  0  0  0  0  0  0
  146.8167  139.7257  152.5963 C   0  0  0  0  0  0  0  0  0  0  0  0
  146.9417  140.8073  153.5792 N   0  0  0  0  0  0  0  0  0  0  0  0
  145.9678  141.2797  154.4216 C   0  0  0  0  0  0  0  0  0  0  0  0
  146.5369  142.2945  155.1467 C   0  0  0  0  0  0  0  0  0  0  0  0
  147.8345  142.3942  154.7217 N   0  3  0  0  0  0  0  0  0  0  0  0
  148.0803  141.4860  153.7718 C   0  0  0  0  0  0  0  0  0  0  0  0
  146.3467  137.3155  152.2376 N   0  0  0  0  0  0  0  0  0  0  0  0
  145.2863  136.5853  151.8568 C   0  0  0  0  0  0  0  0  0  0  0  0
  144.1449  136.7802  152.2750 O   0  0  0  0  0  0  0  0  0  0  0  0
  145.5541  135.4725  150.8379 C   0  0  0  0  0  0  0  0  0  0  0  0
  145.2462  134.0563  151.3714 C   0  0  2  0  0  0  0  0  0  0  0  0
  145.7429  132.9475  150.4747 C   0  0  0  0  0  0  0  0  0  0  0  0
  144.7900  132.0714  150.1647 C   0  0  0  0  0  0  0  0  0  0  0  0
  143.4664  132.4159  150.7888 C   0  0  0  0  0  0  0  0  0  0  0  0
  143.7280  133.7665  151.4922 C   0  0  0  0  0  0  0  0  0  0  0  0
  147.1895  138.7628  155.1895 H   0  0  0  0  0  0  0  0  0  0  0  0
  148.2421  137.8431  154.1175 H   0  0  0  0  0  0  0  0  0  0  0  0
  146.8475  137.0686  154.8666 H   0  0  0  0  0  0  0  0  0  0  0  0
  145.3164  138.5377  153.5972 H   0  0  0  0  0  0  0  0  0  0  0  0
  147.8012  139.5924  152.1461 H   0  0  0  0  0  0  0  0  0  0  0  0
  146.1469  140.0504  151.7979 H   0  0  0  0  0  0  0  0  0  0  0  0
  144.9662  140.8747  154.4357 H   0  0  0  0  0  0  0  0  0  0  0  0
  146.1261  142.9366  155.9123 H   0  0  0  0  0  0  0  0  0  0  0  0
  149.0122  141.3379  153.2559 H   0  0  0  0  0  0  0  0  0  0  0  0
  147.2441  137.0810  151.8377 H   0  0  0  0  0  0  0  0  0  0  0  0
  144.9434  135.6716  149.9567 H   0  0  0  0  0  0  0  0  0  0  0  0
  146.5937  135.5224  150.5093 H   0  0  0  0  0  0  0  0  0  0  0  0
  145.7146  133.9193  152.3474 H   0  0  0  0  0  0  0  0  0  0  0  0
  146.7708  132.8833  150.1485 H   0  0  0  0  0  0  0  0  0  0  0  0
  144.9264  131.1945  149.5493 H   0  0  0  0  0  0  0  0  0  0  0  0
  142.6899  132.4980  150.0277 H   0  0  0  0  0  0  0  0  0  0  0  0
  143.1797  131.6401  151.4991 H   0  0  0  0  0  0  0  0  0  0  0  0
  143.4123  133.7384  152.5355 H   0  0  0  0  0  0  0  0  0  0  0  0
  143.1435  134.5484  151.0054 H   0  0  0  0  0  0  0  0  0  0  0  0
  148.5120  143.0596  155.0728 H   0  0  0  0  0  0  0  0  0  0  0  0
  1  2  1  0  0  0  0
  1 18  1  0  0  0  0
  1 19  1  0  0  0  0
  1 20  1  0  0  0  0
  2  3  1  0  0  0  0
  2  9  1  0  0  0  0
  2 21  1  0  0  0  0
  3  4  1  0  0  0  0
  3 22  1  0  0  0  0
  3 23  1  0  0  0  0
  4  8  1  0  0  0  0
  4  5  1  0  0  0  0
  5  6  2  0  0  0  0
  5 24  1  0  0  0  0
  6  7  1  0  0  0  0
  6 25  1  0  0  0  0
  7  8  2  0  0  0  0
  7 37  1  0  0  0  0
  8 26  1  0  0  0  0
  9 10  1  0  0  0  0
  9 27  1  0  0  0  0
 10 11  2  0  0  0  0
 10 12  1  0  0  0  0
 12 13  1  0  0  0  0
 12 28  1  0  0  0  0
 12 29  1  0  0  0  0
 13 17  1  0  0  0  0
 13 14  1  0  0  0  0
 13 30  1  0  0  0  0
 14 15  2  0  0  0  0
 14 31  1  0  0  0  0
 15 16  1  0  0  0  0
 15 32  1  0  0  0  0
 16 17  1  0  0  0  0
 16 33  1  0  0  0  0
 16 34  1  0  0  0  0
 17 35  1  0  0  0  0
 17 36  1  0  0  0  0
M  CHG  1   7   1
M  END
> <s_m_source_file>
AV-unprocessed.smi

> <i_m_source_file_index>
1920

> <i_lp_mmshare_version>
43012

> <i_f3d_flags>
0

> <s_epik_input>
W2NIXTFuW2NIXVtjSF1uMVtDSDJdW0NAQEhdKFtDSDNdKVtOSF1DKD1PKVtDSDJdW0NAQEhdMltDSF09W0NIXVtDSDJdW0NIMl0y

> <s_epik_cmdline>
J2VwaWtfcHl0aG9uJywgJy1waCcsICc3LjAnLCAnLXRuJywgJzgnLCAnLW1hJywgJzIwMCcsICctbWV0YWxfYmluZGluZycsICctaW1hZScsICc8aW5maWxlLm1hZT4nLCAnLW9tYWUnLCAnPG91dGZpbGUubWFlPic=

> <r_lp_tautomer_probability>
1

> <r_epik_Ionization_Penalty>
0.24816

> <r_epik_Ionization_Penalty_Charging>
0

> <r_epik_Ionization_Penalty_Neutral>
0.24816

> <r_epik_State_Penalty>
0.2394

> <r_epik_Charging_Adjusted_Penalty>
0.2394

> <i_epik_Tot_Q>
1

> <i_epik_Tot_abs_Q>
1

> <r_epik_Metal_State_Penalty>
0.531457

> <b_epik_Metal_Only>
0

> <s_lp_Force_Field>
OPLS_2005

> <r_lp_Energy>
20.1539

> <b_lp_Chiralities_Consistent>
1

> <s_lp_Variant>
AV-unprocessed.smi:1920-2

> <Gold.Version>
5.8.1

> <Gold.Id.Protein>
6NUR|6NUR_protein|mol2

> <Gold.PLP.Fitness>
47.4921

> <Gold.PLP.PLP>
-33.4413

> <Gold.PLP.part.hbond>
-2.0000

> <Gold.PLP.part.metal>
0.0000

> <Gold.PLP.part.buried>
-3.6564

> <Gold.PLP.part.nonpolar>
-28.9477

> <Gold.PLP.part.repulsive>
0.6132

> <Gold.PLP.ligand.clash>
0.0000

> <Gold.PLP.ligand.torsion>
0.1234

> <Gold.PLP.Chemscore.Hbond>
2.8880

> <Gold.PLP.Chemscore.CHOScore>
1.8710

> <Gold.PLP.Chemscore.Metal>
0.0000

> <Gold.Chemscore.Hbonds>
donor molecule, donor type, donor heavy atom, donor atom, acceptor molecule, acceptor atom, score
      L1  H     7    37       P1  8028  1.92
      L1  H     9    27       P1  7948  1.00
      L1  C     5    24       P1 10175  0.88
      L1  C     8    26       P1  7957  1.00

> <Gold.PLP.Chemscore.Internal.Correction>
0.0206

> <Gold.Rescore>
     Score         DG    S(hbond)    S(metal)    S(lipo)     H(rot)  DE(clash)    DE(int)     intcor
     14.92     -15.17       1.96        0.00      70.90       2.01       0.12       0.13       ----

> <Gold.Chemscore.Fitness>
14.9246

> <Gold.Chemscore.DG>
-15.1726

> <Gold.Chemscore.ZeroCoef>
-5.4800

> <Gold.Chemscore.Hbond>
1.9612

> <Gold.Chemscore.Metal>
0.0000

> <Gold.Chemscore.Lipo>
70.9005

> <Gold.Chemscore.Internal_Hbond>
0.0000

> <Gold.Chemscore.DEClash>
0.1212

> <Gold.Chemscore.DEInternal>
0.1267

> <Gold.Chemscore.Rot>
2.0130

> <Gold.Chemscore.Internal.Correction>
   9.000000E+99

> <Gold.Chemscore.Hbonds>
donor molecule, donor type, donor heavy atom, donor atom, acceptor molecule, acceptor atom, score
      L1  H     7    37       P1  8028  0.92
      L1  H     9    27       P1  7948  0.98

> <Gold.Chemscore.Hbond.Weighted>
-6.5505

> <Gold.Chemscore.Metal.Weighted>
-0.0000

> <Gold.Chemscore.Lipo.Weighted>
-8.2954

> <Gold.Chemscore.Internal_Hbond.Weighted>
0.0000

> <Gold.Chemscore.DEClash.Weighted>
0.1212

> <Gold.Chemscore.DEInternal.Weighted>
0.1267

> <Gold.Chemscore.Rot.Weighted>
5.1533

> <Gold.Chemscore.Internal.Correction.Weighted>
   9.000000E+99

> <Gold.Protein.RotatedTorsions>
[ 6907 6896 6895 6894 ] final   60.56 input  -60.11 | X-H torsion
[ 7974 7965 7964 7962 ] final -141.10 input  175.53 | X-H torsion
[ 8008 7997 7996 7995 ] final -176.74 input   59.86 | X-H torsion
[ 10167 10162 10161 10158 ] final   55.04 input  -65.29 | X-H torsion
[ 10718 10713 10712 10709 ] final -149.26 input   66.30 | X-H torsion
[ 10763 10752 10751 10750 ] final  113.78 input  -60.55 | X-H torsion
[ 11005 11000 10999 10996 ] final  176.51 input  -57.11 | X-H torsion

> <Gold.Protein.ActiveResidues>
 VAL166  LYS551  ARG553  GLY616  TRP617  ASP618  TYR619  PRO620  LYS621  CYS622 
 ASP623  PHE694  ASN695  SER759  ASP760  ASP761  ALA762  ILE779  LEU786  VAL792 
 PHE793  MET794  SER795  GLU796  ALA797  LYS798  CYS799  TRP800  GLU811  SER814 

> <Gold.Protein.RotatedAtoms>
  152.4013  134.6281  160.0068 H   0  0  0  0  0  0  0  0  0  0  0  0  # atno 6907 bound_to 6896
  151.6485  133.3316  159.3154 H   0  0  0  0  0  0  0  0  0  0  0  0  # atno 6908 bound_to 6896
  150.7913  134.6982  159.6580 H   0  0  0  0  0  0  0  0  0  0  0  0  # atno 6909 bound_to 6896
  144.8546  140.6121  143.5368 H   0  0  0  0  0  0  0  0  0  0  0  0  # atno 7974 bound_to 7965
  155.9985  140.1215  157.0570 H   0  0  0  0  0  0  0  0  0  0  0  0  # atno 8008 bound_to 7997
  154.4234  140.1111  156.5733 H   0  0  0  0  0  0  0  0  0  0  0  0  # atno 8009 bound_to 7997
  155.6245  140.3472  155.4665 H   0  0  0  0  0  0  0  0  0  0  0  0  # atno 8010 bound_to 7997
  140.2237  144.3762  150.6441 H   0  0  0  0  0  0  0  0  0  0  0  0  # atno 10167 bound_to 10162
  156.4308  130.8074  151.2301 H   0  0  0  0  0  0  0  0  0  0  0  0  # atno 10718 bound_to 10713
  153.4976  135.3645  155.2523 H   0  0  0  0  0  0  0  0  0  0  0  0  # atno 10763 bound_to 10752
  154.8749  135.3992  154.3516 H   0  0  0  0  0  0  0  0  0  0  0  0  # atno 10764 bound_to 10752
  153.4147  135.7078  153.6401 H   0  0  0  0  0  0  0  0  0  0  0  0  # atno 10765 bound_to 10752
  140.3740  134.7005  157.4410 H   0  0  0  0  0  0  0  0  0  0  0  0  # atno 11005 bound_to 11000
  145.4432  139.1533  143.3959 LP  0  0  0  0  0  0  0  0  0  0  0  0  # atno 17320 bound_to 7965
  146.2812  140.4555  142.8775 LP  0  0  0  0  0  0  0  0  0  0  0  0  # atno 17321 bound_to 7965
  140.6236  143.2179  151.6642 LP  0  0  0  0  0  0  0  0  0  0  0  0  # atno 17342 bound_to 10162
  139.5135  144.3441  152.0713 LP  0  0  0  0  0  0  0  0  0  0  0  0  # atno 17343 bound_to 10162
  157.7508  131.0199  150.3685 LP  0  0  0  0  0  0  0  0  0  0  0  0  # atno 17370 bound_to 10713
  156.4022  130.3918  149.6951 LP  0  0  0  0  0  0  0  0  0  0  0  0  # atno 17371 bound_to 10713
  140.0530  134.6104  155.8839 LP  0  0  0  0  0  0  0  0  0  0  0  0  # atno 17394 bound_to 11000
  141.1945  133.6583  156.5600 LP  0  0  0  0  0  0  0  0  0  0  0  0  # atno 17395 bound_to 11000

$$$$
