AV-unprocessed.smi:2475|AV-procd|sdf|9756|dock7
  -GOLD-   2272013393D 1   1.00000     0.00000
 Structure written by MMmdl.
 37 38  0  0  0  0  0  0  0  0  1 V2000
  147.1114  140.2021  153.4419 C   0  0  0  0  0  0  0  0  0  0  0  0
  148.4561  140.3176  154.1274 C   0  0  0  0  0  0  0  0  0  0  0  0
  148.8052  141.4580  154.8810 C   0  0  0  0  0  0  0  0  0  0  0  0
  150.0835  141.4665  155.4824 C   0  0  0  0  0  0  0  0  0  0  0  0
  150.4066  142.6275  156.2311 N   0  0  0  0  0  0  0  0  0  0  0  0
  151.0750  142.7099  157.3977 C   0  0  0  0  0  0  0  0  0  0  0  0
  151.4894  141.7369  158.0287 O   0  0  0  0  0  0  0  0  0  0  0  0
  151.2857  144.1256  157.9664 C   0  0  1  0  0  0  0  0  0  0  0  0
  150.4787  144.4049  159.2522 C   0  0  0  0  0  0  0  0  0  0  0  0
  151.5326  144.7366  160.2955 C   0  0  0  0  0  0  0  0  0  0  0  0
  152.7843  144.0806  159.7328 C   0  0  0  0  0  0  0  0  0  0  0  0
  152.6530  144.3138  158.3393 O   0  0  0  0  0  0  0  0  0  0  0  0
  150.9133  140.4066  155.3223 N   0  0  0  0  0  0  0  0  0  0  0  0
  150.4873  139.3741  154.5873 C   0  0  0  0  0  0  0  0  0  0  0  0
  151.4408  138.1966  154.4316 C   0  0  0  0  0  0  0  0  0  0  0  0
  150.7881  136.8707  154.8522 C   0  0  0  0  0  0  0  0  0  0  0  0
  152.7877  138.4501  155.1266 C   0  0  0  0  0  0  0  0  0  0  0  0
  149.3005  139.2749  153.9821 N   0  0  0  0  0  0  0  0  0  0  0  0
  146.5321  141.1190  153.5535 H   0  0  0  0  0  0  0  0  0  0  0  0
  146.5370  139.3811  153.8716 H   0  0  0  0  0  0  0  0  0  0  0  0
  147.2428  140.0104  152.3766 H   0  0  0  0  0  0  0  0  0  0  0  0
  148.1227  142.2882  154.9915 H   0  0  0  0  0  0  0  0  0  0  0  0
  150.1098  143.5044  155.8283 H   0  0  0  0  0  0  0  0  0  0  0  0
  151.0363  144.8482  157.1887 H   0  0  0  0  0  0  0  0  0  0  0  0
  149.7774  145.2293  159.1206 H   0  0  0  0  0  0  0  0  0  0  0  0
  149.9024  143.5371  159.5765 H   0  0  0  0  0  0  0  0  0  0  0  0
  151.6749  145.8167  160.3485 H   0  0  0  0  0  0  0  0  0  0  0  0
  151.2757  144.3783  161.2928 H   0  0  0  0  0  0  0  0  0  0  0  0
  153.7033  144.5122  160.1294 H   0  0  0  0  0  0  0  0  0  0  0  0
  152.7896  143.0079  159.9319 H   0  0  0  0  0  0  0  0  0  0  0  0
  151.6626  138.1018  153.3671 H   0  0  0  0  0  0  0  0  0  0  0  0
  149.8758  136.6864  154.2842 H   0  0  0  0  0  0  0  0  0  0  0  0
  150.5271  136.8733  155.9110 H   0  0  0  0  0  0  0  0  0  0  0  0
  151.4608  136.0306  154.6788 H   0  0  0  0  0  0  0  0  0  0  0  0
  153.2564  139.3600  154.7509 H   0  0  0  0  0  0  0  0  0  0  0  0
  153.4799  137.6259  154.9529 H   0  0  0  0  0  0  0  0  0  0  0  0
  152.6660  138.5580  156.2049 H   0  0  0  0  0  0  0  0  0  0  0  0
  1  2  1  0  0  0  0
  1 19  1  0  0  0  0
  1 20  1  0  0  0  0
  1 21  1  0  0  0  0
  2 18  1  0  0  0  0
  2  3  2  0  0  0  0
  3  4  1  0  0  0  0
  3 22  1  0  0  0  0
  4  5  1  0  0  0  0
  4 13  2  0  0  0  0
  5  6  1  0  0  0  0
  5 23  1  0  0  0  0
  6  7  2  0  0  0  0
  6  8  1  0  0  0  0
  8 12  1  0  0  0  0
  8  9  1  0  0  0  0
  8 24  1  0  0  0  0
  9 10  1  0  0  0  0
  9 25  1  0  0  0  0
  9 26  1  0  0  0  0
 10 11  1  0  0  0  0
 10 27  1  0  0  0  0
 10 28  1  0  0  0  0
 11 12  1  0  0  0  0
 11 29  1  0  0  0  0
 11 30  1  0  0  0  0
 13 14  1  0  0  0  0
 14 15  1  0  0  0  0
 14 18  2  0  0  0  0
 15 16  1  0  0  0  0
 15 17  1  0  0  0  0
 15 31  1  0  0  0  0
 16 32  1  0  0  0  0
 16 33  1  0  0  0  0
 16 34  1  0  0  0  0
 17 35  1  0  0  0  0
 17 36  1  0  0  0  0
 17 37  1  0  0  0  0
M  END
> <s_m_source_file>
AV-unprocessed.smi

> <i_m_source_file_index>
2475

> <i_lp_mmshare_version>
43012

> <i_f3d_flags>
0

> <s_epik_input>
W0NIM11bQ0hdKFtDSDNdKWMobjEpbmMoW2NIXWMxW0NIM10pW05IXUMoPU8pW0NAQEhdMltDSDJdW0NIMl1bQ0gyXU8y

> <s_epik_cmdline>
J2VwaWtfcHl0aG9uJywgJy1waCcsICc3LjAnLCAnLXRuJywgJzgnLCAnLW1hJywgJzIwMCcsICctbWV0YWxfYmluZGluZycsICctaW1hZScsICc8aW5maWxlLm1hZT4nLCAnLW9tYWUnLCAnPG91dGZpbGUubWFlPic=

> <r_lp_tautomer_probability>
1

> <r_epik_Ionization_Penalty>
1.42804e-05

> <r_epik_Ionization_Penalty_Charging>
0

> <r_epik_Ionization_Penalty_Neutral>
1.42804e-05

> <r_epik_State_Penalty>
-0

> <r_epik_Charging_Adjusted_Penalty>
0

> <i_epik_Tot_Q>
0

> <i_epik_Tot_abs_Q>
0

> <r_epik_Metal_State_Penalty>
-0

> <b_epik_Metal_Only>
0

> <s_lp_Force_Field>
OPLS_2005

> <r_lp_Energy>
11.5588

> <b_lp_Chiralities_Consistent>
1

> <s_lp_Variant>
AV-unprocessed.smi:2475-2

> <Gold.Version>
5.8.1

> <Gold.Id.Protein>
6NUR|6NUR_protein|mol2

> <Gold.PLP.Fitness>
42.7280

> <Gold.PLP.PLP>
-40.6676

> <Gold.PLP.part.hbond>
-2.0000

> <Gold.PLP.part.metal>
0.0000

> <Gold.PLP.part.buried>
-7.0392

> <Gold.PLP.part.nonpolar>
-33.8149

> <Gold.PLP.part.repulsive>
1.6708

> <Gold.PLP.ligand.clash>
0.0000

> <Gold.PLP.ligand.torsion>
0.5078

> <Gold.PLP.Chemscore.Hbond>
1.0000

> <Gold.PLP.Chemscore.CHOScore>
0.0000

> <Gold.PLP.Chemscore.Metal>
0.0000

> <Gold.Chemscore.Hbonds>
donor molecule, donor type, donor heavy atom, donor atom, acceptor molecule, acceptor atom, score
      L1  H     5    23       P1  8028  0.99

> <Gold.PLP.Chemscore.Internal.Correction>
0.0760

> <Gold.Rescore>
     Score         DG    S(hbond)    S(metal)    S(lipo)     H(rot)  DE(clash)    DE(int)     intcor
     14.95     -16.17       0.99        0.00      89.13       1.18       0.04       1.18       ----

> <Gold.Chemscore.Fitness>
14.9490

> <Gold.Chemscore.DG>
-16.1670

> <Gold.Chemscore.ZeroCoef>
-5.4800

> <Gold.Chemscore.Hbond>
0.9850

> <Gold.Chemscore.Metal>
0.0000

> <Gold.Chemscore.Lipo>
89.1317

> <Gold.Chemscore.Internal_Hbond>
0.0000

> <Gold.Chemscore.DEClash>
0.0395

> <Gold.Chemscore.DEInternal>
1.1785

> <Gold.Chemscore.Rot>
1.1842

> <Gold.Chemscore.Internal.Correction>
   9.000000E+99

> <Gold.Chemscore.Hbonds>
donor molecule, donor type, donor heavy atom, donor atom, acceptor molecule, acceptor atom, score
      L1  H     5    23       P1  8028  0.94

> <Gold.Chemscore.Hbond.Weighted>
-3.2901

> <Gold.Chemscore.Metal.Weighted>
-0.0000

> <Gold.Chemscore.Lipo.Weighted>
-10.4284

> <Gold.Chemscore.Internal_Hbond.Weighted>
0.0000

> <Gold.Chemscore.DEClash.Weighted>
0.0395

> <Gold.Chemscore.DEInternal.Weighted>
1.1785

> <Gold.Chemscore.Rot.Weighted>
3.0315

> <Gold.Chemscore.Internal.Correction.Weighted>
   9.000000E+99

> <Gold.Protein.RotatedTorsions>
[ 6907 6896 6895 6894 ] final  -85.95 input  -60.11 | X-H torsion
[ 7974 7965 7964 7962 ] final  111.28 input  175.53 | X-H torsion
[ 8008 7997 7996 7995 ] final  -98.27 input   59.86 | X-H torsion
[ 10167 10162 10161 10158 ] final -144.06 input  -65.29 | X-H torsion
[ 10718 10713 10712 10709 ] final  -67.28 input   66.30 | X-H torsion
[ 10763 10752 10751 10750 ] final -130.45 input  -60.55 | X-H torsion
[ 11005 11000 10999 10996 ] final -154.47 input  -57.11 | X-H torsion

> <Gold.Protein.ActiveResidues>
 VAL166  LYS551  ARG553  GLY616  TRP617  ASP618  TYR619  PRO620  LYS621  CYS622 
 ASP623  PHE694  ASN695  SER759  ASP760  ASP761  ALA762  ILE779  LEU786  VAL792 
 PHE793  MET794  SER795  GLU796  ALA797  LYS798  CYS799  TRP800  GLU811  SER814 

> <Gold.Protein.RotatedAtoms>
  150.6868  134.3126  159.4752 H   0  0  0  0  0  0  0  0  0  0  0  0  # atno 6907 bound_to 6896
  152.1010  134.9339  160.0579 H   0  0  0  0  0  0  0  0  0  0  0  0  # atno 6908 bound_to 6896
  152.0618  133.4031  159.4458 H   0  0  0  0  0  0  0  0  0  0  0  0  # atno 6909 bound_to 6896
  145.2443  139.2766  143.4101 H   0  0  0  0  0  0  0  0  0  0  0  0  # atno 7974 bound_to 7965
  154.7990  140.0456  157.1258 H   0  0  0  0  0  0  0  0  0  0  0  0  # atno 8008 bound_to 7997
  154.9502  140.3064  155.5059 H   0  0  0  0  0  0  0  0  0  0  0  0  # atno 8009 bound_to 7997
  156.2959  140.2289  156.4579 H   0  0  0  0  0  0  0  0  0  0  0  0  # atno 8010 bound_to 7997
  139.7934  143.7934  152.2652 H   0  0  0  0  0  0  0  0  0  0  0  0  # atno 10167 bound_to 10162
  156.0566  130.4275  150.1832 H   0  0  0  0  0  0  0  0  0  0  0  0  # atno 10718 bound_to 10713
  154.8755  135.3862  154.4085 H   0  0  0  0  0  0  0  0  0  0  0  0  # atno 10763 bound_to 10752
  153.4802  135.7030  153.5948 H   0  0  0  0  0  0  0  0  0  0  0  0  # atno 10764 bound_to 10752
  153.4367  135.3866  155.2170 H   0  0  0  0  0  0  0  0  0  0  0  0  # atno 10765 bound_to 10752
  140.6969  134.3980  157.5214 H   0  0  0  0  0  0  0  0  0  0  0  0  # atno 11005 bound_to 11000
  146.3320  140.2815  142.8610 LP  0  0  0  0  0  0  0  0  0  0  0  0  # atno 17320 bound_to 7965
  144.9561  140.8227  143.5542 LP  0  0  0  0  0  0  0  0  0  0  0  0  # atno 17321 bound_to 7965
  139.8032  144.7366  150.9796 LP  0  0  0  0  0  0  0  0  0  0  0  0  # atno 17342 bound_to 10162
  140.7820  143.4324  151.0674 LP  0  0  0  0  0  0  0  0  0  0  0  0  # atno 17343 bound_to 10162
  156.9907  130.9892  151.3415 LP  0  0  0  0  0  0  0  0  0  0  0  0  # atno 17370 bound_to 10713
  157.5541  130.8201  149.8182 LP  0  0  0  0  0  0  0  0  0  0  0  0  # atno 17371 bound_to 10713
  139.8907  134.8797  156.2354 LP  0  0  0  0  0  0  0  0  0  0  0  0  # atno 17394 bound_to 11000
  141.0195  133.7049  156.1245 LP  0  0  0  0  0  0  0  0  0  0  0  0  # atno 17395 bound_to 11000

$$$$
