AV-unprocessed.smi:787|AV-procd|sdf|3726|dock9
  -GOLD-   22720 1153D 1   1.00000     0.00000
 Structure written by MMmdl.
 47 49  0  0  0  0  0  0  0  0  2 V2000
  149.9095  135.4907  155.6025 C   0  0  0  0  0  0  0  0  0  0  0  0
  149.6174  136.4443  154.5442 N   0  0  0  0  0  0  0  0  0  0  0  0
  150.0572  137.7727  154.6366 C   0  0  0  0  0  0  0  0  0  0  0  0
  151.3292  138.0411  155.0103 N   0  0  0  0  0  0  0  0  0  0  0  0
  151.7035  139.3259  155.0791 C   0  0  0  0  0  0  0  0  0  0  0  0
  150.9845  140.4309  154.8259 N   0  0  0  0  0  0  0  0  0  0  0  0
  149.7220  140.1753  154.4572 C   0  0  0  0  0  0  0  0  0  0  0  0
  148.7586  141.1173  154.1385 N   0  0  0  0  0  0  0  0  0  0  0  0
  147.7104  140.3488  153.8529 C   0  0  0  0  0  0  0  0  0  0  0  0
  147.8733  139.0146  153.9530 N   0  0  0  0  0  0  0  0  0  0  0  0
  146.8748  137.9922  153.6993 C   0  0  0  0  0  0  0  0  0  0  0  0
  146.2512  138.1207  152.2935 C   0  0  1  0  0  0  0  0  0  0  0  0
  147.2379  138.5687  151.3868 O   0  0  0  0  0  0  0  0  0  0  0  0
  145.6858  136.7862  151.7735 C   0  0  0  0  0  0  0  0  0  0  0  0
  144.5742  136.2885  152.6267 N   0  3  1  0  0  0  0  0  0  0  0  0
  143.7650  137.3836  153.2096 C   0  0  0  0  0  0  0  0  0  0  0  0
  143.7299  135.2634  151.9657 C   0  0  0  0  0  0  0  0  0  0  0  0
  144.4630  133.9403  151.8266 C   0  0  0  0  0  0  0  0  0  0  0  0
  143.7932  132.8170  151.2970 C   0  0  0  0  0  0  0  0  0  0  0  0
  144.4630  131.5836  151.1799 C   0  0  0  0  0  0  0  0  0  0  0  0
  145.8059  131.4697  151.5876 C   0  0  0  0  0  0  0  0  0  0  0  0
  146.4793  132.5895  152.1127 C   0  0  0  0  0  0  0  0  0  0  0  0
  145.8100  133.8229  152.2312 C   0  0  0  0  0  0  0  0  0  0  0  0
  149.1993  138.8519  154.3468 C   0  0  0  0  0  0  0  0  0  0  0  0
  149.4868  134.5173  155.3539 H   0  0  0  0  0  0  0  0  0  0  0  0
  149.4777  135.8193  156.5485 H   0  0  0  0  0  0  0  0  0  0  0  0
  150.9860  135.3726  155.7307 H   0  0  0  0  0  0  0  0  0  0  0  0
  149.0924  136.1422  153.7380 H   0  0  0  0  0  0  0  0  0  0  0  0
  152.7265  139.4962  155.3802 H   0  0  0  0  0  0  0  0  0  0  0  0
  146.7657  140.7825  153.5580 H   0  0  0  0  0  0  0  0  0  0  0  0
  147.3329  137.0100  153.8272 H   0  0  0  0  0  0  0  0  0  0  0  0
  146.1103  138.0727  154.4722 H   0  0  0  0  0  0  0  0  0  0  0  0
  145.4643  138.8744  152.3030 H   0  0  0  0  0  0  0  0  0  0  0  0
  147.4376  139.4726  151.5789 H   0  0  0  0  0  0  0  0  0  0  0  0
  145.3305  136.8896  150.7467 H   0  0  0  0  0  0  0  0  0  0  0  0
  146.5010  136.0637  151.7324 H   0  0  0  0  0  0  0  0  0  0  0  0
  143.2184  137.9211  152.4336 H   0  0  0  0  0  0  0  0  0  0  0  0
  144.3906  138.0992  153.7426 H   0  0  0  0  0  0  0  0  0  0  0  0
  143.0425  136.9887  153.9247 H   0  0  0  0  0  0  0  0  0  0  0  0
  142.8335  135.0803  152.5606 H   0  0  0  0  0  0  0  0  0  0  0  0
  143.3912  135.6256  150.9935 H   0  0  0  0  0  0  0  0  0  0  0  0
  142.7623  132.8963  150.9839 H   0  0  0  0  0  0  0  0  0  0  0  0
  143.9471  130.7244  150.7767 H   0  0  0  0  0  0  0  0  0  0  0  0
  146.3203  130.5241  151.4963 H   0  0  0  0  0  0  0  0  0  0  0  0
  147.5098  132.5019  152.4243 H   0  0  0  0  0  0  0  0  0  0  0  0
  146.3343  134.6762  152.6367 H   0  0  0  0  0  0  0  0  0  0  0  0
  145.0075  135.8113  153.4038 H   0  0  0  0  0  0  0  0  0  0  0  0
  1  2  1  0  0  0  0
  1 25  1  0  0  0  0
  1 26  1  0  0  0  0
  1 27  1  0  0  0  0
  2  3  1  0  0  0  0
  2 28  1  0  0  0  0
  3 24  1  0  0  0  0
  3  4  2  0  0  0  0
  4  5  1  0  0  0  0
  5  6  2  0  0  0  0
  5 29  1  0  0  0  0
  6  7  1  0  0  0  0
  7 24  2  0  0  0  0
  7  8  1  0  0  0  0
  8  9  2  0  0  0  0
  9 10  1  0  0  0  0
  9 30  1  0  0  0  0
 10 11  1  0  0  0  0
 10 24  1  0  0  0  0
 11 12  1  0  0  0  0
 11 31  1  0  0  0  0
 11 32  1  0  0  0  0
 12 13  1  0  0  0  0
 12 14  1  0  0  0  0
 12 33  1  0  0  0  0
 13 34  1  0  0  0  0
 14 15  1  0  0  0  0
 14 35  1  0  0  0  0
 14 36  1  0  0  0  0
 15 16  1  0  0  0  0
 15 17  1  0  0  0  0
 15 47  1  0  0  0  0
 16 37  1  0  0  0  0
 16 38  1  0  0  0  0
 16 39  1  0  0  0  0
 17 18  1  0  0  0  0
 17 40  1  0  0  0  0
 17 41  1  0  0  0  0
 18 23  1  0  0  0  0
 18 19  2  0  0  0  0
 19 20  1  0  0  0  0
 19 42  1  0  0  0  0
 20 21  2  0  0  0  0
 20 43  1  0  0  0  0
 21 22  1  0  0  0  0
 21 44  1  0  0  0  0
 22 23  2  0  0  0  0
 22 45  1  0  0  0  0
 23 46  1  0  0  0  0
M  CHG  1  15   1
M  END
> <s_m_source_file>
AV-unprocessed.smi

> <i_m_source_file_index>
787

> <i_lp_mmshare_version>
43012

> <i_f3d_flags>
0

> <s_epik_input>
bjFbY0hdbmMoW05IXVtDSDNdKWMoYzEyKW4oW2NIXW4yKVtDSDJdW0NASF0oW09IXSlbQ0gyXU4oW0NIM10pW0NIMl1jM1tjSF1bY0hdW2NIXVtjSF1bY0hdMw==

> <s_epik_cmdline>
J2VwaWtfcHl0aG9uJywgJy1waCcsICc3LjAnLCAnLXRuJywgJzgnLCAnLW1hJywgJzIwMCcsICctbWV0YWxfYmluZGluZycsICctaW1hZScsICc8aW5maWxlLm1hZT4nLCAnLW9tYWUnLCAnPG91dGZpbGUubWFlPic=

> <r_lp_tautomer_probability>
0.999987

> <r_epik_Ionization_Penalty>
0.0526284

> <r_epik_Ionization_Penalty_Charging>
0.0475377

> <r_epik_Ionization_Penalty_Neutral>
0.00509065

> <r_epik_State_Penalty>
0.0404888

> <r_epik_Charging_Adjusted_Penalty>
0.0880265

> <i_epik_Tot_Q>
1

> <i_epik_Tot_abs_Q>
1

> <r_epik_Metal_State_Penalty>
0.040507

> <b_epik_Metal_Only>
0

> <s_lp_Force_Field>
OPLS_2005

> <r_lp_Energy>
14.3877

> <b_lp_Chiralities_Consistent>
1

> <s_lp_Variant>
AV-unprocessed.smi:787-2

> <Gold.Version>
5.8.1

> <Gold.Id.Protein>
6NUR|6NUR_protein|mol2

> <Gold.PLP.Fitness>
51.3572

> <Gold.PLP.PLP>
-44.2691

> <Gold.PLP.part.hbond>
-5.0794

> <Gold.PLP.part.metal>
0.0000

> <Gold.PLP.part.buried>
-5.8311

> <Gold.PLP.part.nonpolar>
-35.3394

> <Gold.PLP.part.repulsive>
0.3341

> <Gold.PLP.ligand.clash>
0.0000

> <Gold.PLP.ligand.torsion>
1.0765

> <Gold.PLP.Chemscore.Hbond>
3.0100

> <Gold.PLP.Chemscore.CHOScore>
0.0000

> <Gold.PLP.Chemscore.Metal>
0.0000

> <Gold.Chemscore.Hbonds>
donor molecule, donor type, donor heavy atom, donor atom, acceptor molecule, acceptor atom, score
      L1  H     2    28       P1  7948  0.88
      L1  H    13    34       P1  7957  0.12
      P1  H  7954  7966       L1    13  1.00
      P1  H  7989  7998       L1     6  1.00

> <Gold.PLP.Chemscore.Internal.Correction>
0.2111

> <Gold.Rescore>
     Score         DG    S(hbond)    S(metal)    S(lipo)     H(rot)  DE(clash)    DE(int)     intcor
     12.00     -12.97       1.87        0.00      80.36       3.19       0.05       0.91       ----

> <Gold.Chemscore.Fitness>
12.0018

> <Gold.Chemscore.DG>
-12.9690

> <Gold.Chemscore.ZeroCoef>
-5.4800

> <Gold.Chemscore.Hbond>
1.8744

> <Gold.Chemscore.Metal>
0.0000

> <Gold.Chemscore.Lipo>
80.3613

> <Gold.Chemscore.Internal_Hbond>
0.0000

> <Gold.Chemscore.DEClash>
0.0525

> <Gold.Chemscore.DEInternal>
0.9148

> <Gold.Chemscore.Rot>
3.1928

> <Gold.Chemscore.Internal.Correction>
   9.000000E+99

> <Gold.Chemscore.Hbonds>
donor molecule, donor type, donor heavy atom, donor atom, acceptor molecule, acceptor atom, score
      L1  H     2    28       P1  7948  0.83
      L1  H    13    34       P1  7957  0.12
      P1  H  7954  7966       L1    13  0.83
      P1  H  7989  7998       L1     6  0.09
      P1  H  8011  8017       L1     8  0.02

> <Gold.Chemscore.Hbond.Weighted>
-6.2604

> <Gold.Chemscore.Metal.Weighted>
-0.0000

> <Gold.Chemscore.Lipo.Weighted>
-9.4023

> <Gold.Chemscore.Internal_Hbond.Weighted>
0.0000

> <Gold.Chemscore.DEClash.Weighted>
0.0525

> <Gold.Chemscore.DEInternal.Weighted>
0.9148

> <Gold.Chemscore.Rot.Weighted>
8.1736

> <Gold.Chemscore.Internal.Correction.Weighted>
   9.000000E+99

> <Gold.Protein.RotatedTorsions>
[ 6907 6896 6895 6894 ] final  -86.09 input  -60.11 | X-H torsion
[ 7974 7965 7964 7962 ] final  -98.79 input  175.53 | X-H torsion
[ 8008 7997 7996 7995 ] final  -72.08 input   59.86 | X-H torsion
[ 10167 10162 10161 10158 ] final -129.42 input  -65.29 | X-H torsion
[ 10718 10713 10712 10709 ] final  -68.58 input   66.30 | X-H torsion
[ 10763 10752 10751 10750 ] final  135.84 input  -60.55 | X-H torsion
[ 11005 11000 10999 10996 ] final  134.78 input  -57.11 | X-H torsion

> <Gold.Protein.ActiveResidues>
 VAL166  LYS551  ARG553  GLY616  TRP617  ASP618  TYR619  PRO620  LYS621  CYS622 
 ASP623  PHE694  ASN695  SER759  ASP760  ASP761  ALA762  ILE779  LEU786  VAL792 
 PHE793  MET794  SER795  GLU796  ALA797  LYS798  CYS799  TRP800  GLU811  SER814 

> <Gold.Protein.RotatedAtoms>
  150.6868  134.3105  159.4743 H   0  0  0  0  0  0  0  0  0  0  0  0  # atno 6907 bound_to 6896
  152.0991  134.9351  160.0579 H   0  0  0  0  0  0  0  0  0  0  0  0  # atno 6908 bound_to 6896
  152.0638  133.4039  159.4466 H   0  0  0  0  0  0  0  0  0  0  0  0  # atno 6909 bound_to 6896
  145.3160  140.9411  143.2743 H   0  0  0  0  0  0  0  0  0  0  0  0  # atno 7974 bound_to 7965
  154.5138  140.0804  156.8041 H   0  0  0  0  0  0  0  0  0  0  0  0  # atno 8008 bound_to 7997
  155.3726  140.3423  155.4225 H   0  0  0  0  0  0  0  0  0  0  0  0  # atno 8009 bound_to 7997
  156.1604  140.1586  156.8609 H   0  0  0  0  0  0  0  0  0  0  0  0  # atno 8010 bound_to 7997
  139.9400  143.6174  152.2506 H   0  0  0  0  0  0  0  0  0  0  0  0  # atno 10167 bound_to 10162
  156.0498  130.4297  150.2021 H   0  0  0  0  0  0  0  0  0  0  0  0  # atno 10718 bound_to 10713
  153.8466  135.3084  155.3430 H   0  0  0  0  0  0  0  0  0  0  0  0  # atno 10763 bound_to 10752
  154.7909  135.4783  154.0054 H   0  0  0  0  0  0  0  0  0  0  0  0  # atno 10764 bound_to 10752
  153.1543  135.6849  153.8928 H   0  0  0  0  0  0  0  0  0  0  0  0  # atno 10765 bound_to 10752
  139.9937  134.9505  156.9915 H   0  0  0  0  0  0  0  0  0  0  0  0  # atno 11005 bound_to 11000
  144.8977  139.4690  143.6647 LP  0  0  0  0  0  0  0  0  0  0  0  0  # atno 17320 bound_to 7965
  146.3100  139.7713  142.9027 LP  0  0  0  0  0  0  0  0  0  0  0  0  # atno 17321 bound_to 7965
  139.6712  144.7661  151.1779 LP  0  0  0  0  0  0  0  0  0  0  0  0  # atno 17342 bound_to 10162
  140.7613  143.5862  150.8843 LP  0  0  0  0  0  0  0  0  0  0  0  0  # atno 17343 bound_to 10162
  157.0106  130.9950  151.3367 LP  0  0  0  0  0  0  0  0  0  0  0  0  # atno 17370 bound_to 10713
  157.5413  130.8121  149.8032 LP  0  0  0  0  0  0  0  0  0  0  0  0  # atno 17371 bound_to 10713
  140.4859  134.1242  155.7224 LP  0  0  0  0  0  0  0  0  0  0  0  0  # atno 17394 bound_to 11000
  141.1587  133.8834  157.1907 LP  0  0  0  0  0  0  0  0  0  0  0  0  # atno 17395 bound_to 11000

$$$$
