AV-unprocessed.smi:1368|AV-procd|sdf|5578|dock2
  -GOLD-   22720 5173D 1   1.00000     0.00000
 Structure written by MMmdl.
 47 49  0  0  0  0  0  0  0  0  2 V2000
  147.5499  135.3573  162.2582 C   0  0  0  0  0  0  0  0  0  0  0  0
  147.3924  136.0665  160.9170 C   0  0  0  0  0  0  0  0  0  0  0  0
  147.5983  137.2774  160.8448 O   0  0  0  0  0  0  0  0  0  0  0  0
  147.0094  135.2871  159.8891 N   0  0  0  0  0  0  0  0  0  0  0  0
  146.7810  135.6564  158.5358 C   0  0  0  0  0  0  0  0  0  0  0  0
  145.9153  134.8424  157.7784 C   0  0  0  0  0  0  0  0  0  0  0  0
  145.6548  135.1405  156.4275 C   0  0  0  0  0  0  0  0  0  0  0  0
  146.2616  136.2478  155.8021 C   0  0  0  0  0  0  0  0  0  0  0  0
  145.9501  136.4680  154.4774 O   0  0  0  0  0  0  0  0  0  0  0  0
  146.7145  137.4258  153.7570 C   0  0  0  0  0  0  0  0  0  0  0  0
  146.0631  137.6503  152.3835 C   0  0  1  0  0  0  0  0  0  0  0  0
  146.9611  138.3894  151.5792 O   0  0  0  0  0  0  0  0  0  0  0  0
  145.7308  136.3173  151.6836 C   0  0  0  0  0  0  0  0  0  0  0  0
  144.6916  135.5434  152.3827 N   0  0  0  0  0  0  0  0  0  0  0  0
  144.6910  134.2383  152.7778 C   0  0  0  0  0  0  0  0  0  0  0  0
  145.7918  133.2495  152.5887 C   0  0  0  0  0  0  0  0  0  0  0  0
  143.4917  133.9975  153.3785 N   0  3  0  0  0  0  0  0  0  0  0  0
  142.7180  135.1588  153.3702 C   0  0  0  0  0  0  0  0  0  0  0  0
  141.4385  135.4032  153.8597 C   0  0  0  0  0  0  0  0  0  0  0  0
  140.9366  136.7107  153.6940 C   0  0  0  0  0  0  0  0  0  0  0  0
  141.6993  137.7151  153.0635 C   0  0  0  0  0  0  0  0  0  0  0  0
  142.9944  137.4546  152.5692 C   0  0  0  0  0  0  0  0  0  0  0  0
  143.4833  136.1585  152.7347 C   0  0  0  0  0  0  0  0  0  0  0  0
  147.1477  137.0550  156.5582 C   0  0  0  0  0  0  0  0  0  0  0  0
  147.4082  136.7596  157.9104 C   0  0  0  0  0  0  0  0  0  0  0  0
  146.6923  134.7140  162.4578 H   0  0  0  0  0  0  0  0  0  0  0  0
  147.6288  136.0795  163.0717 H   0  0  0  0  0  0  0  0  0  0  0  0
  148.4507  134.7431  162.2574 H   0  0  0  0  0  0  0  0  0  0  0  0
  146.7887  134.3294  160.1198 H   0  0  0  0  0  0  0  0  0  0  0  0
  145.4386  133.9865  158.2339 H   0  0  0  0  0  0  0  0  0  0  0  0
  144.9816  134.5106  155.8645 H   0  0  0  0  0  0  0  0  0  0  0  0
  146.8019  138.3678  154.3018 H   0  0  0  0  0  0  0  0  0  0  0  0
  147.7203  137.0256  153.6180 H   0  0  0  0  0  0  0  0  0  0  0  0
  145.1443  138.2253  152.5044 H   0  0  0  0  0  0  0  0  0  0  0  0
  147.7453  137.8750  151.4587 H   0  0  0  0  0  0  0  0  0  0  0  0
  145.4282  136.4778  150.6487 H   0  0  0  0  0  0  0  0  0  0  0  0
  146.6217  135.6896  151.6414 H   0  0  0  0  0  0  0  0  0  0  0  0
  145.5367  132.2980  153.0559 H   0  0  0  0  0  0  0  0  0  0  0  0
  146.7130  133.6198  153.0384 H   0  0  0  0  0  0  0  0  0  0  0  0
  145.9656  133.0787  151.5263 H   0  0  0  0  0  0  0  0  0  0  0  0
  140.8534  134.6356  154.3445 H   0  0  0  0  0  0  0  0  0  0  0  0
  139.9480  136.9482  154.0593 H   0  0  0  0  0  0  0  0  0  0  0  0
  141.2833  138.7067  152.9574 H   0  0  0  0  0  0  0  0  0  0  0  0
  143.5710  138.2343  152.0942 H   0  0  0  0  0  0  0  0  0  0  0  0
  147.6470  137.9074  156.1234 H   0  0  0  0  0  0  0  0  0  0  0  0
  148.1050  137.3867  158.4447 H   0  0  0  0  0  0  0  0  0  0  0  0
  143.2239  133.1020  153.7659 H   0  0  0  0  0  0  0  0  0  0  0  0
  1  2  1  0  0  0  0
  1 26  1  0  0  0  0
  1 27  1  0  0  0  0
  1 28  1  0  0  0  0
  2  3  2  0  0  0  0
  2  4  1  0  0  0  0
  4  5  1  0  0  0  0
  4 29  1  0  0  0  0
  5 25  1  0  0  0  0
  5  6  2  0  0  0  0
  6  7  1  0  0  0  0
  6 30  1  0  0  0  0
  7  8  2  0  0  0  0
  7 31  1  0  0  0  0
  8  9  1  0  0  0  0
  8 24  1  0  0  0  0
  9 10  1  0  0  0  0
 10 11  1  0  0  0  0
 10 32  1  0  0  0  0
 10 33  1  0  0  0  0
 11 12  1  0  0  0  0
 11 13  1  0  0  0  0
 11 34  1  0  0  0  0
 12 35  1  0  0  0  0
 13 14  1  0  0  0  0
 13 36  1  0  0  0  0
 13 37  1  0  0  0  0
 14 23  1  0  0  0  0
 14 15  1  0  0  0  0
 15 16  1  0  0  0  0
 15 17  2  0  0  0  0
 16 38  1  0  0  0  0
 16 39  1  0  0  0  0
 16 40  1  0  0  0  0
 17 18  1  0  0  0  0
 17 47  1  0  0  0  0
 18 23  2  0  0  0  0
 18 19  1  0  0  0  0
 19 20  2  0  0  0  0
 19 41  1  0  0  0  0
 20 21  1  0  0  0  0
 20 42  1  0  0  0  0
 21 22  2  0  0  0  0
 21 43  1  0  0  0  0
 22 23  1  0  0  0  0
 22 44  1  0  0  0  0
 24 25  2  0  0  0  0
 24 45  1  0  0  0  0
 25 46  1  0  0  0  0
M  CHG  1  17   1
M  END
> <s_m_source_file>
AV-unprocessed.smi

> <i_m_source_file_index>
1368

> <i_lp_mmshare_version>
43012

> <i_f3d_flags>
0

> <s_epik_input>
W0NIM11DKD1PKVtOSF1jMVtjSF1bY0hdYyhbY0hdW2NIXTEpT1tDSDJdW0NASF0oW09IXSlbQ0gyXW4oYyhuMilbQ0gzXSljKGMyMylbY0hdW2NIXVtjSF1bY0hdMw==

> <s_epik_cmdline>
J2VwaWtfcHl0aG9uJywgJy1waCcsICc3LjAnLCAnLXRuJywgJzgnLCAnLW1hJywgJzIwMCcsICctbWV0YWxfYmluZGluZycsICctaW1hZScsICc8aW5maWxlLm1hZT4nLCAnLW9tYWUnLCAnPG91dGZpbGUubWFlPic=

> <r_lp_tautomer_probability>
1

> <r_epik_Ionization_Penalty>
1.00673

> <r_epik_Ionization_Penalty_Charging>
1.00673

> <r_epik_Ionization_Penalty_Neutral>
2.60899e-06

> <r_epik_State_Penalty>
1.05579

> <r_epik_Charging_Adjusted_Penalty>
2.06252

> <i_epik_Tot_Q>
1

> <i_epik_Tot_abs_Q>
1

> <r_epik_Metal_State_Penalty>
1.15682

> <b_epik_Metal_Only>
0

> <s_lp_Force_Field>
OPLS_2005

> <r_lp_Energy>
24.3516

> <b_lp_Chiralities_Consistent>
1

> <s_lp_Variant>
AV-unprocessed.smi:1368-4

> <Gold.Version>
5.8.1

> <Gold.Id.Protein>
6NUR|6NUR_protein|mol2

> <Gold.PLP.Fitness>
45.4492

> <Gold.PLP.PLP>
-31.8191

> <Gold.PLP.part.hbond>
-5.5150

> <Gold.PLP.part.metal>
0.0000

> <Gold.PLP.part.buried>
-2.0107

> <Gold.PLP.part.nonpolar>
-24.3404

> <Gold.PLP.part.repulsive>
0.0740

> <Gold.PLP.ligand.clash>
0.0000

> <Gold.PLP.ligand.torsion>
0.4277

> <Gold.PLP.Chemscore.Hbond>
4.7673

> <Gold.PLP.Chemscore.CHOScore>
0.0000

> <Gold.PLP.Chemscore.Metal>
0.0000

> <Gold.Chemscore.Hbonds>
donor molecule, donor type, donor heavy atom, donor atom, acceptor molecule, acceptor atom, score
      L1  H    12    35       P1  7948  0.98
      L1  H    17    47       P1 10957  2.00
      P1  H  6931  6943       L1     3  0.80
      P1  H  6934  6947       L1     3  0.96

> <Gold.PLP.Chemscore.Internal.Correction>
0.1838

> <Gold.Rescore>
     Score         DG    S(hbond)    S(metal)    S(lipo)     H(rot)  DE(clash)    DE(int)     intcor
     14.06     -18.48       3.77        0.00      57.44       2.47       0.20       4.22       ----

> <Gold.Chemscore.Fitness>
14.0574

> <Gold.Chemscore.DG>
-18.4803

> <Gold.Chemscore.ZeroCoef>
-5.4800

> <Gold.Chemscore.Hbond>
3.7745

> <Gold.Chemscore.Metal>
0.0000

> <Gold.Chemscore.Lipo>
57.4401

> <Gold.Chemscore.Internal_Hbond>
0.0000

> <Gold.Chemscore.DEClash>
0.2038

> <Gold.Chemscore.DEInternal>
4.2190

> <Gold.Chemscore.Rot>
2.4715

> <Gold.Chemscore.Internal.Correction>
   9.000000E+99

> <Gold.Chemscore.Hbonds>
donor molecule, donor type, donor heavy atom, donor atom, acceptor molecule, acceptor atom, score
      L1  H    12    35       P1  7948  0.90
      L1  H    17    47       P1 10957  0.99
      P1  H  6931  6943       L1     3  0.74
      P1  H  6934  6947       L1     3  0.92

> <Gold.Chemscore.Hbond.Weighted>
-12.6068

> <Gold.Chemscore.Metal.Weighted>
-0.0000

> <Gold.Chemscore.Lipo.Weighted>
-6.7205

> <Gold.Chemscore.Internal_Hbond.Weighted>
0.0000

> <Gold.Chemscore.DEClash.Weighted>
0.2038

> <Gold.Chemscore.DEInternal.Weighted>
4.2190

> <Gold.Chemscore.Rot.Weighted>
6.3271

> <Gold.Chemscore.Internal.Correction.Weighted>
   9.000000E+99

> <Gold.Protein.RotatedTorsions>
[ 6907 6896 6895 6894 ] final   36.80 input  -60.11 | X-H torsion
[ 7974 7965 7964 7962 ] final   63.29 input  175.53 | X-H torsion
[ 8008 7997 7996 7995 ] final  -43.90 input   59.86 | X-H torsion
[ 10167 10162 10161 10158 ] final  126.50 input  -65.29 | X-H torsion
[ 10718 10713 10712 10709 ] final   -4.44 input   66.30 | X-H torsion
[ 10763 10752 10751 10750 ] final  -44.50 input  -60.55 | X-H torsion
[ 11005 11000 10999 10996 ] final  -43.33 input  -57.11 | X-H torsion

> <Gold.Protein.ActiveResidues>
 VAL166  LYS551  ARG553  GLY616  TRP617  ASP618  TYR619  PRO620  LYS621  CYS622 
 ASP623  PHE694  ASN695  SER759  ASP760  ASP761  ALA762  ILE779  LEU786  VAL792 
 PHE793  MET794  SER795  GLU796  ALA797  LYS798  CYS799  TRP800  GLU811  SER814 

> <Gold.Protein.RotatedAtoms>
  152.1347  134.9108  160.0556 H   0  0  0  0  0  0  0  0  0  0  0  0  # atno 6907 bound_to 6896
  152.0199  133.3890  159.4262 H   0  0  0  0  0  0  0  0  0  0  0  0  # atno 6908 bound_to 6896
  150.6859  134.3558  159.4973 H   0  0  0  0  0  0  0  0  0  0  0  0  # atno 6909 bound_to 6896
  145.8635  139.3330  143.0805 H   0  0  0  0  0  0  0  0  0  0  0  0  # atno 7974 bound_to 7965
  154.3997  140.1436  156.3595 H   0  0  0  0  0  0  0  0  0  0  0  0  # atno 8008 bound_to 7997
  155.8194  140.3470  155.5484 H   0  0  0  0  0  0  0  0  0  0  0  0  # atno 8009 bound_to 7997
  155.8303  140.0911  157.1787 H   0  0  0  0  0  0  0  0  0  0  0  0  # atno 8010 bound_to 7997
  139.5628  144.6892  151.3995 H   0  0  0  0  0  0  0  0  0  0  0  0  # atno 10167 bound_to 10162
  156.7612  130.5270  149.5785 H   0  0  0  0  0  0  0  0  0  0  0  0  # atno 10718 bound_to 10713
  154.0131  135.6679  153.4767 H   0  0  0  0  0  0  0  0  0  0  0  0  # atno 10763 bound_to 10752
  153.0612  135.5027  154.8093 H   0  0  0  0  0  0  0  0  0  0  0  0  # atno 10764 bound_to 10752
  154.6983  135.3074  154.9343 H   0  0  0  0  0  0  0  0  0  0  0  0  # atno 10765 bound_to 10752
  141.0376  133.6793  156.2717 H   0  0  0  0  0  0  0  0  0  0  0  0  # atno 11005 bound_to 11000
  145.9220  140.9108  143.0400 LP  0  0  0  0  0  0  0  0  0  0  0  0  # atno 17320 bound_to 7965
  144.6726  140.1302  143.7444 LP  0  0  0  0  0  0  0  0  0  0  0  0  # atno 17321 bound_to 7965
  140.6909  143.7863  150.7254 LP  0  0  0  0  0  0  0  0  0  0  0  0  # atno 17342 bound_to 10162
  140.1345  143.4496  152.2233 LP  0  0  0  0  0  0  0  0  0  0  0  0  # atno 17343 bound_to 10162
  156.1338  130.6196  151.0371 LP  0  0  0  0  0  0  0  0  0  0  0  0  # atno 17370 bound_to 10713
  157.6733  131.0856  150.7557 LP  0  0  0  0  0  0  0  0  0  0  0  0  # atno 17371 bound_to 10713
  140.6293  134.5280  157.5557 LP  0  0  0  0  0  0  0  0  0  0  0  0  # atno 17394 bound_to 11000
  139.9252  134.8070  156.1090 LP  0  0  0  0  0  0  0  0  0  0  0  0  # atno 17395 bound_to 11000

$$$$
