AV-unprocessed.smi:2047|AV-procd|sdf|8319|dock7
  -GOLD-   2272010583D 1   1.00000     0.00000
 Structure written by MMmdl.
 42 44  0  0  0  0  0  0  0  0  3 V2000
  154.2891  141.1991  160.5076 O   0  0  0  0  0  0  0  0  0  0  0  0
  153.4561  140.4362  160.0049 C   0  0  0  0  0  0  0  0  0  0  0  0
  152.4444  140.9262  159.2686 N   0  0  0  0  0  0  0  0  0  0  0  0
  152.1485  142.2803  158.9447 C   0  0  0  0  0  0  0  0  0  0  0  0
  152.8466  143.3619  159.5389 C   0  0  0  0  0  0  0  0  0  0  0  0
  152.5112  144.6851  159.1935 C   0  0  0  0  0  0  0  0  0  0  0  0
  151.4758  144.9067  158.2683 C   0  0  0  0  0  0  0  0  0  0  0  0
  150.8176  143.8561  157.7359 N   0  3  0  0  0  0  0  0  0  0  0  0
  151.0971  142.5618  158.0301 C   0  0  0  0  0  0  0  0  0  0  0  0
  150.3235  141.5434  157.4327 N   0  0  0  0  0  0  0  0  0  0  0  0
  148.8890  141.6459  157.6900 C   0  0  0  0  0  0  0  0  0  0  0  0
  148.1839  141.2018  156.4063 C   0  0  0  0  0  0  0  0  0  0  0  0
  149.2114  141.5033  155.3225 C   0  0  0  0  0  0  0  0  0  0  0  0
  150.5312  141.1985  156.0275 C   0  0  0  0  0  0  0  0  0  0  0  0
  153.4190  139.0790  160.0789 N   0  5  0  0  0  0  0  0  0  0  0  0
  153.4728  138.1748  158.9267 C   0  0  2  0  0  0  0  0  0  0  0  0
  152.0635  137.6667  158.5632 C   0  0  0  0  0  0  0  0  0  0  0  0
  152.2026  136.4741  157.6063 C   0  0  0  0  0  0  0  0  0  0  0  0
  153.7572  135.6276  158.0886 S   0  0  0  0  0  0  0  0  0  0  0  0
  153.4388  134.4251  158.8744 O   0  0  0  0  0  0  0  0  0  0  0  0
  154.6420  135.5471  156.9157 O   0  0  0  0  0  0  0  0  0  0  0  0
  154.3475  136.9461  159.2222 C   0  0  0  0  0  0  0  0  0  0  0  0
  151.8765  140.2319  158.8060 H   0  0  0  0  0  0  0  0  0  0  0  0
  153.6280  143.1949  160.2647 H   0  0  0  0  0  0  0  0  0  0  0  0
  153.0387  145.5168  159.6370 H   0  0  0  0  0  0  0  0  0  0  0  0
  151.1492  145.8852  157.9472 H   0  0  0  0  0  0  0  0  0  0  0  0
  148.5942  141.0247  158.5360 H   0  0  0  0  0  0  0  0  0  0  0  0
  148.6227  142.6781  157.9240 H   0  0  0  0  0  0  0  0  0  0  0  0
  147.9916  140.1284  156.4421 H   0  0  0  0  0  0  0  0  0  0  0  0
  147.2324  141.7098  156.2474 H   0  0  0  0  0  0  0  0  0  0  0  0
  149.0658  140.9126  154.4178 H   0  0  0  0  0  0  0  0  0  0  0  0
  149.1678  142.5591  155.0512 H   0  0  0  0  0  0  0  0  0  0  0  0
  151.3702  141.7052  155.5514 H   0  0  0  0  0  0  0  0  0  0  0  0
  150.7394  140.1292  155.9776 H   0  0  0  0  0  0  0  0  0  0  0  0
  153.8747  138.6668  158.0394 H   0  0  0  0  0  0  0  0  0  0  0  0
  151.5544  137.3286  159.4671 H   0  0  0  0  0  0  0  0  0  0  0  0
  151.4488  138.4554  158.1281 H   0  0  0  0  0  0  0  0  0  0  0  0
  151.3625  135.7829  157.6699 H   0  0  0  0  0  0  0  0  0  0  0  0
  152.3012  136.8048  156.5712 H   0  0  0  0  0  0  0  0  0  0  0  0
  155.4092  137.1339  159.0627 H   0  0  0  0  0  0  0  0  0  0  0  0
  154.2052  136.5926  160.2440 H   0  0  0  0  0  0  0  0  0  0  0  0
  150.0624  144.0467  157.0774 H   0  0  0  0  0  0  0  0  0  0  0  0
  1  2  2  0  0  0  0
  2  3  1  0  0  0  0
  2 15  1  0  0  0  0
  3  4  1  0  0  0  0
  3 23  1  0  0  0  0
  4  9  1  0  0  0  0
  4  5  2  0  0  0  0
  5  6  1  0  0  0  0
  5 24  1  0  0  0  0
  6  7  2  0  0  0  0
  6 25  1  0  0  0  0
  7  8  1  0  0  0  0
  7 26  1  0  0  0  0
  8  9  2  0  0  0  0
  8 42  1  0  0  0  0
  9 10  1  0  0  0  0
 10 14  1  0  0  0  0
 10 11  1  0  0  0  0
 11 12  1  0  0  0  0
 11 27  1  0  0  0  0
 11 28  1  0  0  0  0
 12 13  1  0  0  0  0
 12 29  1  0  0  0  0
 12 30  1  0  0  0  0
 13 14  1  0  0  0  0
 13 31  1  0  0  0  0
 13 32  1  0  0  0  0
 14 33  1  0  0  0  0
 14 34  1  0  0  0  0
 15 16  1  0  0  0  0
 16 22  1  0  0  0  0
 16 17  1  0  0  0  0
 16 35  1  0  0  0  0
 17 18  1  0  0  0  0
 17 36  1  0  0  0  0
 17 37  1  0  0  0  0
 18 19  1  0  0  0  0
 18 38  1  0  0  0  0
 18 39  1  0  0  0  0
 19 20  2  0  0  0  0
 19 21  2  0  0  0  0
 19 22  1  0  0  0  0
 22 40  1  0  0  0  0
 22 41  1  0  0  0  0
M  CHG  1   8   1
M  CHG  1  15  -1
M  END
> <s_m_source_file>
AV-unprocessed.smi

> <i_m_source_file_index>
2047

> <i_lp_mmshare_version>
43012

> <i_f3d_flags>
0

> <s_epik_input>
Tz1TMSg9TylbQ0gyXVtDSDJdW0NASF0oW0NIMl0xKVtOSF1DKD1PKVtOSF1jMltjSF1bY0hdW2NIXW5jMk4zW0NIMl1bQ0gyXVtDSDJdW0NIMl0z

> <s_epik_cmdline>
J2VwaWtfcHl0aG9uJywgJy1waCcsICc3LjAnLCAnLXRuJywgJzgnLCAnLW1hJywgJzIwMCcsICctbWV0YWxfYmluZGluZycsICctaW1hZScsICc8aW5maWxlLm1hZT4nLCAnLW9tYWUnLCAnPG91dGZpbGUubWFlPic=

> <r_lp_tautomer_probability>
0.999994

> <r_epik_Ionization_Penalty>
8.27033

> <r_epik_Ionization_Penalty_Charging>
8.27033

> <r_epik_Ionization_Penalty_Neutral>
3.23223e-06

> <r_epik_State_Penalty>
7.90314

> <r_epik_Charging_Adjusted_Penalty>
16.1735

> <i_epik_Tot_Q>
0

> <i_epik_Tot_abs_Q>
2

> <r_epik_Metal_State_Penalty>
3.89381

> <b_epik_Metal_Only>
1

> <s_lp_Force_Field>
OPLS_2005

> <r_lp_Energy>
38.7939

> <b_lp_Chiralities_Consistent>
1

> <s_lp_Variant>
AV-unprocessed.smi:2047-5

> <Gold.Version>
5.8.1

> <Gold.Id.Protein>
6NUR|6NUR_protein|mol2

> <Gold.PLP.Fitness>
46.6846

> <Gold.PLP.PLP>
-36.5742

> <Gold.PLP.part.hbond>
-3.0191

> <Gold.PLP.part.metal>
0.0000

> <Gold.PLP.part.buried>
-7.1805

> <Gold.PLP.part.nonpolar>
-26.0553

> <Gold.PLP.part.repulsive>
0.1729

> <Gold.PLP.ligand.clash>
0.0000

> <Gold.PLP.ligand.torsion>
1.0289

> <Gold.PLP.Chemscore.Hbond>
4.0000

> <Gold.PLP.Chemscore.CHOScore>
0.0000

> <Gold.PLP.Chemscore.Metal>
0.0000

> <Gold.Chemscore.Hbonds>
donor molecule, donor type, donor heavy atom, donor atom, acceptor molecule, acceptor atom, score
      L1  H     8    42       P1  8028  2.00
      P1  H  6896  6908       L1    20  0.29
      P1  H 10752 10763       L1    21  0.67

> <Gold.PLP.Chemscore.Internal.Correction>
0.1682

> <Gold.Rescore>
     Score         DG    S(hbond)    S(metal)    S(lipo)     H(rot)  DE(clash)    DE(int)     intcor
     19.87     -22.44       2.97        0.00      87.56       1.25       0.13       2.44       ----

> <Gold.Chemscore.Fitness>
19.8722

> <Gold.Chemscore.DG>
-22.4381

> <Gold.Chemscore.ZeroCoef>
-5.4800

> <Gold.Chemscore.Hbond>
2.9667

> <Gold.Chemscore.Metal>
0.0000

> <Gold.Chemscore.Lipo>
87.5565

> <Gold.Chemscore.Internal_Hbond>
0.0000

> <Gold.Chemscore.DEClash>
0.1268

> <Gold.Chemscore.DEInternal>
2.4390

> <Gold.Chemscore.Rot>
1.2480

> <Gold.Chemscore.Internal.Correction>
   9.000000E+99

> <Gold.Chemscore.Hbonds>
donor molecule, donor type, donor heavy atom, donor atom, acceptor molecule, acceptor atom, score
      L1  H     8    42       P1  8028  0.90
      P1  H  6896  6908       L1    20  0.29
      P1  H 10752 10763       L1    21  0.68

> <Gold.Chemscore.Hbond.Weighted>
-9.9088

> <Gold.Chemscore.Metal.Weighted>
-0.0000

> <Gold.Chemscore.Lipo.Weighted>
-10.2441

> <Gold.Chemscore.Internal_Hbond.Weighted>
0.0000

> <Gold.Chemscore.DEClash.Weighted>
0.1268

> <Gold.Chemscore.DEInternal.Weighted>
2.4390

> <Gold.Chemscore.Rot.Weighted>
3.1948

> <Gold.Chemscore.Internal.Correction.Weighted>
   9.000000E+99

> <Gold.Protein.RotatedTorsions>
[ 6907 6896 6895 6894 ] final  -26.88 input  -60.11 | X-H torsion
[ 7974 7965 7964 7962 ] final   12.24 input  175.53 | X-H torsion
[ 8008 7997 7996 7995 ] final    2.12 input   59.86 | X-H torsion
[ 10167 10162 10161 10158 ] final -141.85 input  -65.29 | X-H torsion
[ 10718 10713 10712 10709 ] final   75.93 input   66.30 | X-H torsion
[ 10763 10752 10751 10750 ] final -171.67 input  -60.55 | X-H torsion
[ 11005 11000 10999 10996 ] final -168.51 input  -57.11 | X-H torsion

> <Gold.Protein.ActiveResidues>
 VAL166  LYS551  ARG553  GLY616  TRP617  ASP618  TYR619  PRO620  LYS621  CYS622 
 ASP623  PHE694  ASN695  SER759  ASP760  ASP761  ALA762  ILE779  LEU786  VAL792 
 PHE793  MET794  SER795  GLU796  ALA797  LYS798  CYS799  TRP800  GLU811  SER814 

> <Gold.Protein.RotatedAtoms>
  151.1547  135.0244  159.8683 H   0  0  0  0  0  0  0  0  0  0  0  0  # atno 6907 bound_to 6896
  152.5452  134.1348  159.8464 H   0  0  0  0  0  0  0  0  0  0  0  0  # atno 6908 bound_to 6896
  151.1437  133.4908  159.2629 H   0  0  0  0  0  0  0  0  0  0  0  0  # atno 6909 bound_to 6896
  146.2355  139.9366  142.8489 H   0  0  0  0  0  0  0  0  0  0  0  0  # atno 7974 bound_to 7965
  154.6879  140.2647  155.6842 H   0  0  0  0  0  0  0  0  0  0  0  0  # atno 8008 bound_to 7997
  156.2721  140.2797  156.1369 H   0  0  0  0  0  0  0  0  0  0  0  0  # atno 8009 bound_to 7997
  155.0939  140.0373  157.2667 H   0  0  0  0  0  0  0  0  0  0  0  0  # atno 8010 bound_to 7997
  139.8145  143.7658  152.2664 H   0  0  0  0  0  0  0  0  0  0  0  0  # atno 10167 bound_to 10162
  157.6653  130.9750  150.1424 H   0  0  0  0  0  0  0  0  0  0  0  0  # atno 10718 bound_to 10713
  154.6279  135.2883  155.0251 H   0  0  0  0  0  0  0  0  0  0  0  0  # atno 10763 bound_to 10752
  154.1422  135.6516  153.4948 H   0  0  0  0  0  0  0  0  0  0  0  0  # atno 10764 bound_to 10752
  153.0265  135.5336  154.7094 H   0  0  0  0  0  0  0  0  0  0  0  0  # atno 10765 bound_to 10752
  140.5412  134.5521  157.5100 H   0  0  0  0  0  0  0  0  0  0  0  0  # atno 11005 bound_to 11000
  145.1993  140.9847  143.4165 LP  0  0  0  0  0  0  0  0  0  0  0  0  # atno 17320 bound_to 7965
  144.9788  139.3804  143.6272 LP  0  0  0  0  0  0  0  0  0  0  0  0  # atno 17321 bound_to 7965
  139.7817  144.7442  151.0079 LP  0  0  0  0  0  0  0  0  0  0  0  0  # atno 17342 bound_to 10162
  140.7816  143.4535  151.0378 LP  0  0  0  0  0  0  0  0  0  0  0  0  # atno 17343 bound_to 10162
  156.2243  130.3676  149.8519 LP  0  0  0  0  0  0  0  0  0  0  0  0  # atno 17370 bound_to 10713
  156.6363  130.8686  151.3505 LP  0  0  0  0  0  0  0  0  0  0  0  0  # atno 17371 bound_to 10713
  139.9503  134.7628  156.0464 LP  0  0  0  0  0  0  0  0  0  0  0  0  # atno 17394 bound_to 11000
  141.1226  133.6608  156.3254 LP  0  0  0  0  0  0  0  0  0  0  0  0  # atno 17395 bound_to 11000

$$$$
