AV-unprocessed.smi:2570|AV-procd|sdf|10106|dock2
  -GOLD-   2272014123D 1   1.00000     0.00000
 Structure written by MMmdl.
 32 33  0  0  0  0  0  0  0  0  1 V2000
  145.6001  143.3768  154.6965 C   0  0  0  0  0  0  0  0  0  0  0  0
  146.2626  142.6308  155.7159 O   0  0  0  0  0  0  0  0  0  0  0  0
  147.3239  141.8360  155.3185 C   0  0  0  0  0  0  0  0  0  0  0  0
  147.1303  140.9355  154.2014 C   0  0  0  0  0  0  0  0  0  0  0  0
  148.1585  140.1561  153.8024 C   0  0  0  0  0  0  0  0  0  0  0  0
  149.4600  140.1975  154.4686 C   0  0  0  0  0  0  0  0  0  0  0  0
  150.4147  139.4992  154.1277 O   0  0  0  0  0  0  0  0  0  0  0  0
  149.5190  141.0818  155.5086 N   0  0  0  0  0  0  0  0  0  0  0  0
  150.7464  141.2557  156.2949 C   0  0  0  0  0  0  0  0  0  0  0  0
  150.6585  142.4528  157.2677 C   0  0  2  0  0  0  0  0  0  0  0  0
  151.0081  143.6367  156.5773 O   0  0  0  0  0  0  0  0  0  0  0  0
  151.5396  142.2362  158.4915 C   0  0  0  0  0  0  0  0  0  0  0  0
  152.0517  140.9473  158.7569 C   0  0  0  0  0  0  0  0  0  0  0  0
  152.8735  140.7231  159.8782 C   0  0  0  0  0  0  0  0  0  0  0  0
  153.1910  141.7871  160.7430 C   0  0  0  0  0  0  0  0  0  0  0  0
  153.9799  141.5714  161.8221 F   0  0  0  0  0  0  0  0  0  0  0  0
  152.6889  143.0762  160.4831 C   0  0  0  0  0  0  0  0  0  0  0  0
  151.8681  143.3038  159.3612 C   0  0  0  0  0  0  0  0  0  0  0  0
  151.4032  144.5544  159.1255 F   0  0  0  0  0  0  0  0  0  0  0  0
  148.4701  141.8854  155.9205 N   0  0  0  0  0  0  0  0  0  0  0  0
  144.7893  143.9507  155.1448 H   0  0  0  0  0  0  0  0  0  0  0  0
  145.1581  142.7268  153.9392 H   0  0  0  0  0  0  0  0  0  0  0  0
  146.2719  144.0867  154.2108 H   0  0  0  0  0  0  0  0  0  0  0  0
  146.1739  140.8968  153.7012 H   0  0  0  0  0  0  0  0  0  0  0  0
  148.0182  139.4832  152.9692 H   0  0  0  0  0  0  0  0  0  0  0  0
  150.9180  140.3392  156.8627 H   0  0  0  0  0  0  0  0  0  0  0  0
  151.6180  141.3518  155.6444 H   0  0  0  0  0  0  0  0  0  0  0  0
  149.6310  142.5762  157.6114 H   0  0  0  0  0  0  0  0  0  0  0  0
  150.2240  144.1456  156.4388 H   0  0  0  0  0  0  0  0  0  0  0  0
  151.8177  140.1229  158.0993 H   0  0  0  0  0  0  0  0  0  0  0  0
  153.2609  139.7340  160.0741 H   0  0  0  0  0  0  0  0  0  0  0  0
  152.9355  143.8936  161.1447 H   0  0  0  0  0  0  0  0  0  0  0  0
  1  2  1  0  0  0  0
  1 21  1  0  0  0  0
  1 22  1  0  0  0  0
  1 23  1  0  0  0  0
  2  3  1  0  0  0  0
  3 20  2  0  0  0  0
  3  4  1  0  0  0  0
  4  5  2  0  0  0  0
  4 24  1  0  0  0  0
  5  6  1  0  0  0  0
  5 25  1  0  0  0  0
  6  7  2  0  0  0  0
  6  8  1  0  0  0  0
  8  9  1  0  0  0  0
  8 20  1  0  0  0  0
  9 10  1  0  0  0  0
  9 26  1  0  0  0  0
  9 27  1  0  0  0  0
 10 11  1  0  0  0  0
 10 12  1  0  0  0  0
 10 28  1  0  0  0  0
 11 29  1  0  0  0  0
 12 18  1  0  0  0  0
 12 13  2  0  0  0  0
 13 14  1  0  0  0  0
 13 30  1  0  0  0  0
 14 15  2  0  0  0  0
 14 31  1  0  0  0  0
 15 16  1  0  0  0  0
 15 17  1  0  0  0  0
 17 18  2  0  0  0  0
 17 32  1  0  0  0  0
 18 19  1  0  0  0  0
M  END
> <s_m_source_file>
AV-unprocessed.smi

> <i_m_source_file_index>
2570

> <i_lp_mmshare_version>
43012

> <i_f3d_flags>
0

> <s_epik_input>
W0NIM11PYzFbY0hdW2NIXWMoPU8pbihuMSlbQ0gyXVtDQEhdKFtPSF0pYzJbY0hdW2NIXWMoRilbY0hdYzJG

> <s_epik_cmdline>
J2VwaWtfcHl0aG9uJywgJy1waCcsICc3LjAnLCAnLXRuJywgJzgnLCAnLW1hJywgJzIwMCcsICctbWV0YWxfYmluZGluZycsICctaW1hZScsICc8aW5maWxlLm1hZT4nLCAnLW9tYWUnLCAnPG91dGZpbGUubWFlPic=

> <r_lp_tautomer_probability>
1

> <r_epik_Ionization_Penalty>
6.40224e-06

> <r_epik_Ionization_Penalty_Charging>
4.38647e-06

> <r_epik_Ionization_Penalty_Neutral>
2.01577e-06

> <r_epik_State_Penalty>
-0

> <r_epik_Charging_Adjusted_Penalty>
4.38647e-06

> <i_epik_Tot_Q>
0

> <i_epik_Tot_abs_Q>
0

> <r_epik_Metal_State_Penalty>
-0

> <b_epik_Metal_Only>
0

> <s_lp_Force_Field>
OPLS_2005

> <r_lp_Energy>
30.8929

> <b_lp_Chiralities_Consistent>
1

> <s_lp_Variant>
AV-unprocessed.smi:2570-1

> <Gold.Version>
5.8.1

> <Gold.Id.Protein>
6NUR|6NUR_protein|mol2

> <Gold.PLP.Fitness>
47.7848

> <Gold.PLP.PLP>
-43.5009

> <Gold.PLP.part.hbond>
-1.9374

> <Gold.PLP.part.metal>
0.0000

> <Gold.PLP.part.buried>
-3.8900

> <Gold.PLP.part.nonpolar>
-40.1895

> <Gold.PLP.part.repulsive>
2.3533

> <Gold.PLP.ligand.clash>
0.0000

> <Gold.PLP.ligand.torsion>
0.8714

> <Gold.PLP.Chemscore.Hbond>
2.0000

> <Gold.PLP.Chemscore.CHOScore>
0.0000

> <Gold.PLP.Chemscore.Metal>
0.0000

> <Gold.Chemscore.Hbonds>
donor molecule, donor type, donor heavy atom, donor atom, acceptor molecule, acceptor atom, score
      L1  H    11    29       P1  8028  1.00
      P1  H  7989  7998       L1     7  1.00

> <Gold.PLP.Chemscore.Internal.Correction>
0.0266

> <Gold.Rescore>
     Score         DG    S(hbond)    S(metal)    S(lipo)     H(rot)  DE(clash)    DE(int)     intcor
     12.65     -14.76       1.67        0.00      85.22       2.45       0.05       2.06       ----

> <Gold.Chemscore.Fitness>
12.6531

> <Gold.Chemscore.DG>
-14.7616

> <Gold.Chemscore.ZeroCoef>
-5.4800

> <Gold.Chemscore.Hbond>
1.6740

> <Gold.Chemscore.Metal>
0.0000

> <Gold.Chemscore.Lipo>
85.2223

> <Gold.Chemscore.Internal_Hbond>
0.0000

> <Gold.Chemscore.DEClash>
0.0513

> <Gold.Chemscore.DEInternal>
2.0573

> <Gold.Chemscore.Rot>
2.4533

> <Gold.Chemscore.Internal.Correction>
   9.000000E+99

> <Gold.Chemscore.Hbonds>
donor molecule, donor type, donor heavy atom, donor atom, acceptor molecule, acceptor atom, score
      L1  H    11    29       P1  8028  0.99
      P1  H  7989  7998       L1     7  0.25

> <Gold.Chemscore.Hbond.Weighted>
-5.5910

> <Gold.Chemscore.Metal.Weighted>
-0.0000

> <Gold.Chemscore.Lipo.Weighted>
-9.9710

> <Gold.Chemscore.Internal_Hbond.Weighted>
0.0000

> <Gold.Chemscore.DEClash.Weighted>
0.0513

> <Gold.Chemscore.DEInternal.Weighted>
2.0573

> <Gold.Chemscore.Rot.Weighted>
6.2804

> <Gold.Chemscore.Internal.Correction.Weighted>
   9.000000E+99

> <Gold.Protein.RotatedTorsions>
[ 6907 6896 6895 6894 ] final  120.04 input  -60.11 | X-H torsion
[ 7974 7965 7964 7962 ] final  138.21 input  175.53 | X-H torsion
[ 8008 7997 7996 7995 ] final -126.93 input   59.86 | X-H torsion
[ 10167 10162 10161 10158 ] final  116.25 input  -65.29 | X-H torsion
[ 10718 10713 10712 10709 ] final  -36.73 input   66.30 | X-H torsion
[ 10763 10752 10751 10750 ] final  124.38 input  -60.55 | X-H torsion
[ 11005 11000 10999 10996 ] final  138.80 input  -57.11 | X-H torsion

> <Gold.Protein.ActiveResidues>
 VAL166  LYS551  ARG553  GLY616  TRP617  ASP618  TYR619  PRO620  LYS621  CYS622 
 ASP623  PHE694  ASN695  SER759  ASP760  ASP761  ALA762  ILE779  LEU786  VAL792 
 PHE793  MET794  SER795  GLU796  ALA797  LYS798  CYS799  TRP800  GLU811  SER814 

> <Gold.Protein.RotatedAtoms>
  152.4428  133.7479  159.6677 H   0  0  0  0  0  0  0  0  0  0  0  0  # atno 6907 bound_to 6896
  150.8321  133.8063  159.3100 H   0  0  0  0  0  0  0  0  0  0  0  0  # atno 6908 bound_to 6896
  151.5713  135.1065  160.0047 H   0  0  0  0  0  0  0  0  0  0  0  0  # atno 6909 bound_to 6896
  144.9394  139.4949  143.5579 H   0  0  0  0  0  0  0  0  0  0  0  0  # atno 7974 bound_to 7965
  155.2377  140.0427  157.2971 H   0  0  0  0  0  0  0  0  0  0  0  0  # atno 8008 bound_to 7997
  154.5848  140.2410  155.7973 H   0  0  0  0  0  0  0  0  0  0  0  0  # atno 8009 bound_to 7997
  156.2218  140.2967  155.9979 H   0  0  0  0  0  0  0  0  0  0  0  0  # atno 8010 bound_to 7997
  139.6260  144.7108  151.2533 H   0  0  0  0  0  0  0  0  0  0  0  0  # atno 10167 bound_to 10162
  156.3235  130.4269  149.7938 H   0  0  0  0  0  0  0  0  0  0  0  0  # atno 10718 bound_to 10713
  153.6604  135.3347  155.3125 H   0  0  0  0  0  0  0  0  0  0  0  0  # atno 10763 bound_to 10752
  154.8516  135.4362  154.1810 H   0  0  0  0  0  0  0  0  0  0  0  0  # atno 10764 bound_to 10752
  153.2775  135.7006  153.7493 H   0  0  0  0  0  0  0  0  0  0  0  0  # atno 10765 bound_to 10752
  140.0209  134.9397  157.0472 H   0  0  0  0  0  0  0  0  0  0  0  0  # atno 11005 bound_to 11000
  146.3280  139.8403  142.8892 LP  0  0  0  0  0  0  0  0  0  0  0  0  # atno 17320 bound_to 7965
  145.3015  141.0195  143.3606 LP  0  0  0  0  0  0  0  0  0  0  0  0  # atno 17321 bound_to 7965
  140.7411  143.6567  150.8200 LP  0  0  0  0  0  0  0  0  0  0  0  0  # atno 17342 bound_to 10162
  140.0185  143.5567  152.2810 LP  0  0  0  0  0  0  0  0  0  0  0  0  # atno 17343 bound_to 10162
  156.5237  130.8226  151.3213 LP  0  0  0  0  0  0  0  0  0  0  0  0  # atno 17370 bound_to 10713
  157.7416  130.9874  150.2460 LP  0  0  0  0  0  0  0  0  0  0  0  0  # atno 17371 bound_to 10713
  140.4389  134.1702  155.7172 LP  0  0  0  0  0  0  0  0  0  0  0  0  # atno 17394 bound_to 11000
  141.1773  133.8487  157.1378 LP  0  0  0  0  0  0  0  0  0  0  0  0  # atno 17395 bound_to 11000

$$$$
