AV-unprocessed.smi:2802|AV-procd|sdf|10803|dock7
  -GOLD-   2272015233D 1   1.00000     0.00000
 Structure written by MMmdl.
 47 48  0  0  0  0  0  0  0  0  1 V2000
  153.1771  138.7202  154.5702 C   0  0  0  0  0  0  0  0  0  0  0  0
  151.7992  138.5820  155.2342 C   0  0  2  0  0  0  0  0  0  0  0  0
  151.4293  137.1017  155.4407 C   0  0  0  0  0  0  0  0  0  0  0  0
  150.0462  136.8971  156.1013 C   0  0  0  0  0  0  0  0  0  0  0  0
  149.6765  135.4027  156.0083 C   0  0  0  0  0  0  0  0  0  0  0  0
  150.0939  137.2550  157.6041 C   0  0  0  0  0  0  0  0  0  0  0  0
  148.9691  137.7137  155.3315 C   0  0  0  0  0  0  0  0  0  0  0  0
  149.2970  139.2083  155.0344 C   0  0  1  0  0  0  0  0  0  0  0  0
  148.2552  139.7598  154.0209 C   0  0  0  0  0  0  0  0  0  0  0  0
  148.1793  138.9730  152.8476 O   0  0  0  0  0  0  0  0  0  0  0  0
  149.2831  140.0236  156.2592 N   0  0  0  0  0  0  0  0  0  0  0  0
  149.6207  141.3159  156.4185 C   0  0  0  0  0  0  0  0  0  0  0  0
  150.0197  142.0397  155.5062 O   0  0  0  0  0  0  0  0  0  0  0  0
  149.4776  141.8698  157.8394 C   0  0  0  0  0  0  0  0  0  0  0  0
  150.7692  142.5113  158.3180 C   0  0  0  0  0  0  0  0  0  0  0  0
  151.6015  141.8578  159.2509 C   0  0  0  0  0  0  0  0  0  0  0  0
  152.7874  142.4942  159.6647 C   0  0  0  0  0  0  0  0  0  0  0  0
  153.0928  143.7596  159.1248 C   0  0  0  0  0  0  0  0  0  0  0  0
  152.3047  144.3946  158.2306 N   0  0  0  0  0  0  0  0  0  0  0  0
  151.1678  143.7785  157.8411 C   0  0  0  0  0  0  0  0  0  0  0  0
  150.7112  139.2924  154.4066 C   0  0  0  0  0  0  0  0  0  0  0  0
  153.1901  138.2597  153.5819 H   0  0  0  0  0  0  0  0  0  0  0  0
  153.9523  138.2426  155.1701 H   0  0  0  0  0  0  0  0  0  0  0  0
  153.4530  139.7685  154.4523 H   0  0  0  0  0  0  0  0  0  0  0  0
  151.8693  139.0673  156.2073 H   0  0  0  0  0  0  0  0  0  0  0  0
  151.4404  136.6060  154.4684 H   0  0  0  0  0  0  0  0  0  0  0  0
  152.1997  136.6077  156.0346 H   0  0  0  0  0  0  0  0  0  0  0  0
  148.7047  135.2054  156.4626 H   0  0  0  0  0  0  0  0  0  0  0  0
  150.4101  134.7778  156.5193 H   0  0  0  0  0  0  0  0  0  0  0  0
  149.6275  135.0631  154.9731 H   0  0  0  0  0  0  0  0  0  0  0  0
  149.1071  137.1722  158.0606 H   0  0  0  0  0  0  0  0  0  0  0  0
  150.4556  138.2634  157.7918 H   0  0  0  0  0  0  0  0  0  0  0  0
  150.7598  136.5830  158.1466 H   0  0  0  0  0  0  0  0  0  0  0  0
  148.8193  137.2241  154.3678 H   0  0  0  0  0  0  0  0  0  0  0  0
  148.0074  137.6214  155.8364 H   0  0  0  0  0  0  0  0  0  0  0  0
  147.2624  139.7772  154.4719 H   0  0  0  0  0  0  0  0  0  0  0  0
  148.4732  140.7893  153.7379 H   0  0  0  0  0  0  0  0  0  0  0  0
  148.6869  139.3942  152.1708 H   0  0  0  0  0  0  0  0  0  0  0  0
  148.9758  139.5386  157.0895 H   0  0  0  0  0  0  0  0  0  0  0  0
  148.6764  142.6096  157.8788 H   0  0  0  0  0  0  0  0  0  0  0  0
  149.1927  141.0581  158.5095 H   0  0  0  0  0  0  0  0  0  0  0  0
  151.3359  140.8877  159.6443 H   0  0  0  0  0  0  0  0  0  0  0  0
  153.4474  142.0243  160.3789 H   0  0  0  0  0  0  0  0  0  0  0  0
  153.9952  144.2752  159.4182 H   0  0  0  0  0  0  0  0  0  0  0  0
  150.5585  144.3139  157.1279 H   0  0  0  0  0  0  0  0  0  0  0  0
  150.9943  140.3360  154.2623 H   0  0  0  0  0  0  0  0  0  0  0  0
  150.6879  138.8503  153.4094 H   0  0  0  0  0  0  0  0  0  0  0  0
  1  2  1  0  0  0  0
  1 22  1  0  0  0  0
  1 23  1  0  0  0  0
  1 24  1  0  0  0  0
  2 21  1  0  0  0  0
  2  3  1  0  0  0  0
  2 25  1  0  0  0  0
  3  4  1  0  0  0  0
  3 26  1  0  0  0  0
  3 27  1  0  0  0  0
  4  5  1  0  0  0  0
  4  6  1  0  0  0  0
  4  7  1  0  0  0  0
  5 28  1  0  0  0  0
  5 29  1  0  0  0  0
  5 30  1  0  0  0  0
  6 31  1  0  0  0  0
  6 32  1  0  0  0  0
  6 33  1  0  0  0  0
  7  8  1  0  0  0  0
  7 34  1  0  0  0  0
  7 35  1  0  0  0  0
  8  9  1  0  0  0  0
  8 11  1  0  0  0  0
  8 21  1  0  0  0  0
  9 10  1  0  0  0  0
  9 36  1  0  0  0  0
  9 37  1  0  0  0  0
 10 38  1  0  0  0  0
 11 12  1  0  0  0  0
 11 39  1  0  0  0  0
 12 13  2  0  0  0  0
 12 14  1  0  0  0  0
 14 15  1  0  0  0  0
 14 40  1  0  0  0  0
 14 41  1  0  0  0  0
 15 20  1  0  0  0  0
 15 16  2  0  0  0  0
 16 17  1  0  0  0  0
 16 42  1  0  0  0  0
 17 18  2  0  0  0  0
 17 43  1  0  0  0  0
 18 19  1  0  0  0  0
 18 44  1  0  0  0  0
 19 20  2  0  0  0  0
 20 45  1  0  0  0  0
 21 46  1  0  0  0  0
 21 47  1  0  0  0  0
M  END
> <s_m_source_file>
AV-unprocessed.smi

> <i_m_source_file_index>
2802

> <i_lp_mmshare_version>
43012

> <i_f3d_flags>
0

> <s_epik_input>
W0NIM11DMShbQ0gzXSlbQ0gyXVtDQEBIXShbQ0gzXSlbQ0gyXVtDQF0oW0NIMl0xKShbQ0gyXVtPSF0pW05IXUMoPU8pW0NIMl1jMltjSF1bY0hdW2NIXW5bY0hdMg==

> <s_epik_cmdline>
J2VwaWtfcHl0aG9uJywgJy1waCcsICc3LjAnLCAnLXRuJywgJzgnLCAnLW1hJywgJzIwMCcsICctbWV0YWxfYmluZGluZycsICctaW1hZScsICc8aW5maWxlLm1hZT4nLCAnLW9tYWUnLCAnPG91dGZpbGUubWFlPic=

> <r_epik_Ionization_Penalty>
0.004793

> <r_epik_Ionization_Penalty_Charging>
0

> <r_epik_Ionization_Penalty_Neutral>
0.004793

> <r_epik_State_Penalty>
0.00347421

> <r_epik_Charging_Adjusted_Penalty>
0.00347421

> <i_epik_Tot_Q>
0

> <i_epik_Tot_abs_Q>
0

> <r_epik_Metal_State_Penalty>
-0

> <b_epik_Metal_Only>
0

> <s_lp_Force_Field>
OPLS_2005

> <r_lp_Energy>
18.2871

> <b_lp_Chiralities_Consistent>
1

> <s_lp_Variant>
AV-unprocessed.smi:2802-1

> <Gold.Version>
5.8.1

> <Gold.Id.Protein>
6NUR|6NUR_protein|mol2

> <Gold.PLP.Fitness>
40.7288

> <Gold.PLP.PLP>
-35.3136

> <Gold.PLP.part.hbond>
-1.8043

> <Gold.PLP.part.metal>
0.0000

> <Gold.PLP.part.buried>
-4.9049

> <Gold.PLP.part.nonpolar>
-29.5580

> <Gold.PLP.part.repulsive>
0.8325

> <Gold.PLP.ligand.clash>
0.0000

> <Gold.PLP.ligand.torsion>
0.2953

> <Gold.PLP.Chemscore.Hbond>
1.0000

> <Gold.PLP.Chemscore.CHOScore>
1.0000

> <Gold.PLP.Chemscore.Metal>
0.0000

> <Gold.Chemscore.Hbonds>
donor molecule, donor type, donor heavy atom, donor atom, acceptor molecule, acceptor atom, score
      L1  H    10    38       P1  7957  0.93
      L1  C    20    45       P1  8028  1.00

> <Gold.PLP.Chemscore.Internal.Correction>
0.0058

> <Gold.Rescore>
     Score         DG    S(hbond)    S(metal)    S(lipo)     H(rot)  DE(clash)    DE(int)     intcor
     15.99     -16.30       1.00        0.00     107.84       2.00       0.13       0.18       ----

> <Gold.Chemscore.Fitness>
15.9852

> <Gold.Chemscore.DG>
-16.3008

> <Gold.Chemscore.ZeroCoef>
-5.4800

> <Gold.Chemscore.Hbond>
0.9972

> <Gold.Chemscore.Metal>
0.0000

> <Gold.Chemscore.Lipo>
107.8353

> <Gold.Chemscore.Internal_Hbond>
0.0000

> <Gold.Chemscore.DEClash>
0.1344

> <Gold.Chemscore.DEInternal>
0.1812

> <Gold.Chemscore.Rot>
2.0026

> <Gold.Chemscore.Internal.Correction>
   9.000000E+99

> <Gold.Chemscore.Hbonds>
donor molecule, donor type, donor heavy atom, donor atom, acceptor molecule, acceptor atom, score
      L1  H    10    38       P1  7957  0.89

> <Gold.Chemscore.Hbond.Weighted>
-3.3307

> <Gold.Chemscore.Metal.Weighted>
-0.0000

> <Gold.Chemscore.Lipo.Weighted>
-12.6167

> <Gold.Chemscore.Internal_Hbond.Weighted>
0.0000

> <Gold.Chemscore.DEClash.Weighted>
0.1344

> <Gold.Chemscore.DEInternal.Weighted>
0.1812

> <Gold.Chemscore.Rot.Weighted>
5.1267

> <Gold.Chemscore.Internal.Correction.Weighted>
   9.000000E+99

> <Gold.Protein.RotatedTorsions>
[ 6907 6896 6895 6894 ] final  101.65 input  -60.11 | X-H torsion
[ 7974 7965 7964 7962 ] final   -9.67 input  175.53 | X-H torsion
[ 8008 7997 7996 7995 ] final   57.62 input   59.86 | X-H torsion
[ 10167 10162 10161 10158 ] final -118.46 input  -65.29 | X-H torsion
[ 10718 10713 10712 10709 ] final   -1.74 input   66.30 | X-H torsion
[ 10763 10752 10751 10750 ] final  -76.46 input  -60.55 | X-H torsion
[ 11005 11000 10999 10996 ] final -105.54 input  -57.11 | X-H torsion

> <Gold.Protein.ActiveResidues>
 VAL166  LYS551  ARG553  GLY616  TRP617  ASP618  TYR619  PRO620  LYS621  CYS622 
 ASP623  PHE694  ASN695  SER759  ASP760  ASP761  ALA762  ILE779  LEU786  VAL792 
 PHE793  MET794  SER795  GLU796  ALA797  LYS798  CYS799  TRP800  GLU811  SER814 

> <Gold.Protein.RotatedAtoms>
  152.5344  134.0094  159.7931 H   0  0  0  0  0  0  0  0  0  0  0  0  # atno 6907 bound_to 6896
  151.0299  133.5792  159.2669 H   0  0  0  0  0  0  0  0  0  0  0  0  # atno 6908 bound_to 6896
  151.2800  135.0718  159.9219 H   0  0  0  0  0  0  0  0  0  0  0  0  # atno 6909 bound_to 6896
  146.2244  140.2650  142.8353 H   0  0  0  0  0  0  0  0  0  0  0  0  # atno 7974 bound_to 7965
  155.5368  140.3483  155.4438 H   0  0  0  0  0  0  0  0  0  0  0  0  # atno 8008 bound_to 7997
  156.0679  140.1356  156.9890 H   0  0  0  0  0  0  0  0  0  0  0  0  # atno 8009 bound_to 7997
  154.4513  140.0971  156.6600 H   0  0  0  0  0  0  0  0  0  0  0  0  # atno 8010 bound_to 7997
  140.0573  143.5002  152.2051 H   0  0  0  0  0  0  0  0  0  0  0  0  # atno 10167 bound_to 10162
  156.8012  130.5393  149.5721 H   0  0  0  0  0  0  0  0  0  0  0  0  # atno 10718 bound_to 10713
  154.5001  135.5797  153.6525 H   0  0  0  0  0  0  0  0  0  0  0  0  # atno 10763 bound_to 10752
  152.9877  135.6134  154.3013 H   0  0  0  0  0  0  0  0  0  0  0  0  # atno 10764 bound_to 10752
  154.2920  135.2848  155.2630 H   0  0  0  0  0  0  0  0  0  0  0  0  # atno 10765 bound_to 10752
  141.1048  133.8816  157.1746 H   0  0  0  0  0  0  0  0  0  0  0  0  # atno 11005 bound_to 11000
  144.9310  140.7975  143.5689 LP  0  0  0  0  0  0  0  0  0  0  0  0  # atno 17320 bound_to 7965
  145.2594  139.1998  143.4900 LP  0  0  0  0  0  0  0  0  0  0  0  0  # atno 17321 bound_to 7965
  139.5916  144.7552  151.3388 LP  0  0  0  0  0  0  0  0  0  0  0  0  # atno 17342 bound_to 10162
  140.7189  143.7191  150.7709 LP  0  0  0  0  0  0  0  0  0  0  0  0  # atno 17343 bound_to 10162
  156.1100  130.6033  151.0032 LP  0  0  0  0  0  0  0  0  0  0  0  0  # atno 17370 bound_to 10713
  157.6553  131.0890  150.7961 LP  0  0  0  0  0  0  0  0  0  0  0  0  # atno 17371 bound_to 10713
  139.9914  135.0063  156.9984 LP  0  0  0  0  0  0  0  0  0  0  0  0  # atno 17394 bound_to 11000
  140.4929  134.1175  155.7236 LP  0  0  0  0  0  0  0  0  0  0  0  0  # atno 17395 bound_to 11000

$$$$
