AV-unprocessed.smi:1|AV-procd|sdf|12|dock7
  -GOLD-   2262015103D 1   1.00000     0.00000
 Structure written by MMmdl.
 57 62  0  0  0  0  0  0  0  0  1 V2000
  153.9464  141.2363  159.9291 O   0  0  0  0  0  0  0  0  0  0  0  0
  152.8184  141.5798  159.5650 C   0  0  0  0  0  0  0  0  0  0  0  0
  151.8318  140.8187  158.9518 N   0  0  0  0  0  0  0  0  0  0  0  0
  151.9121  139.5225  158.9546 C   0  0  0  0  0  0  0  0  0  0  0  0
  152.8577  138.6347  159.4828 N   0  0  0  0  0  0  0  0  0  0  0  0
  152.8029  137.2349  159.4085 C   0  0  0  0  0  0  0  0  0  0  0  0
  151.8502  136.5552  158.8291 N   0  0  0  0  0  0  0  0  0  0  0  0
  150.8835  137.3871  158.2822 C   0  0  0  0  0  0  0  0  0  0  0  0
  150.8292  138.7651  158.2896 C   0  0  0  0  0  0  0  0  0  0  0  0
  149.6948  139.2201  157.6274 N   0  0  0  0  0  0  0  0  0  0  0  0
  149.1086  138.0892  157.2458 C   0  0  0  0  0  0  0  0  0  0  0  0
  149.7451  136.9569  157.5998 N   0  0  0  0  0  0  0  0  0  0  0  0
  149.2936  135.5659  157.2783 C   0  0  1  0  0  0  0  0  0  0  0  0
  147.9945  135.6108  156.7658 O   0  0  0  0  0  0  0  0  0  0  0  0
  147.9624  135.1300  155.4243 C   0  0  2  0  0  0  0  0  0  0  0  0
  146.6232  134.4510  155.1148 C   0  0  0  0  0  0  0  0  0  0  0  0
  146.3132  134.6471  153.7453 O   0  0  0  0  0  0  0  0  0  0  0  0
  146.4448  133.6315  152.8710 C   0  0  0  0  0  0  0  0  0  0  0  0
  147.2722  132.7264  152.9963 O   0  0  0  0  0  0  0  0  0  0  0  0
  145.4820  133.7165  151.7350 C   0  0  0  0  0  0  0  0  0  0  0  0
  145.2031  132.5566  150.9749 C   0  0  0  0  0  0  0  0  0  0  0  0
  144.2949  132.6049  149.8995 C   0  0  0  0  0  0  0  0  0  0  0  0
  143.6545  133.8139  149.5710 C   0  0  0  0  0  0  0  0  0  0  0  0
  143.9239  134.9748  150.3190 C   0  0  0  0  0  0  0  0  0  0  0  0
  144.8320  134.9286  151.3947 C   0  0  0  0  0  0  0  0  0  0  0  0
  149.1776  134.2095  155.3261 C   0  0  2  0  0  0  0  0  0  0  0  0
  148.8988  132.9265  155.8625 O   0  0  0  0  0  0  0  0  0  0  0  0
  150.2026  132.4493  156.7910 S   0  0  0  0  0  0  0  0  0  0  0  0
  149.7178  132.1526  158.1475 O   0  0  0  0  0  0  0  0  0  0  0  0
  151.0029  131.4951  156.0085 O   0  0  0  0  0  0  0  0  0  0  0  0
  151.0195  133.9074  156.8307 O   0  0  0  0  0  0  0  0  0  0  0  0
  150.2006  134.8981  156.2339 C   0  0  2  0  0  0  0  0  0  0  0  0
  152.4226  143.0059  159.7684 C   0  0  0  0  0  0  0  0  0  0  0  0
  152.2961  143.5259  161.0740 C   0  0  0  0  0  0  0  0  0  0  0  0
  151.9285  144.8723  161.2652 C   0  0  0  0  0  0  0  0  0  0  0  0
  151.6886  145.7023  160.1531 C   0  0  0  0  0  0  0  0  0  0  0  0
  151.8168  145.1865  158.8489 C   0  0  0  0  0  0  0  0  0  0  0  0
  152.1842  143.8403  158.6559 C   0  0  0  0  0  0  0  0  0  0  0  0
  153.6441  136.7317  159.8872 H   0  0  0  0  0  0  0  0  0  0  0  0
  148.1826  138.0850  156.6897 H   0  0  0  0  0  0  0  0  0  0  0  0
  149.2811  135.0435  158.2360 H   0  0  0  0  0  0  0  0  0  0  0  0
  148.1096  135.9683  154.7442 H   0  0  0  0  0  0  0  0  0  0  0  0
  146.6956  133.3807  155.3135 H   0  0  0  0  0  0  0  0  0  0  0  0
  145.8315  134.8530  155.7487 H   0  0  0  0  0  0  0  0  0  0  0  0
  145.6819  131.6167  151.2090 H   0  0  0  0  0  0  0  0  0  0  0  0
  144.0893  131.7125  149.3270 H   0  0  0  0  0  0  0  0  0  0  0  0
  142.9571  133.8499  148.7471 H   0  0  0  0  0  0  0  0  0  0  0  0
  143.4323  135.9033  150.0683 H   0  0  0  0  0  0  0  0  0  0  0  0
  145.0150  135.8378  151.9486 H   0  0  0  0  0  0  0  0  0  0  0  0
  149.5357  134.0980  154.3020 H   0  0  0  0  0  0  0  0  0  0  0  0
  150.7872  135.6369  155.6874 H   0  0  0  0  0  0  0  0  0  0  0  0
  152.4797  142.8957  161.9321 H   0  0  0  0  0  0  0  0  0  0  0  0
  151.8311  145.2686  162.2652 H   0  0  0  0  0  0  0  0  0  0  0  0
  151.4070  146.7344  160.3006 H   0  0  0  0  0  0  0  0  0  0  0  0
  151.6335  145.8234  157.9962 H   0  0  0  0  0  0  0  0  0  0  0  0
  152.2825  143.4521  157.6523 H   0  0  0  0  0  0  0  0  0  0  0  0
  153.6494  139.0412  159.9607 H   0  0  0  0  0  0  0  0  0  0  0  0
  1  2  2  0  0  0  0
  2  3  1  0  0  0  0
  2 33  1  0  0  0  0
  3  4  2  0  0  0  0
  4  9  1  0  0  0  0
  4  5  1  0  0  0  0
  5  6  1  0  0  0  0
  5 57  1  0  0  0  0
  6  7  2  0  0  0  0
  6 39  1  0  0  0  0
  7  8  1  0  0  0  0
  8 12  1  0  0  0  0
  8  9  2  0  0  0  0
  9 10  1  0  0  0  0
 10 11  2  0  0  0  0
 11 12  1  0  0  0  0
 11 40  1  0  0  0  0
 12 13  1  0  0  0  0
 13 32  1  0  0  0  0
 13 14  1  0  0  0  0
 13 41  1  0  0  0  0
 14 15  1  0  0  0  0
 15 16  1  0  0  0  0
 15 26  1  0  0  0  0
 15 42  1  0  0  0  0
 16 17  1  0  0  0  0
 16 43  1  0  0  0  0
 16 44  1  0  0  0  0
 17 18  1  0  0  0  0
 18 19  2  0  0  0  0
 18 20  1  0  0  0  0
 20 25  1  0  0  0  0
 20 21  2  0  0  0  0
 21 22  1  0  0  0  0
 21 45  1  0  0  0  0
 22 23  2  0  0  0  0
 22 46  1  0  0  0  0
 23 24  1  0  0  0  0
 23 47  1  0  0  0  0
 24 25  2  0  0  0  0
 24 48  1  0  0  0  0
 25 49  1  0  0  0  0
 26 32  1  0  0  0  0
 26 27  1  0  0  0  0
 26 50  1  0  0  0  0
 27 28  1  0  0  0  0
 28 29  2  0  0  0  0
 28 30  2  0  0  0  0
 28 31  1  0  0  0  0
 31 32  1  0  0  0  0
 32 51  1  0  0  0  0
 33 38  1  0  0  0  0
 33 34  2  0  0  0  0
 34 35  1  0  0  0  0
 34 52  1  0  0  0  0
 35 36  2  0  0  0  0
 35 53  1  0  0  0  0
 36 37  1  0  0  0  0
 36 54  1  0  0  0  0
 37 38  2  0  0  0  0
 37 55  1  0  0  0  0
 38 56  1  0  0  0  0
M  END
> <s_m_source_file>
AV-unprocessed.smi

> <i_m_source_file_index>
1

> <i_lp_mmshare_version>
43012

> <i_f3d_flags>
0

> <s_epik_input>
W2NIXTFbY0hdW2NIXVtjSF1bY0hdYzFDKD1PKVtOSF1jKG5bY0hdbjIpYyhjMjMpbltjSF1uM1tDQEBIXShbQ0BIXShbQ0BIXTQ1KU9TKE81KSg9Tyk9TylPW0NASF00W0NIMl1PQyg9TyljNltjSF1bY0hdW2NIXVtjSF1bY0hdNg==

> <s_epik_cmdline>
J2VwaWtfcHl0aG9uJywgJy1waCcsICc3LjAnLCAnLXRuJywgJzgnLCAnLW1hJywgJzIwMCcsICctbWV0YWxfYmluZGluZycsICctaW1hZScsICc8aW5maWxlLm1hZT4nLCAnLW9tYWUnLCAnPG91dGZpbGUubWFlPic=

> <r_epik_Ionization_Penalty>
0.122545

> <r_epik_Ionization_Penalty_Charging>
0.122545

> <r_epik_Ionization_Penalty_Neutral>
7.8935e-16

> <r_epik_State_Penalty>
2.69178

> <r_epik_Charging_Adjusted_Penalty>
2.81433

> <i_epik_Tot_Q>
0

> <i_epik_Tot_abs_Q>
0

> <r_epik_Metal_State_Penalty>
3.02665

> <b_epik_Metal_Only>
0

> <s_epik_Chemistry_Notes>
This compound has an ester and may undergo hydrolysis at high or low pH. This compound contains an acetal/aminal-like group ( X-CH(R)-Y where X, Y are N, S, or O) that may be acid/base labile, releasing an aldehyde.

> <s_lp_Force_Field>
OPLS_2005

> <r_lp_Energy>
62.4663

> <b_lp_Chiralities_Consistent>
1

> <s_lp_Variant>
AV-unprocessed.smi:1-12

> <Gold.Version>
5.8.1

> <Gold.Id.Protein>
6NUR|6NUR_protein|mol2

> <Gold.PLP.Fitness>
61.2061

> <Gold.PLP.PLP>
-61.8421

> <Gold.PLP.part.hbond>
-2.7003

> <Gold.PLP.part.metal>
0.0000

> <Gold.PLP.part.buried>
-9.7983

> <Gold.PLP.part.nonpolar>
-50.4140

> <Gold.PLP.part.repulsive>
0.2969

> <Gold.PLP.ligand.clash>
0.0000

> <Gold.PLP.ligand.torsion>
2.7548

> <Gold.PLP.Chemscore.Hbond>
1.5440

> <Gold.PLP.Chemscore.CHOScore>
0.0000

> <Gold.PLP.Chemscore.Metal>
0.0000

> <Gold.Chemscore.Hbonds>
donor molecule, donor type, donor heavy atom, donor atom, acceptor molecule, acceptor atom, score
      P1  H  6896  6908       L1    29  0.60
      P1  H  6896  6909       L1     7  0.74

> <Gold.PLP.Chemscore.Internal.Correction>
0.2416

> <Gold.Rescore>
     Score         DG    S(hbond)    S(metal)    S(lipo)     H(rot)  DE(clash)    DE(int)     intcor
     16.99     -19.99       0.97        0.00     142.84       2.13       0.11       2.88       ----

> <Gold.Chemscore.Fitness>
16.9913

> <Gold.Chemscore.DG>
-19.9860

> <Gold.Chemscore.ZeroCoef>
-5.4800

> <Gold.Chemscore.Hbond>
0.9746

> <Gold.Chemscore.Metal>
0.0000

> <Gold.Chemscore.Lipo>
142.8401

> <Gold.Chemscore.Internal_Hbond>
0.0000

> <Gold.Chemscore.DEClash>
0.1117

> <Gold.Chemscore.DEInternal>
2.8830

> <Gold.Chemscore.Rot>
2.1333

> <Gold.Chemscore.Internal.Correction>
   9.000000E+99

> <Gold.Chemscore.Hbonds>
donor molecule, donor type, donor heavy atom, donor atom, acceptor molecule, acceptor atom, score
      P1  H  6896  6908       L1    29  0.13
      P1  H  6896  6909       L1     7  0.48

> <Gold.Chemscore.Hbond.Weighted>
-3.2551

> <Gold.Chemscore.Metal.Weighted>
-0.0000

> <Gold.Chemscore.Lipo.Weighted>
-16.7123

> <Gold.Chemscore.Internal_Hbond.Weighted>
0.0000

> <Gold.Chemscore.DEClash.Weighted>
0.1117

> <Gold.Chemscore.DEInternal.Weighted>
2.8830

> <Gold.Chemscore.Rot.Weighted>
5.4614

> <Gold.Chemscore.Internal.Correction.Weighted>
   9.000000E+99

> <Gold.Protein.RotatedTorsions>
[ 6907 6896 6895 6894 ] final  108.52 input  -60.11 | X-H torsion
[ 7974 7965 7964 7962 ] final -178.51 input  175.53 | X-H torsion
[ 8008 7997 7996 7995 ] final   47.89 input   59.86 | X-H torsion
[ 10167 10162 10161 10158 ] final  -11.19 input  -65.29 | X-H torsion
[ 10718 10713 10712 10709 ] final -109.94 input   66.30 | X-H torsion
[ 10763 10752 10751 10750 ] final  -34.36 input  -60.55 | X-H torsion
[ 11005 11000 10999 10996 ] final  142.24 input  -57.11 | X-H torsion

> <Gold.Protein.ActiveResidues>
 VAL166  LYS551  ARG553  GLY616  TRP617  ASP618  TYR619  PRO620  LYS621  CYS622 
 ASP623  PHE694  ASN695  SER759  ASP760  ASP761  ALA762  ILE779  LEU786  VAL792 
 PHE793  MET794  SER795  GLU796  ALA797  LYS798  CYS799  TRP800  GLU811  SER814 

> <Gold.Protein.RotatedAtoms>
  152.5108  133.9076  159.7471 H   0  0  0  0  0  0  0  0  0  0  0  0  # atno 6907 bound_to 6896
  150.9477  133.6576  159.2785 H   0  0  0  0  0  0  0  0  0  0  0  0  # atno 6908 bound_to 6896
  151.3865  135.0954  159.9565 H   0  0  0  0  0  0  0  0  0  0  0  0  # atno 6909 bound_to 6896
  144.7131  140.0858  143.6423 H   0  0  0  0  0  0  0  0  0  0  0  0  # atno 7974 bound_to 7965
  155.3766  140.3426  155.4245 H   0  0  0  0  0  0  0  0  0  0  0  0  # atno 8008 bound_to 7997
  156.1634  140.1608  156.8607 H   0  0  0  0  0  0  0  0  0  0  0  0  # atno 8009 bound_to 7997
  154.5161  140.0778  156.8066 H   0  0  0  0  0  0  0  0  0  0  0  0  # atno 8010 bound_to 7997
  140.7132  143.5666  150.9137 H   0  0  0  0  0  0  0  0  0  0  0  0  # atno 10167 bound_to 10162
  156.0563  130.5789  150.8168 H   0  0  0  0  0  0  0  0  0  0  0  0  # atno 10718 bound_to 10713
  153.8455  135.6854  153.4798 H   0  0  0  0  0  0  0  0  0  0  0  0  # atno 10763 bound_to 10752
  153.1428  135.4650  154.9519 H   0  0  0  0  0  0  0  0  0  0  0  0  # atno 10764 bound_to 10752
  154.7826  135.3274  154.7904 H   0  0  0  0  0  0  0  0  0  0  0  0  # atno 10765 bound_to 10752
  140.0462  134.9279  157.0934 H   0  0  0  0  0  0  0  0  0  0  0  0  # atno 11005 bound_to 11000
  145.9663  139.2837  143.1125 LP  0  0  0  0  0  0  0  0  0  0  0  0  # atno 17320 bound_to 7965
  145.9166  140.9144  143.0427 LP  0  0  0  0  0  0  0  0  0  0  0  0  # atno 17321 bound_to 7965
  139.9392  143.6402  152.3058 LP  0  0  0  0  0  0  0  0  0  0  0  0  # atno 17342 bound_to 10162
  139.6880  144.7649  151.1489 LP  0  0  0  0  0  0  0  0  0  0  0  0  # atno 17343 bound_to 10162
  157.5536  131.0944  150.9660 LP  0  0  0  0  0  0  0  0  0  0  0  0  # atno 17370 bound_to 10713
  156.9914  130.5565  149.5303 LP  0  0  0  0  0  0  0  0  0  0  0  0  # atno 17371 bound_to 10713
  140.3990  134.2103  155.7164 LP  0  0  0  0  0  0  0  0  0  0  0  0  # atno 17394 bound_to 11000
  141.1908  133.8209  157.0904 LP  0  0  0  0  0  0  0  0  0  0  0  0  # atno 17395 bound_to 11000

$$$$
