AV-unprocessed.smi:1235|AV-procd|sdf|5176|dock6
  -GOLD-   22720 4253D 1   1.00000     0.00000
 Structure written by MMmdl.
 50 51  0  0  0  0  0  0  0  0  2 V2000
  152.7384  142.7815  159.4883 C   0  0  0  0  0  0  0  0  0  0  0  0
  152.1825  143.0050  158.2043 O   0  0  0  0  0  0  0  0  0  0  0  0
  151.5857  141.8398  157.6608 C   0  0  0  0  0  0  0  0  0  0  0  0
  151.2346  142.1025  156.1887 C   0  0  0  0  0  0  0  0  0  0  0  0
  150.8653  140.8654  155.4937 N   0  0  0  0  0  0  0  0  0  0  0  0
  149.6875  140.9549  154.7712 N   0  0  0  0  0  0  0  0  0  0  0  0
  149.2487  139.9313  154.1125 C   0  0  0  0  0  0  0  0  0  0  0  0
  147.9875  139.9901  153.3219 C   0  0  0  0  0  0  0  0  0  0  0  0
  147.2176  140.9494  153.3904 O   0  0  0  0  0  0  0  0  0  0  0  0
  147.7529  138.9264  152.5345 N   0  0  0  0  0  0  0  0  0  0  0  0
  146.5827  138.7669  151.6832 C   0  0  0  0  0  0  0  0  0  0  0  0
  146.4874  137.3172  151.1782 C   0  0  0  0  0  0  0  0  0  0  0  0
  145.1590  136.6901  151.4166 N   0  3  1  0  0  0  0  0  0  0  0  0
  145.1972  135.2170  151.2074 C   0  0  0  0  0  0  0  0  0  0  0  0
  143.7872  134.6066  151.2406 C   0  0  0  0  0  0  0  0  0  0  0  0
  143.0693  134.9516  152.5495 C   0  0  0  0  0  0  0  0  0  0  0  0
  143.0579  136.4731  152.7505 C   0  0  0  0  0  0  0  0  0  0  0  0
  144.4755  137.0817  152.6903 C   0  0  1  0  0  0  0  0  0  0  0  0
  145.2989  136.7678  153.9582 C   0  0  0  0  0  0  0  0  0  0  0  0
  149.9769  138.6739  154.1196 C   0  0  0  0  0  0  0  0  0  0  0  0
  151.1212  138.5999  154.8343 C   0  0  0  0  0  0  0  0  0  0  0  0
  151.6383  139.7419  155.5902 C   0  0  0  0  0  0  0  0  0  0  0  0
  152.6727  139.6965  156.2553 O   0  0  0  0  0  0  0  0  0  0  0  0
  153.1781  143.7060  159.8632 H   0  0  0  0  0  0  0  0  0  0  0  0
  153.5238  142.0255  159.4520 H   0  0  0  0  0  0  0  0  0  0  0  0
  151.9752  142.4602  160.1983 H   0  0  0  0  0  0  0  0  0  0  0  0
  152.2734  140.9965  157.7431 H   0  0  0  0  0  0  0  0  0  0  0  0
  150.6846  141.5875  158.2226 H   0  0  0  0  0  0  0  0  0  0  0  0
  150.4109  142.8171  156.1357 H   0  0  0  0  0  0  0  0  0  0  0  0
  152.0718  142.5885  155.6847 H   0  0  0  0  0  0  0  0  0  0  0  0
  148.4324  138.1789  152.5342 H   0  0  0  0  0  0  0  0  0  0  0  0
  145.7049  139.0406  152.2685 H   0  0  0  0  0  0  0  0  0  0  0  0
  146.6418  139.4548  150.8379 H   0  0  0  0  0  0  0  0  0  0  0  0
  146.6709  137.3272  150.1028 H   0  0  0  0  0  0  0  0  0  0  0  0
  147.2792  136.7044  151.6097 H   0  0  0  0  0  0  0  0  0  0  0  0
  145.6506  134.9963  150.2404 H   0  0  0  0  0  0  0  0  0  0  0  0
  145.8318  134.7483  151.9602 H   0  0  0  0  0  0  0  0  0  0  0  0
  143.2068  134.9787  150.3952 H   0  0  0  0  0  0  0  0  0  0  0  0
  143.8465  133.5242  151.1224 H   0  0  0  0  0  0  0  0  0  0  0  0
  142.0488  134.5681  152.5309 H   0  0  0  0  0  0  0  0  0  0  0  0
  143.5680  134.4641  153.3878 H   0  0  0  0  0  0  0  0  0  0  0  0
  142.4416  136.9274  151.9734 H   0  0  0  0  0  0  0  0  0  0  0  0
  142.5782  136.7214  153.6979 H   0  0  0  0  0  0  0  0  0  0  0  0
  144.3280  138.1606  152.6697 H   0  0  0  0  0  0  0  0  0  0  0  0
  144.7463  137.0514  154.8543 H   0  0  0  0  0  0  0  0  0  0  0  0
  146.2352  137.3244  153.9817 H   0  0  0  0  0  0  0  0  0  0  0  0
  145.5374  135.7085  154.0478 H   0  0  0  0  0  0  0  0  0  0  0  0
  149.6185  137.8148  153.5712 H   0  0  0  0  0  0  0  0  0  0  0  0
  151.6727  137.6712  154.8496 H   0  0  0  0  0  0  0  0  0  0  0  0
  144.5646  137.0418  150.6793 H   0  0  0  0  0  0  0  0  0  0  0  0
  1  2  1  0  0  0  0
  1 24  1  0  0  0  0
  1 25  1  0  0  0  0
  1 26  1  0  0  0  0
  2  3  1  0  0  0  0
  3  4  1  0  0  0  0
  3 27  1  0  0  0  0
  3 28  1  0  0  0  0
  4  5  1  0  0  0  0
  4 29  1  0  0  0  0
  4 30  1  0  0  0  0
  5 22  1  0  0  0  0
  5  6  1  0  0  0  0
  6  7  2  0  0  0  0
  7  8  1  0  0  0  0
  7 20  1  0  0  0  0
  8  9  2  0  0  0  0
  8 10  1  0  0  0  0
 10 11  1  0  0  0  0
 10 31  1  0  0  0  0
 11 12  1  0  0  0  0
 11 32  1  0  0  0  0
 11 33  1  0  0  0  0
 12 13  1  0  0  0  0
 12 34  1  0  0  0  0
 12 35  1  0  0  0  0
 13 18  1  0  0  0  0
 13 14  1  0  0  0  0
 13 50  1  0  0  0  0
 14 15  1  0  0  0  0
 14 36  1  0  0  0  0
 14 37  1  0  0  0  0
 15 16  1  0  0  0  0
 15 38  1  0  0  0  0
 15 39  1  0  0  0  0
 16 17  1  0  0  0  0
 16 40  1  0  0  0  0
 16 41  1  0  0  0  0
 17 18  1  0  0  0  0
 17 42  1  0  0  0  0
 17 43  1  0  0  0  0
 18 19  1  0  0  0  0
 18 44  1  0  0  0  0
 19 45  1  0  0  0  0
 19 46  1  0  0  0  0
 19 47  1  0  0  0  0
 20 21  2  0  0  0  0
 20 48  1  0  0  0  0
 21 22  1  0  0  0  0
 21 49  1  0  0  0  0
 22 23  2  0  0  0  0
M  CHG  1  13   1
M  END
> <s_m_source_file>
AV-unprocessed.smi

> <i_m_source_file_index>
1235

> <i_lp_mmshare_version>
43012

> <i_f3d_flags>
0

> <s_epik_input>
W0NIM11PW0NIMl1bQ0gyXW4xbmMoW2NIXVtjSF1jMT1PKUMoPU8pW05IXVtDSDJdW0NIMl1OMltDSDJdW0NIMl1bQ0gyXVtDSDJdW0NASF0yW0NIM10=

> <s_epik_cmdline>
J2VwaWtfcHl0aG9uJywgJy1waCcsICc3LjAnLCAnLXRuJywgJzgnLCAnLW1hJywgJzIwMCcsICctbWV0YWxfYmluZGluZycsICctaW1hZScsICc8aW5maWxlLm1hZT4nLCAnLW9tYWUnLCAnPG91dGZpbGUubWFlPic=

> <r_lp_tautomer_probability>
1

> <r_epik_Ionization_Penalty>
0.00271975

> <r_epik_Ionization_Penalty_Charging>
0.00271407

> <r_epik_Ionization_Penalty_Neutral>
5.6803e-06

> <r_epik_State_Penalty>
0.00189271

> <r_epik_Charging_Adjusted_Penalty>
0.00460678

> <i_epik_Tot_Q>
1

> <i_epik_Tot_abs_Q>
1

> <r_epik_Metal_State_Penalty>
-0

> <b_epik_Metal_Only>
0

> <s_lp_Force_Field>
OPLS_2005

> <r_lp_Energy>
41.7034

> <b_lp_Chiralities_Consistent>
1

> <s_lp_Variant>
AV-unprocessed.smi:1235-2

> <Gold.Version>
5.8.1

> <Gold.Id.Protein>
6NUR|6NUR_protein|mol2

> <Gold.PLP.Fitness>
50.4443

> <Gold.PLP.PLP>
-43.9690

> <Gold.PLP.part.hbond>
-4.0000

> <Gold.PLP.part.metal>
0.0000

> <Gold.PLP.part.buried>
0.9653

> <Gold.PLP.part.nonpolar>
-41.4312

> <Gold.PLP.part.repulsive>
0.3945

> <Gold.PLP.ligand.clash>
0.2646

> <Gold.PLP.ligand.torsion>
0.8148

> <Gold.PLP.Chemscore.Hbond>
2.7544

> <Gold.PLP.Chemscore.CHOScore>
0.0000

> <Gold.PLP.Chemscore.Metal>
0.0000

> <Gold.Chemscore.Hbonds>
donor molecule, donor type, donor heavy atom, donor atom, acceptor molecule, acceptor atom, score
      L1  H    10    31       P1  7948  0.80
      L1  H    13    50       P1 10171  0.94
      P1  H  7997  8008       L1    23  1.00

> <Gold.PLP.Chemscore.Internal.Correction>
0.1063

> <Gold.Rescore>
     Score         DG    S(hbond)    S(metal)    S(lipo)     H(rot)  DE(clash)    DE(int)     intcor
     16.23     -19.49       2.64        0.00      88.32       2.00       1.82       1.44       ----

> <Gold.Chemscore.Fitness>
16.2261

> <Gold.Chemscore.DG>
-19.4921

> <Gold.Chemscore.ZeroCoef>
-5.4800

> <Gold.Chemscore.Hbond>
2.6358

> <Gold.Chemscore.Metal>
0.0000

> <Gold.Chemscore.Lipo>
88.3237

> <Gold.Chemscore.Internal_Hbond>
0.0000

> <Gold.Chemscore.DEClash>
1.8232

> <Gold.Chemscore.DEInternal>
1.4428

> <Gold.Chemscore.Rot>
2.0020

> <Gold.Chemscore.Internal.Correction>
   9.000000E+99

> <Gold.Chemscore.Hbonds>
donor molecule, donor type, donor heavy atom, donor atom, acceptor molecule, acceptor atom, score
      L1  H    10    31       P1  7948  0.76
      L1  H    13    50       P1 10171  0.91
      P1  H  7997  8008       L1    23  1.00

> <Gold.Chemscore.Hbond.Weighted>
-8.8034

> <Gold.Chemscore.Metal.Weighted>
-0.0000

> <Gold.Chemscore.Lipo.Weighted>
-10.3339

> <Gold.Chemscore.Internal_Hbond.Weighted>
0.0000

> <Gold.Chemscore.DEClash.Weighted>
1.8232

> <Gold.Chemscore.DEInternal.Weighted>
1.4428

> <Gold.Chemscore.Rot.Weighted>
5.1252

> <Gold.Chemscore.Internal.Correction.Weighted>
   9.000000E+99

> <Gold.Protein.RotatedTorsions>
[ 6907 6896 6895 6894 ] final -169.81 input  -60.11 | X-H torsion
[ 7974 7965 7964 7962 ] final  154.07 input  175.53 | X-H torsion
[ 8008 7997 7996 7995 ] final  -44.67 input   59.86 | X-H torsion
[ 10167 10162 10161 10158 ] final -116.77 input  -65.29 | X-H torsion
[ 10718 10713 10712 10709 ] final  164.50 input   66.30 | X-H torsion
[ 10763 10752 10751 10750 ] final -103.61 input  -60.55 | X-H torsion
[ 11005 11000 10999 10996 ] final   11.23 input  -57.11 | X-H torsion

> <Gold.Protein.ActiveResidues>
 VAL166  LYS551  ARG553  GLY616  TRP617  ASP618  TYR619  PRO620  LYS621  CYS622 
 ASP623  PHE694  ASN695  SER759  ASP760  ASP761  ALA762  ILE779  LEU786  VAL792 
 PHE793  MET794  SER795  GLU796  ALA797  LYS798  CYS799  TRP800  GLU811  SER814 

> <Gold.Protein.RotatedAtoms>
  151.4977  133.3511  159.2863 H   0  0  0  0  0  0  0  0  0  0  0  0  # atno 6907 bound_to 6896
  150.8793  134.8184  159.7224 H   0  0  0  0  0  0  0  0  0  0  0  0  # atno 6908 bound_to 6896
  152.4752  134.4872  159.9736 H   0  0  0  0  0  0  0  0  0  0  0  0  # atno 6909 bound_to 6896
  144.8113  139.6884  143.6140 H   0  0  0  0  0  0  0  0  0  0  0  0  # atno 7974 bound_to 7965
  154.3998  140.1416  156.3721 H   0  0  0  0  0  0  0  0  0  0  0  0  # atno 8008 bound_to 7997
  155.8083  140.3473  155.5422 H   0  0  0  0  0  0  0  0  0  0  0  0  # atno 8009 bound_to 7997
  155.8413  140.0927  157.1723 H   0  0  0  0  0  0  0  0  0  0  0  0  # atno 8010 bound_to 7997
  140.0756  143.4836  152.1955 H   0  0  0  0  0  0  0  0  0  0  0  0  # atno 10167 bound_to 10162
  157.0935  131.0424  151.2527 H   0  0  0  0  0  0  0  0  0  0  0  0  # atno 10718 bound_to 10713
  154.7820  135.4817  153.9864 H   0  0  0  0  0  0  0  0  0  0  0  0  # atno 10763 bound_to 10752
  153.1507  135.6790  153.8894 H   0  0  0  0  0  0  0  0  0  0  0  0  # atno 10764 bound_to 10752
  153.8540  135.3163  155.3412 H   0  0  0  0  0  0  0  0  0  0  0  0  # atno 10765 bound_to 10752
  140.5055  134.0703  155.7804 H   0  0  0  0  0  0  0  0  0  0  0  0  # atno 11005 bound_to 11000
  146.2411  139.6004  142.9490 LP  0  0  0  0  0  0  0  0  0  0  0  0  # atno 17320 bound_to 7965
  145.5318  141.0426  143.2379 LP  0  0  0  0  0  0  0  0  0  0  0  0  # atno 17321 bound_to 7965
  139.5810  144.7510  151.3641 LP  0  0  0  0  0  0  0  0  0  0  0  0  # atno 17342 bound_to 10162
  140.7103  143.7406  150.7556 LP  0  0  0  0  0  0  0  0  0  0  0  0  # atno 17343 bound_to 10162
  157.4701  130.7704  149.7315 LP  0  0  0  0  0  0  0  0  0  0  0  0  # atno 17370 bound_to 10713
  155.9892  130.3954  150.3084 LP  0  0  0  0  0  0  0  0  0  0  0  0  # atno 17371 bound_to 10713
  141.1413  133.9133  157.2319 LP  0  0  0  0  0  0  0  0  0  0  0  0  # atno 17394 bound_to 11000
  139.9688  135.0134  156.9458 LP  0  0  0  0  0  0  0  0  0  0  0  0  # atno 17395 bound_to 11000

$$$$
