AV-unprocessed.smi:2802|AV-procd|sdf|10803|dock3
  -GOLD-   2272015233D 1   1.00000     0.00000
 Structure written by MMmdl.
 47 48  0  0  0  0  0  0  0  0  1 V2000
  151.7226  138.6916  154.5664 C   0  0  0  0  0  0  0  0  0  0  0  0
  151.1916  139.1515  155.9322 C   0  0  2  0  0  0  0  0  0  0  0  0
  151.3171  140.6780  156.0903 C   0  0  0  0  0  0  0  0  0  0  0  0
  150.8032  141.2021  157.4513 C   0  0  0  0  0  0  0  0  0  0  0  0
  151.2241  142.6787  157.5968 C   0  0  0  0  0  0  0  0  0  0  0  0
  149.2592  141.1678  157.5087 C   0  0  0  0  0  0  0  0  0  0  0  0
  151.4574  140.3934  158.6079 C   0  0  0  0  0  0  0  0  0  0  0  0
  151.4202  138.8396  158.4901 C   0  0  1  0  0  0  0  0  0  0  0  0
  152.3644  138.2311  159.5648 C   0  0  0  0  0  0  0  0  0  0  0  0
  152.5935  136.8504  159.3582 O   0  0  0  0  0  0  0  0  0  0  0  0
  150.0579  138.3119  158.6651 N   0  0  0  0  0  0  0  0  0  0  0  0
  149.6394  137.0336  158.6608 C   0  0  0  0  0  0  0  0  0  0  0  0
  150.3832  136.0672  158.4926 O   0  0  0  0  0  0  0  0  0  0  0  0
  148.1388  136.8248  158.8871 C   0  0  0  0  0  0  0  0  0  0  0  0
  147.8746  136.0083  160.1408 C   0  0  0  0  0  0  0  0  0  0  0  0
  148.0384  136.5738  161.4228 C   0  0  0  0  0  0  0  0  0  0  0  0
  147.7827  135.7757  162.5543 C   0  0  0  0  0  0  0  0  0  0  0  0
  147.3705  134.4427  162.3553 C   0  0  0  0  0  0  0  0  0  0  0  0
  147.2092  133.8906  161.1334 N   0  0  0  0  0  0  0  0  0  0  0  0
  147.4592  134.6621  160.0535 C   0  0  0  0  0  0  0  0  0  0  0  0
  151.9247  138.4349  157.0820 C   0  0  0  0  0  0  0  0  0  0  0  0
  152.7814  138.9261  154.4521 H   0  0  0  0  0  0  0  0  0  0  0  0
  151.1844  139.1768  153.7516 H   0  0  0  0  0  0  0  0  0  0  0  0
  151.6052  137.6148  154.4417 H   0  0  0  0  0  0  0  0  0  0  0  0
  150.1372  138.8786  155.9673 H   0  0  0  0  0  0  0  0  0  0  0  0
  152.3675  140.9503  155.9733 H   0  0  0  0  0  0  0  0  0  0  0  0
  150.7884  141.1784  155.2776 H   0  0  0  0  0  0  0  0  0  0  0  0
  150.8837  143.0967  158.5450 H   0  0  0  0  0  0  0  0  0  0  0  0
  150.8057  143.2932  156.7987 H   0  0  0  0  0  0  0  0  0  0  0  0
  152.3079  142.7946  157.5597 H   0  0  0  0  0  0  0  0  0  0  0  0
  148.8940  141.4775  158.4885 H   0  0  0  0  0  0  0  0  0  0  0  0
  148.8458  140.1828  157.3040 H   0  0  0  0  0  0  0  0  0  0  0  0
  148.8238  141.8437  156.7718 H   0  0  0  0  0  0  0  0  0  0  0  0
  152.5086  140.6833  158.6513 H   0  0  0  0  0  0  0  0  0  0  0  0
  151.0455  140.7192  159.5631 H   0  0  0  0  0  0  0  0  0  0  0  0
  153.3323  138.7334  159.5448 H   0  0  0  0  0  0  0  0  0  0  0  0
  151.9742  138.3738  160.5722 H   0  0  0  0  0  0  0  0  0  0  0  0
  152.8464  136.7200  158.4570 H   0  0  0  0  0  0  0  0  0  0  0  0
  149.3454  139.0127  158.8083 H   0  0  0  0  0  0  0  0  0  0  0  0
  147.6314  137.7868  158.9748 H   0  0  0  0  0  0  0  0  0  0  0  0
  147.7156  136.3215  158.0171 H   0  0  0  0  0  0  0  0  0  0  0  0
  148.3562  137.5995  161.5381 H   0  0  0  0  0  0  0  0  0  0  0  0
  147.8996  136.1748  163.5510 H   0  0  0  0  0  0  0  0  0  0  0  0
  147.1635  133.8031  163.2004 H   0  0  0  0  0  0  0  0  0  0  0  0
  147.3239  134.1900  159.0916 H   0  0  0  0  0  0  0  0  0  0  0  0
  151.8335  137.3560  156.9485 H   0  0  0  0  0  0  0  0  0  0  0  0
  152.9907  138.6546  157.0059 H   0  0  0  0  0  0  0  0  0  0  0  0
  1  2  1  0  0  0  0
  1 22  1  0  0  0  0
  1 23  1  0  0  0  0
  1 24  1  0  0  0  0
  2 21  1  0  0  0  0
  2  3  1  0  0  0  0
  2 25  1  0  0  0  0
  3  4  1  0  0  0  0
  3 26  1  0  0  0  0
  3 27  1  0  0  0  0
  4  5  1  0  0  0  0
  4  6  1  0  0  0  0
  4  7  1  0  0  0  0
  5 28  1  0  0  0  0
  5 29  1  0  0  0  0
  5 30  1  0  0  0  0
  6 31  1  0  0  0  0
  6 32  1  0  0  0  0
  6 33  1  0  0  0  0
  7  8  1  0  0  0  0
  7 34  1  0  0  0  0
  7 35  1  0  0  0  0
  8  9  1  0  0  0  0
  8 11  1  0  0  0  0
  8 21  1  0  0  0  0
  9 10  1  0  0  0  0
  9 36  1  0  0  0  0
  9 37  1  0  0  0  0
 10 38  1  0  0  0  0
 11 12  1  0  0  0  0
 11 39  1  0  0  0  0
 12 13  2  0  0  0  0
 12 14  1  0  0  0  0
 14 15  1  0  0  0  0
 14 40  1  0  0  0  0
 14 41  1  0  0  0  0
 15 20  1  0  0  0  0
 15 16  2  0  0  0  0
 16 17  1  0  0  0  0
 16 42  1  0  0  0  0
 17 18  2  0  0  0  0
 17 43  1  0  0  0  0
 18 19  1  0  0  0  0
 18 44  1  0  0  0  0
 19 20  2  0  0  0  0
 20 45  1  0  0  0  0
 21 46  1  0  0  0  0
 21 47  1  0  0  0  0
M  END
> <s_m_source_file>
AV-unprocessed.smi

> <i_m_source_file_index>
2802

> <i_lp_mmshare_version>
43012

> <i_f3d_flags>
0

> <s_epik_input>
W0NIM11DMShbQ0gzXSlbQ0gyXVtDQEBIXShbQ0gzXSlbQ0gyXVtDQF0oW0NIMl0xKShbQ0gyXVtPSF0pW05IXUMoPU8pW0NIMl1jMltjSF1bY0hdW2NIXW5bY0hdMg==

> <s_epik_cmdline>
J2VwaWtfcHl0aG9uJywgJy1waCcsICc3LjAnLCAnLXRuJywgJzgnLCAnLW1hJywgJzIwMCcsICctbWV0YWxfYmluZGluZycsICctaW1hZScsICc8aW5maWxlLm1hZT4nLCAnLW9tYWUnLCAnPG91dGZpbGUubWFlPic=

> <r_epik_Ionization_Penalty>
0.004793

> <r_epik_Ionization_Penalty_Charging>
0

> <r_epik_Ionization_Penalty_Neutral>
0.004793

> <r_epik_State_Penalty>
0.00347421

> <r_epik_Charging_Adjusted_Penalty>
0.00347421

> <i_epik_Tot_Q>
0

> <i_epik_Tot_abs_Q>
0

> <r_epik_Metal_State_Penalty>
-0

> <b_epik_Metal_Only>
0

> <s_lp_Force_Field>
OPLS_2005

> <r_lp_Energy>
18.2871

> <b_lp_Chiralities_Consistent>
1

> <s_lp_Variant>
AV-unprocessed.smi:2802-1

> <Gold.Version>
5.8.1

> <Gold.Id.Protein>
6NUR|6NUR_protein|mol2

> <Gold.PLP.Fitness>
41.8362

> <Gold.PLP.PLP>
-38.0771

> <Gold.PLP.part.hbond>
-2.0000

> <Gold.PLP.part.metal>
0.0000

> <Gold.PLP.part.buried>
-4.9788

> <Gold.PLP.part.nonpolar>
-31.3949

> <Gold.PLP.part.repulsive>
0.1847

> <Gold.PLP.ligand.clash>
0.0135

> <Gold.PLP.ligand.torsion>
0.2520

> <Gold.PLP.Chemscore.Hbond>
1.4160

> <Gold.PLP.Chemscore.CHOScore>
0.0000

> <Gold.PLP.Chemscore.Metal>
0.0000

> <Gold.Chemscore.Hbonds>
donor molecule, donor type, donor heavy atom, donor atom, acceptor molecule, acceptor atom, score
      P1  H  6896  6907       L1    10  1.00
      P1  H  6896  6909       L1    13  0.40

> <Gold.PLP.Chemscore.Internal.Correction>
0.0287

> <Gold.Rescore>
     Score         DG    S(hbond)    S(metal)    S(lipo)     H(rot)  DE(clash)    DE(int)     intcor
     14.67     -16.71       1.53        0.00      96.01       2.00       0.00       2.04       ----

> <Gold.Chemscore.Fitness>
14.6689

> <Gold.Chemscore.DG>
-16.7053

> <Gold.Chemscore.ZeroCoef>
-5.4800

> <Gold.Chemscore.Hbond>
1.5324

> <Gold.Chemscore.Metal>
0.0000

> <Gold.Chemscore.Lipo>
96.0140

> <Gold.Chemscore.Internal_Hbond>
0.0000

> <Gold.Chemscore.DEClash>
0.0000

> <Gold.Chemscore.DEInternal>
2.0364

> <Gold.Chemscore.Rot>
2.0026

> <Gold.Chemscore.Internal.Correction>
   9.000000E+99

> <Gold.Chemscore.Hbonds>
donor molecule, donor type, donor heavy atom, donor atom, acceptor molecule, acceptor atom, score
      P1  H  6896  6907       L1    10  0.46
      P1  H  6896  6909       L1    13  0.38

> <Gold.Chemscore.Hbond.Weighted>
-5.1183

> <Gold.Chemscore.Metal.Weighted>
-0.0000

> <Gold.Chemscore.Lipo.Weighted>
-11.2336

> <Gold.Chemscore.Internal_Hbond.Weighted>
0.0000

> <Gold.Chemscore.DEClash.Weighted>
0.0000

> <Gold.Chemscore.DEInternal.Weighted>
2.0364

> <Gold.Chemscore.Rot.Weighted>
5.1267

> <Gold.Chemscore.Internal.Correction.Weighted>
   9.000000E+99

> <Gold.Protein.RotatedTorsions>
[ 6907 6896 6895 6894 ] final   30.39 input  -60.11 | X-H torsion
[ 7974 7965 7964 7962 ] final  130.09 input  175.53 | X-H torsion
[ 8008 7997 7996 7995 ] final -157.99 input   59.86 | X-H torsion
[ 10167 10162 10161 10158 ] final -175.46 input  -65.29 | X-H torsion
[ 10718 10713 10712 10709 ] final  166.31 input   66.30 | X-H torsion
[ 10763 10752 10751 10750 ] final  -42.60 input  -60.55 | X-H torsion
[ 11005 11000 10999 10996 ] final  -52.42 input  -57.11 | X-H torsion

> <Gold.Protein.ActiveResidues>
 VAL166  LYS551  ARG553  GLY616  TRP617  ASP618  TYR619  PRO620  LYS621  CYS622 
 ASP623  PHE694  ASN695  SER759  ASP760  ASP761  ALA762  ILE779  LEU786  VAL792 
 PHE793  MET794  SER795  GLU796  ALA797  LYS798  CYS799  TRP800  GLU811  SER814 

> <Gold.Protein.RotatedAtoms>
  152.0452  134.9687  160.0574 H   0  0  0  0  0  0  0  0  0  0  0  0  # atno 6907 bound_to 6896
  152.1110  133.4296  159.4639 H   0  0  0  0  0  0  0  0  0  0  0  0  # atno 6908 bound_to 6896
  150.6843  134.2567  159.4576 H   0  0  0  0  0  0  0  0  0  0  0  0  # atno 6909 bound_to 6896
  145.0216  139.4127  143.5194 H   0  0  0  0  0  0  0  0  0  0  0  0  # atno 7974 bound_to 7965
  155.7407  140.0814  157.2247 H   0  0  0  0  0  0  0  0  0  0  0  0  # atno 8008 bound_to 7997
  154.4022  140.1578  156.2668 H   0  0  0  0  0  0  0  0  0  0  0  0  # atno 8009 bound_to 7997
  155.9022  140.3409  155.6038 H   0  0  0  0  0  0  0  0  0  0  0  0  # atno 8010 bound_to 7997
  139.5580  144.1941  152.1192 H   0  0  0  0  0  0  0  0  0  0  0  0  # atno 10167 bound_to 10162
  157.0677  131.0357  151.2623 H   0  0  0  0  0  0  0  0  0  0  0  0  # atno 10718 bound_to 10713
  153.9817  135.6716  153.4750 H   0  0  0  0  0  0  0  0  0  0  0  0  # atno 10763 bound_to 10752
  153.0745  135.4956  154.8372 H   0  0  0  0  0  0  0  0  0  0  0  0  # atno 10764 bound_to 10752
  154.7161  135.3107  154.9083 H   0  0  0  0  0  0  0  0  0  0  0  0  # atno 10765 bound_to 10752
  141.0923  133.6630  156.4021 H   0  0  0  0  0  0  0  0  0  0  0  0  # atno 11005 bound_to 11000
  146.3486  139.9717  142.8705 LP  0  0  0  0  0  0  0  0  0  0  0  0  # atno 17320 bound_to 7965
  145.1888  140.9802  143.4223 LP  0  0  0  0  0  0  0  0  0  0  0  0  # atno 17321 bound_to 7965
  140.1449  144.5168  150.6722 LP  0  0  0  0  0  0  0  0  0  0  0  0  # atno 17342 bound_to 10162
  140.6856  143.2348  151.5270 LP  0  0  0  0  0  0  0  0  0  0  0  0  # atno 17343 bound_to 10162
  157.4903  130.7818  149.7501 LP  0  0  0  0  0  0  0  0  0  0  0  0  # atno 17370 bound_to 10713
  155.9959  130.3909  150.2798 LP  0  0  0  0  0  0  0  0  0  0  0  0  # atno 17371 bound_to 10713
  140.5223  134.6293  157.5322 LP  0  0  0  0  0  0  0  0  0  0  0  0  # atno 17394 bound_to 11000
  139.9752  134.7228  155.9964 LP  0  0  0  0  0  0  0  0  0  0  0  0  # atno 17395 bound_to 11000

$$$$
