AV-unprocessed.smi:3249|AV-procd|sdf|12419|dock1
  -GOLD-   2272018303D 1   1.00000     0.00000
 Structure written by MMmdl.
 44 45  0  0  0  0  0  0  0  0  2 V2000
  154.2976  140.7894  161.5446 C   0  0  0  0  0  0  0  0  0  0  0  0
  153.4510  141.1796  160.3674 C   0  0  0  0  0  0  0  0  0  0  0  0
  153.0789  140.3763  159.2528 C   0  0  0  0  0  0  0  0  0  0  0  0
  152.3120  141.0208  158.3888 N   0  0  0  0  0  0  0  0  0  0  0  0
  152.1805  142.2608  158.9075 N   0  0  0  0  0  0  0  0  0  0  0  0
  151.3558  143.2474  158.2180 C   0  0  2  0  0  0  0  0  0  0  0  0
  152.2355  144.4167  157.7367 C   0  0  0  0  0  0  0  0  0  0  0  0
  150.1694  143.6904  159.1135 C   0  0  1  0  0  0  0  0  0  0  0  0
  150.4575  144.9986  159.8745 C   0  0  0  0  0  0  0  0  0  0  0  0
  148.9499  143.8483  158.2859 N   0  3  0  0  0  0  0  0  0  0  0  0
  147.9037  142.8252  158.4936 C   0  0  0  0  0  0  0  0  0  0  0  0
  146.7601  143.3664  159.3649 C   0  0  2  0  0  0  0  0  0  0  0  0
  147.2563  144.3080  160.4820 C   0  0  0  0  0  0  0  0  0  0  0  0
  146.0914  144.7394  161.3801 C   0  0  0  0  0  0  0  0  0  0  0  0
  145.3439  143.5021  161.8878 C   0  0  0  0  0  0  0  0  0  0  0  0
  144.9488  142.5968  160.7108 C   0  0  0  0  0  0  0  0  0  0  0  0
  146.1063  142.2468  159.9574 O   0  0  0  0  0  0  0  0  0  0  0  0
  152.8504  142.3788  160.1091 C   0  0  0  0  0  0  0  0  0  0  0  0
  154.8132  139.8435  161.3775 H   0  0  0  0  0  0  0  0  0  0  0  0
  153.6992  140.6739  162.4483 H   0  0  0  0  0  0  0  0  0  0  0  0
  155.0615  141.5374  161.7575 H   0  0  0  0  0  0  0  0  0  0  0  0
  153.3368  139.3470  159.0507 H   0  0  0  0  0  0  0  0  0  0  0  0
  150.9472  142.7674  157.3263 H   0  0  0  0  0  0  0  0  0  0  0  0
  151.6915  145.0802  157.0649 H   0  0  0  0  0  0  0  0  0  0  0  0
  153.1021  144.0507  157.1849 H   0  0  0  0  0  0  0  0  0  0  0  0
  152.6018  145.0145  158.5718 H   0  0  0  0  0  0  0  0  0  0  0  0
  149.9867  142.8988  159.8425 H   0  0  0  0  0  0  0  0  0  0  0  0
  151.2965  144.8885  160.5607 H   0  0  0  0  0  0  0  0  0  0  0  0
  149.6048  145.3103  160.4772 H   0  0  0  0  0  0  0  0  0  0  0  0
  150.6922  145.8126  159.1880 H   0  0  0  0  0  0  0  0  0  0  0  0
  148.5618  144.7671  158.4445 H   0  0  0  0  0  0  0  0  0  0  0  0
  147.5061  142.5371  157.5194 H   0  0  0  0  0  0  0  0  0  0  0  0
  148.3280  141.9272  158.9427 H   0  0  0  0  0  0  0  0  0  0  0  0
  146.0451  143.8888  158.7263 H   0  0  0  0  0  0  0  0  0  0  0  0
  148.0102  143.7994  161.0845 H   0  0  0  0  0  0  0  0  0  0  0  0
  147.7384  145.1886  160.0566 H   0  0  0  0  0  0  0  0  0  0  0  0
  146.4557  145.3348  162.2178 H   0  0  0  0  0  0  0  0  0  0  0  0
  145.4082  145.3758  160.8163 H   0  0  0  0  0  0  0  0  0  0  0  0
  145.9804  142.9451  162.5764 H   0  0  0  0  0  0  0  0  0  0  0  0
  144.4585  143.7993  162.4501 H   0  0  0  0  0  0  0  0  0  0  0  0
  144.4813  141.6844  161.0811 H   0  0  0  0  0  0  0  0  0  0  0  0
  144.2180  143.0901  160.0681 H   0  0  0  0  0  0  0  0  0  0  0  0
  152.8431  143.2967  160.6786 H   0  0  0  0  0  0  0  0  0  0  0  0
  149.2357  143.7880  157.3185 H   0  0  0  0  0  0  0  0  0  0  0  0
  1  2  1  0  0  0  0
  1 19  1  0  0  0  0
  1 20  1  0  0  0  0
  1 21  1  0  0  0  0
  2 18  2  0  0  0  0
  2  3  1  0  0  0  0
  3  4  2  0  0  0  0
  3 22  1  0  0  0  0
  4  5  1  0  0  0  0
  5  6  1  0  0  0  0
  5 18  1  0  0  0  0
  6  7  1  0  0  0  0
  6  8  1  0  0  0  0
  6 23  1  0  0  0  0
  7 24  1  0  0  0  0
  7 25  1  0  0  0  0
  7 26  1  0  0  0  0
  8  9  1  0  0  0  0
  8 10  1  0  0  0  0
  8 27  1  0  0  0  0
  9 28  1  0  0  0  0
  9 29  1  0  0  0  0
  9 30  1  0  0  0  0
 10 11  1  0  0  0  0
 10 31  1  0  0  0  0
 10 44  1  0  0  0  0
 11 12  1  0  0  0  0
 11 32  1  0  0  0  0
 11 33  1  0  0  0  0
 12 17  1  0  0  0  0
 12 13  1  0  0  0  0
 12 34  1  0  0  0  0
 13 14  1  0  0  0  0
 13 35  1  0  0  0  0
 13 36  1  0  0  0  0
 14 15  1  0  0  0  0
 14 37  1  0  0  0  0
 14 38  1  0  0  0  0
 15 16  1  0  0  0  0
 15 39  1  0  0  0  0
 15 40  1  0  0  0  0
 16 17  1  0  0  0  0
 16 41  1  0  0  0  0
 16 42  1  0  0  0  0
 18 43  1  0  0  0  0
M  CHG  1  10   1
M  END
> <s_m_source_file>
AV-unprocessed.smi

> <i_m_source_file_index>
3249

> <i_lp_mmshare_version>
43012

> <i_f3d_flags>
0

> <s_epik_input>
W0NIM11jMVtjSF1ubihbY0hdMSlbQ0BIXShbQ0gzXSlbQ0BIXShbQ0gzXSlbTkhdW0NIMl1bQ0BASF0yW0NIMl1bQ0gyXVtDSDJdW0NIMl1PMg==

> <s_epik_cmdline>
J2VwaWtfcHl0aG9uJywgJy1waCcsICc3LjAnLCAnLXRuJywgJzgnLCAnLW1hJywgJzIwMCcsICctbWV0YWxfYmluZGluZycsICctaW1hZScsICc8aW5maWxlLm1hZT4nLCAnLW9tYWUnLCAnPG91dGZpbGUubWFlPic=

> <r_lp_tautomer_probability>
1

> <r_epik_Ionization_Penalty>
0.00659207

> <r_epik_Ionization_Penalty_Charging>
0.00656881

> <r_epik_Ionization_Penalty_Neutral>
2.32662e-05

> <r_epik_State_Penalty>
0.0048654

> <r_epik_Charging_Adjusted_Penalty>
0.0114342

> <i_epik_Tot_Q>
1

> <i_epik_Tot_abs_Q>
1

> <r_epik_Metal_State_Penalty>
-0

> <b_epik_Metal_Only>
0

> <s_lp_Force_Field>
OPLS_2005

> <r_lp_Energy>
18.0919

> <b_lp_Chiralities_Consistent>
1

> <s_lp_Variant>
AV-unprocessed.smi:3249-3

> <Gold.Version>
5.8.1

> <Gold.Id.Protein>
6NUR|6NUR_protein|mol2

> <Gold.PLP.Fitness>
48.6888

> <Gold.PLP.PLP>
-41.8136

> <Gold.PLP.part.hbond>
-3.0000

> <Gold.PLP.part.metal>
0.0000

> <Gold.PLP.part.buried>
-4.3171

> <Gold.PLP.part.nonpolar>
-34.4691

> <Gold.PLP.part.repulsive>
0.0518

> <Gold.PLP.ligand.clash>
0.0000

> <Gold.PLP.ligand.torsion>
2.2687

> <Gold.PLP.Chemscore.Hbond>
3.7200

> <Gold.PLP.Chemscore.CHOScore>
0.0000

> <Gold.PLP.Chemscore.Metal>
0.0000

> <Gold.Chemscore.Hbonds>
donor molecule, donor type, donor heavy atom, donor atom, acceptor molecule, acceptor atom, score
      L1  H    10    31       P1  8029  1.18
      L1  H    10    44       P1  8028  1.47
      P1  H  6934  6946       L1    17  1.00

> <Gold.PLP.Chemscore.Internal.Correction>
0.2527

> <Gold.Rescore>
     Score         DG    S(hbond)    S(metal)    S(lipo)     H(rot)  DE(clash)    DE(int)     intcor
     17.36     -19.87       1.80        0.00     105.21       1.53       0.23       2.29       ----

> <Gold.Chemscore.Fitness>
17.3576

> <Gold.Chemscore.DG>
-19.8727

> <Gold.Chemscore.ZeroCoef>
-5.4800

> <Gold.Chemscore.Hbond>
1.7989

> <Gold.Chemscore.Metal>
0.0000

> <Gold.Chemscore.Lipo>
105.2112

> <Gold.Chemscore.Internal_Hbond>
0.0000

> <Gold.Chemscore.DEClash>
0.2288

> <Gold.Chemscore.DEInternal>
2.2864

> <Gold.Chemscore.Rot>
1.5333

> <Gold.Chemscore.Internal.Correction>
   9.000000E+99

> <Gold.Chemscore.Hbonds>
donor molecule, donor type, donor heavy atom, donor atom, acceptor molecule, acceptor atom, score
      L1  H    10    31       P1  8029  0.53
      L1  H    10    44       P1  8028  0.25
      P1  H  6934  6946       L1    17  0.70

> <Gold.Chemscore.Hbond.Weighted>
-6.0082

> <Gold.Chemscore.Metal.Weighted>
-0.0000

> <Gold.Chemscore.Lipo.Weighted>
-12.3097

> <Gold.Chemscore.Internal_Hbond.Weighted>
0.0000

> <Gold.Chemscore.DEClash.Weighted>
0.2288

> <Gold.Chemscore.DEInternal.Weighted>
2.2864

> <Gold.Chemscore.Rot.Weighted>
3.9252

> <Gold.Chemscore.Internal.Correction.Weighted>
   9.000000E+99

> <Gold.Protein.RotatedTorsions>
[ 6907 6896 6895 6894 ] final    3.93 input  -60.11 | X-H torsion
[ 7974 7965 7964 7962 ] final   -3.49 input  175.53 | X-H torsion
[ 8008 7997 7996 7995 ] final  -89.90 input   59.86 | X-H torsion
[ 10167 10162 10161 10158 ] final   50.88 input  -65.29 | X-H torsion
[ 10718 10713 10712 10709 ] final   51.23 input   66.30 | X-H torsion
[ 10763 10752 10751 10750 ] final -163.91 input  -60.55 | X-H torsion
[ 11005 11000 10999 10996 ] final   62.01 input  -57.11 | X-H torsion

> <Gold.Protein.ActiveResidues>
 VAL166  LYS551  ARG553  GLY616  TRP617  ASP618  TYR619  PRO620  LYS621  CYS622 
 ASP623  PHE694  ASN695  SER759  ASP760  ASP761  ALA762  ILE779  LEU786  VAL792 
 PHE793  MET794  SER795  GLU796  ALA797  LYS798  CYS799  TRP800  GLU811  SER814 

> <Gold.Protein.RotatedAtoms>
  151.6330  135.1021  160.0125 H   0  0  0  0  0  0  0  0  0  0  0  0  # atno 6907 bound_to 6896
  152.4096  133.6938  159.6394 H   0  0  0  0  0  0  0  0  0  0  0  0  # atno 6908 bound_to 6896
  150.7987  133.8565  159.3261 H   0  0  0  0  0  0  0  0  0  0  0  0  # atno 6909 bound_to 6896
  146.2388  140.1729  142.8332 H   0  0  0  0  0  0  0  0  0  0  0  0  # atno 7974 bound_to 7965
  154.6921  140.0536  157.0373 H   0  0  0  0  0  0  0  0  0  0  0  0  # atno 8008 bound_to 7997
  155.0803  140.3209  155.4585 H   0  0  0  0  0  0  0  0  0  0  0  0  # atno 8009 bound_to 7997
  156.2731  140.2066  156.5930 H   0  0  0  0  0  0  0  0  0  0  0  0  # atno 8010 bound_to 7997
  140.2678  144.3300  150.6299 H   0  0  0  0  0  0  0  0  0  0  0  0  # atno 10167 bound_to 10162
  157.4960  130.8407  149.8260 H   0  0  0  0  0  0  0  0  0  0  0  0  # atno 10718 bound_to 10713
  154.7079  135.3000  154.9243 H   0  0  0  0  0  0  0  0  0  0  0  0  # atno 10763 bound_to 10752
  154.0154  135.6689  153.4772 H   0  0  0  0  0  0  0  0  0  0  0  0  # atno 10764 bound_to 10752
  153.0731  135.5049  154.8260 H   0  0  0  0  0  0  0  0  0  0  0  0  # atno 10765 bound_to 10752
  140.0121  134.6280  155.9765 H   0  0  0  0  0  0  0  0  0  0  0  0  # atno 11005 bound_to 11000
  144.9997  140.8621  143.5289 LP  0  0  0  0  0  0  0  0  0  0  0  0  # atno 17320 bound_to 7965
  145.1746  139.2385  143.5324 LP  0  0  0  0  0  0  0  0  0  0  0  0  # atno 17321 bound_to 7965
  140.5914  143.2168  151.7246 LP  0  0  0  0  0  0  0  0  0  0  0  0  # atno 17342 bound_to 10162
  139.4997  144.3933  152.0257 LP  0  0  0  0  0  0  0  0  0  0  0  0  # atno 17343 bound_to 10162
  156.0201  130.3799  150.1988 LP  0  0  0  0  0  0  0  0  0  0  0  0  # atno 17370 bound_to 10713
  157.0178  130.9970  151.3348 LP  0  0  0  0  0  0  0  0  0  0  0  0  # atno 17371 bound_to 10713
  141.1718  133.6538  156.4680 LP  0  0  0  0  0  0  0  0  0  0  0  0  # atno 17394 bound_to 11000
  140.4536  134.6906  157.5051 LP  0  0  0  0  0  0  0  0  0  0  0  0  # atno 17395 bound_to 11000

$$$$
