AV-unprocessed.smi:2652|AV-procd|sdf|10294|dock7
  -GOLD-   2272014303D 1   1.00000     0.00000
 Structure written by MMmdl.
 37 38  0  0  0  0  0  0  0  0  2 V2000
  153.0413  141.8867  159.3435 C   0  0  0  0  0  0  0  0  0  0  0  0
  152.4701  143.0473  160.1404 C   0  0  0  0  0  0  0  0  0  0  0  0
  152.5934  143.2176  161.4610 C   0  0  0  0  0  0  0  0  0  0  0  0
  151.8387  144.6878  162.0262 S   0  0  0  0  0  0  0  0  0  0  0  0
  151.3314  145.0844  160.3449 C   0  0  0  0  0  0  0  0  0  0  0  0
  150.6983  146.1004  160.0627 O   0  0  0  0  0  0  0  0  0  0  0  0
  151.7673  144.0718  159.4900 N   0  0  0  0  0  0  0  0  0  0  0  0
  151.5020  144.0827  158.0450 C   0  0  0  0  0  0  0  0  0  0  0  0
  150.5442  142.9730  157.5893 C   0  0  0  0  0  0  0  0  0  0  0  0
  149.3463  143.0321  157.8672 O   0  0  0  0  0  0  0  0  0  0  0  0
  151.1244  141.9835  156.8847 N   0  0  0  0  0  0  0  0  0  0  0  0
  150.5840  140.7631  156.2623 C   0  0  0  0  0  0  0  0  0  0  0  0
  151.8086  140.0625  155.6187 C   0  0  0  0  0  0  0  0  0  0  0  0
  152.8036  139.8361  156.3430 O   0  0  0  0  0  0  0  0  0  0  0  0
  151.7561  139.8008  154.3956 O   0  5  0  0  0  0  0  0  0  0  0  0
  149.8337  139.8035  157.2418 C   0  0  0  0  0  0  0  0  0  0  0  0
  149.1356  138.6284  156.5295 C   0  0  0  0  0  0  0  0  0  0  0  0
  148.1578  139.1318  155.4583 C   0  0  0  0  0  0  0  0  0  0  0  0
  148.8626  140.0588  154.4578 C   0  0  0  0  0  0  0  0  0  0  0  0
  149.5675  141.2251  155.1782 C   0  0  0  0  0  0  0  0  0  0  0  0
  153.8339  141.3950  159.9083 H   0  0  0  0  0  0  0  0  0  0  0  0
  153.4730  142.2155  158.3982 H   0  0  0  0  0  0  0  0  0  0  0  0
  152.2644  141.1500  159.1381 H   0  0  0  0  0  0  0  0  0  0  0  0
  153.1026  142.5572  162.1475 H   0  0  0  0  0  0  0  0  0  0  0  0
  151.1094  145.0509  157.7337 H   0  0  0  0  0  0  0  0  0  0  0  0
  152.4417  143.9662  157.5024 H   0  0  0  0  0  0  0  0  0  0  0  0
  152.1222  142.0795  156.7653 H   0  0  0  0  0  0  0  0  0  0  0  0
  150.5054  139.4126  158.0077 H   0  0  0  0  0  0  0  0  0  0  0  0
  149.0619  140.3606  157.7743 H   0  0  0  0  0  0  0  0  0  0  0  0
  149.8746  137.9688  156.0740 H   0  0  0  0  0  0  0  0  0  0  0  0
  148.5989  138.0232  157.2604 H   0  0  0  0  0  0  0  0  0  0  0  0
  147.7113  138.2868  154.9338 H   0  0  0  0  0  0  0  0  0  0  0  0
  147.3377  139.6684  155.9371 H   0  0  0  0  0  0  0  0  0  0  0  0
  149.5829  139.4869  153.8718 H   0  0  0  0  0  0  0  0  0  0  0  0
  148.1365  140.4514  153.7457 H   0  0  0  0  0  0  0  0  0  0  0  0
  148.8060  141.8480  155.6500 H   0  0  0  0  0  0  0  0  0  0  0  0
  150.0460  141.8706  154.4402 H   0  0  0  0  0  0  0  0  0  0  0  0
  1  2  1  0  0  0  0
  1 21  1  0  0  0  0
  1 22  1  0  0  0  0
  1 23  1  0  0  0  0
  2  7  1  0  0  0  0
  2  3  2  0  0  0  0
  3  4  1  0  0  0  0
  3 24  1  0  0  0  0
  4  5  1  0  0  0  0
  5  6  2  0  0  0  0
  5  7  1  0  0  0  0
  7  8  1  0  0  0  0
  8  9  1  0  0  0  0
  8 25  1  0  0  0  0
  8 26  1  0  0  0  0
  9 10  2  0  0  0  0
  9 11  1  0  0  0  0
 11 12  1  0  0  0  0
 11 27  1  0  0  0  0
 12 20  1  0  0  0  0
 12 13  1  0  0  0  0
 12 16  1  0  0  0  0
 13 14  2  0  0  0  0
 13 15  1  0  0  0  0
 16 17  1  0  0  0  0
 16 28  1  0  0  0  0
 16 29  1  0  0  0  0
 17 18  1  0  0  0  0
 17 30  1  0  0  0  0
 17 31  1  0  0  0  0
 18 19  1  0  0  0  0
 18 32  1  0  0  0  0
 18 33  1  0  0  0  0
 19 20  1  0  0  0  0
 19 34  1  0  0  0  0
 19 35  1  0  0  0  0
 20 36  1  0  0  0  0
 20 37  1  0  0  0  0
M  CHG  1  15  -1
M  END
> <s_m_source_file>
AV-unprocessed.smi

> <i_m_source_file_index>
2652

> <i_lp_mmshare_version>
43012

> <i_f3d_flags>
0

> <s_epik_input>
W0NIM11jMVtjSF1zYyg9TyluMVtDSDJdQyg9TylbTkhdQzIoQyg9TylbT0hdKVtDSDJdW0NIMl1bQ0gyXVtDSDJdW0NIMl0y

> <s_epik_cmdline>
J2VwaWtfcHl0aG9uJywgJy1waCcsICc3LjAnLCAnLXRuJywgJzgnLCAnLW1hJywgJzIwMCcsICctbWV0YWxfYmluZGluZycsICctaW1hZScsICc8aW5maWxlLm1hZT4nLCAnLW9tYWUnLCAnPG91dGZpbGUubWFlPic=

> <r_epik_Ionization_Penalty>
0.000325241

> <r_epik_Ionization_Penalty_Charging>
0.000325125

> <r_epik_Ionization_Penalty_Neutral>
1.16183e-07

> <r_epik_State_Penalty>
0.000195685

> <r_epik_Charging_Adjusted_Penalty>
0.00052081

> <i_epik_Tot_Q>
-1

> <i_epik_Tot_abs_Q>
1

> <r_epik_Metal_State_Penalty>
-0

> <b_epik_Metal_Only>
0

> <s_lp_Force_Field>
OPLS_2005

> <r_lp_Energy>
9.07631

> <b_lp_Chiralities_Consistent>
1

> <s_lp_Variant>
AV-unprocessed.smi:2652-1

> <Gold.Version>
5.8.1

> <Gold.Id.Protein>
6NUR|6NUR_protein|mol2

> <Gold.PLP.Fitness>
48.7829

> <Gold.PLP.PLP>
-40.5596

> <Gold.PLP.part.hbond>
-2.2189

> <Gold.PLP.part.metal>
0.0000

> <Gold.PLP.part.buried>
-4.4189

> <Gold.PLP.part.nonpolar>
-34.9130

> <Gold.PLP.part.repulsive>
1.2197

> <Gold.PLP.ligand.clash>
0.0000

> <Gold.PLP.ligand.torsion>
0.4143

> <Gold.PLP.Chemscore.Hbond>
3.0000

> <Gold.PLP.Chemscore.CHOScore>
0.0000

> <Gold.PLP.Chemscore.Metal>
0.0000

> <Gold.Chemscore.Hbonds>
donor molecule, donor type, donor heavy atom, donor atom, acceptor molecule, acceptor atom, score
      P1  H  7989  7998       L1    15  0.65
      P1  H  7997  8010       L1    14  2.00

> <Gold.PLP.Chemscore.Internal.Correction>
0.0518

> <Gold.Rescore>
     Score         DG    S(hbond)    S(metal)    S(lipo)     H(rot)  DE(clash)    DE(int)     intcor
     11.95     -15.66       1.74        0.00      82.21       2.05       2.11       1.60       ----

> <Gold.Chemscore.Fitness>
11.9532

> <Gold.Chemscore.DG>
-15.6610

> <Gold.Chemscore.ZeroCoef>
-5.4800

> <Gold.Chemscore.Hbond>
1.7434

> <Gold.Chemscore.Metal>
0.0000

> <Gold.Chemscore.Lipo>
82.2125

> <Gold.Chemscore.Internal_Hbond>
0.0000

> <Gold.Chemscore.DEClash>
2.1083

> <Gold.Chemscore.DEInternal>
1.5995

> <Gold.Chemscore.Rot>
2.0550

> <Gold.Chemscore.Internal.Correction>
   9.000000E+99

> <Gold.Chemscore.Hbonds>
donor molecule, donor type, donor heavy atom, donor atom, acceptor molecule, acceptor atom, score
      P1  H  7989  7998       L1    15  0.60
      P1  H  7997  8010       L1    14  0.94

> <Gold.Chemscore.Hbond.Weighted>
-5.8229

> <Gold.Chemscore.Metal.Weighted>
-0.0000

> <Gold.Chemscore.Lipo.Weighted>
-9.6189

> <Gold.Chemscore.Internal_Hbond.Weighted>
0.0000

> <Gold.Chemscore.DEClash.Weighted>
2.1083

> <Gold.Chemscore.DEInternal.Weighted>
1.5995

> <Gold.Chemscore.Rot.Weighted>
5.2607

> <Gold.Chemscore.Internal.Correction.Weighted>
   9.000000E+99

> <Gold.Protein.RotatedTorsions>
[ 6907 6896 6895 6894 ] final  173.80 input  -60.11 | X-H torsion
[ 7974 7965 7964 7962 ] final  139.98 input  175.53 | X-H torsion
[ 8008 7997 7996 7995 ] final   93.56 input   59.86 | X-H torsion
[ 10167 10162 10161 10158 ] final  -73.44 input  -65.29 | X-H torsion
[ 10718 10713 10712 10709 ] final   31.12 input   66.30 | X-H torsion
[ 10763 10752 10751 10750 ] final   19.87 input  -60.55 | X-H torsion
[ 11005 11000 10999 10996 ] final -126.88 input  -57.11 | X-H torsion

> <Gold.Protein.ActiveResidues>
 VAL166  LYS551  ARG553  GLY616  TRP617  ASP618  TYR619  PRO620  LYS621  CYS622 
 ASP623  PHE694  ASN695  SER759  ASP760  ASP761  ALA762  ILE779  LEU786  VAL792 
 PHE793  MET794  SER795  GLU796  ALA797  LYS798  CYS799  TRP800  GLU811  SER814 

> <Gold.Protein.RotatedAtoms>
  151.7624  133.3335  159.3421 H   0  0  0  0  0  0  0  0  0  0  0  0  # atno 6907 bound_to 6896
  150.7492  134.6093  159.6087 H   0  0  0  0  0  0  0  0  0  0  0  0  # atno 6908 bound_to 6896
  152.3396  134.7154  160.0319 H   0  0  0  0  0  0  0  0  0  0  0  0  # atno 6909 bound_to 6896
  144.9229  139.5145  143.5655 H   0  0  0  0  0  0  0  0  0  0  0  0  # atno 7974 bound_to 7965
  156.0481  140.3311  155.7319 H   0  0  0  0  0  0  0  0  0  0  0  0  # atno 8008 bound_to 7997
  155.5643  140.0622  157.2839 H   0  0  0  0  0  0  0  0  0  0  0  0  # atno 8009 bound_to 7997
  154.4423  140.1872  156.0803 H   0  0  0  0  0  0  0  0  0  0  0  0  # atno 8010 bound_to 7997
  140.5110  143.2345  151.7593 H   0  0  0  0  0  0  0  0  0  0  0  0  # atno 10167 bound_to 10162
  157.2684  130.7196  149.6491 H   0  0  0  0  0  0  0  0  0  0  0  0  # atno 10718 bound_to 10713
  153.1125  135.6700  153.9475 H   0  0  0  0  0  0  0  0  0  0  0  0  # atno 10763 bound_to 10752
  153.9014  135.3035  155.3450 H   0  0  0  0  0  0  0  0  0  0  0  0  # atno 10764 bound_to 10752
  154.7544  135.5019  153.9425 H   0  0  0  0  0  0  0  0  0  0  0  0  # atno 10765 bound_to 10752
  140.9645  134.0891  157.3934 H   0  0  0  0  0  0  0  0  0  0  0  0  # atno 11005 bound_to 11000
  146.3213  139.8122  142.8943 LP  0  0  0  0  0  0  0  0  0  0  0  0  # atno 17320 bound_to 7965
  145.3267  141.0257  143.3470 LP  0  0  0  0  0  0  0  0  0  0  0  0  # atno 17321 bound_to 7965
  139.4896  144.4391  151.9785 LP  0  0  0  0  0  0  0  0  0  0  0  0  # atno 17342 bound_to 10162
  140.3483  144.3120  150.5954 LP  0  0  0  0  0  0  0  0  0  0  0  0  # atno 17343 bound_to 10162
  155.9663  130.4375  150.5179 LP  0  0  0  0  0  0  0  0  0  0  0  0  # atno 17370 bound_to 10713
  157.3098  131.0661  151.2009 LP  0  0  0  0  0  0  0  0  0  0  0  0  # atno 17371 bound_to 10713
  139.8889  135.0101  156.6651 LP  0  0  0  0  0  0  0  0  0  0  0  0  # atno 17394 bound_to 11000
  140.7420  133.8970  155.8284 LP  0  0  0  0  0  0  0  0  0  0  0  0  # atno 17395 bound_to 11000

$$$$
