AV-unprocessed.smi:724|AV-procd|sdf|3507|dock4
  -GOLD-   22720 0503D 1   1.00000     0.00000
 Structure written by MMmdl.
 36 37  0  0  0  0  0  0  0  0  1 V2000
  152.7033  143.2511  159.8999 C   0  0  0  0  0  0  0  0  0  0  0  0
  151.7740  143.7140  158.7586 C   0  0  0  0  0  0  0  0  0  0  0  0
  150.5721  144.4699  159.3619 C   0  0  0  0  0  0  0  0  0  0  0  0
  152.5563  144.6743  157.8315 C   0  0  0  0  0  0  0  0  0  0  0  0
  151.2532  142.4615  158.0141 C   0  0  0  0  0  0  0  0  0  0  0  0
  151.6284  141.3439  158.3727 O   0  0  0  0  0  0  0  0  0  0  0  0
  150.4184  142.6375  156.9737 N   0  0  0  0  0  0  0  0  0  0  0  0
  149.9002  141.5791  156.1081 C   0  0  0  0  0  0  0  0  0  0  0  0
  148.3745  141.6733  155.9053 C   0  0  0  0  0  0  0  0  0  0  0  0
  147.5947  141.6755  157.1803 C   0  0  0  0  0  0  0  0  0  0  0  0
  147.1614  142.7381  157.8535 N   0  0  0  0  0  0  0  0  0  0  0  0
  146.6593  142.1482  158.9726 C   0  0  0  0  0  0  0  0  0  0  0  0
  146.0403  142.9257  160.0887 C   0  0  0  0  0  0  0  0  0  0  0  0
  146.7624  143.0777  161.4109 C   0  0  0  0  0  0  0  0  0  0  0  0
  145.5296  142.2206  161.3279 C   0  0  0  0  0  0  0  0  0  0  0  0
  146.7127  140.8225  159.0059 N   0  0  0  0  0  0  0  0  0  0  0  0
  147.3643  140.4967  157.8084 O   0  0  0  0  0  0  0  0  0  0  0  0
  153.0822  144.1004  160.4692 H   0  0  0  0  0  0  0  0  0  0  0  0
  153.5668  142.7072  159.5145 H   0  0  0  0  0  0  0  0  0  0  0  0
  152.1894  142.5946  160.6037 H   0  0  0  0  0  0  0  0  0  0  0  0
  150.0150  143.8516  160.0676 H   0  0  0  0  0  0  0  0  0  0  0  0
  149.8755  144.7951  158.5877 H   0  0  0  0  0  0  0  0  0  0  0  0
  150.8969  145.3599  159.9020 H   0  0  0  0  0  0  0  0  0  0  0  0
  152.9096  145.5469  158.3819 H   0  0  0  0  0  0  0  0  0  0  0  0
  151.9353  145.0424  157.0136 H   0  0  0  0  0  0  0  0  0  0  0  0
  153.4349  144.1942  157.3976 H   0  0  0  0  0  0  0  0  0  0  0  0
  150.1544  143.5841  156.7410 H   0  0  0  0  0  0  0  0  0  0  0  0
  150.4021  141.6013  155.1392 H   0  0  0  0  0  0  0  0  0  0  0  0
  150.1510  140.6167  156.5541 H   0  0  0  0  0  0  0  0  0  0  0  0
  148.1308  142.5768  155.3455 H   0  0  0  0  0  0  0  0  0  0  0  0
  148.0338  140.8344  155.2974 H   0  0  0  0  0  0  0  0  0  0  0  0
  145.4759  143.7764  159.7116 H   0  0  0  0  0  0  0  0  0  0  0  0
  147.7179  142.5697  161.5284 H   0  0  0  0  0  0  0  0  0  0  0  0
  146.6773  144.0349  161.9211 H   0  0  0  0  0  0  0  0  0  0  0  0
  144.6188  142.6037  161.7835 H   0  0  0  0  0  0  0  0  0  0  0  0
  145.6652  141.1424  161.3910 H   0  0  0  0  0  0  0  0  0  0  0  0
  1  2  1  0  0  0  0
  1 18  1  0  0  0  0
  1 19  1  0  0  0  0
  1 20  1  0  0  0  0
  2  3  1  0  0  0  0
  2  4  1  0  0  0  0
  2  5  1  0  0  0  0
  3 21  1  0  0  0  0
  3 22  1  0  0  0  0
  3 23  1  0  0  0  0
  4 24  1  0  0  0  0
  4 25  1  0  0  0  0
  4 26  1  0  0  0  0
  5  6  2  0  0  0  0
  5  7  1  0  0  0  0
  7  8  1  0  0  0  0
  7 27  1  0  0  0  0
  8  9  1  0  0  0  0
  8 28  1  0  0  0  0
  8 29  1  0  0  0  0
  9 10  1  0  0  0  0
  9 30  1  0  0  0  0
  9 31  1  0  0  0  0
 10 17  1  0  0  0  0
 10 11  2  0  0  0  0
 11 12  1  0  0  0  0
 12 13  1  0  0  0  0
 12 16  2  0  0  0  0
 13 15  1  0  0  0  0
 13 14  1  0  0  0  0
 13 32  1  0  0  0  0
 14 15  1  0  0  0  0
 14 33  1  0  0  0  0
 14 34  1  0  0  0  0
 15 35  1  0  0  0  0
 15 36  1  0  0  0  0
 16 17  1  0  0  0  0
M  END
> <s_m_source_file>
AV-unprocessed.smi

> <i_m_source_file_index>
724

> <i_lp_mmshare_version>
43012

> <i_f3d_flags>
0

> <s_epik_input>
W0NIM11DKFtDSDNdKShbQ0gzXSlDKD1PKVtOSF1bQ0gyXVtDSDJdYzFuYyhubzEpW0NIXTJbQ0gyXVtDSDJdMg==

> <s_epik_cmdline>
J2VwaWtfcHl0aG9uJywgJy1waCcsICc3LjAnLCAnLXRuJywgJzgnLCAnLW1hJywgJzIwMCcsICctbWV0YWxfYmluZGluZycsICctaW1hZScsICc8aW5maWxlLm1hZT4nLCAnLW9tYWUnLCAnPG91dGZpbGUubWFlPic=

> <r_lp_tautomer_probability>
1

> <r_epik_Ionization_Penalty>
2.89377e-08

> <r_epik_Ionization_Penalty_Charging>
0

> <r_epik_Ionization_Penalty_Neutral>
2.89377e-08

> <r_epik_State_Penalty>
-0

> <r_epik_Charging_Adjusted_Penalty>
0

> <i_epik_Tot_Q>
0

> <i_epik_Tot_abs_Q>
0

> <r_epik_Metal_State_Penalty>
-0

> <b_epik_Metal_Only>
0

> <s_lp_Force_Field>
OPLS_2005

> <r_lp_Energy>
6.75537

> <b_lp_Chiralities_Consistent>
1

> <s_lp_Variant>
AV-unprocessed.smi:724-1

> <Gold.Version>
5.8.1

> <Gold.Id.Protein>
6NUR|6NUR_protein|mol2

> <Gold.PLP.Fitness>
37.1505

> <Gold.PLP.PLP>
-32.1726

> <Gold.PLP.part.hbond>
-3.0000

> <Gold.PLP.part.metal>
0.0000

> <Gold.PLP.part.buried>
-5.6270

> <Gold.PLP.part.nonpolar>
-24.3379

> <Gold.PLP.part.repulsive>
0.7704

> <Gold.PLP.ligand.clash>
0.0000

> <Gold.PLP.ligand.torsion>
0.5411

> <Gold.PLP.Chemscore.Hbond>
1.9600

> <Gold.PLP.Chemscore.CHOScore>
0.0000

> <Gold.PLP.Chemscore.Metal>
0.0000

> <Gold.Chemscore.Hbonds>
donor molecule, donor type, donor heavy atom, donor atom, acceptor molecule, acceptor atom, score
      L1  H     7    27       P1  8028  0.91
      P1  H  6934  6946       L1    16  0.16

> <Gold.PLP.Chemscore.Internal.Correction>
0.1801

> <Gold.Rescore>
     Score         DG    S(hbond)    S(metal)    S(lipo)     H(rot)  DE(clash)    DE(int)     intcor
     13.00     -13.71       1.51        0.00      68.99       1.91       0.05       0.66       ----

> <Gold.Chemscore.Fitness>
13.0040

> <Gold.Chemscore.DG>
-13.7127

> <Gold.Chemscore.ZeroCoef>
-5.4800

> <Gold.Chemscore.Hbond>
1.5144

> <Gold.Chemscore.Metal>
0.0000

> <Gold.Chemscore.Lipo>
68.9885

> <Gold.Chemscore.Internal_Hbond>
0.0000

> <Gold.Chemscore.DEClash>
0.0494

> <Gold.Chemscore.DEInternal>
0.6593

> <Gold.Chemscore.Rot>
1.9129

> <Gold.Chemscore.Internal.Correction>
   9.000000E+99

> <Gold.Chemscore.Hbonds>
donor molecule, donor type, donor heavy atom, donor atom, acceptor molecule, acceptor atom, score
      L1  H     7    27       P1  8028  0.85
      P1  H  6934  6946       L1    16  0.01

> <Gold.Chemscore.Hbond.Weighted>
-5.0580

> <Gold.Chemscore.Metal.Weighted>
-0.0000

> <Gold.Chemscore.Lipo.Weighted>
-8.0717

> <Gold.Chemscore.Internal_Hbond.Weighted>
0.0000

> <Gold.Chemscore.DEClash.Weighted>
0.0494

> <Gold.Chemscore.DEInternal.Weighted>
0.6593

> <Gold.Chemscore.Rot.Weighted>
4.8970

> <Gold.Chemscore.Internal.Correction.Weighted>
   9.000000E+99

> <Gold.Protein.RotatedTorsions>
[ 6907 6896 6895 6894 ] final   79.43 input  -60.11 | X-H torsion
[ 7974 7965 7964 7962 ] final  -80.75 input  175.53 | X-H torsion
[ 8008 7997 7996 7995 ] final -115.38 input   59.86 | X-H torsion
[ 10167 10162 10161 10158 ] final  -40.03 input  -65.29 | X-H torsion
[ 10718 10713 10712 10709 ] final  -62.30 input   66.30 | X-H torsion
[ 10763 10752 10751 10750 ] final   74.61 input  -60.55 | X-H torsion
[ 11005 11000 10999 10996 ] final  -92.11 input  -57.11 | X-H torsion

> <Gold.Protein.ActiveResidues>
 VAL166  LYS551  ARG553  GLY616  TRP617  ASP618  TYR619  PRO620  LYS621  CYS622 
 ASP623  PHE694  ASN695  SER759  ASP760  ASP761  ALA762  ILE779  LEU786  VAL792 
 PHE793  MET794  SER795  GLU796  ALA797  LYS798  CYS799  TRP800  GLU811  SER814 

> <Gold.Protein.RotatedAtoms>
  152.5198  134.3512  159.9251 H   0  0  0  0  0  0  0  0  0  0  0  0  # atno 6907 bound_to 6896
  151.3463  133.3936  159.2683 H   0  0  0  0  0  0  0  0  0  0  0  0  # atno 6908 bound_to 6896
  150.9763  134.9145  159.7876 H   0  0  0  0  0  0  0  0  0  0  0  0  # atno 6909 bound_to 6896
  145.5558  140.9490  143.1474 H   0  0  0  0  0  0  0  0  0  0  0  0  # atno 7974 bound_to 7965
  155.0511  140.0393  157.2544 H   0  0  0  0  0  0  0  0  0  0  0  0  # atno 8008 bound_to 7997
  154.7137  140.2698  155.6581 H   0  0  0  0  0  0  0  0  0  0  0  0  # atno 8009 bound_to 7997
  156.2797  140.2716  156.1787 H   0  0  0  0  0  0  0  0  0  0  0  0  # atno 8010 bound_to 7997
  140.7046  143.3178  151.2867 H   0  0  0  0  0  0  0  0  0  0  0  0  # atno 10167 bound_to 10162
  156.0864  130.4207  150.1116 H   0  0  0  0  0  0  0  0  0  0  0  0  # atno 10718 bound_to 10713
  153.0598  135.5019  154.8067 H   0  0  0  0  0  0  0  0  0  0  0  0  # atno 10763 bound_to 10752
  154.6865  135.2977  154.9542 H   0  0  0  0  0  0  0  0  0  0  0  0  # atno 10764 bound_to 10752
  154.0311  135.6729  153.4833 H   0  0  0  0  0  0  0  0  0  0  0  0  # atno 10765 bound_to 10752
  141.1529  133.7799  156.9974 H   0  0  0  0  0  0  0  0  0  0  0  0  # atno 11005 bound_to 11000
  144.7507  139.7202  143.7274 LP  0  0  0  0  0  0  0  0  0  0  0  0  # atno 17320 bound_to 7965
  146.1885  139.5113  142.9820 LP  0  0  0  0  0  0  0  0  0  0  0  0  # atno 17321 bound_to 7965
  139.6622  144.0169  152.2700 LP  0  0  0  0  0  0  0  0  0  0  0  0  # atno 17342 bound_to 10162
  139.9740  144.6474  150.7963 LP  0  0  0  0  0  0  0  0  0  0  0  0  # atno 17343 bound_to 10162
  156.9136  130.9660  151.3559 LP  0  0  0  0  0  0  0  0  0  0  0  0  # atno 17370 bound_to 10713
  157.6000  130.8505  149.8787 LP  0  0  0  0  0  0  0  0  0  0  0  0  # atno 17371 bound_to 10713
  140.0963  134.9562  157.1854 LP  0  0  0  0  0  0  0  0  0  0  0  0  # atno 17394 bound_to 11000
  140.3378  134.2737  155.7217 LP  0  0  0  0  0  0  0  0  0  0  0  0  # atno 17395 bound_to 11000

$$$$
