AV-unprocessed.smi:1867|AV-procd|sdf|7571|dock5
  -GOLD-   22720 9283D 1   1.00000     0.00000
 Structure written by MMmdl.
 53 56  0  0  0  0  0  0  0  0  3 V2000
  146.4323  137.1739  155.5065 O   0  0  0  0  0  0  0  0  0  0  0  0
  147.0938  136.8483  154.5240 C   0  0  0  0  0  0  0  0  0  0  0  0
  148.2885  137.3767  154.1912 N   0  0  0  0  0  0  0  0  0  0  0  0
  149.0489  138.3622  154.8781 C   0  0  0  0  0  0  0  0  0  0  0  0
  150.4335  138.4241  154.6135 C   0  0  0  0  0  0  0  0  0  0  0  0
  151.2338  139.3752  155.2788 C   0  0  0  0  0  0  0  0  0  0  0  0
  150.6435  140.2541  156.2168 C   0  0  0  0  0  0  0  0  0  0  0  0
  151.3779  141.2309  156.9152 N   0  0  0  0  0  0  0  0  0  0  0  0
  150.9050  142.6010  157.0320 C   0  0  0  0  0  0  0  0  0  0  0  0
  151.8957  143.2696  157.9836 C   0  0  0  0  0  0  0  0  0  0  0  0
  152.3000  142.1300  158.9193 C   0  0  0  0  0  0  0  0  0  0  0  0
  152.2391  140.8784  158.0354 C   0  0  0  0  0  0  0  0  0  0  0  0
  149.3122  140.1549  156.4449 N   0  3  0  0  0  0  0  0  0  0  0  0
  148.5089  139.2607  155.8296 C   0  0  0  0  0  0  0  0  0  0  0  0
  146.6386  135.9239  153.6592 N   0  0  0  0  0  0  0  0  0  0  0  0
  145.3892  135.1614  153.7194 C   0  0  1  0  0  0  0  0  0  0  0  0
  144.2126  135.9001  153.0938 C   0  0  0  0  0  0  0  0  0  0  0  0
  143.1976  134.7828  152.8343 C   0  0  0  0  0  0  0  0  0  0  0  0
  143.9740  133.5312  152.6581 N   0  3  1  0  0  0  0  0  0  0  0  0
  143.7143  132.8360  151.3689 C   0  0  0  0  0  0  0  0  0  0  0  0
  144.8001  131.7882  151.0821 C   0  0  0  0  0  0  0  0  0  0  0  0
  146.1908  132.4373  150.9491 C   0  0  0  0  0  0  0  0  0  0  0  0
  146.2797  133.7952  151.6713 C   0  0  0  0  0  0  0  0  0  0  0  0
  145.4067  133.8250  152.9499 C   0  0  1  0  0  0  0  0  0  0  0  0
  148.6822  137.0596  153.3178 H   0  0  0  0  0  0  0  0  0  0  0  0
  150.8847  137.7510  153.8989 H   0  0  0  0  0  0  0  0  0  0  0  0
  152.2900  139.4220  155.0578 H   0  0  0  0  0  0  0  0  0  0  0  0
  150.8746  143.1023  156.0641 H   0  0  0  0  0  0  0  0  0  0  0  0
  149.9003  142.6049  157.4573 H   0  0  0  0  0  0  0  0  0  0  0  0
  152.7678  143.6152  157.4268 H   0  0  0  0  0  0  0  0  0  0  0  0
  151.4700  144.1252  158.5083 H   0  0  0  0  0  0  0  0  0  0  0  0
  153.2797  142.2796  159.3736 H   0  0  0  0  0  0  0  0  0  0  0  0
  151.5684  142.0443  159.7238 H   0  0  0  0  0  0  0  0  0  0  0  0
  151.8595  140.0240  158.5968 H   0  0  0  0  0  0  0  0  0  0  0  0
  153.2288  140.6267  157.6531 H   0  0  0  0  0  0  0  0  0  0  0  0
  147.4747  139.3007  156.1359 H   0  0  0  0  0  0  0  0  0  0  0  0
  147.2217  135.7434  152.8543 H   0  0  0  0  0  0  0  0  0  0  0  0
  145.1332  134.9677  154.7632 H   0  0  0  0  0  0  0  0  0  0  0  0
  143.8161  136.6892  153.7340 H   0  0  0  0  0  0  0  0  0  0  0  0
  144.5103  136.3541  152.1472 H   0  0  0  0  0  0  0  0  0  0  0  0
  142.5522  134.6557  153.7041 H   0  0  0  0  0  0  0  0  0  0  0  0
  142.5539  135.0141  151.9845 H   0  0  0  0  0  0  0  0  0  0  0  0
  142.7303  132.3679  151.4101 H   0  0  0  0  0  0  0  0  0  0  0  0
  143.6871  133.5571  150.5500 H   0  0  0  0  0  0  0  0  0  0  0  0
  144.8133  131.0607  151.8949 H   0  0  0  0  0  0  0  0  0  0  0  0
  144.5626  131.2282  150.1770 H   0  0  0  0  0  0  0  0  0  0  0  0
  146.9410  131.7525  151.3462 H   0  0  0  0  0  0  0  0  0  0  0  0
  146.4389  132.5800  149.8968 H   0  0  0  0  0  0  0  0  0  0  0  0
  147.3245  134.0053  151.9005 H   0  0  0  0  0  0  0  0  0  0  0  0
  145.9536  134.5862  150.9943 H   0  0  0  0  0  0  0  0  0  0  0  0
  145.7770  133.0429  153.6143 H   0  0  0  0  0  0  0  0  0  0  0  0
  143.6666  132.9044  153.3881 H   0  0  0  0  0  0  0  0  0  0  0  0
  148.8908  140.7895  157.1235 H   0  0  0  0  0  0  0  0  0  0  0  0
  1  2  2  0  0  0  0
  2  3  1  0  0  0  0
  2 15  1  0  0  0  0
  3  4  1  0  0  0  0
  3 25  1  0  0  0  0
  4 14  1  0  0  0  0
  4  5  2  0  0  0  0
  5  6  1  0  0  0  0
  5 26  1  0  0  0  0
  6  7  2  0  0  0  0
  6 27  1  0  0  0  0
  7  8  1  0  0  0  0
  7 13  1  0  0  0  0
  8 12  1  0  0  0  0
  8  9  1  0  0  0  0
  9 10  1  0  0  0  0
  9 28  1  0  0  0  0
  9 29  1  0  0  0  0
 10 11  1  0  0  0  0
 10 30  1  0  0  0  0
 10 31  1  0  0  0  0
 11 12  1  0  0  0  0
 11 32  1  0  0  0  0
 11 33  1  0  0  0  0
 12 34  1  0  0  0  0
 12 35  1  0  0  0  0
 13 14  2  0  0  0  0
 13 53  1  0  0  0  0
 14 36  1  0  0  0  0
 15 16  1  0  0  0  0
 15 37  1  0  0  0  0
 16 24  1  0  0  0  0
 16 17  1  0  0  0  0
 16 38  1  0  0  0  0
 17 18  1  0  0  0  0
 17 39  1  0  0  0  0
 17 40  1  0  0  0  0
 18 19  1  0  0  0  0
 18 41  1  0  0  0  0
 18 42  1  0  0  0  0
 19 24  1  0  0  0  0
 19 20  1  0  0  0  0
 19 52  1  0  0  0  0
 20 21  1  0  0  0  0
 20 43  1  0  0  0  0
 20 44  1  0  0  0  0
 21 22  1  0  0  0  0
 21 45  1  0  0  0  0
 21 46  1  0  0  0  0
 22 23  1  0  0  0  0
 22 47  1  0  0  0  0
 22 48  1  0  0  0  0
 23 24  1  0  0  0  0
 23 49  1  0  0  0  0
 23 50  1  0  0  0  0
 24 51  1  0  0  0  0
M  CHG  1  13   1
M  CHG  1  19   1
M  END
> <s_m_source_file>
AV-unprocessed.smi

> <i_m_source_file_index>
1867

> <i_lp_mmshare_version>
43012

> <i_f3d_flags>
0

> <s_epik_input>
W0NIMl0xW0NIMl1bQ0gyXVtDSDJdW0NASF0oTjEyKVtDQEBIXShbQ0gyXVtDSDJdMilbTkhdQyg9TylbTkhdYzNbY0hdW2NIXWMobltjSF0zKU40W0NIMl1bQ0gyXVtDSDJdW0NIMl00

> <s_epik_cmdline>
J2VwaWtfcHl0aG9uJywgJy1waCcsICc3LjAnLCAnLXRuJywgJzgnLCAnLW1hJywgJzIwMCcsICctbWV0YWxfYmluZGluZycsICctaW1hZScsICc8aW5maWxlLm1hZT4nLCAnLW9tYWUnLCAnPG91dGZpbGUubWFlPic=

> <r_lp_tautomer_probability>
0.999994

> <r_epik_Ionization_Penalty>
1.27347

> <r_epik_Ionization_Penalty_Charging>
1.27345

> <r_epik_Ionization_Penalty_Neutral>
1.96458e-05

> <r_epik_State_Penalty>
1.34393

> <r_epik_Charging_Adjusted_Penalty>
2.61738

> <i_epik_Tot_Q>
2

> <i_epik_Tot_abs_Q>
2

> <r_epik_Metal_State_Penalty>
1.41094

> <b_epik_Metal_Only>
0

> <s_lp_Force_Field>
OPLS_2005

> <r_lp_Energy>
85.1711

> <b_lp_Chiralities_Consistent>
1

> <s_lp_Variant>
AV-unprocessed.smi:1867-12

> <Gold.Version>
5.8.1

> <Gold.Id.Protein>
6NUR|6NUR_protein|mol2

> <Gold.PLP.Fitness>
46.0676

> <Gold.PLP.PLP>
-37.3475

> <Gold.PLP.part.hbond>
-2.9711

> <Gold.PLP.part.metal>
0.0000

> <Gold.PLP.part.buried>
-5.8569

> <Gold.PLP.part.nonpolar>
-29.3356

> <Gold.PLP.part.repulsive>
0.0364

> <Gold.PLP.ligand.clash>
0.0000

> <Gold.PLP.ligand.torsion>
1.5450

> <Gold.PLP.Chemscore.Hbond>
3.8704

> <Gold.PLP.Chemscore.CHOScore>
0.0000

> <Gold.PLP.Chemscore.Metal>
0.0000

> <Gold.Chemscore.Hbonds>
donor molecule, donor type, donor heavy atom, donor atom, acceptor molecule, acceptor atom, score
      L1  H     3    25       P1  7948  1.00
      L1  H    15    37       P1  7948  0.92
      L1  H    19    52       P1 10957  1.89

> <Gold.PLP.Chemscore.Internal.Correction>
0.1990

> <Gold.Rescore>
     Score         DG    S(hbond)    S(metal)    S(lipo)     H(rot)  DE(clash)    DE(int)     intcor
     21.01     -23.65       2.79        0.00      97.50       1.00       0.03       2.61       ----

> <Gold.Chemscore.Fitness>
21.0099

> <Gold.Chemscore.DG>
-23.6533

> <Gold.Chemscore.ZeroCoef>
-5.4800

> <Gold.Chemscore.Hbond>
2.7923

> <Gold.Chemscore.Metal>
0.0000

> <Gold.Chemscore.Lipo>
97.4971

> <Gold.Chemscore.Internal_Hbond>
0.0000

> <Gold.Chemscore.DEClash>
0.0343

> <Gold.Chemscore.DEInternal>
2.6091

> <Gold.Chemscore.Rot>
1.0000

> <Gold.Chemscore.Internal.Correction>
   9.000000E+99

> <Gold.Chemscore.Hbonds>
donor molecule, donor type, donor heavy atom, donor atom, acceptor molecule, acceptor atom, score
      L1  H     3    25       P1  7948  1.00
      L1  H    15    37       P1  7948  0.83
      L1  H    19    52       P1 10957  0.63

> <Gold.Chemscore.Hbond.Weighted>
-9.3262

> <Gold.Chemscore.Metal.Weighted>
-0.0000

> <Gold.Chemscore.Lipo.Weighted>
-11.4072

> <Gold.Chemscore.Internal_Hbond.Weighted>
0.0000

> <Gold.Chemscore.DEClash.Weighted>
0.0343

> <Gold.Chemscore.DEInternal.Weighted>
2.6091

> <Gold.Chemscore.Rot.Weighted>
2.5600

> <Gold.Chemscore.Internal.Correction.Weighted>
   9.000000E+99

> <Gold.Protein.RotatedTorsions>
[ 6907 6896 6895 6894 ] final  -51.43 input  -60.11 | X-H torsion
[ 7974 7965 7964 7962 ] final  175.35 input  175.53 | X-H torsion
[ 8008 7997 7996 7995 ] final  102.01 input   59.86 | X-H torsion
[ 10167 10162 10161 10158 ] final -126.10 input  -65.29 | X-H torsion
[ 10718 10713 10712 10709 ] final  134.59 input   66.30 | X-H torsion
[ 10763 10752 10751 10750 ] final   39.90 input  -60.55 | X-H torsion
[ 11005 11000 10999 10996 ] final  143.08 input  -57.11 | X-H torsion

> <Gold.Protein.ActiveResidues>
 VAL166  LYS551  ARG553  GLY616  TRP617  ASP618  TYR619  PRO620  LYS621  CYS622 
 ASP623  PHE694  ASN695  SER759  ASP760  ASP761  ALA762  ILE779  LEU786  VAL792 
 PHE793  MET794  SER795  GLU796  ALA797  LYS798  CYS799  TRP800  GLU811  SER814 

> <Gold.Protein.RotatedAtoms>
  150.8612  134.7964  159.7083 H   0  0  0  0  0  0  0  0  0  0  0  0  # atno 6907 bound_to 6896
  152.4648  134.5097  159.9760 H   0  0  0  0  0  0  0  0  0  0  0  0  # atno 6908 bound_to 6896
  151.5201  133.3430  159.2935 H   0  0  0  0  0  0  0  0  0  0  0  0  # atno 6909 bound_to 6896
  144.7203  139.9933  143.6440 H   0  0  0  0  0  0  0  0  0  0  0  0  # atno 7974 bound_to 7965
  156.1353  140.3188  155.8411 H   0  0  0  0  0  0  0  0  0  0  0  0  # atno 8008 bound_to 7997
  155.4256  140.0515  157.3039 H   0  0  0  0  0  0  0  0  0  0  0  0  # atno 8009 bound_to 7997
  154.4932  140.2100  155.9517 H   0  0  0  0  0  0  0  0  0  0  0  0  # atno 8010 bound_to 7997
  139.9751  143.5803  152.2399 H   0  0  0  0  0  0  0  0  0  0  0  0  # atno 10167 bound_to 10162
  157.4657  131.1076  150.9865 H   0  0  0  0  0  0  0  0  0  0  0  0  # atno 10718 bound_to 10713
  152.9953  135.6207  154.2539 H   0  0  0  0  0  0  0  0  0  0  0  0  # atno 10763 bound_to 10752
  154.2277  135.2793  155.2903 H   0  0  0  0  0  0  0  0  0  0  0  0  # atno 10764 bound_to 10752
  154.5476  135.5743  153.6952 H   0  0  0  0  0  0  0  0  0  0  0  0  # atno 10765 bound_to 10752
  140.0526  134.9247  157.1044 H   0  0  0  0  0  0  0  0  0  0  0  0  # atno 11005 bound_to 11000
  146.0394  139.3408  143.0706 LP  0  0  0  0  0  0  0  0  0  0  0  0  # atno 17320 bound_to 7965
  145.8354  140.9609  143.0827 LP  0  0  0  0  0  0  0  0  0  0  0  0  # atno 17321 bound_to 7965
  139.6452  144.7657  151.2258 LP  0  0  0  0  0  0  0  0  0  0  0  0  # atno 17342 bound_to 10162
  140.7509  143.6251  150.8476 LP  0  0  0  0  0  0  0  0  0  0  0  0  # atno 17343 bound_to 10162
  157.0647  130.5840  149.5392 LP  0  0  0  0  0  0  0  0  0  0  0  0  # atno 17370 bound_to 10713
  156.0049  130.5134  150.7795 LP  0  0  0  0  0  0  0  0  0  0  0  0  # atno 17371 bound_to 10713
  140.3893  134.2202  155.7167 LP  0  0  0  0  0  0  0  0  0  0  0  0  # atno 17394 bound_to 11000
  141.1937  133.8144  157.0786 LP  0  0  0  0  0  0  0  0  0  0  0  0  # atno 17395 bound_to 11000

$$$$
