AV-unprocessed.smi:2482|AV-procd|sdf|9777|dock1
  -GOLD-   2272013413D 1   1.00000     0.00000
 Structure written by MMmdl.
 35 36  0  0  0  0  0  0  0  0  2 V2000
  152.6013  138.6311  154.8830 C   0  0  0  0  0  0  0  0  0  0  0  0
  151.1189  138.8886  154.6705 C   0  0  0  0  0  0  0  0  0  0  0  0
  150.7928  140.1942  154.5485 N   0  0  0  0  0  0  0  0  0  0  0  0
  149.4980  140.5160  154.3535 C   0  0  0  0  0  0  0  0  0  0  0  0
  148.4675  139.5607  154.2788 C   0  0  0  0  0  0  0  0  0  0  0  0
  148.8011  138.1938  154.4207 C   0  0  0  0  0  0  0  0  0  0  0  0
  147.8348  137.1563  154.3324 N   0  0  0  0  0  0  0  0  0  0  0  0
  146.5499  137.2518  153.9449 C   0  0  0  0  0  0  0  0  0  0  0  0
  146.0140  138.2981  153.5784 O   0  0  0  0  0  0  0  0  0  0  0  0
  145.7385  135.9417  153.9989 C   0  0  2  0  0  0  0  0  0  0  0  0
  146.5930  134.6611  154.1552 C   0  0  0  0  0  0  0  0  0  0  0  0
  147.3486  134.3680  152.9142 N   0  3  1  0  0  0  0  0  0  0  0  0
  148.2300  133.1886  153.0480 C   0  0  0  0  0  0  0  0  0  0  0  0
  146.4334  134.2706  151.7548 C   0  0  0  0  0  0  0  0  0  0  0  0
  145.5971  135.5539  151.6240 C   0  0  0  0  0  0  0  0  0  0  0  0
  144.9006  135.8058  152.8452 O   0  0  0  0  0  0  0  0  0  0  0  0
  150.1597  137.8462  154.6064 C   0  0  0  0  0  0  0  0  0  0  0  0
  150.6157  136.1815  154.7635 Cl  0  0  0  0  0  0  0  0  0  0  0  0
  152.8433  137.5771  155.0056 H   0  0  0  0  0  0  0  0  0  0  0  0
  152.9458  139.1537  155.7757 H   0  0  0  0  0  0  0  0  0  0  0  0
  153.1710  139.0053  154.0320 H   0  0  0  0  0  0  0  0  0  0  0  0
  149.2771  141.5677  154.2470 H   0  0  0  0  0  0  0  0  0  0  0  0
  147.4534  139.8859  154.1019 H   0  0  0  0  0  0  0  0  0  0  0  0
  148.1214  136.2634  154.7076 H   0  0  0  0  0  0  0  0  0  0  0  0
  145.0826  136.0227  154.8662 H   0  0  0  0  0  0  0  0  0  0  0  0
  147.2821  134.7586  154.9956 H   0  0  0  0  0  0  0  0  0  0  0  0
  145.9436  133.8157  154.3881 H   0  0  0  0  0  0  0  0  0  0  0  0
  147.6503  132.2852  153.2418 H   0  0  0  0  0  0  0  0  0  0  0  0
  148.9336  133.3272  153.8695 H   0  0  0  0  0  0  0  0  0  0  0  0
  148.8090  133.0357  152.1366 H   0  0  0  0  0  0  0  0  0  0  0  0
  147.0079  134.1096  150.8420 H   0  0  0  0  0  0  0  0  0  0  0  0
  145.7768  133.4079  151.8780 H   0  0  0  0  0  0  0  0  0  0  0  0
  146.2269  136.4008  151.3489 H   0  0  0  0  0  0  0  0  0  0  0  0
  144.8653  135.4416  150.8238 H   0  0  0  0  0  0  0  0  0  0  0  0
  147.9513  135.1616  152.7466 H   0  0  0  0  0  0  0  0  0  0  0  0
  1  2  1  0  0  0  0
  1 19  1  0  0  0  0
  1 20  1  0  0  0  0
  1 21  1  0  0  0  0
  2 17  1  0  0  0  0
  2  3  2  0  0  0  0
  3  4  1  0  0  0  0
  4  5  2  0  0  0  0
  4 22  1  0  0  0  0
  5  6  1  0  0  0  0
  5 23  1  0  0  0  0
  6  7  1  0  0  0  0
  6 17  2  0  0  0  0
  7  8  1  0  0  0  0
  7 24  1  0  0  0  0
  8  9  2  0  0  0  0
  8 10  1  0  0  0  0
 10 16  1  0  0  0  0
 10 11  1  0  0  0  0
 10 25  1  0  0  0  0
 11 12  1  0  0  0  0
 11 26  1  0  0  0  0
 11 27  1  0  0  0  0
 12 13  1  0  0  0  0
 12 14  1  0  0  0  0
 12 35  1  0  0  0  0
 13 28  1  0  0  0  0
 13 29  1  0  0  0  0
 13 30  1  0  0  0  0
 14 15  1  0  0  0  0
 14 31  1  0  0  0  0
 14 32  1  0  0  0  0
 15 16  1  0  0  0  0
 15 33  1  0  0  0  0
 15 34  1  0  0  0  0
 17 18  1  0  0  0  0
M  CHG  1  12   1
M  END
> <s_m_source_file>
AV-unprocessed.smi

> <i_m_source_file_index>
2482

> <i_lp_mmshare_version>
43012

> <i_f3d_flags>
0

> <s_epik_input>
W0NIM11jMW5bY0hdW2NIXWMoYzFDbClbTkhdQyg9TylbQ0BASF0yW0NIMl1OKFtDSDNdKVtDSDJdW0NIMl1PMg==

> <s_epik_cmdline>
J2VwaWtfcHl0aG9uJywgJy1waCcsICc3LjAnLCAnLXRuJywgJzgnLCAnLW1hJywgJzIwMCcsICctbWV0YWxfYmluZGluZycsICctaW1hZScsICc8aW5maWxlLm1hZT4nLCAnLW9tYWUnLCAnPG91dGZpbGUubWFlPic=

> <r_epik_Ionization_Penalty>
0.314226

> <r_epik_Ionization_Penalty_Charging>
0.314023

> <r_epik_Ionization_Penalty_Neutral>
0.00020299

> <r_epik_State_Penalty>
0.308208

> <r_epik_Charging_Adjusted_Penalty>
0.62223

> <i_epik_Tot_Q>
1

> <i_epik_Tot_abs_Q>
1

> <r_epik_Metal_State_Penalty>
0.314444

> <b_epik_Metal_Only>
0

> <s_lp_Force_Field>
OPLS_2005

> <r_lp_Energy>
21.5381

> <b_lp_Chiralities_Consistent>
1

> <s_lp_Variant>
AV-unprocessed.smi:2482-3

> <Gold.Version>
5.8.1

> <Gold.Id.Protein>
6NUR|6NUR_protein|mol2

> <Gold.PLP.Fitness>
35.4150

> <Gold.PLP.PLP>
-27.2711

> <Gold.PLP.part.hbond>
-2.9617

> <Gold.PLP.part.metal>
0.0000

> <Gold.PLP.part.buried>
-0.3484

> <Gold.PLP.part.nonpolar>
-23.3572

> <Gold.PLP.part.repulsive>
0.3445

> <Gold.PLP.ligand.clash>
0.0000

> <Gold.PLP.ligand.torsion>
0.4380

> <Gold.PLP.Chemscore.Hbond>
3.0000

> <Gold.PLP.Chemscore.CHOScore>
0.0000

> <Gold.PLP.Chemscore.Metal>
0.0000

> <Gold.Chemscore.Hbonds>
donor molecule, donor type, donor heavy atom, donor atom, acceptor molecule, acceptor atom, score
      L1  H    12    35       P1  7948  2.00
      P1  H  7989  7998       L1     3  0.93

> <Gold.PLP.Chemscore.Internal.Correction>
0.0199

> <Gold.Rescore>
     Score         DG    S(hbond)    S(metal)    S(lipo)     H(rot)  DE(clash)    DE(int)     intcor
     14.38     -16.24       1.75        0.00      63.88       1.00       0.21       1.66       ----

> <Gold.Chemscore.Fitness>
14.3808

> <Gold.Chemscore.DG>
-16.2441

> <Gold.Chemscore.ZeroCoef>
-5.4800

> <Gold.Chemscore.Hbond>
1.7516

> <Gold.Chemscore.Metal>
0.0000

> <Gold.Chemscore.Lipo>
63.8786

> <Gold.Chemscore.Internal_Hbond>
0.0000

> <Gold.Chemscore.DEClash>
0.2062

> <Gold.Chemscore.DEInternal>
1.6571

> <Gold.Chemscore.Rot>
1.0000

> <Gold.Chemscore.Internal.Correction>
   9.000000E+99

> <Gold.Chemscore.Hbonds>
donor molecule, donor type, donor heavy atom, donor atom, acceptor molecule, acceptor atom, score
      L1  H    12    35       P1  7948  0.97
      P1  H  7989  7998       L1     3  0.49

> <Gold.Chemscore.Hbond.Weighted>
-5.8503

> <Gold.Chemscore.Metal.Weighted>
-0.0000

> <Gold.Chemscore.Lipo.Weighted>
-7.4738

> <Gold.Chemscore.Internal_Hbond.Weighted>
0.0000

> <Gold.Chemscore.DEClash.Weighted>
0.2062

> <Gold.Chemscore.DEInternal.Weighted>
1.6571

> <Gold.Chemscore.Rot.Weighted>
2.5600

> <Gold.Chemscore.Internal.Correction.Weighted>
   9.000000E+99

> <Gold.Protein.RotatedTorsions>
[ 6907 6896 6895 6894 ] final   47.63 input  -60.11 | X-H torsion
[ 7974 7965 7964 7962 ] final  -61.47 input  175.53 | X-H torsion
[ 8008 7997 7996 7995 ] final -152.20 input   59.86 | X-H torsion
[ 10167 10162 10161 10158 ] final  -22.65 input  -65.29 | X-H torsion
[ 10718 10713 10712 10709 ] final -155.21 input   66.30 | X-H torsion
[ 10763 10752 10751 10750 ] final  -89.75 input  -60.55 | X-H torsion
[ 11005 11000 10999 10996 ] final  -40.13 input  -57.11 | X-H torsion

> <Gold.Protein.ActiveResidues>
 VAL166  LYS551  ARG553  GLY616  TRP617  ASP618  TYR619  PRO620  LYS621  CYS622 
 ASP623  PHE694  ASN695  SER759  ASP760  ASP761  ALA762  ILE779  LEU786  VAL792 
 PHE793  MET794  SER795  GLU796  ALA797  LYS798  CYS799  TRP800  GLU811  SER814 

> <Gold.Protein.RotatedAtoms>
  152.2702  134.7940  160.0415 H   0  0  0  0  0  0  0  0  0  0  0  0  # atno 6907 bound_to 6896
  151.8556  133.3442  159.3695 H   0  0  0  0  0  0  0  0  0  0  0  0  # atno 6908 bound_to 6896
  150.7149  134.5184  159.5686 H   0  0  0  0  0  0  0  0  0  0  0  0  # atno 6909 bound_to 6896
  145.8031  140.8643  143.0221 H   0  0  0  0  0  0  0  0  0  0  0  0  # atno 7974 bound_to 7965
  155.6514  140.0712  157.2585 H   0  0  0  0  0  0  0  0  0  0  0  0  # atno 8008 bound_to 7997
  154.4162  140.1732  156.1728 H   0  0  0  0  0  0  0  0  0  0  0  0  # atno 8009 bound_to 7997
  155.9774  140.3357  155.6634 H   0  0  0  0  0  0  0  0  0  0  0  0  # atno 8010 bound_to 7997
  140.7286  143.4515  151.0510 H   0  0  0  0  0  0  0  0  0  0  0  0  # atno 10167 bound_to 10162
  156.5098  130.8429  151.2642 H   0  0  0  0  0  0  0  0  0  0  0  0  # atno 10718 bound_to 10713
  154.6585  135.5329  153.7989 H   0  0  0  0  0  0  0  0  0  0  0  0  # atno 10763 bound_to 10752
  153.0428  135.6500  154.0908 H   0  0  0  0  0  0  0  0  0  0  0  0  # atno 10764 bound_to 10752
  154.0819  135.2946  155.3268 H   0  0  0  0  0  0  0  0  0  0  0  0  # atno 10765 bound_to 10752
  141.0153  133.6888  156.2280 H   0  0  0  0  0  0  0  0  0  0  0  0  # atno 11005 bound_to 11000
  144.6766  140.0287  143.7483 LP  0  0  0  0  0  0  0  0  0  0  0  0  # atno 17320 bound_to 7965
  145.9857  139.2975  143.1015 LP  0  0  0  0  0  0  0  0  0  0  0  0  # atno 17321 bound_to 7965
  139.8191  143.7844  152.3176 LP  0  0  0  0  0  0  0  0  0  0  0  0  # atno 17342 bound_to 10162
  139.7921  144.7406  150.9941 LP  0  0  0  0  0  0  0  0  0  0  0  0  # atno 17343 bound_to 10162
  157.7452  130.9953  150.2740 LP  0  0  0  0  0  0  0  0  0  0  0  0  # atno 17370 bound_to 10713
  156.3251  130.3792  149.7540 LP  0  0  0  0  0  0  0  0  0  0  0  0  # atno 17371 bound_to 10713
  140.6666  134.4912  157.5585 LP  0  0  0  0  0  0  0  0  0  0  0  0  # atno 17394 bound_to 11000
  139.9113  134.8339  156.1519 LP  0  0  0  0  0  0  0  0  0  0  0  0  # atno 17395 bound_to 11000

$$$$
