AV-unprocessed.smi:2|AV-procd|sdf|26|dock5
  -GOLD-   2262015133D 1   1.00000     0.00000
 Structure written by MMmdl.
 52 54  0  0  0  0  0  0  0  0  3 V2000
  145.2934  134.6978  162.4498 C   0  0  0  0  0  0  0  0  0  0  0  0
  145.7925  136.1459  162.3222 C   0  0  0  0  0  0  0  0  0  0  0  0
  145.1425  136.9312  161.1721 C   0  0  0  0  0  0  0  0  0  0  0  0
  143.9266  137.1296  161.1774 O   0  0  0  0  0  0  0  0  0  0  0  0
  146.0379  137.4214  160.0844 C   0  0  0  0  0  0  0  0  0  0  0  0
  145.4774  138.0775  158.9657 C   0  0  0  0  0  0  0  0  0  0  0  0
  146.2986  138.5439  157.9215 C   0  0  0  0  0  0  0  0  0  0  0  0
  147.6949  138.3654  157.9635 C   0  0  0  0  0  0  0  0  0  0  0  0
  148.4174  138.8413  156.8881 O   0  0  0  0  0  0  0  0  0  0  0  0
  147.8661  139.8675  156.0665 C   0  0  0  0  0  0  0  0  0  0  0  0
  148.5469  139.9117  154.6811 C   0  0  1  0  0  0  0  0  0  0  0  0
  147.5957  140.3607  153.7360 O   0  0  0  0  0  0  0  0  0  0  0  0
  149.7840  140.8400  154.6799 C   0  0  0  0  0  0  0  0  0  0  0  0
  150.8080  140.4432  155.6542 N   0  0  0  0  0  0  0  0  0  0  0  0
  151.4596  139.2421  155.7196 C   0  0  0  0  0  0  0  0  0  0  0  0
  151.2982  138.1023  154.8255 N   0  3  0  0  0  0  0  0  0  0  0  0
  150.5536  138.1930  153.8576 O   0  0  0  0  0  0  0  0  0  0  0  0
  151.9050  137.0747  155.1129 O   0  5  0  0  0  0  0  0  0  0  0  0
  152.2978  139.1338  156.7512 N   0  0  0  0  0  0  0  0  0  0  0  0
  152.1794  140.3453  157.4014 C   0  0  0  0  0  0  0  0  0  0  0  0
  152.8108  140.7977  158.6570 C   0  0  0  0  0  0  0  0  0  0  0  0
  153.6361  140.0953  159.2427 O   0  0  0  0  0  0  0  0  0  0  0  0
  152.3702  142.0186  159.0945 N   0  0  0  0  0  0  0  0  0  0  0  0
  152.8730  142.5163  160.3894 C   0  0  0  0  0  0  0  0  0  0  0  0
  151.5026  142.8466  158.4053 C   0  0  0  0  0  0  0  0  0  0  0  0
  151.1479  143.9253  158.8896 O   0  0  0  0  0  0  0  0  0  0  0  0
  151.0658  142.4517  157.1612 N   0  0  0  0  0  0  0  0  0  0  0  0
  150.4296  143.4436  156.2853 C   0  0  0  0  0  0  0  0  0  0  0  0
  151.3335  141.1775  156.7412 C   0  0  0  0  0  0  0  0  0  0  0  0
  148.2598  137.7199  159.0906 C   0  0  0  0  0  0  0  0  0  0  0  0
  147.4409  137.2508  160.1355 C   0  0  0  0  0  0  0  0  0  0  0  0
  145.7990  134.1900  163.2713 H   0  0  0  0  0  0  0  0  0  0  0  0
  145.4874  134.1261  161.5414 H   0  0  0  0  0  0  0  0  0  0  0  0
  144.2220  134.6623  162.6511 H   0  0  0  0  0  0  0  0  0  0  0  0
  145.6019  136.6745  163.2566 H   0  0  0  0  0  0  0  0  0  0  0  0
  146.8725  136.1410  162.1721 H   0  0  0  0  0  0  0  0  0  0  0  0
  144.4099  138.2287  158.8931 H   0  0  0  0  0  0  0  0  0  0  0  0
  145.8486  139.0386  157.0733 H   0  0  0  0  0  0  0  0  0  0  0  0
  146.7979  139.6788  155.9513 H   0  0  0  0  0  0  0  0  0  0  0  0
  147.9185  140.8298  156.5751 H   0  0  0  0  0  0  0  0  0  0  0  0
  148.8511  138.9119  154.3762 H   0  0  0  0  0  0  0  0  0  0  0  0
  147.9999  140.3714  152.8820 H   0  0  0  0  0  0  0  0  0  0  0  0
  150.2202  140.8878  153.6854 H   0  0  0  0  0  0  0  0  0  0  0  0
  149.4874  141.8693  154.8453 H   0  0  0  0  0  0  0  0  0  0  0  0
  152.0455  142.7841  161.0487 H   0  0  0  0  0  0  0  0  0  0  0  0
  153.4830  143.4084  160.2391 H   0  0  0  0  0  0  0  0  0  0  0  0
  153.4839  141.8061  160.9475 H   0  0  0  0  0  0  0  0  0  0  0  0
  150.9293  143.4675  155.3176 H   0  0  0  0  0  0  0  0  0  0  0  0
  150.4842  144.4695  156.6508 H   0  0  0  0  0  0  0  0  0  0  0  0
  149.3748  143.2232  156.1530 H   0  0  0  0  0  0  0  0  0  0  0  0
  149.3229  137.5639  159.1811 H   0  0  0  0  0  0  0  0  0  0  0  0
  147.9174  136.7593  160.9703 H   0  0  0  0  0  0  0  0  0  0  0  0
  1  2  1  0  0  0  0
  1 32  1  0  0  0  0
  1 33  1  0  0  0  0
  1 34  1  0  0  0  0
  2  3  1  0  0  0  0
  2 35  1  0  0  0  0
  2 36  1  0  0  0  0
  3  4  2  0  0  0  0
  3  5  1  0  0  0  0
  5 31  1  0  0  0  0
  5  6  2  0  0  0  0
  6  7  1  0  0  0  0
  6 37  1  0  0  0  0
  7  8  2  0  0  0  0
  7 38  1  0  0  0  0
  8  9  1  0  0  0  0
  8 30  1  0  0  0  0
  9 10  1  0  0  0  0
 10 11  1  0  0  0  0
 10 39  1  0  0  0  0
 10 40  1  0  0  0  0
 11 12  1  0  0  0  0
 11 13  1  0  0  0  0
 11 41  1  0  0  0  0
 12 42  1  0  0  0  0
 13 14  1  0  0  0  0
 13 43  1  0  0  0  0
 13 44  1  0  0  0  0
 14 29  1  0  0  0  0
 14 15  1  0  0  0  0
 15 16  1  0  0  0  0
 15 19  2  0  0  0  0
 16 17  2  0  0  0  0
 16 18  1  0  0  0  0
 19 20  1  0  0  0  0
 20 29  2  0  0  0  0
 20 21  1  0  0  0  0
 21 22  2  0  0  0  0
 21 23  1  0  0  0  0
 23 24  1  0  0  0  0
 23 25  1  0  0  0  0
 24 45  1  0  0  0  0
 24 46  1  0  0  0  0
 24 47  1  0  0  0  0
 25 26  2  0  0  0  0
 25 27  1  0  0  0  0
 27 28  1  0  0  0  0
 27 29  1  0  0  0  0
 28 48  1  0  0  0  0
 28 49  1  0  0  0  0
 28 50  1  0  0  0  0
 30 31  2  0  0  0  0
 30 51  1  0  0  0  0
 31 52  1  0  0  0  0
M  CHG  1  16   1
M  CHG  1  18  -1
M  END
> <s_m_source_file>
AV-unprocessed.smi

> <i_m_source_file_index>
2

> <i_lp_mmshare_version>
43012

> <i_f3d_flags>
0

> <s_epik_input>
W0NIM11bQ0gyXUMoPU8pYzFbY0hdW2NIXWMoW2NIXVtjSF0xKU9bQ0gyXVtDQEhdKFtPSF0pW0NIMl1uKGMobjIpW04rXSg9TylbTy1dKWMoYzIzKW4oW0NIM10pYyg9TyluKGMzPU8pW0NIM10=

> <s_epik_cmdline>
J2VwaWtfcHl0aG9uJywgJy1waCcsICc3LjAnLCAnLXRuJywgJzgnLCAnLW1hJywgJzIwMCcsICctbWV0YWxfYmluZGluZycsICctaW1hZScsICc8aW5maWxlLm1hZT4nLCAnLW9tYWUnLCAnPG91dGZpbGUubWFlPic=

> <r_lp_tautomer_probability>
1

> <r_epik_Ionization_Penalty>
1.02275e-06

> <r_epik_Ionization_Penalty_Charging>
4.46226e-11

> <r_epik_Ionization_Penalty_Neutral>
1.02271e-06

> <r_epik_State_Penalty>
-0

> <r_epik_Charging_Adjusted_Penalty>
4.46226e-11

> <i_epik_Tot_Q>
0

> <i_epik_Tot_abs_Q>
2

> <r_epik_Metal_State_Penalty>
-0

> <b_epik_Metal_Only>
0

> <s_lp_Force_Field>
OPLS_2005

> <r_lp_Energy>
60.3612

> <b_lp_Chiralities_Consistent>
1

> <s_lp_Variant>
AV-unprocessed.smi:2-2

> <Gold.Version>
5.8.1

> <Gold.Id.Protein>
6NUR|6NUR_protein|mol2

> <Gold.PLP.Fitness>
53.7746

> <Gold.PLP.PLP>
-49.2309

> <Gold.PLP.part.hbond>
-3.3990

> <Gold.PLP.part.metal>
0.0000

> <Gold.PLP.part.buried>
-3.9425

> <Gold.PLP.part.nonpolar>
-41.1451

> <Gold.PLP.part.repulsive>
0.2568

> <Gold.PLP.ligand.clash>
0.0000

> <Gold.PLP.ligand.torsion>
0.8115

> <Gold.PLP.Chemscore.Hbond>
2.0000

> <Gold.PLP.Chemscore.CHOScore>
0.0000

> <Gold.PLP.Chemscore.Metal>
0.0000

> <Gold.Chemscore.Hbonds>
donor molecule, donor type, donor heavy atom, donor atom, acceptor molecule, acceptor atom, score
      L1  H    12    42       P1  7957  0.15
      P1  H 10752 10765       L1    18  0.85

> <Gold.PLP.Chemscore.Internal.Correction>
0.1668

> <Gold.Rescore>
     Score         DG    S(hbond)    S(metal)    S(lipo)     H(rot)  DE(clash)    DE(int)     intcor
      7.71     -11.41       1.37        0.00      80.76       3.16       0.30       3.40       ----

> <Gold.Chemscore.Fitness>
7.7112

> <Gold.Chemscore.DG>
-11.4087

> <Gold.Chemscore.ZeroCoef>
-5.4800

> <Gold.Chemscore.Hbond>
1.3680

> <Gold.Chemscore.Metal>
0.0000

> <Gold.Chemscore.Lipo>
80.7565

> <Gold.Chemscore.Internal_Hbond>
0.0000

> <Gold.Chemscore.DEClash>
0.3016

> <Gold.Chemscore.DEInternal>
3.3960

> <Gold.Chemscore.Rot>
3.1597

> <Gold.Chemscore.Internal.Correction>
   9.000000E+99

> <Gold.Chemscore.Hbonds>
donor molecule, donor type, donor heavy atom, donor atom, acceptor molecule, acceptor atom, score
      L1  H    12    42       P1  7957  0.18
      P1  H 10752 10765       L1    18  0.84

> <Gold.Chemscore.Hbond.Weighted>
-4.5691

> <Gold.Chemscore.Metal.Weighted>
-0.0000

> <Gold.Chemscore.Lipo.Weighted>
-9.4485

> <Gold.Chemscore.Internal_Hbond.Weighted>
0.0000

> <Gold.Chemscore.DEClash.Weighted>
0.3016

> <Gold.Chemscore.DEInternal.Weighted>
3.3960

> <Gold.Chemscore.Rot.Weighted>
8.0888

> <Gold.Chemscore.Internal.Correction.Weighted>
   9.000000E+99

> <Gold.Protein.RotatedTorsions>
[ 6907 6896 6895 6894 ] final   -1.77 input  -60.11 | X-H torsion
[ 7974 7965 7964 7962 ] final -156.73 input  175.53 | X-H torsion
[ 8008 7997 7996 7995 ] final  168.88 input   59.86 | X-H torsion
[ 10167 10162 10161 10158 ] final   38.52 input  -65.29 | X-H torsion
[ 10718 10713 10712 10709 ] final   31.16 input   66.30 | X-H torsion
[ 10763 10752 10751 10750 ] final -160.97 input  -60.55 | X-H torsion
[ 11005 11000 10999 10996 ] final  -17.53 input  -57.11 | X-H torsion

> <Gold.Protein.ActiveResidues>
 VAL166  LYS551  ARG553  GLY616  TRP617  ASP618  TYR619  PRO620  LYS621  CYS622 
 ASP623  PHE694  ASN695  SER759  ASP760  ASP761  ALA762  ILE779  LEU786  VAL792 
 PHE793  MET794  SER795  GLU796  ALA797  LYS798  CYS799  TRP800  GLU811  SER814 

> <Gold.Protein.RotatedAtoms>
  151.5407  135.1068  159.9925 H   0  0  0  0  0  0  0  0  0  0  0  0  # atno 6907 bound_to 6896
  152.4536  133.7675  159.6791 H   0  0  0  0  0  0  0  0  0  0  0  0  # atno 6908 bound_to 6896
  150.8473  133.7776  159.3063 H   0  0  0  0  0  0  0  0  0  0  0  0  # atno 6909 bound_to 6896
  144.7580  140.4068  143.5998 H   0  0  0  0  0  0  0  0  0  0  0  0  # atno 7974 bound_to 7965
  156.1508  140.1579  156.8773 H   0  0  0  0  0  0  0  0  0  0  0  0  # atno 8008 bound_to 7997
  154.5069  140.0811  156.7949 H   0  0  0  0  0  0  0  0  0  0  0  0  # atno 8009 bound_to 7997
  155.3900  140.3409  155.4253 H   0  0  0  0  0  0  0  0  0  0  0  0  # atno 8010 bound_to 7997
  140.3929  144.1829  150.6131 H   0  0  0  0  0  0  0  0  0  0  0  0  # atno 10167 bound_to 10162
  157.2689  130.7198  149.6494 H   0  0  0  0  0  0  0  0  0  0  0  0  # atno 10718 bound_to 10713
  154.7345  135.3054  154.8836 H   0  0  0  0  0  0  0  0  0  0  0  0  # atno 10763 bound_to 10752
  153.9669  135.6746  153.4750 H   0  0  0  0  0  0  0  0  0  0  0  0  # atno 10764 bound_to 10752
  153.0949  135.4941  154.8682 H   0  0  0  0  0  0  0  0  0  0  0  0  # atno 10765 bound_to 10752
  140.8177  133.8092  155.9628 H   0  0  0  0  0  0  0  0  0  0  0  0  # atno 11005 bound_to 11000
  145.6715  139.1600  143.2752 LP  0  0  0  0  0  0  0  0  0  0  0  0  # atno 17320 bound_to 7965
  146.1612  140.6786  142.9277 LP  0  0  0  0  0  0  0  0  0  0  0  0  # atno 17321 bound_to 7965
  140.4821  143.2375  151.8940 LP  0  0  0  0  0  0  0  0  0  0  0  0  # atno 17342 bound_to 10162
  139.4788  144.5258  151.8737 LP  0  0  0  0  0  0  0  0  0  0  0  0  # atno 17343 bound_to 10162
  155.9663  130.4374  150.5173 LP  0  0  0  0  0  0  0  0  0  0  0  0  # atno 17370 bound_to 10713
  157.3093  131.0660  151.2012 LP  0  0  0  0  0  0  0  0  0  0  0  0  # atno 17371 bound_to 10713
  140.9131  134.2235  157.4973 LP  0  0  0  0  0  0  0  0  0  0  0  0  # atno 17394 bound_to 11000
  139.8710  134.9759  156.4901 LP  0  0  0  0  0  0  0  0  0  0  0  0  # atno 17395 bound_to 11000

$$$$
