#       Name:                AV-unprocessed.smi:3181
#       Creating user name   scv26
#       Creation time:       Fri Mar 27 17:58:41 2020


#       File generated by GOLD software.
#

@<TRIPOS>MOLECULE
AV-unprocessed.smi:3181
    44    45     1
SMALL
NO_CHARGES


@<TRIPOS>ATOM
      1 ****        -1.6122  -2.2343  -2.1382 C.3            1 S1                 0.0000
      2 ****        -1.2029  -1.3288  -0.9650 C.3            1 S1                 0.0000
      3 ****        -1.7205  -1.8562   0.3912 C.3            1 S1                 0.0000
      4 ****        -3.1664  -1.9673   0.4385 N.pl3          1 S1                 0.0000
      5 ****        -3.9544  -3.0399   0.5329 C.2            1 S1                 0.0000
      6 ****        -5.2481  -2.7521   0.5571 N.2            1 S1                 0.0000
      7 ****        -5.1813  -1.3895   0.4774 C.2            1 S1                 0.0000
      8 ****        -3.9560  -0.8683   0.4081 N.2            1 S1                 0.0000
      9 ****         0.2718  -1.1977  -0.9334 N.4            1 S1                 1.0000
     10 ****         0.8051   0.1823  -0.8534 C.3            1 S1                 0.0000
     11 ****         2.3208   0.1652  -1.1202 C.3            1 S1                 0.0000
     12 ****         2.9308   1.5732  -1.0191 C.3            1 S1                 0.0000
     13 ****         2.6425   2.2388   0.3418 C.3            1 S1                 0.0000
     14 ****         3.4740   1.6036   1.4745 C.3            1 S1                 0.0000
     15 ****         1.1159   2.2562   0.6085 C.3            1 S1                 0.0000
     16 ****         0.7368   2.9520   1.9263 C.3            1 S1                 0.0000
     17 ****         0.5002   0.8455   0.5074 C.3            1 S1                 0.0000
     18 ****        -2.6962  -2.2957  -2.2378 H              1 S1                 0.0000
     19 ****        -1.2323  -3.2484  -2.0092 H              1 S1                 0.0000
     20 ****        -1.2238  -1.8511  -3.0824 H              1 S1                 0.0000
     21 ****        -1.6409  -0.3468  -1.1507 H              1 S1                 0.0000
     22 ****        -1.2945  -2.8387   0.5997 H              1 S1                 0.0000
     23 ****        -1.4081  -1.2057   1.2083 H              1 S1                 0.0000
     24 ****        -3.5758  -4.0506   0.5805 H              1 S1                 0.0000
     25 ****        -6.0613  -0.7632   0.4705 H              1 S1                 0.0000
     26 ****         0.6386  -1.7441  -0.1672 H              1 S1                 0.0000
     27 ****         0.3353   0.7692  -1.6446 H              1 S1                 0.0000
     28 ****         2.8164  -0.5021  -0.4140 H              1 S1                 0.0000
     29 ****         2.5180  -0.2430  -2.1123 H              1 S1                 0.0000
     30 ****         4.0058   1.5272  -1.1972 H              1 S1                 0.0000
     31 ****         2.5213   2.1953  -1.8162 H              1 S1                 0.0000
     32 ****         2.9734   3.2755   0.2639 H              1 S1                 0.0000
     33 ****         3.1746   0.5767   1.6810 H              1 S1                 0.0000
     34 ****         3.3813   2.1680   2.4021 H              1 S1                 0.0000
     35 ****         4.5335   1.5905   1.2180 H              1 S1                 0.0000
     36 ****         0.6674   2.8533  -0.1873 H              1 S1                 0.0000
     37 ****         1.0626   2.3793   2.7948 H              1 S1                 0.0000
     38 ****        -0.3436   3.0755   2.0045 H              1 S1                 0.0000
     39 ****         1.1851   3.9438   1.9904 H              1 S1                 0.0000
     40 ****        -0.5780   0.9263   0.6468 H              1 S1                 0.0000
     41 ****         0.8667   0.2170   1.3199 H              1 S1                 0.0000
     42 ****         0.6195  -1.5928  -1.7954 H              1 S1                 0.0000
     43 ****        -6.0425  -3.3566   0.6164 LP             1 S1                 0.0000
     44 ****        -3.6877   0.0932   0.3486 LP             1 S1                 0.0000
@<TRIPOS>BOND
    1    1    2 1     
    2    1   18 1     
    3    1   19 1     
    4    1   20 1     
    5    2    3 1     
    6    2    9 1     
    7    2   21 1     
    8    3    4 1     
    9    3   22 1     
   10    3   23 1     
   11    4    8 1     
   12    4    5 1     
   13    5    6 2     
   14    5   24 1     
   15    6    7 1     
   16    7    8 2     
   17    7   25 1     
   18    9   10 1     
   19    9   26 1     
   20    9   42 1     
   21   10   17 1     
   22   10   11 1     
   23   10   27 1     
   24   11   12 1     
   25   11   28 1     
   26   11   29 1     
   27   12   13 1     
   28   12   30 1     
   29   12   31 1     
   30   13   14 1     
   31   13   15 1     
   32   13   32 1     
   33   14   33 1     
   34   14   34 1     
   35   14   35 1     
   36   15   16 1     
   37   15   17 1     
   38   15   36 1     
   39   16   37 1     
   40   16   38 1     
   41   16   39 1     
   42   17   40 1     
   43   17   41 1     
   44    6   43 1     
   45    8   44 1     
@<TRIPOS>SUBSTRUCTURE
      1 S1             1
@<TRIPOS>SET
LONE_PAIRS      STATIC     ATOMS    <user>   **** ""
2 43 44
DONOR_HYDROGENS      STATIC     ATOMS    <user>   **** ""
2 26 42
ATOM$BLUE        STATIC     ATOMS    COLORGROUP SYSTEM
2 43 44
ATOM$RED        STATIC     ATOMS    COLORGROUP SYSTEM
2 26 42
