AV-unprocessed.smi:1692|AV-procd|sdf|6782|dock4
  -GOLD-   22720 7543D 1   1.00000     0.00000
 Structure written by MMmdl.
 45 46  0  0  0  0  0  0  0  0  1 V2000
  152.3093  138.3142  154.5915 C   0  0  0  0  0  0  0  0  0  0  0  0
  151.1548  139.1560  155.1454 C   0  0  2  0  0  0  0  0  0  0  0  0
  150.0087  139.3076  154.1295 C   0  0  0  0  0  0  0  0  0  0  0  0
  148.9468  140.1729  154.6274 N   0  0  0  0  0  0  0  0  0  0  0  0
  147.8549  140.2657  153.6594 C   0  0  0  0  0  0  0  0  0  0  0  0
  146.8957  139.0632  153.6364 C   0  0  0  0  0  0  0  0  0  0  0  0
  146.3799  138.7664  152.2193 C   0  0  0  0  0  0  0  0  0  0  0  0
  146.6262  137.3811  151.8351 N   0  0  0  0  0  0  0  0  0  0  0  0
  145.6829  136.4356  151.7154 C   0  0  0  0  0  0  0  0  0  0  0  0
  144.4854  136.6431  151.9138 O   0  0  0  0  0  0  0  0  0  0  0  0
  146.2198  135.2562  151.3558 N   0  0  0  0  0  0  0  0  0  0  0  0
  145.5582  134.0166  151.1468 C   0  0  0  0  0  0  0  0  0  0  0  0
  146.3845  132.8740  151.2431 C   0  0  0  0  0  0  0  0  0  0  0  0
  145.8244  131.5956  151.0544 C   0  0  0  0  0  0  0  0  0  0  0  0
  144.4503  131.4925  150.7741 C   0  0  0  0  0  0  0  0  0  0  0  0
  143.6986  132.6794  150.6952 C   0  0  0  0  0  0  0  0  0  0  0  0
  144.2335  133.9056  150.8755 N   0  0  0  0  0  0  0  0  0  0  0  0
  149.5147  141.4777  154.9599 C   0  0  0  0  0  0  0  0  0  0  0  0
  150.6953  141.3820  155.9479 C   0  0  1  0  0  0  0  0  0  0  0  0
  150.2596  141.0719  157.3899 C   0  0  0  0  0  0  0  0  0  0  0  0
  151.6657  140.4462  155.4756 O   0  0  0  0  0  0  0  0  0  0  0  0
  151.9726  137.3112  154.3286 H   0  0  0  0  0  0  0  0  0  0  0  0
  153.1068  138.2142  155.3280 H   0  0  0  0  0  0  0  0  0  0  0  0
  152.7367  138.7695  153.6976 H   0  0  0  0  0  0  0  0  0  0  0  0
  150.7804  138.6717  156.0478 H   0  0  0  0  0  0  0  0  0  0  0  0
  150.4016  139.7078  153.1933 H   0  0  0  0  0  0  0  0  0  0  0  0
  149.6024  138.3220  153.8996 H   0  0  0  0  0  0  0  0  0  0  0  0
  147.2874  141.1820  153.8296 H   0  0  0  0  0  0  0  0  0  0  0  0
  148.2835  140.3611  152.6608 H   0  0  0  0  0  0  0  0  0  0  0  0
  147.4092  138.1854  154.0313 H   0  0  0  0  0  0  0  0  0  0  0  0
  146.0432  139.2464  154.2901 H   0  0  0  0  0  0  0  0  0  0  0  0
  145.3050  138.9424  152.1726 H   0  0  0  0  0  0  0  0  0  0  0  0
  146.8359  139.4440  151.4955 H   0  0  0  0  0  0  0  0  0  0  0  0
  147.5851  137.1239  151.6531 H   0  0  0  0  0  0  0  0  0  0  0  0
  147.2201  135.2413  151.2233 H   0  0  0  0  0  0  0  0  0  0  0  0
  147.4387  132.9711  151.4597 H   0  0  0  0  0  0  0  0  0  0  0  0
  146.4391  130.7104  151.1240 H   0  0  0  0  0  0  0  0  0  0  0  0
  143.9842  130.5301  150.6233 H   0  0  0  0  0  0  0  0  0  0  0  0
  142.6407  132.6444  150.4816 H   0  0  0  0  0  0  0  0  0  0  0  0
  149.8600  141.9639  154.0463 H   0  0  0  0  0  0  0  0  0  0  0  0
  148.7528  142.1294  155.3860 H   0  0  0  0  0  0  0  0  0  0  0  0
  151.1921  142.3523  155.9690 H   0  0  0  0  0  0  0  0  0  0  0  0
  149.6096  141.8574  157.7754 H   0  0  0  0  0  0  0  0  0  0  0  0
  151.1240  141.0042  158.0508 H   0  0  0  0  0  0  0  0  0  0  0  0
  149.7109  140.1330  157.4595 H   0  0  0  0  0  0  0  0  0  0  0  0
  1  2  1  0  0  0  0
  1 22  1  0  0  0  0
  1 23  1  0  0  0  0
  1 24  1  0  0  0  0
  2 21  1  0  0  0  0
  2  3  1  0  0  0  0
  2 25  1  0  0  0  0
  3  4  1  0  0  0  0
  3 26  1  0  0  0  0
  3 27  1  0  0  0  0
  4  5  1  0  0  0  0
  4 18  1  0  0  0  0
  5  6  1  0  0  0  0
  5 28  1  0  0  0  0
  5 29  1  0  0  0  0
  6  7  1  0  0  0  0
  6 30  1  0  0  0  0
  6 31  1  0  0  0  0
  7  8  1  0  0  0  0
  7 32  1  0  0  0  0
  7 33  1  0  0  0  0
  8  9  1  0  0  0  0
  8 34  1  0  0  0  0
  9 10  2  0  0  0  0
  9 11  1  0  0  0  0
 11 12  1  0  0  0  0
 11 35  1  0  0  0  0
 12 17  1  0  0  0  0
 12 13  2  0  0  0  0
 13 14  1  0  0  0  0
 13 36  1  0  0  0  0
 14 15  2  0  0  0  0
 14 37  1  0  0  0  0
 15 16  1  0  0  0  0
 15 38  1  0  0  0  0
 16 17  2  0  0  0  0
 16 39  1  0  0  0  0
 18 19  1  0  0  0  0
 18 40  1  0  0  0  0
 18 41  1  0  0  0  0
 19 20  1  0  0  0  0
 19 21  1  0  0  0  0
 19 42  1  0  0  0  0
 20 43  1  0  0  0  0
 20 44  1  0  0  0  0
 20 45  1  0  0  0  0
M  END
> <s_m_source_file>
AV-unprocessed.smi

> <i_m_source_file_index>
1692

> <i_lp_mmshare_version>
43012

> <i_f3d_flags>
0

> <s_epik_input>
W0NIM11bQ0BASF0xW0NIMl1OKFtDSDJdW0NASF0oTzEpW0NIM10pW0NIMl1bQ0gyXVtDSDJdW05IXUMoPU8pW05IXWMyW2NIXVtjSF1bY0hdW2NIXW4y

> <s_epik_cmdline>
J2VwaWtfcHl0aG9uJywgJy1waCcsICc3LjAnLCAnLXRuJywgJzgnLCAnLW1hJywgJzIwMCcsICctbWV0YWxfYmluZGluZycsICctaW1hZScsICc8aW5maWxlLm1hZT4nLCAnLW9tYWUnLCAnPG91dGZpbGUubWFlPic=

> <r_epik_Ionization_Penalty>
0.594711

> <r_epik_Ionization_Penalty_Charging>
0

> <r_epik_Ionization_Penalty_Neutral>
0.594711

> <r_epik_State_Penalty>
0.608529

> <r_epik_Charging_Adjusted_Penalty>
0.608529

> <i_epik_Tot_Q>
0

> <i_epik_Tot_abs_Q>
0

> <r_epik_Metal_State_Penalty>
0.608528

> <b_epik_Metal_Only>
0

> <s_lp_Force_Field>
OPLS_2005

> <r_lp_Energy>
25.8915

> <b_lp_Chiralities_Consistent>
1

> <s_lp_Variant>
AV-unprocessed.smi:1692-5

> <Gold.Version>
5.8.1

> <Gold.Id.Protein>
6NUR|6NUR_protein|mol2

> <Gold.PLP.Fitness>
48.8603

> <Gold.PLP.PLP>
-41.2008

> <Gold.PLP.part.hbond>
-3.0000

> <Gold.PLP.part.metal>
0.0000

> <Gold.PLP.part.buried>
-4.0861

> <Gold.PLP.part.nonpolar>
-36.9317

> <Gold.PLP.part.repulsive>
2.2211

> <Gold.PLP.ligand.clash>
0.0000

> <Gold.PLP.ligand.torsion>
0.9456

> <Gold.PLP.Chemscore.Hbond>
2.1681

> <Gold.PLP.Chemscore.CHOScore>
0.9942

> <Gold.PLP.Chemscore.Metal>
0.0000

> <Gold.Chemscore.Hbonds>
donor molecule, donor type, donor heavy atom, donor atom, acceptor molecule, acceptor atom, score
      L1  H     8    34       P1  7948  1.00
      L1  H    11    35       P1  7948  0.83
      P1  H  7989  7998       L1    21  0.32
      L1  C    16    39       P1 10186  0.87

> <Gold.PLP.Chemscore.Internal.Correction>
0.0639

> <Gold.Rescore>
     Score         DG    S(hbond)    S(metal)    S(lipo)     H(rot)  DE(clash)    DE(int)     intcor
     15.80     -18.22       1.82        0.00      94.65       1.73       0.31       2.10       ----

> <Gold.Chemscore.Fitness>
15.8039

> <Gold.Chemscore.DG>
-18.2182

> <Gold.Chemscore.ZeroCoef>
-5.4800

> <Gold.Chemscore.Hbond>
1.8215

> <Gold.Chemscore.Metal>
0.0000

> <Gold.Chemscore.Lipo>
94.6527

> <Gold.Chemscore.Internal_Hbond>
0.0000

> <Gold.Chemscore.DEClash>
0.3136

> <Gold.Chemscore.DEInternal>
2.1008

> <Gold.Chemscore.Rot>
1.7266

> <Gold.Chemscore.Internal.Correction>
   9.000000E+99

> <Gold.Chemscore.Hbonds>
donor molecule, donor type, donor heavy atom, donor atom, acceptor molecule, acceptor atom, score
      L1  H     8    34       P1  7948  0.98
      L1  H    11    35       P1  7948  0.57

> <Gold.Chemscore.Hbond.Weighted>
-6.0839

> <Gold.Chemscore.Metal.Weighted>
-0.0000

> <Gold.Chemscore.Lipo.Weighted>
-11.0744

> <Gold.Chemscore.Internal_Hbond.Weighted>
0.0000

> <Gold.Chemscore.DEClash.Weighted>
0.3136

> <Gold.Chemscore.DEInternal.Weighted>
2.1008

> <Gold.Chemscore.Rot.Weighted>
4.4200

> <Gold.Chemscore.Internal.Correction.Weighted>
   9.000000E+99

> <Gold.Protein.RotatedTorsions>
[ 6907 6896 6895 6894 ] final   42.40 input  -60.11 | X-H torsion
[ 7974 7965 7964 7962 ] final -118.22 input  175.53 | X-H torsion
[ 8008 7997 7996 7995 ] final   31.57 input   59.86 | X-H torsion
[ 10167 10162 10161 10158 ] final   59.36 input  -65.29 | X-H torsion
[ 10718 10713 10712 10709 ] final   -2.96 input   66.30 | X-H torsion
[ 10763 10752 10751 10750 ] final  -99.42 input  -60.55 | X-H torsion
[ 11005 11000 10999 10996 ] final  -78.29 input  -57.11 | X-H torsion

> <Gold.Protein.ActiveResidues>
 VAL166  LYS551  ARG553  GLY616  TRP617  ASP618  TYR619  PRO620  LYS621  CYS622 
 ASP623  PHE694  ASN695  SER759  ASP760  ASP761  ALA762  ILE779  LEU786  VAL792 
 PHE793  MET794  SER795  GLU796  ALA797  LYS798  CYS799  TRP800  GLU811  SER814 

> <Gold.Protein.RotatedAtoms>
  152.2074  134.8532  160.0500 H   0  0  0  0  0  0  0  0  0  0  0  0  # atno 6907 bound_to 6896
  151.9363  133.3620  159.3957 H   0  0  0  0  0  0  0  0  0  0  0  0  # atno 6908 bound_to 6896
  150.6968  134.4410  159.5336 H   0  0  0  0  0  0  0  0  0  0  0  0  # atno 6909 bound_to 6896
  145.0763  140.8394  143.4066 H   0  0  0  0  0  0  0  0  0  0  0  0  # atno 7974 bound_to 7965
  155.1085  140.3236  155.4528 H   0  0  0  0  0  0  0  0  0  0  0  0  # atno 8008 bound_to 7997
  156.2697  140.2048  156.6157 H   0  0  0  0  0  0  0  0  0  0  0  0  # atno 8009 bound_to 7997
  154.6774  140.0530  157.0217 H   0  0  0  0  0  0  0  0  0  0  0  0  # atno 8010 bound_to 7997
  140.1772  144.4218  150.6632 H   0  0  0  0  0  0  0  0  0  0  0  0  # atno 10167 bound_to 10162
  156.7831  130.5337  149.5747 H   0  0  0  0  0  0  0  0  0  0  0  0  # atno 10718 bound_to 10713
  154.7496  135.4973  153.9265 H   0  0  0  0  0  0  0  0  0  0  0  0  # atno 10763 bound_to 10752
  153.1129  135.6713  153.9477 H   0  0  0  0  0  0  0  0  0  0  0  0  # atno 10764 bound_to 10752
  153.9231  135.3086  155.3426 H   0  0  0  0  0  0  0  0  0  0  0  0  # atno 10765 bound_to 10752
  141.1664  133.7057  156.7949 H   0  0  0  0  0  0  0  0  0  0  0  0  # atno 11005 bound_to 11000
  145.1232  139.2680  143.5577 LP  0  0  0  0  0  0  0  0  0  0  0  0  # atno 17320 bound_to 7965
  146.3530  140.0862  142.8615 LP  0  0  0  0  0  0  0  0  0  0  0  0  # atno 17321 bound_to 7965
  140.6543  143.2233  151.6004 LP  0  0  0  0  0  0  0  0  0  0  0  0  # atno 17342 bound_to 10162
  139.5312  144.2912  152.1151 LP  0  0  0  0  0  0  0  0  0  0  0  0  # atno 17343 bound_to 10162
  156.1205  130.6106  151.0186 LP  0  0  0  0  0  0  0  0  0  0  0  0  # atno 17370 bound_to 10713
  157.6636  131.0876  150.7780 LP  0  0  0  0  0  0  0  0  0  0  0  0  # atno 17371 bound_to 10713
  140.2298  134.8694  157.3465 LP  0  0  0  0  0  0  0  0  0  0  0  0  # atno 17394 bound_to 11000
  140.1902  134.4381  155.7720 LP  0  0  0  0  0  0  0  0  0  0  0  0  # atno 17395 bound_to 11000

$$$$
