AV-unprocessed.smi:1501|AV-procd|sdf|6066|dock6
  -GOLD-   22720 6183D 1   1.00000     0.00000
 Structure written by MMmdl.
 48 49  0  0  0  0  0  0  0  0  2 V2000
  153.6686  137.4524  157.0312 C   0  0  0  0  0  0  0  0  0  0  0  0
  152.8309  138.7065  156.8557 C   0  0  0  0  0  0  0  0  0  0  0  0
  152.9510  139.6693  157.8683 N   0  0  0  0  0  0  0  0  0  0  0  0
  152.2681  140.7726  157.8061 C   0  0  0  0  0  0  0  0  0  0  0  0
  152.3606  141.7558  158.7950 N   0  0  0  0  0  0  0  0  0  0  0  0
  153.2541  141.5877  159.9435 C   0  0  0  0  0  0  0  0  0  0  0  0
  152.8114  142.4604  161.1298 C   0  0  0  0  0  0  0  0  0  0  0  0
  152.7267  143.8193  160.7218 O   0  0  0  0  0  0  0  0  0  0  0  0
  151.7633  143.9890  159.6912 C   0  0  0  0  0  0  0  0  0  0  0  0
  152.1725  143.1671  158.4576 C   0  0  0  0  0  0  0  0  0  0  0  0
  151.4106  141.0572  156.7547 N   0  5  0  0  0  0  0  0  0  0  0  0
  151.2500  140.1706  155.7314 C   0  0  0  0  0  0  0  0  0  0  0  0
  150.5038  140.4001  154.7802 O   0  0  0  0  0  0  0  0  0  0  0  0
  152.0095  138.9095  155.7876 C   0  0  0  0  0  0  0  0  0  0  0  0
  151.8277  137.8882  154.6668 C   0  0  0  0  0  0  0  0  0  0  0  0
  150.3414  137.5934  154.3880 C   0  0  0  0  0  0  0  0  0  0  0  0
  149.7585  136.5083  155.2984 C   0  0  0  0  0  0  0  0  0  0  0  0
  149.7727  136.6393  156.5230 O   0  0  0  0  0  0  0  0  0  0  0  0
  149.2546  135.4279  154.6829 N   0  0  0  0  0  0  0  0  0  0  0  0
  148.6679  134.2753  155.3593 C   0  0  0  0  0  0  0  0  0  0  0  0
  149.0923  132.9337  154.7248 C   0  0  0  0  0  0  0  0  0  0  0  0
  150.5344  132.5797  155.1164 C   0  0  0  0  0  0  0  0  0  0  0  0
  148.9279  132.9337  153.1953 C   0  0  0  0  0  0  0  0  0  0  0  0
  154.2596  137.2558  156.1365 H   0  0  0  0  0  0  0  0  0  0  0  0
  153.0277  136.5915  157.2218 H   0  0  0  0  0  0  0  0  0  0  0  0
  154.3570  137.5522  157.8713 H   0  0  0  0  0  0  0  0  0  0  0  0
  153.2992  140.5481  160.2688 H   0  0  0  0  0  0  0  0  0  0  0  0
  154.2645  141.8626  159.6387 H   0  0  0  0  0  0  0  0  0  0  0  0
  151.8499  142.1242  161.5210 H   0  0  0  0  0  0  0  0  0  0  0  0
  153.5320  142.3795  161.9436 H   0  0  0  0  0  0  0  0  0  0  0  0
  150.7755  143.6903  160.0465 H   0  0  0  0  0  0  0  0  0  0  0  0
  151.7018  145.0462  159.4332 H   0  0  0  0  0  0  0  0  0  0  0  0
  153.1009  143.5574  158.0393 H   0  0  0  0  0  0  0  0  0  0  0  0
  151.4056  143.2755  157.6894 H   0  0  0  0  0  0  0  0  0  0  0  0
  152.3133  138.2529  153.7618 H   0  0  0  0  0  0  0  0  0  0  0  0
  152.3552  136.9667  154.9189 H   0  0  0  0  0  0  0  0  0  0  0  0
  149.7594  138.5091  154.5044 H   0  0  0  0  0  0  0  0  0  0  0  0
  150.2138  137.2726  153.3538 H   0  0  0  0  0  0  0  0  0  0  0  0
  149.2817  135.4020  153.6737 H   0  0  0  0  0  0  0  0  0  0  0  0
  148.9752  134.3052  156.4050 H   0  0  0  0  0  0  0  0  0  0  0  0
  147.5804  134.3681  155.3597 H   0  0  0  0  0  0  0  0  0  0  0  0
  148.4495  132.1487  155.1257 H   0  0  0  0  0  0  0  0  0  0  0  0
  151.2402  133.3257  154.7495 H   0  0  0  0  0  0  0  0  0  0  0  0
  150.8277  131.6129  154.7062 H   0  0  0  0  0  0  0  0  0  0  0  0
  150.6443  132.5222  156.1997 H   0  0  0  0  0  0  0  0  0  0  0  0
  149.5327  133.7142  152.7327 H   0  0  0  0  0  0  0  0  0  0  0  0
  147.8904  133.0986  152.9037 H   0  0  0  0  0  0  0  0  0  0  0  0
  149.2352  131.9787  152.7681 H   0  0  0  0  0  0  0  0  0  0  0  0
  1  2  1  0  0  0  0
  1 24  1  0  0  0  0
  1 25  1  0  0  0  0
  1 26  1  0  0  0  0
  2 14  2  0  0  0  0
  2  3  1  0  0  0  0
  3  4  2  0  0  0  0
  4  5  1  0  0  0  0
  4 11  1  0  0  0  0
  5 10  1  0  0  0  0
  5  6  1  0  0  0  0
  6  7  1  0  0  0  0
  6 27  1  0  0  0  0
  6 28  1  0  0  0  0
  7  8  1  0  0  0  0
  7 29  1  0  0  0  0
  7 30  1  0  0  0  0
  8  9  1  0  0  0  0
  9 10  1  0  0  0  0
  9 31  1  0  0  0  0
  9 32  1  0  0  0  0
 10 33  1  0  0  0  0
 10 34  1  0  0  0  0
 11 12  1  0  0  0  0
 12 13  2  0  0  0  0
 12 14  1  0  0  0  0
 14 15  1  0  0  0  0
 15 16  1  0  0  0  0
 15 35  1  0  0  0  0
 15 36  1  0  0  0  0
 16 17  1  0  0  0  0
 16 37  1  0  0  0  0
 16 38  1  0  0  0  0
 17 18  2  0  0  0  0
 17 19  1  0  0  0  0
 19 20  1  0  0  0  0
 19 39  1  0  0  0  0
 20 21  1  0  0  0  0
 20 40  1  0  0  0  0
 20 41  1  0  0  0  0
 21 22  1  0  0  0  0
 21 23  1  0  0  0  0
 21 42  1  0  0  0  0
 22 43  1  0  0  0  0
 22 44  1  0  0  0  0
 22 45  1  0  0  0  0
 23 46  1  0  0  0  0
 23 47  1  0  0  0  0
 23 48  1  0  0  0  0
M  CHG  1  11  -1
M  END
> <s_m_source_file>
AV-unprocessed.smi

> <i_m_source_file_index>
1501

> <i_lp_mmshare_version>
43012

> <i_f3d_flags>
0

> <s_epik_input>
W0NIMl0xW0NIMl1PW0NIMl1bQ0gyXU4xYyhuYzJbQ0gzXSlbbkhdYyg9TyljMltDSDJdW0NIMl1DKD1PKVtOSF1bQ0gyXVtDSF0oW0NIM10pW0NIM10=

> <s_epik_cmdline>
J2VwaWtfcHl0aG9uJywgJy1waCcsICc3LjAnLCAnLXRuJywgJzgnLCAnLW1hJywgJzIwMCcsICctbWV0YWxfYmluZGluZycsICctaW1hZScsICc8aW5maWxlLm1hZT4nLCAnLW9tYWUnLCAnPG91dGZpbGUubWFlPic=

> <r_lp_tautomer_probability>
1

> <r_epik_Ionization_Penalty>
5.04715

> <r_epik_Ionization_Penalty_Charging>
9.89309e-08

> <r_epik_Ionization_Penalty_Neutral>
5.04715

> <r_epik_State_Penalty>
2.57778

> <r_epik_Charging_Adjusted_Penalty>
2.57778

> <i_epik_Tot_Q>
-1

> <i_epik_Tot_abs_Q>
1

> <r_epik_Metal_State_Penalty>
0.1232

> <b_epik_Metal_Only>
0

> <s_lp_Force_Field>
OPLS_2005

> <r_lp_Energy>
25.0321

> <b_lp_Chiralities_Consistent>
1

> <s_lp_Variant>
AV-unprocessed.smi:1501-3

> <Gold.Version>
5.8.1

> <Gold.Id.Protein>
6NUR|6NUR_protein|mol2

> <Gold.PLP.Fitness>
47.3490

> <Gold.PLP.PLP>
-41.0893

> <Gold.PLP.part.hbond>
-3.0000

> <Gold.PLP.part.metal>
0.0000

> <Gold.PLP.part.buried>
-2.3239

> <Gold.PLP.part.nonpolar>
-35.6488

> <Gold.PLP.part.repulsive>
0.2020

> <Gold.PLP.ligand.clash>
0.0000

> <Gold.PLP.ligand.torsion>
0.6431

> <Gold.PLP.Chemscore.Hbond>
2.4104

> <Gold.PLP.Chemscore.CHOScore>
0.0000

> <Gold.PLP.Chemscore.Metal>
0.0000

> <Gold.Chemscore.Hbonds>
donor molecule, donor type, donor heavy atom, donor atom, acceptor molecule, acceptor atom, score
      L1  H    19    39       P1  7948  1.00
      P1  H  7989  7998       L1    13  1.00
      P1  H  7997  8010       L1     3  0.29

> <Gold.PLP.Chemscore.Internal.Correction>
0.3148

> <Gold.Rescore>
     Score         DG    S(hbond)    S(metal)    S(lipo)     H(rot)  DE(clash)    DE(int)     intcor
     16.06     -17.96       1.91        0.00      91.16       1.79       0.01       1.89       ----

> <Gold.Chemscore.Fitness>
16.0581

> <Gold.Chemscore.DG>
-17.9600

> <Gold.Chemscore.ZeroCoef>
-5.4800

> <Gold.Chemscore.Hbond>
1.9133

> <Gold.Chemscore.Metal>
0.0000

> <Gold.Chemscore.Lipo>
91.1581

> <Gold.Chemscore.Internal_Hbond>
0.0000

> <Gold.Chemscore.DEClash>
0.0149

> <Gold.Chemscore.DEInternal>
1.8870

> <Gold.Chemscore.Rot>
1.7875

> <Gold.Chemscore.Internal.Correction>
   9.000000E+99

> <Gold.Chemscore.Hbonds>
donor molecule, donor type, donor heavy atom, donor atom, acceptor molecule, acceptor atom, score
      L1  H    19    39       P1  7948  0.37
      P1  H  7989  7998       L1    13  0.39

> <Gold.Chemscore.Hbond.Weighted>
-6.3905

> <Gold.Chemscore.Metal.Weighted>
-0.0000

> <Gold.Chemscore.Lipo.Weighted>
-10.6655

> <Gold.Chemscore.Internal_Hbond.Weighted>
0.0000

> <Gold.Chemscore.DEClash.Weighted>
0.0149

> <Gold.Chemscore.DEInternal.Weighted>
1.8870

> <Gold.Chemscore.Rot.Weighted>
4.5760

> <Gold.Chemscore.Internal.Correction.Weighted>
   9.000000E+99

> <Gold.Protein.RotatedTorsions>
[ 6907 6896 6895 6894 ] final  165.72 input  -60.11 | X-H torsion
[ 7974 7965 7964 7962 ] final  139.20 input  175.53 | X-H torsion
[ 8008 7997 7996 7995 ] final   23.55 input   59.86 | X-H torsion
[ 10167 10162 10161 10158 ] final  -62.13 input  -65.29 | X-H torsion
[ 10718 10713 10712 10709 ] final  116.81 input   66.30 | X-H torsion
[ 10763 10752 10751 10750 ] final -161.99 input  -60.55 | X-H torsion
[ 11005 11000 10999 10996 ] final -102.43 input  -57.11 | X-H torsion

> <Gold.Protein.ActiveResidues>
 VAL166  LYS551  ARG553  GLY616  TRP617  ASP618  TYR619  PRO620  LYS621  CYS622 
 ASP623  PHE694  ASN695  SER759  ASP760  ASP761  ALA762  ILE779  LEU786  VAL792 
 PHE793  MET794  SER795  GLU796  ALA797  LYS798  CYS799  TRP800  GLU811  SER814 

> <Gold.Protein.RotatedAtoms>
  151.8901  133.3514  159.3795 H   0  0  0  0  0  0  0  0  0  0  0  0  # atno 6907 bound_to 6896
  150.7105  134.4932  159.5535 H   0  0  0  0  0  0  0  0  0  0  0  0  # atno 6908 bound_to 6896
  152.2501  134.8142  160.0498 H   0  0  0  0  0  0  0  0  0  0  0  0  # atno 6909 bound_to 6896
  144.9301  139.5058  143.5622 H   0  0  0  0  0  0  0  0  0  0  0  0  # atno 7974 bound_to 7965
  154.9826  140.3104  155.4940 H   0  0  0  0  0  0  0  0  0  0  0  0  # atno 8008 bound_to 7997
  156.2951  140.2264  156.4866 H   0  0  0  0  0  0  0  0  0  0  0  0  # atno 8009 bound_to 7997
  154.7775  140.0448  157.1089 H   0  0  0  0  0  0  0  0  0  0  0  0  # atno 8010 bound_to 7997
  140.5959  143.2351  151.6036 H   0  0  0  0  0  0  0  0  0  0  0  0  # atno 10167 bound_to 10162
  157.6137  131.1030  150.7525 H   0  0  0  0  0  0  0  0  0  0  0  0  # atno 10718 bound_to 10713
  154.7254  135.3035  154.8979 H   0  0  0  0  0  0  0  0  0  0  0  0  # atno 10763 bound_to 10752
  153.9838  135.6727  153.4755 H   0  0  0  0  0  0  0  0  0  0  0  0  # atno 10764 bound_to 10752
  153.0871  135.4979  154.8536 H   0  0  0  0  0  0  0  0  0  0  0  0  # atno 10765 bound_to 10752
  141.1189  133.8558  157.1359 H   0  0  0  0  0  0  0  0  0  0  0  0  # atno 11005 bound_to 11000
  146.3243  139.8244  142.8920 LP  0  0  0  0  0  0  0  0  0  0  0  0  # atno 17320 bound_to 7965
  145.3156  141.0231  143.3529 LP  0  0  0  0  0  0  0  0  0  0  0  0  # atno 17321 bound_to 7965
  139.5258  144.3064  152.1030 LP  0  0  0  0  0  0  0  0  0  0  0  0  # atno 17342 bound_to 10162
  140.2236  144.4441  150.6331 LP  0  0  0  0  0  0  0  0  0  0  0  0  # atno 17343 bound_to 10162
  156.7897  130.4886  149.5387 LP  0  0  0  0  0  0  0  0  0  0  0  0  # atno 17370 bound_to 10713
  156.1250  130.6137  151.0250 LP  0  0  0  0  0  0  0  0  0  0  0  0  # atno 17371 bound_to 10713
  140.0132  134.9979  157.0438 LP  0  0  0  0  0  0  0  0  0  0  0  0  # atno 17394 bound_to 11000
  140.4565  134.1529  155.7186 LP  0  0  0  0  0  0  0  0  0  0  0  0  # atno 17395 bound_to 11000

$$$$
