#       Name:                AV-unprocessed.smi:1787
#       Creating user name   scv26
#       Creation time:       Fri Mar 27 08:45:09 2020


#       File generated by GOLD software.
#

@<TRIPOS>MOLECULE
AV-unprocessed.smi:1787
    50    52     1
SMALL
NO_CHARGES


@<TRIPOS>ATOM
      1 ****        -0.3306   1.6323   0.8095 O.2            1 S1                 0.0000
      2 ****        -0.8074   0.6213   1.3220 C.2            1 S1                 0.0000
      3 ****        -0.0664  -0.4317   1.6950 N.am           1 S1                 0.0000
      4 ****         1.3878  -0.5448   1.5784 C.3            1 S1                 0.0000
      5 ****         1.8538  -1.2042   0.2419 C.3            1 S1                 0.0000
      6 ****         1.4244  -0.3168  -0.9010 N.4            1 S1                 1.0000
      7 ****         2.2733   0.8908  -1.1045 C.3            1 S1                 0.0000
      8 ****         1.6288   1.8412  -2.1245 C.3            1 S1                 0.0000
      9 ****         1.4577   1.1527  -3.3548 O.3            1 S1                 0.0000
     10 ****         0.5771   0.0471  -3.2163 C.3            1 S1                 0.0000
     11 ****         1.1465  -0.9689  -2.2095 C.3            1 S1                 0.0000
     12 ****         1.2993  -2.6549   0.1542 C.3            1 S1                 0.0000
     13 ****         2.0390  -3.5190   1.1796 C.3            1 S1                 0.0000
     14 ****         3.7406  -2.9103   1.2519 S.3            1 S1                 0.0000
     15 ****         3.3845  -1.4276   0.2680 C.3            1 S1                 0.0000
     16 ****        -2.1101   0.4062   1.5722 N.am           1 S1                 0.0000
     17 ****        -3.2339   1.2414   1.3191 C.ar           1 S1                 0.0000
     18 ****        -3.1792   2.5234   0.7174 C.ar           1 S1                 0.0000
     19 ****        -4.3779   3.2384   0.5298 C.ar           1 S1                 0.0000
     20 ****        -5.5867   2.6502   0.9489 C.ar           1 S1                 0.0000
     21 ****        -5.6548   1.4305   1.5216 N.ar           1 S1                 0.0000
     22 ****        -4.5022   0.7510   1.6983 C.ar           1 S1                 0.0000
     23 ****        -0.5449  -1.2186   2.1094 H              1 S1                 0.0000
     24 ****         1.8468   0.4342   1.7179 H              1 S1                 0.0000
     25 ****         1.7264  -1.1225   2.4376 H              1 S1                 0.0000
     26 ****         2.4211   1.4267  -0.1682 H              1 S1                 0.0000
     27 ****         3.2610   0.6036  -1.4665 H              1 S1                 0.0000
     28 ****         0.6720   2.2208  -1.7626 H              1 S1                 0.0000
     29 ****         2.2722   2.7054  -2.2906 H              1 S1                 0.0000
     30 ****        -0.4083   0.3934  -2.8998 H              1 S1                 0.0000
     31 ****         0.4478  -0.4239  -4.1908 H              1 S1                 0.0000
     32 ****         2.0589  -1.4215  -2.6000 H              1 S1                 0.0000
     33 ****         0.4016  -1.7563  -2.1023 H              1 S1                 0.0000
     34 ****         0.2181  -2.7099   0.2832 H              1 S1                 0.0000
     35 ****         1.5250  -3.0998  -0.8145 H              1 S1                 0.0000
     36 ****         1.5873  -3.4212   2.1668 H              1 S1                 0.0000
     37 ****         2.0167  -4.5760   0.9132 H              1 S1                 0.0000
     38 ****         3.7578  -1.6210  -0.7384 H              1 S1                 0.0000
     39 ****         3.9326  -0.5709   0.6615 H              1 S1                 0.0000
     40 ****        -2.3314  -0.4793   2.0041 H              1 S1                 0.0000
     41 ****        -2.2573   2.9789   0.3948 H              1 S1                 0.0000
     42 ****        -4.3711   4.2180   0.0750 H              1 S1                 0.0000
     43 ****        -6.5232   3.1724   0.8204 H              1 S1                 0.0000
     44 ****        -4.5969  -0.2211   2.1600 H              1 S1                 0.0000
     45 ****         0.5255   0.0402  -0.6085 H              1 S1                 0.0000
     46 ****         0.6550   1.6963   0.6530 LP             1 S1                 0.0000
     47 ****        -0.9285   2.3905   0.5493 LP             1 S1                 0.0000
     48 ****         2.3477   0.8216  -3.6680 LP             1 S1                 0.0000
     49 ****         1.0805   1.7854  -4.0312 LP             1 S1                 0.0000
     50 ****        -6.5314   1.0423   1.8061 LP             1 S1                 0.0000
@<TRIPOS>BOND
    1    1    2 2     
    2    2    3 am    
    3    2   16 am    
    4    3    4 1     
    5    3   23 1     
    6    4    5 1     
    7    4   24 1     
    8    4   25 1     
    9    5   15 1     
   10    5    6 1     
   11    5   12 1     
   12    6   11 1     
   13    6    7 1     
   14    6   45 1     
   15    7    8 1     
   16    7   26 1     
   17    7   27 1     
   18    8    9 1     
   19    8   28 1     
   20    8   29 1     
   21    9   10 1     
   22   10   11 1     
   23   10   30 1     
   24   10   31 1     
   25   11   32 1     
   26   11   33 1     
   27   12   13 1     
   28   12   34 1     
   29   12   35 1     
   30   13   14 1     
   31   13   36 1     
   32   13   37 1     
   33   14   15 1     
   34   15   38 1     
   35   15   39 1     
   36   16   17 1     
   37   16   40 1     
   38   17   22 ar    
   39   17   18 ar    
   40   18   19 ar    
   41   18   41 1     
   42   19   20 ar    
   43   19   42 1     
   44   20   21 ar    
   45   20   43 1     
   46   21   22 ar    
   47   22   44 1     
   48    1   46 1     
   49    1   47 1     
   50    9   48 1     
   51    9   49 1     
   52   21   50 1     
@<TRIPOS>SUBSTRUCTURE
      1 S1             1
@<TRIPOS>SET
LONE_PAIRS      STATIC     ATOMS    <user>   **** ""
5 46 47 48 49 50
DONOR_HYDROGENS      STATIC     ATOMS    <user>   **** ""
3 23 45 40
ATOM$BLUE        STATIC     ATOMS    COLORGROUP SYSTEM
5 46 47 48 49 50
ATOM$RED        STATIC     ATOMS    COLORGROUP SYSTEM
3 23 45 40
