AV-unprocessed.smi:2911|AV-procd|sdf|11179|dock8
  -GOLD-   2272016 73D 1   1.00000     0.00000
 Structure written by MMmdl.
 41 42  0  0  0  0  0  0  0  0  1 V2000
  153.0692  138.4214  155.0037 C   0  0  0  0  0  0  0  0  0  0  0  0
  151.6372  138.7420  154.7422 C   0  0  0  0  0  0  0  0  0  0  0  0
  150.7907  137.8107  154.3203 N   0  0  0  0  0  0  0  0  0  0  0  0
  149.5814  138.5087  154.1890 O   0  0  0  0  0  0  0  0  0  0  0  0
  149.8474  139.7824  154.5665 C   0  0  0  0  0  0  0  0  0  0  0  0
  148.7592  140.8001  154.4913 C   0  0  0  0  0  0  0  0  0  0  0  0
  148.3197  141.2906  155.8800 C   0  0  0  0  0  0  0  0  0  0  0  0
  149.3888  142.0162  156.5565 N   0  0  0  0  0  0  0  0  0  0  0  0
  150.1117  141.5525  157.5906 C   0  0  0  0  0  0  0  0  0  0  0  0
  149.8985  140.4433  158.0829 O   0  0  0  0  0  0  0  0  0  0  0  0
  151.0421  142.4187  158.0745 N   0  0  0  0  0  0  0  0  0  0  0  0
  151.6080  143.5604  157.3218 C   0  0  0  0  0  0  0  0  0  0  0  0
  151.5166  144.8568  158.1390 C   0  0  0  0  0  0  0  0  0  0  0  0
  152.2389  144.7057  159.4857 C   0  0  1  0  0  0  0  0  0  0  0  0
  152.1435  145.9857  160.3277 C   0  0  0  0  0  0  0  0  0  0  0  0
  151.6802  143.4871  160.2388 C   0  0  0  0  0  0  0  0  0  0  0  0
  151.6770  142.1949  159.3922 C   0  0  2  0  0  0  0  0  0  0  0  0
  153.0604  141.5339  159.2512 C   0  0  0  0  0  0  0  0  0  0  0  0
  151.1180  139.9899  154.9041 N   0  0  0  0  0  0  0  0  0  0  0  0
  153.1611  137.4503  155.4914 H   0  0  0  0  0  0  0  0  0  0  0  0
  153.5195  139.1740  155.6514 H   0  0  0  0  0  0  0  0  0  0  0  0
  153.6248  138.3942  154.0662 H   0  0  0  0  0  0  0  0  0  0  0  0
  149.1103  141.6361  153.8853 H   0  0  0  0  0  0  0  0  0  0  0  0
  147.9121  140.3637  153.9609 H   0  0  0  0  0  0  0  0  0  0  0  0
  147.4673  141.9633  155.7824 H   0  0  0  0  0  0  0  0  0  0  0  0
  147.9852  140.4528  156.4947 H   0  0  0  0  0  0  0  0  0  0  0  0
  149.5967  142.9433  156.2150 H   0  0  0  0  0  0  0  0  0  0  0  0
  152.6509  143.3449  157.0889 H   0  0  0  0  0  0  0  0  0  0  0  0
  151.1382  143.7342  156.3543 H   0  0  0  0  0  0  0  0  0  0  0  0
  151.9539  145.6796  157.5723 H   0  0  0  0  0  0  0  0  0  0  0  0
  150.4688  145.1135  158.3016 H   0  0  0  0  0  0  0  0  0  0  0  0
  153.2955  144.5251  159.2839 H   0  0  0  0  0  0  0  0  0  0  0  0
  151.1073  146.2291  160.5650 H   0  0  0  0  0  0  0  0  0  0  0  0
  152.5725  146.8368  159.7982 H   0  0  0  0  0  0  0  0  0  0  0  0
  152.6839  145.8770  161.2684 H   0  0  0  0  0  0  0  0  0  0  0  0
  152.2392  143.3264  161.1614 H   0  0  0  0  0  0  0  0  0  0  0  0
  150.6551  143.7033  160.5440 H   0  0  0  0  0  0  0  0  0  0  0  0
  151.0775  141.4923  159.9737 H   0  0  0  0  0  0  0  0  0  0  0  0
  153.4753  141.2901  160.2294 H   0  0  0  0  0  0  0  0  0  0  0  0
  153.7763  142.1818  158.7464 H   0  0  0  0  0  0  0  0  0  0  0  0
  152.9943  140.6052  158.6838 H   0  0  0  0  0  0  0  0  0  0  0  0
  1  2  1  0  0  0  0
  1 20  1  0  0  0  0
  1 21  1  0  0  0  0
  1 22  1  0  0  0  0
  2 19  1  0  0  0  0
  2  3  2  0  0  0  0
  3  4  1  0  0  0  0
  4  5  1  0  0  0  0
  5  6  1  0  0  0  0
  5 19  2  0  0  0  0
  6  7  1  0  0  0  0
  6 23  1  0  0  0  0
  6 24  1  0  0  0  0
  7  8  1  0  0  0  0
  7 25  1  0  0  0  0
  7 26  1  0  0  0  0
  8  9  1  0  0  0  0
  8 27  1  0  0  0  0
  9 10  2  0  0  0  0
  9 11  1  0  0  0  0
 11 17  1  0  0  0  0
 11 12  1  0  0  0  0
 12 13  1  0  0  0  0
 12 28  1  0  0  0  0
 12 29  1  0  0  0  0
 13 14  1  0  0  0  0
 13 30  1  0  0  0  0
 13 31  1  0  0  0  0
 14 15  1  0  0  0  0
 14 16  1  0  0  0  0
 14 32  1  0  0  0  0
 15 33  1  0  0  0  0
 15 34  1  0  0  0  0
 15 35  1  0  0  0  0
 16 17  1  0  0  0  0
 16 36  1  0  0  0  0
 16 37  1  0  0  0  0
 17 18  1  0  0  0  0
 17 38  1  0  0  0  0
 18 39  1  0  0  0  0
 18 40  1  0  0  0  0
 18 41  1  0  0  0  0
M  END
> <s_m_source_file>
AV-unprocessed.smi

> <i_m_source_file_index>
2911

> <i_lp_mmshare_version>
43012

> <i_f3d_flags>
0

> <s_epik_input>
W0NIM11jMW5vYyhuMSlbQ0gyXVtDSDJdW05IXUMoPU8pTjJbQ0gyXVtDSDJdW0NAQEhdKFtDSDNdKVtDSDJdW0NASF0yW0NIM10=

> <s_epik_cmdline>
J2VwaWtfcHl0aG9uJywgJy1waCcsICc3LjAnLCAnLXRuJywgJzgnLCAnLW1hJywgJzIwMCcsICctbWV0YWxfYmluZGluZycsICctaW1hZScsICc8aW5maWxlLm1hZT4nLCAnLW9tYWUnLCAnPG91dGZpbGUubWFlPic=

> <r_lp_tautomer_probability>
1

> <r_epik_Ionization_Penalty>
6.61671e-05

> <r_epik_Ionization_Penalty_Charging>
0

> <r_epik_Ionization_Penalty_Neutral>
6.61671e-05

> <r_epik_State_Penalty>
-0

> <r_epik_Charging_Adjusted_Penalty>
0

> <i_epik_Tot_Q>
0

> <i_epik_Tot_abs_Q>
0

> <r_epik_Metal_State_Penalty>
-0

> <b_epik_Metal_Only>
0

> <s_lp_Force_Field>
OPLS_2005

> <r_lp_Energy>
30.51

> <b_lp_Chiralities_Consistent>
1

> <s_lp_Variant>
AV-unprocessed.smi:2911-3

> <Gold.Version>
5.8.1

> <Gold.Id.Protein>
6NUR|6NUR_protein|mol2

> <Gold.PLP.Fitness>
45.5959

> <Gold.PLP.PLP>
-40.1949

> <Gold.PLP.part.hbond>
-2.0000

> <Gold.PLP.part.metal>
0.0000

> <Gold.PLP.part.buried>
-6.6882

> <Gold.PLP.part.nonpolar>
-32.8519

> <Gold.PLP.part.repulsive>
0.5634

> <Gold.PLP.ligand.clash>
0.0000

> <Gold.PLP.ligand.torsion>
0.3004

> <Gold.PLP.Chemscore.Hbond>
1.9920

> <Gold.PLP.Chemscore.CHOScore>
0.0000

> <Gold.PLP.Chemscore.Metal>
0.0000

> <Gold.Chemscore.Hbonds>
donor molecule, donor type, donor heavy atom, donor atom, acceptor molecule, acceptor atom, score
      L1  H     8    27       P1  8028  0.94
      P1  H  7989  7998       L1    19  0.95

> <Gold.PLP.Chemscore.Internal.Correction>
0.0258

> <Gold.Rescore>
     Score         DG    S(hbond)    S(metal)    S(lipo)     H(rot)  DE(clash)    DE(int)     intcor
     18.05     -18.66       1.76        0.00      97.55       1.61       0.02       0.59       ----

> <Gold.Chemscore.Fitness>
18.0471

> <Gold.Chemscore.DG>
-18.6576

> <Gold.Chemscore.ZeroCoef>
-5.4800

> <Gold.Chemscore.Hbond>
1.7613

> <Gold.Chemscore.Metal>
0.0000

> <Gold.Chemscore.Lipo>
97.5509

> <Gold.Chemscore.Internal_Hbond>
0.0000

> <Gold.Chemscore.DEClash>
0.0233

> <Gold.Chemscore.DEInternal>
0.5871

> <Gold.Chemscore.Rot>
1.6088

> <Gold.Chemscore.Internal.Correction>
   9.000000E+99

> <Gold.Chemscore.Hbonds>
donor molecule, donor type, donor heavy atom, donor atom, acceptor molecule, acceptor atom, score
      L1  H     8    27       P1  8028  0.88
      P1  H  7989  7998       L1    19  0.11

> <Gold.Chemscore.Hbond.Weighted>
-5.8827

> <Gold.Chemscore.Metal.Weighted>
-0.0000

> <Gold.Chemscore.Lipo.Weighted>
-11.4135

> <Gold.Chemscore.Internal_Hbond.Weighted>
0.0000

> <Gold.Chemscore.DEClash.Weighted>
0.0233

> <Gold.Chemscore.DEInternal.Weighted>
0.5871

> <Gold.Chemscore.Rot.Weighted>
4.1186

> <Gold.Chemscore.Internal.Correction.Weighted>
   9.000000E+99

> <Gold.Protein.RotatedTorsions>
[ 6907 6896 6895 6894 ] final  -75.82 input  -60.11 | X-H torsion
[ 7974 7965 7964 7962 ] final  -64.70 input  175.53 | X-H torsion
[ 8008 7997 7996 7995 ] final  106.47 input   59.86 | X-H torsion
[ 10167 10162 10161 10158 ] final -103.65 input  -65.29 | X-H torsion
[ 10718 10713 10712 10709 ] final   88.87 input   66.30 | X-H torsion
[ 10763 10752 10751 10750 ] final  -93.65 input  -60.55 | X-H torsion
[ 11005 11000 10999 10996 ] final   29.66 input  -57.11 | X-H torsion

> <Gold.Protein.ActiveResidues>
 VAL166  LYS551  ARG553  GLY616  TRP617  ASP618  TYR619  PRO620  LYS621  CYS622 
 ASP623  PHE694  ASN695  SER759  ASP760  ASP761  ALA762  ILE779  LEU786  VAL792 
 PHE793  MET794  SER795  GLU796  ALA797  LYS798  CYS799  TRP800  GLU811  SER814 

> <Gold.Protein.RotatedAtoms>
  150.7046  134.4663  159.5404 H   0  0  0  0  0  0  0  0  0  0  0  0  # atno 6907 bound_to 6896
  152.2328  134.8302  160.0480 H   0  0  0  0  0  0  0  0  0  0  0  0  # atno 6908 bound_to 6896
  151.9112  133.3526  159.3901 H   0  0  0  0  0  0  0  0  0  0  0  0  # atno 6909 bound_to 6896
  145.7634  140.8850  143.0418 H   0  0  0  0  0  0  0  0  0  0  0  0  # atno 7974 bound_to 7965
  156.1745  140.3112  155.9034 H   0  0  0  0  0  0  0  0  0  0  0  0  # atno 8008 bound_to 7997
  155.3516  140.0471  157.3063 H   0  0  0  0  0  0  0  0  0  0  0  0  # atno 8009 bound_to 7997
  154.5276  140.2219  155.8873 H   0  0  0  0  0  0  0  0  0  0  0  0  # atno 8010 bound_to 7997
  140.2177  143.3699  152.0997 H   0  0  0  0  0  0  0  0  0  0  0  0  # atno 10167 bound_to 10162
  157.6952  131.0311  150.3340 H   0  0  0  0  0  0  0  0  0  0  0  0  # atno 10718 bound_to 10713
  154.6980  135.5186  153.8485 H   0  0  0  0  0  0  0  0  0  0  0  0  # atno 10763 bound_to 10752
  153.0681  135.6592  154.0317 H   0  0  0  0  0  0  0  0  0  0  0  0  # atno 10764 bound_to 10752
  154.0180  135.2996  155.3364 H   0  0  0  0  0  0  0  0  0  0  0  0  # atno 10765 bound_to 10752
  140.3026  134.2740  155.7751 H   0  0  0  0  0  0  0  0  0  0  0  0  # atno 11005 bound_to 11000
  144.6826  139.9755  143.7483 LP  0  0  0  0  0  0  0  0  0  0  0  0  # atno 17320 bound_to 7965
  146.0241  139.3277  143.0795 LP  0  0  0  0  0  0  0  0  0  0  0  0  # atno 17321 bound_to 7965
  139.5156  144.6965  151.5615 LP  0  0  0  0  0  0  0  0  0  0  0  0  # atno 17342 bound_to 10162
  140.6278  143.9135  150.6579 LP  0  0  0  0  0  0  0  0  0  0  0  0  # atno 17343 bound_to 10162
  156.3810  130.3880  149.7102 LP  0  0  0  0  0  0  0  0  0  0  0  0  # atno 17370 bound_to 10713
  156.4484  130.7895  151.2916 LP  0  0  0  0  0  0  0  0  0  0  0  0  # atno 17371 bound_to 10713
  141.2125  133.7656  156.9789 LP  0  0  0  0  0  0  0  0  0  0  0  0  # atno 17394 bound_to 11000
  140.1096  134.9485  157.2045 LP  0  0  0  0  0  0  0  0  0  0  0  0  # atno 17395 bound_to 11000

$$$$
