#       Name:                AV-unprocessed.smi:160
#       Creating user name   scv26
#       Creation time:       Thu Mar 26 19:08:20 2020


#       File generated by GOLD software.
#

@<TRIPOS>MOLECULE
AV-unprocessed.smi:160
    41    42     1
SMALL
NO_CHARGES


@<TRIPOS>ATOM
      1 ****        -3.6192   1.3823   0.0218 N.pl3          1 S1                -1.0000
      2 ****        -3.8409   0.1118   0.4250 C.2            1 S1                 0.0000
      3 ****        -4.9326  -0.3842   0.7020 O.2            1 S1                 0.0000
      4 ****        -2.5966  -0.7376   0.5294 C.2            1 S1                 0.0000
      5 ****        -2.6714  -2.0400   0.9402 N.2            1 S1                 0.0000
      6 ****        -1.3845  -2.3551   0.8798 C.2            1 S1                 0.0000
      7 ****        -0.5935  -1.3607   0.4657 N.pl3          1 S1                 0.0000
      8 ****         0.8980  -1.3302   0.2969 C.3            1 S1                 0.0000
      9 ****         1.3892  -0.2970   1.0936 O.3            1 S1                 0.0000
     10 ****         1.7947   0.8236   0.3045 C.3            1 S1                 0.0000
     11 ****         1.1416   2.1082   0.8419 C.3            1 S1                 0.0000
     12 ****         1.8738   2.6045   1.9424 O.3            1 S1                 0.0000
     13 ****         1.3930   0.4937  -1.1432 C.3            1 S1                 0.0000
     14 ****         2.3786   0.9463  -2.0502 O.3            1 S1                 0.0000
     15 ****         1.3300  -1.0259  -1.1465 C.3            1 S1                 0.0000
     16 ****         0.4360  -1.5102  -2.1325 O.3            1 S1                 0.0000
     17 ****        -1.3766  -0.2776   0.2377 N.2            1 S1                 0.0000
     18 ****         1.2292  -2.3050   0.6563 H              1 S1                 0.0000
     19 ****         2.8825   0.8902   0.3708 H              1 S1                 0.0000
     20 ****         0.4238   0.9297  -1.3900 H              1 S1                 0.0000
     21 ****         2.3228  -1.4548  -1.2922 H              1 S1                 0.0000
     22 ****        -2.6539   1.6691  -0.1796 H              1 S1                 0.0000
     23 ****        -1.0104  -3.3334   1.1433 H              1 S1                 0.0000
     24 ****         1.1475   2.8814   0.0730 H              1 S1                 0.0000
     25 ****         0.1020   1.9419   1.1239 H              1 S1                 0.0000
     26 ****         1.4453   3.3854   2.2577 H              1 S1                 0.0000
     27 ****         2.1166   0.6916  -2.9218 H              1 S1                 0.0000
     28 ****         0.3747  -2.4492  -2.0496 H              1 S1                 0.0000
     29 ****        -4.3766   2.0276  -0.0781 LP             1 S1                 0.0000
     30 ****        -5.7637   0.1682   0.6370 LP             1 S1                 0.0000
     31 ****        -4.9886  -1.3395   0.9920 LP             1 S1                 0.0000
     32 ****        -3.4619  -2.5912   1.2070 LP             1 S1                 0.0000
     33 ****         2.1763  -0.6318   1.6116 LP             1 S1                 0.0000
     34 ****         0.6724  -0.0061   1.7273 LP             1 S1                 0.0000
     35 ****         2.8068   2.8232   1.6564 LP             1 S1                 0.0000
     36 ****         1.9001   1.9172   2.6682 LP             1 S1                 0.0000
     37 ****         3.2605   0.5312  -1.8268 LP             1 S1                 0.0000
     38 ****         2.4559   1.9419  -1.9972 LP             1 S1                 0.0000
     39 ****         0.7779  -1.2740  -3.0421 LP             1 S1                 0.0000
     40 ****        -0.4665  -1.1007  -1.9990 LP             1 S1                 0.0000
     41 ****        -1.1087   0.6351  -0.0709 LP             1 S1                 0.0000
@<TRIPOS>BOND
    1    1    2 1     
    2    1   22 1     
    3    2    3 2     
    4    2    4 1     
    5    4   17 2     
    6    4    5 1     
    7    5    6 2     
    8    6    7 1     
    9    6   23 1     
   10    7    8 1     
   11    7   17 1     
   12    8   18 1     
   13    8   15 1     
   14    8    9 1     
   15    9   10 1     
   16   10   19 1     
   17   10   11 1     
   18   10   13 1     
   19   11   12 1     
   20   11   24 1     
   21   11   25 1     
   22   12   26 1     
   23   13   20 1     
   24   13   14 1     
   25   13   15 1     
   26   14   27 1     
   27   15   21 1     
   28   15   16 1     
   29   16   28 1     
   30    1   29 1     
   31    3   30 1     
   32    3   31 1     
   33    5   32 1     
   34    9   33 1     
   35    9   34 1     
   36   12   35 1     
   37   12   36 1     
   38   14   37 1     
   39   14   38 1     
   40   16   39 1     
   41   16   40 1     
   42   17   41 1     
@<TRIPOS>SUBSTRUCTURE
      1 S1             1
@<TRIPOS>SET
LONE_PAIRS      STATIC     ATOMS    <user>   **** ""
13 29 30 31 32 33 34 35 36 37 38 39 40 41
DONOR_HYDROGENS      STATIC     ATOMS    <user>   **** ""
4 22 26 27 28
ATOM$BLUE        STATIC     ATOMS    COLORGROUP SYSTEM
13 29 30 31 32 33 34 35 36 37 38 39 40 41
ATOM$RED        STATIC     ATOMS    COLORGROUP SYSTEM
4 22 26 27 28
