AV-unprocessed.smi:1218|AV-procd|sdf|5106|dock9
  -GOLD-   22720 4163D 1   1.00000     0.00000
 Structure written by MMmdl.
 45 46  0  0  0  0  0  0  0  0  2 V2000
  146.1414  131.2224  152.2585 C   0  0  0  0  0  0  0  0  0  0  0  0
  145.9008  132.3736  151.2702 C   0  0  0  0  0  0  0  0  0  0  0  0
  145.6841  131.8254  149.8496 C   0  0  0  0  0  0  0  0  0  0  0  0
  147.0658  133.3854  151.3236 C   0  0  0  0  0  0  0  0  0  0  0  0
  146.9391  134.3642  152.4340 N   0  3  1  0  0  0  0  0  0  0  0  0
  145.5783  134.9410  152.5640 C   0  0  0  0  0  0  0  0  0  0  0  0
  145.5340  135.9584  153.7147 C   0  0  0  0  0  0  0  0  0  0  0  0
  145.9576  135.3310  154.9170 O   0  0  0  0  0  0  0  0  0  0  0  0
  147.3030  134.8699  154.8453 C   0  0  1  0  0  0  0  0  0  0  0  0
  147.7101  134.2953  156.2143 C   0  0  0  0  0  0  0  0  0  0  0  0
  147.8527  135.3407  157.2229 N   0  0  0  0  0  0  0  0  0  0  0  0
  148.2508  135.1435  158.4893 C   0  0  0  0  0  0  0  0  0  0  0  0
  148.5378  134.0328  158.9384 O   0  0  0  0  0  0  0  0  0  0  0  0
  148.3237  136.3948  159.3725 C   0  0  0  0  0  0  0  0  0  0  0  0
  147.7403  136.1839  160.6875 N   0  0  0  0  0  0  0  0  0  0  0  0
  147.4333  134.9906  161.3086 C   0  0  0  0  0  0  0  0  0  0  0  0
  146.9048  135.2923  162.5308 C   0  0  0  0  0  0  0  0  0  0  0  0
  146.9322  136.7147  162.5689 C   0  0  0  0  0  0  0  0  0  0  0  0
  147.4349  137.2452  161.4658 N   0  0  0  0  0  0  0  0  0  0  0  0
  147.3914  133.8073  153.7317 C   0  0  0  0  0  0  0  0  0  0  0  0
  147.0468  130.6677  152.0101 H   0  0  0  0  0  0  0  0  0  0  0  0
  145.3087  130.5183  152.2538 H   0  0  0  0  0  0  0  0  0  0  0  0
  146.2486  131.5950  153.2778 H   0  0  0  0  0  0  0  0  0  0  0  0
  144.9812  132.8669  151.5838 H   0  0  0  0  0  0  0  0  0  0  0  0
  146.5746  131.3147  149.4815 H   0  0  0  0  0  0  0  0  0  0  0  0
  145.4422  132.6222  149.1463 H   0  0  0  0  0  0  0  0  0  0  0  0
  144.8600  131.1117  149.8260 H   0  0  0  0  0  0  0  0  0  0  0  0
  148.0222  132.8675  151.4114 H   0  0  0  0  0  0  0  0  0  0  0  0
  147.0978  133.9186  150.3720 H   0  0  0  0  0  0  0  0  0  0  0  0
  145.2797  135.4334  151.6393 H   0  0  0  0  0  0  0  0  0  0  0  0
  144.8575  134.1430  152.7486 H   0  0  0  0  0  0  0  0  0  0  0  0
  146.1624  136.8238  153.4978 H   0  0  0  0  0  0  0  0  0  0  0  0
  144.5175  136.3285  153.8495 H   0  0  0  0  0  0  0  0  0  0  0  0
  147.9620  135.7062  154.6038 H   0  0  0  0  0  0  0  0  0  0  0  0
  146.9992  133.5343  156.5412 H   0  0  0  0  0  0  0  0  0  0  0  0
  148.6746  133.7941  156.1280 H   0  0  0  0  0  0  0  0  0  0  0  0
  147.6353  136.2845  156.9368 H   0  0  0  0  0  0  0  0  0  0  0  0
  149.3629  136.6987  159.5048 H   0  0  0  0  0  0  0  0  0  0  0  0
  147.8089  137.2174  158.8733 H   0  0  0  0  0  0  0  0  0  0  0  0
  147.6116  134.0378  160.8320 H   0  0  0  0  0  0  0  0  0  0  0  0
  146.5517  134.6026  163.2828 H   0  0  0  0  0  0  0  0  0  0  0  0
  146.6044  137.3731  163.3599 H   0  0  0  0  0  0  0  0  0  0  0  0
  146.7798  132.9404  153.9878 H   0  0  0  0  0  0  0  0  0  0  0  0
  148.4209  133.4585  153.6400 H   0  0  0  0  0  0  0  0  0  0  0  0
  147.5666  135.1263  152.2198 H   0  0  0  0  0  0  0  0  0  0  0  0
  1  2  1  0  0  0  0
  1 21  1  0  0  0  0
  1 22  1  0  0  0  0
  1 23  1  0  0  0  0
  2  3  1  0  0  0  0
  2  4  1  0  0  0  0
  2 24  1  0  0  0  0
  3 25  1  0  0  0  0
  3 26  1  0  0  0  0
  3 27  1  0  0  0  0
  4  5  1  0  0  0  0
  4 28  1  0  0  0  0
  4 29  1  0  0  0  0
  5 20  1  0  0  0  0
  5  6  1  0  0  0  0
  5 45  1  0  0  0  0
  6  7  1  0  0  0  0
  6 30  1  0  0  0  0
  6 31  1  0  0  0  0
  7  8  1  0  0  0  0
  7 32  1  0  0  0  0
  7 33  1  0  0  0  0
  8  9  1  0  0  0  0
  9 10  1  0  0  0  0
  9 20  1  0  0  0  0
  9 34  1  0  0  0  0
 10 11  1  0  0  0  0
 10 35  1  0  0  0  0
 10 36  1  0  0  0  0
 11 12  1  0  0  0  0
 11 37  1  0  0  0  0
 12 13  2  0  0  0  0
 12 14  1  0  0  0  0
 14 15  1  0  0  0  0
 14 38  1  0  0  0  0
 14 39  1  0  0  0  0
 15 19  1  0  0  0  0
 15 16  1  0  0  0  0
 16 17  2  0  0  0  0
 16 40  1  0  0  0  0
 17 18  1  0  0  0  0
 17 41  1  0  0  0  0
 18 19  2  0  0  0  0
 18 42  1  0  0  0  0
 20 43  1  0  0  0  0
 20 44  1  0  0  0  0
M  CHG  1   5   1
M  END
> <s_m_source_file>
AV-unprocessed.smi

> <i_m_source_file_index>
1218

> <i_lp_mmshare_version>
43012

> <i_f3d_flags>
0

> <s_epik_input>
W0NIM11bQ0hdKFtDSDNdKVtDSDJdTjFbQ0gyXVtDSDJdT1tDQEhdKFtDSDJdMSlbQ0gyXVtOSF1DKD1PKVtDSDJdbjJbY0hdW2NIXVtjSF1uMg==

> <s_epik_cmdline>
J2VwaWtfcHl0aG9uJywgJy1waCcsICc3LjAnLCAnLXRuJywgJzgnLCAnLW1hJywgJzIwMCcsICctbWV0YWxfYmluZGluZycsICctaW1hZScsICc8aW5maWxlLm1hZT4nLCAnLW9tYWUnLCAnPG91dGZpbGUubWFlPic=

> <r_lp_tautomer_probability>
1

> <r_epik_Ionization_Penalty>
0.0995066

> <r_epik_Ionization_Penalty_Charging>
0.0994921

> <r_epik_Ionization_Penalty_Neutral>
1.44634e-05

> <r_epik_State_Penalty>
0.0895432

> <r_epik_Charging_Adjusted_Penalty>
0.189035

> <i_epik_Tot_Q>
1

> <i_epik_Tot_abs_Q>
1

> <r_epik_Metal_State_Penalty>
0.0895432

> <b_epik_Metal_Only>
0

> <s_lp_Force_Field>
OPLS_2005

> <r_lp_Energy>
18.9521

> <b_lp_Chiralities_Consistent>
1

> <s_lp_Variant>
AV-unprocessed.smi:1218-1

> <Gold.Version>
5.8.1

> <Gold.Id.Protein>
6NUR|6NUR_protein|mol2

> <Gold.PLP.Fitness>
46.0353

> <Gold.PLP.PLP>
-33.2854

> <Gold.PLP.part.hbond>
-4.0000

> <Gold.PLP.part.metal>
0.0000

> <Gold.PLP.part.buried>
-4.7737

> <Gold.PLP.part.nonpolar>
-24.7153

> <Gold.PLP.part.repulsive>
0.0670

> <Gold.PLP.ligand.clash>
0.0000

> <Gold.PLP.ligand.torsion>
0.8661

> <Gold.PLP.Chemscore.Hbond>
4.7840

> <Gold.PLP.Chemscore.CHOScore>
0.0000

> <Gold.PLP.Chemscore.Metal>
0.0000

> <Gold.Chemscore.Hbonds>
donor molecule, donor type, donor heavy atom, donor atom, acceptor molecule, acceptor atom, score
      L1  H     5    45       P1  7948  2.00
      P1  H  6896  6909       L1    13  0.53
      P1  H  6931  6943       L1    19  0.90
      P1  H  6934  6947       L1    19  0.88

> <Gold.PLP.Chemscore.Internal.Correction>
0.1301

> <Gold.Rescore>
     Score         DG    S(hbond)    S(metal)    S(lipo)     H(rot)  DE(clash)    DE(int)     intcor
     18.40     -20.45       3.33        0.00      75.86       1.96       0.01       2.04       ----

> <Gold.Chemscore.Fitness>
18.3963

> <Gold.Chemscore.DG>
-20.4507

> <Gold.Chemscore.ZeroCoef>
-5.4800

> <Gold.Chemscore.Hbond>
3.3290

> <Gold.Chemscore.Metal>
0.0000

> <Gold.Chemscore.Lipo>
75.8592

> <Gold.Chemscore.Internal_Hbond>
0.0000

> <Gold.Chemscore.DEClash>
0.0121

> <Gold.Chemscore.DEInternal>
2.0423

> <Gold.Chemscore.Rot>
1.9624

> <Gold.Chemscore.Internal.Correction>
   9.000000E+99

> <Gold.Chemscore.Hbonds>
donor molecule, donor type, donor heavy atom, donor atom, acceptor molecule, acceptor atom, score
      L1  H     5    45       P1  7948  0.98
      P1  H  6896  6909       L1    13  0.39
      P1  H  6931  6943       L1    19  0.48
      P1  H  6934  6947       L1    19  0.86

> <Gold.Chemscore.Hbond.Weighted>
-11.1189

> <Gold.Chemscore.Metal.Weighted>
-0.0000

> <Gold.Chemscore.Lipo.Weighted>
-8.8755

> <Gold.Chemscore.Internal_Hbond.Weighted>
0.0000

> <Gold.Chemscore.DEClash.Weighted>
0.0121

> <Gold.Chemscore.DEInternal.Weighted>
2.0423

> <Gold.Chemscore.Rot.Weighted>
5.0237

> <Gold.Chemscore.Internal.Correction.Weighted>
   9.000000E+99

> <Gold.Protein.RotatedTorsions>
[ 6907 6896 6895 6894 ] final    7.07 input  -60.11 | X-H torsion
[ 7974 7965 7964 7962 ] final   64.89 input  175.53 | X-H torsion
[ 8008 7997 7996 7995 ] final  117.51 input   59.86 | X-H torsion
[ 10167 10162 10161 10158 ] final   31.51 input  -65.29 | X-H torsion
[ 10718 10713 10712 10709 ] final -123.03 input   66.30 | X-H torsion
[ 10763 10752 10751 10750 ] final  -60.50 input  -60.55 | X-H torsion
[ 11005 11000 10999 10996 ] final  153.96 input  -57.11 | X-H torsion

> <Gold.Protein.ActiveResidues>
 VAL166  LYS551  ARG553  GLY616  TRP617  ASP618  TYR619  PRO620  LYS621  CYS622 
 ASP623  PHE694  ASN695  SER759  ASP760  ASP761  ALA762  ILE779  LEU786  VAL792 
 PHE793  MET794  SER795  GLU796  ALA797  LYS798  CYS799  TRP800  GLU811  SER814 

> <Gold.Protein.RotatedAtoms>
  151.6839  135.0957  160.0220 H   0  0  0  0  0  0  0  0  0  0  0  0  # atno 6907 bound_to 6896
  152.3819  133.6553  159.6176 H   0  0  0  0  0  0  0  0  0  0  0  0  # atno 6908 bound_to 6896
  150.7754  133.9016  159.3384 H   0  0  0  0  0  0  0  0  0  0  0  0  # atno 6909 bound_to 6896
  145.8449  139.3218  143.0909 H   0  0  0  0  0  0  0  0  0  0  0  0  # atno 7974 bound_to 7965
  156.2498  140.2894  156.0690 H   0  0  0  0  0  0  0  0  0  0  0  0  # atno 8008 bound_to 7997
  155.1692  140.0401  157.2876 H   0  0  0  0  0  0  0  0  0  0  0  0  # atno 8009 bound_to 7997
  154.6338  140.2506  155.7409 H   0  0  0  0  0  0  0  0  0  0  0  0  # atno 8010 bound_to 7997
  140.4582  144.0946  150.6206 H   0  0  0  0  0  0  0  0  0  0  0  0  # atno 10167 bound_to 10162
  156.1468  130.6506  150.9854 H   0  0  0  0  0  0  0  0  0  0  0  0  # atno 10718 bound_to 10713
  154.2701  135.6292  153.5307 H   0  0  0  0  0  0  0  0  0  0  0  0  # atno 10763 bound_to 10752
  152.9881  135.5608  154.5609 H   0  0  0  0  0  0  0  0  0  0  0  0  # atno 10764 bound_to 10752
  154.5177  135.2880  155.1264 H   0  0  0  0  0  0  0  0  0  0  0  0  # atno 10765 bound_to 10752
  140.1445  134.8716  157.2375 H   0  0  0  0  0  0  0  0  0  0  0  0  # atno 11005 bound_to 11000
  145.9423  140.8970  143.0301 LP  0  0  0  0  0  0  0  0  0  0  0  0  # atno 17320 bound_to 7965
  144.6731  140.1565  143.7426 LP  0  0  0  0  0  0  0  0  0  0  0  0  # atno 17321 bound_to 7965
  140.4125  143.2650  151.9815 LP  0  0  0  0  0  0  0  0  0  0  0  0  # atno 17342 bound_to 10162
  139.4803  144.5902  151.7784 LP  0  0  0  0  0  0  0  0  0  0  0  0  # atno 17343 bound_to 10162
  157.6623  131.0878  150.7809 LP  0  0  0  0  0  0  0  0  0  0  0  0  # atno 17370 bound_to 10713
  156.7880  130.4881  149.5389 LP  0  0  0  0  0  0  0  0  0  0  0  0  # atno 17371 bound_to 10713
  140.2680  134.3493  155.7383 LP  0  0  0  0  0  0  0  0  0  0  0  0  # atno 17394 bound_to 11000
  141.2191  133.7407  156.9180 LP  0  0  0  0  0  0  0  0  0  0  0  0  # atno 17395 bound_to 11000

$$$$
