#       Name:                AV-unprocessed.smi:3154
#       Creating user name   scv26
#       Creation time:       Fri Mar 27 17:43:30 2020


#       File generated by GOLD software.
#

@<TRIPOS>MOLECULE
AV-unprocessed.smi:3154
    38    39     1
SMALL
NO_CHARGES


@<TRIPOS>ATOM
      1 ****        -1.7813  -1.7867   1.8177 C.3            1 S1                 0.0000
      2 ****        -1.2742  -0.8450   0.7126 C.3            1 S1                 0.0000
      3 ****        -1.6918  -1.3158  -0.7003 C.3            1 S1                 0.0000
      4 ****        -3.1280  -1.4693  -0.8466 N.pl3          1 S1                 0.0000
      5 ****        -3.8510  -2.6210  -1.0768 C.2            1 S1                 0.0000
      6 ****        -5.1668  -2.2647  -1.1553 C.2            1 S1                 0.0000
      7 ****        -5.1479  -0.8548  -0.9644 C.2            1 S1                 0.0000
      8 ****        -3.9254  -0.3813  -0.7842 N.2            1 S1                 0.0000
      9 ****         0.1960  -0.7146   0.8161 N.4            1 S1                 1.0000
     10 ****         0.7741   0.4784   0.1589 C.3            1 S1                 0.0000
     11 ****         2.2908   0.5618   0.3397 C.2            1 S1                 0.0000
     12 ****         2.9208  -0.3878   0.8072 O.2            1 S1                 0.0000
     13 ****         2.8635   1.7108  -0.0473 N.am           1 S1                 0.0000
     14 ****         4.2590   2.0044   0.0153 C.3            1 S1                 0.0000
     15 ****         4.6666   3.4172   0.3732 C.3            1 S1                 0.0000
     16 ****         4.8284   2.9286  -1.0396 C.3            1 S1                 0.0000
     17 ****        -2.8704  -1.8367   1.8344 H              1 S1                 0.0000
     18 ****        -1.4612  -1.4437   2.8021 H              1 S1                 0.0000
     19 ****        -1.4038  -2.8004   1.6796 H              1 S1                 0.0000
     20 ****        -1.7079   0.1382   0.9022 H              1 S1                 0.0000
     21 ****        -1.3581  -0.6123  -1.4632 H              1 S1                 0.0000
     22 ****        -1.2194  -2.2715  -0.9316 H              1 S1                 0.0000
     23 ****        -3.3763  -3.5873  -1.1638 H              1 S1                 0.0000
     24 ****        -6.0144  -2.9117  -1.3259 H              1 S1                 0.0000
     25 ****        -5.9802  -0.1665  -0.9534 H              1 S1                 0.0000
     26 ****         0.4326  -0.6552   1.7962 H              1 S1                 0.0000
     27 ****         0.5580   0.4627  -0.9090 H              1 S1                 0.0000
     28 ****         0.3157   1.3774   0.5729 H              1 S1                 0.0000
     29 ****         2.2667   2.4344  -0.4217 H              1 S1                 0.0000
     30 ****         4.9223   1.2129   0.3616 H              1 S1                 0.0000
     31 ****         3.8784   4.1424   0.5662 H              1 S1                 0.0000
     32 ****         5.5696   3.5431   0.9674 H              1 S1                 0.0000
     33 ****         5.8396   2.7297  -1.3891 H              1 S1                 0.0000
     34 ****         4.1479   3.3285  -1.7889 H              1 S1                 0.0000
     35 ****         0.6296  -1.5441   0.4369 H              1 S1                 0.0000
     36 ****        -3.6531   0.5693  -0.6352 LP             1 S1                 0.0000
     37 ****         2.4409  -1.2240   1.0729 LP             1 S1                 0.0000
     38 ****         3.9121  -0.3226   0.9211 LP             1 S1                 0.0000
@<TRIPOS>BOND
    1    1    2 1     
    2    1   17 1     
    3    1   18 1     
    4    1   19 1     
    5    2    3 1     
    6    2    9 1     
    7    2   20 1     
    8    3    4 1     
    9    3   21 1     
   10    3   22 1     
   11    4    8 1     
   12    4    5 1     
   13    5    6 2     
   14    5   23 1     
   15    6    7 1     
   16    6   24 1     
   17    7    8 2     
   18    7   25 1     
   19    9   10 1     
   20    9   26 1     
   21    9   35 1     
   22   10   11 1     
   23   10   27 1     
   24   10   28 1     
   25   11   12 2     
   26   11   13 am    
   27   13   14 1     
   28   13   29 1     
   29   14   16 1     
   30   14   15 1     
   31   14   30 1     
   32   15   16 1     
   33   15   31 1     
   34   15   32 1     
   35   16   33 1     
   36   16   34 1     
   37    8   36 1     
   38   12   37 1     
   39   12   38 1     
@<TRIPOS>SUBSTRUCTURE
      1 S1             1
@<TRIPOS>SET
LONE_PAIRS      STATIC     ATOMS    <user>   **** ""
3 36 37 38
DONOR_HYDROGENS      STATIC     ATOMS    <user>   **** ""
3 26 35 29
ATOM$BLUE        STATIC     ATOMS    COLORGROUP SYSTEM
3 36 37 38
ATOM$RED        STATIC     ATOMS    COLORGROUP SYSTEM
3 26 35 29
