AV-unprocessed.smi:1368|AV-procd|sdf|5578|dock10
  -GOLD-   22720 5173D 1   1.00000     0.00000
 Structure written by MMmdl.
 47 49  0  0  0  0  0  0  0  0  2 V2000
  142.3011  134.4008  163.3550 C   0  0  0  0  0  0  0  0  0  0  0  0
  143.2574  135.0629  162.3683 C   0  0  0  0  0  0  0  0  0  0  0  0
  142.8098  135.5781  161.3445 O   0  0  0  0  0  0  0  0  0  0  0  0
  144.5607  135.0120  162.6992 N   0  0  0  0  0  0  0  0  0  0  0  0
  145.6754  135.5332  161.9879 C   0  0  0  0  0  0  0  0  0  0  0  0
  146.9296  135.4949  162.6289 C   0  0  0  0  0  0  0  0  0  0  0  0
  148.0743  136.0067  161.9891 C   0  0  0  0  0  0  0  0  0  0  0  0
  147.9889  136.5778  160.7037 C   0  0  0  0  0  0  0  0  0  0  0  0
  149.1583  137.0533  160.1501 O   0  0  0  0  0  0  0  0  0  0  0  0
  149.0873  137.7153  158.8941 C   0  0  0  0  0  0  0  0  0  0  0  0
  150.3000  138.6485  158.7547 C   0  0  1  0  0  0  0  0  0  0  0  0
  151.4586  137.9352  159.1401 O   0  0  0  0  0  0  0  0  0  0  0  0
  150.4699  139.1530  157.3077 C   0  0  0  0  0  0  0  0  0  0  0  0
  150.5808  140.6183  157.2181 N   0  0  0  0  0  0  0  0  0  0  0  0
  149.9646  141.4914  156.3711 C   0  0  0  0  0  0  0  0  0  0  0  0
  148.9901  141.1506  155.2943 C   0  0  0  0  0  0  0  0  0  0  0  0
  150.4061  142.7415  156.6863 N   0  3  0  0  0  0  0  0  0  0  0  0
  151.3113  142.6692  157.7458 C   0  0  0  0  0  0  0  0  0  0  0  0
  152.0189  143.6679  158.4078 C   0  0  0  0  0  0  0  0  0  0  0  0
  152.8634  143.2546  159.4589 C   0  0  0  0  0  0  0  0  0  0  0  0
  152.9792  141.8956  159.8161 C   0  0  0  0  0  0  0  0  0  0  0  0
  152.2585  140.8918  159.1360 C   0  0  0  0  0  0  0  0  0  0  0  0
  151.4268  141.3079  158.0960 C   0  0  0  0  0  0  0  0  0  0  0  0
  146.7239  136.6344  160.0671 C   0  0  0  0  0  0  0  0  0  0  0  0
  145.5778  136.1211  160.7047 C   0  0  0  0  0  0  0  0  0  0  0  0
  142.6678  133.4161  163.6466 H   0  0  0  0  0  0  0  0  0  0  0  0
  141.3119  134.2769  162.9125 H   0  0  0  0  0  0  0  0  0  0  0  0
  142.2004  135.0124  164.2520 H   0  0  0  0  0  0  0  0  0  0  0  0
  144.7859  134.4755  163.5243 H   0  0  0  0  0  0  0  0  0  0  0  0
  147.0218  135.0636  163.6152 H   0  0  0  0  0  0  0  0  0  0  0  0
  149.0294  135.9611  162.4918 H   0  0  0  0  0  0  0  0  0  0  0  0
  149.0472  137.0072  158.0641 H   0  0  0  0  0  0  0  0  0  0  0  0
  148.1714  138.3084  158.8718 H   0  0  0  0  0  0  0  0  0  0  0  0
  150.1788  139.5067  159.4168 H   0  0  0  0  0  0  0  0  0  0  0  0
  151.8752  137.6003  158.3602 H   0  0  0  0  0  0  0  0  0  0  0  0
  151.3341  138.6943  156.8270 H   0  0  0  0  0  0  0  0  0  0  0  0
  149.6051  138.8615  156.7106 H   0  0  0  0  0  0  0  0  0  0  0  0
  148.6174  142.0557  154.8141 H   0  0  0  0  0  0  0  0  0  0  0  0
  148.1428  140.6058  155.7106 H   0  0  0  0  0  0  0  0  0  0  0  0
  149.4680  140.5283  154.5377 H   0  0  0  0  0  0  0  0  0  0  0  0
  151.9302  144.7097  158.1367 H   0  0  0  0  0  0  0  0  0  0  0  0
  153.4321  143.9948  160.0029 H   0  0  0  0  0  0  0  0  0  0  0  0
  153.6336  141.6165  160.6294 H   0  0  0  0  0  0  0  0  0  0  0  0
  152.3508  139.8552  159.4236 H   0  0  0  0  0  0  0  0  0  0  0  0
  146.6025  137.0719  159.0880 H   0  0  0  0  0  0  0  0  0  0  0  0
  144.6305  136.2024  160.1947 H   0  0  0  0  0  0  0  0  0  0  0  0
  150.1078  143.5826  156.2095 H   0  0  0  0  0  0  0  0  0  0  0  0
  1  2  1  0  0  0  0
  1 26  1  0  0  0  0
  1 27  1  0  0  0  0
  1 28  1  0  0  0  0
  2  3  2  0  0  0  0
  2  4  1  0  0  0  0
  4  5  1  0  0  0  0
  4 29  1  0  0  0  0
  5 25  1  0  0  0  0
  5  6  2  0  0  0  0
  6  7  1  0  0  0  0
  6 30  1  0  0  0  0
  7  8  2  0  0  0  0
  7 31  1  0  0  0  0
  8  9  1  0  0  0  0
  8 24  1  0  0  0  0
  9 10  1  0  0  0  0
 10 11  1  0  0  0  0
 10 32  1  0  0  0  0
 10 33  1  0  0  0  0
 11 12  1  0  0  0  0
 11 13  1  0  0  0  0
 11 34  1  0  0  0  0
 12 35  1  0  0  0  0
 13 14  1  0  0  0  0
 13 36  1  0  0  0  0
 13 37  1  0  0  0  0
 14 23  1  0  0  0  0
 14 15  1  0  0  0  0
 15 16  1  0  0  0  0
 15 17  2  0  0  0  0
 16 38  1  0  0  0  0
 16 39  1  0  0  0  0
 16 40  1  0  0  0  0
 17 18  1  0  0  0  0
 17 47  1  0  0  0  0
 18 23  2  0  0  0  0
 18 19  1  0  0  0  0
 19 20  2  0  0  0  0
 19 41  1  0  0  0  0
 20 21  1  0  0  0  0
 20 42  1  0  0  0  0
 21 22  2  0  0  0  0
 21 43  1  0  0  0  0
 22 23  1  0  0  0  0
 22 44  1  0  0  0  0
 24 25  2  0  0  0  0
 24 45  1  0  0  0  0
 25 46  1  0  0  0  0
M  CHG  1  17   1
M  END
> <s_m_source_file>
AV-unprocessed.smi

> <i_m_source_file_index>
1368

> <i_lp_mmshare_version>
43012

> <i_f3d_flags>
0

> <s_epik_input>
W0NIM11DKD1PKVtOSF1jMVtjSF1bY0hdYyhbY0hdW2NIXTEpT1tDSDJdW0NASF0oW09IXSlbQ0gyXW4oYyhuMilbQ0gzXSljKGMyMylbY0hdW2NIXVtjSF1bY0hdMw==

> <s_epik_cmdline>
J2VwaWtfcHl0aG9uJywgJy1waCcsICc3LjAnLCAnLXRuJywgJzgnLCAnLW1hJywgJzIwMCcsICctbWV0YWxfYmluZGluZycsICctaW1hZScsICc8aW5maWxlLm1hZT4nLCAnLW9tYWUnLCAnPG91dGZpbGUubWFlPic=

> <r_lp_tautomer_probability>
1

> <r_epik_Ionization_Penalty>
1.00673

> <r_epik_Ionization_Penalty_Charging>
1.00673

> <r_epik_Ionization_Penalty_Neutral>
2.60899e-06

> <r_epik_State_Penalty>
1.05579

> <r_epik_Charging_Adjusted_Penalty>
2.06252

> <i_epik_Tot_Q>
1

> <i_epik_Tot_abs_Q>
1

> <r_epik_Metal_State_Penalty>
1.15682

> <b_epik_Metal_Only>
0

> <s_lp_Force_Field>
OPLS_2005

> <r_lp_Energy>
24.3516

> <b_lp_Chiralities_Consistent>
1

> <s_lp_Variant>
AV-unprocessed.smi:1368-4

> <Gold.Version>
5.8.1

> <Gold.Id.Protein>
6NUR|6NUR_protein|mol2

> <Gold.PLP.Fitness>
50.5260

> <Gold.PLP.PLP>
-46.6089

> <Gold.PLP.part.hbond>
-2.0000

> <Gold.PLP.part.metal>
0.0000

> <Gold.PLP.part.buried>
-7.7296

> <Gold.PLP.part.nonpolar>
-37.6376

> <Gold.PLP.part.repulsive>
0.1125

> <Gold.PLP.ligand.clash>
0.0000

> <Gold.PLP.ligand.torsion>
1.1311

> <Gold.PLP.Chemscore.Hbond>
2.0000

> <Gold.PLP.Chemscore.CHOScore>
0.0000

> <Gold.PLP.Chemscore.Metal>
0.0000

> <Gold.Chemscore.Hbonds>
donor molecule, donor type, donor heavy atom, donor atom, acceptor molecule, acceptor atom, score
      L1  H    17    47       P1  8028  2.00
      P1  H  6931  6943       L1     9  0.02

> <Gold.PLP.Chemscore.Internal.Correction>
0.1794

> <Gold.Rescore>
     Score         DG    S(hbond)    S(metal)    S(lipo)     H(rot)  DE(clash)    DE(int)     intcor
     15.00     -17.30       1.00        0.00     126.63       2.47       0.04       2.25       ----

> <Gold.Chemscore.Fitness>
15.0036

> <Gold.Chemscore.DG>
-17.3002

> <Gold.Chemscore.ZeroCoef>
-5.4800

> <Gold.Chemscore.Hbond>
0.9975

> <Gold.Chemscore.Metal>
0.0000

> <Gold.Chemscore.Lipo>
126.6278

> <Gold.Chemscore.Internal_Hbond>
0.0000

> <Gold.Chemscore.DEClash>
0.0419

> <Gold.Chemscore.DEInternal>
2.2547

> <Gold.Chemscore.Rot>
2.4715

> <Gold.Chemscore.Internal.Correction>
   9.000000E+99

> <Gold.Chemscore.Hbonds>
donor molecule, donor type, donor heavy atom, donor atom, acceptor molecule, acceptor atom, score
      L1  H    17    47       P1  8028  0.98

> <Gold.Chemscore.Hbond.Weighted>
-3.3318

> <Gold.Chemscore.Metal.Weighted>
-0.0000

> <Gold.Chemscore.Lipo.Weighted>
-14.8154

> <Gold.Chemscore.Internal_Hbond.Weighted>
0.0000

> <Gold.Chemscore.DEClash.Weighted>
0.0419

> <Gold.Chemscore.DEInternal.Weighted>
2.2547

> <Gold.Chemscore.Rot.Weighted>
6.3271

> <Gold.Chemscore.Internal.Correction.Weighted>
   9.000000E+99

> <Gold.Protein.RotatedTorsions>
[ 6907 6896 6895 6894 ] final   43.96 input  -60.11 | X-H torsion
[ 7974 7965 7964 7962 ] final   27.90 input  175.53 | X-H torsion
[ 8008 7997 7996 7995 ] final -154.03 input   59.86 | X-H torsion
[ 10167 10162 10161 10158 ] final    0.27 input  -65.29 | X-H torsion
[ 10718 10713 10712 10709 ] final -179.52 input   66.30 | X-H torsion
[ 10763 10752 10751 10750 ] final   72.13 input  -60.55 | X-H torsion
[ 11005 11000 10999 10996 ] final  -34.00 input  -57.11 | X-H torsion

> <Gold.Protein.ActiveResidues>
 VAL166  LYS551  ARG553  GLY616  TRP617  ASP618  TYR619  PRO620  LYS621  CYS622 
 ASP623  PHE694  ASN695  SER759  ASP760  ASP761  ALA762  ILE779  LEU786  VAL792 
 PHE793  MET794  SER795  GLU796  ALA797  LYS798  CYS799  TRP800  GLU811  SER814 

> <Gold.Protein.RotatedAtoms>
  152.2267  134.8361  160.0478 H   0  0  0  0  0  0  0  0  0  0  0  0  # atno 6907 bound_to 6896
  151.9125  133.3559  159.3877 H   0  0  0  0  0  0  0  0  0  0  0  0  # atno 6908 bound_to 6896
  150.7014  134.4643  159.5439 H   0  0  0  0  0  0  0  0  0  0  0  0  # atno 6909 bound_to 6896
  146.1759  139.7128  142.8935 H   0  0  0  0  0  0  0  0  0  0  0  0  # atno 7974 bound_to 7965
  155.6800  140.0743  157.2488 H   0  0  0  0  0  0  0  0  0  0  0  0  # atno 8008 bound_to 7997
  154.4107  140.1683  156.2024 H   0  0  0  0  0  0  0  0  0  0  0  0  # atno 8009 bound_to 7997
  155.9542  140.3375  155.6437 H   0  0  0  0  0  0  0  0  0  0  0  0  # atno 8010 bound_to 7997
  140.6736  143.6979  150.7975 H   0  0  0  0  0  0  0  0  0  0  0  0  # atno 10167 bound_to 10162
  156.8603  130.9749  151.3084 H   0  0  0  0  0  0  0  0  0  0  0  0  # atno 10718 bound_to 10713
  153.0440  135.5111  154.7698 H   0  0  0  0  0  0  0  0  0  0  0  0  # atno 10763 bound_to 10752
  154.6612  135.2939  154.9866 H   0  0  0  0  0  0  0  0  0  0  0  0  # atno 10764 bound_to 10752
  154.0716  135.6677  153.4877 H   0  0  0  0  0  0  0  0  0  0  0  0  # atno 10765 bound_to 10752
  140.9680  133.7125  156.1478 H   0  0  0  0  0  0  0  0  0  0  0  0  # atno 11005 bound_to 11000
  145.4214  141.0407  143.2962 LP  0  0  0  0  0  0  0  0  0  0  0  0  # atno 17320 bound_to 7965
  144.8235  139.5750  143.6976 LP  0  0  0  0  0  0  0  0  0  0  0  0  # atno 17321 bound_to 7965
  140.0668  143.5100  152.2600 LP  0  0  0  0  0  0  0  0  0  0  0  0  # atno 17342 bound_to 10162
  139.6017  144.7584  151.3157 LP  0  0  0  0  0  0  0  0  0  0  0  0  # atno 17343 bound_to 10162
  157.6254  130.8687  149.9180 LP  0  0  0  0  0  0  0  0  0  0  0  0  # atno 17370 bound_to 10713
  156.0780  130.3676  150.0637 LP  0  0  0  0  0  0  0  0  0  0  0  0  # atno 17371 bound_to 10713
  140.7370  134.4192  157.5559 LP  0  0  0  0  0  0  0  0  0  0  0  0  # atno 17394 bound_to 11000
  139.8902  134.8811  156.2383 LP  0  0  0  0  0  0  0  0  0  0  0  0  # atno 17395 bound_to 11000

$$$$
