#       Name:                AV-unprocessed.smi:3289
#       Creating user name   scv26
#       Creation time:       Fri Mar 27 18:53:39 2020


#       File generated by GOLD software.
#

@<TRIPOS>MOLECULE
AV-unprocessed.smi:3289
    44    45     1
SMALL
NO_CHARGES


@<TRIPOS>ATOM
      1 ****        -3.1603   1.9337   2.6500 C.3            1 S1                 0.0000
      2 ****        -2.2844   1.2028   1.6207 C.3            1 S1                 0.0000
      3 ****        -2.3405   1.8888   0.2477 C.3            1 S1                 0.0000
      4 ****        -2.6428  -0.2549   1.5167 C.2            1 S1                 0.0000
      5 ****        -3.8871  -0.7297   1.3757 N.pl3          1 S1                 1.0000
      6 ****        -3.8743  -2.0930   1.2727 C.2            1 S1                 0.0000
      7 ****        -2.5605  -2.4723   1.3407 C.2            1 S1                 0.0000
      8 ****        -1.8226  -1.3238   1.4830 N.pl3          1 S1                 0.0000
      9 ****        -0.3559  -1.2555   1.5823 C.3            1 S1                 0.0000
     10 ****         0.2852  -0.7476   0.2877 C.2            1 S1                 0.0000
     11 ****        -0.1254  -1.1441  -0.8033 O.2            1 S1                 0.0000
     12 ****         1.2787   0.1434   0.4249 N.am           1 S1                 0.0000
     13 ****         1.9932   0.7804  -0.6758 C.3            1 S1                 0.0000
     14 ****         3.2351  -0.0269  -1.0964 C.3            1 S1                 0.0000
     15 ****         4.0623   0.6778  -2.1807 C.3            1 S1                 0.0000
     16 ****         3.6610  -0.0408  -3.4505 C.3            1 S1                 0.0000
     17 ****         3.4394  -1.4546  -2.9367 C.3            1 S1                 0.0000
     18 ****         2.8181  -1.2657  -1.6736 O.3            1 S1                 0.0000
     19 ****        -3.0795   1.4700   3.6338 H              1 S1                 0.0000
     20 ****        -4.2120   1.9253   2.3618 H              1 S1                 0.0000
     21 ****        -2.8558   2.9757   2.7526 H              1 S1                 0.0000
     22 ****        -1.2574   1.2503   1.9791 H              1 S1                 0.0000
     23 ****        -1.6732   1.4043  -0.4653 H              1 S1                 0.0000
     24 ****        -2.0388   2.9342   0.3191 H              1 S1                 0.0000
     25 ****        -3.3476   1.8619  -0.1696 H              1 S1                 0.0000
     26 ****        -4.7768  -2.6751   1.1565 H              1 S1                 0.0000
     27 ****        -2.1056  -3.4513   1.2921 H              1 S1                 0.0000
     28 ****        -0.0916  -0.6311   2.4367 H              1 S1                 0.0000
     29 ****         0.0187  -2.2577   1.7937 H              1 S1                 0.0000
     30 ****         1.5564   0.4074   1.3592 H              1 S1                 0.0000
     31 ****         1.3303   0.9426  -1.5276 H              1 S1                 0.0000
     32 ****         2.2989   1.7692  -0.3334 H              1 S1                 0.0000
     33 ****         3.8630  -0.2237  -0.2264 H              1 S1                 0.0000
     34 ****         3.8908   1.7535  -2.2311 H              1 S1                 0.0000
     35 ****         5.1252   0.5199  -1.9932 H              1 S1                 0.0000
     36 ****         2.7279   0.3695  -3.8387 H              1 S1                 0.0000
     37 ****         4.4166   0.0163  -4.2345 H              1 S1                 0.0000
     38 ****         2.8196  -2.0551  -3.6027 H              1 S1                 0.0000
     39 ****         4.3919  -1.9675  -2.7960 H              1 S1                 0.0000
     40 ****        -4.7198  -0.1549   1.3473 H              1 S1                 0.0000
     41 ****        -0.8795  -1.7996  -0.8456 LP             1 S1                 0.0000
     42 ****         0.2952  -0.8107  -1.6470 LP             1 S1                 0.0000
     43 ****         1.8252  -1.2567  -1.7923 LP             1 S1                 0.0000
     44 ****         3.0741  -2.0163  -1.0644 LP             1 S1                 0.0000
@<TRIPOS>BOND
    1    1    2 1     
    2    1   19 1     
    3    1   20 1     
    4    1   21 1     
    5    2    3 1     
    6    2    4 1     
    7    2   22 1     
    8    3   23 1     
    9    3   24 1     
   10    3   25 1     
   11    4    8 1     
   12    4    5 2     
   13    5    6 1     
   14    5   40 1     
   15    6    7 2     
   16    6   26 1     
   17    7    8 1     
   18    7   27 1     
   19    8    9 1     
   20    9   10 1     
   21    9   28 1     
   22    9   29 1     
   23   10   11 2     
   24   10   12 am    
   25   12   13 1     
   26   12   30 1     
   27   13   14 1     
   28   13   31 1     
   29   13   32 1     
   30   14   18 1     
   31   14   15 1     
   32   14   33 1     
   33   15   16 1     
   34   15   34 1     
   35   15   35 1     
   36   16   17 1     
   37   16   36 1     
   38   16   37 1     
   39   17   18 1     
   40   17   38 1     
   41   17   39 1     
   42   11   41 1     
   43   11   42 1     
   44   18   43 1     
   45   18   44 1     
@<TRIPOS>SUBSTRUCTURE
      1 S1             1
@<TRIPOS>SET
LONE_PAIRS      STATIC     ATOMS    <user>   **** ""
4 41 42 43 44
DONOR_HYDROGENS      STATIC     ATOMS    <user>   **** ""
2 40 30
ATOM$BLUE        STATIC     ATOMS    COLORGROUP SYSTEM
4 41 42 43 44
ATOM$RED        STATIC     ATOMS    COLORGROUP SYSTEM
2 40 30
