AV-unprocessed.smi:2838|AV-procd|sdf|10928|dock6
  -GOLD-   2272015373D 1   1.00000     0.00000
 Structure written by MMmdl.
 48 49  0  0  0  0  0  0  0  0  1 V2000
  148.3964  141.6229  154.0679 C   0  0  0  0  0  0  0  0  0  0  0  0
  147.0172  141.4409  154.7248 C   0  0  2  0  0  0  0  0  0  0  0  0
  146.2783  140.4492  153.9413 N   0  0  0  0  0  0  0  0  0  0  0  0
  146.6264  139.1654  153.7665 C   0  0  0  0  0  0  0  0  0  0  0  0
  147.6168  138.6495  154.2840 O   0  0  0  0  0  0  0  0  0  0  0  0
  145.7666  138.5368  152.9478 N   0  0  0  0  0  0  0  0  0  0  0  0
  145.7846  137.1759  152.5423 C   0  0  0  0  0  0  0  0  0  0  0  0
  145.5202  136.7190  151.2295 C   0  0  0  0  0  0  0  0  0  0  0  0
  145.5730  135.4078  150.9127 N   0  0  0  0  0  0  0  0  0  0  0  0
  145.9206  134.5446  151.8763 C   0  0  0  0  0  0  0  0  0  0  0  0
  145.8198  133.0457  151.5428 C   0  0  0  0  0  0  0  0  0  0  0  0
  146.6183  132.7015  150.2632 C   0  0  0  0  0  0  0  0  0  0  0  0
  144.3554  132.6393  151.2549 C   0  0  0  0  0  0  0  0  0  0  0  0
  146.3646  132.2212  152.7237 C   0  0  0  0  0  0  0  0  0  0  0  0
  146.1619  134.8729  153.1525 N   0  0  0  0  0  0  0  0  0  0  0  0
  146.1174  136.1807  153.4825 C   0  0  0  0  0  0  0  0  0  0  0  0
  146.2171  142.7672  154.8451 C   0  0  0  0  0  0  0  0  0  0  0  0
  144.9193  142.6007  155.6630 C   0  0  0  0  0  0  0  0  0  0  0  0
  144.1107  143.9073  155.7048 C   0  0  0  0  0  0  0  0  0  0  0  0
  143.8152  144.3407  154.3835 O   0  0  0  0  0  0  0  0  0  0  0  0
  144.9849  144.6357  153.6314 C   0  0  0  0  0  0  0  0  0  0  0  0
  145.8420  143.3696  153.4737 C   0  0  0  0  0  0  0  0  0  0  0  0
  149.0597  142.2328  154.6804 H   0  0  0  0  0  0  0  0  0  0  0  0
  148.3118  142.0965  153.0892 H   0  0  0  0  0  0  0  0  0  0  0  0
  148.8928  140.6617  153.9288 H   0  0  0  0  0  0  0  0  0  0  0  0
  147.1895  141.0539  155.7307 H   0  0  0  0  0  0  0  0  0  0  0  0
  145.4463  140.7776  153.4735 H   0  0  0  0  0  0  0  0  0  0  0  0
  145.0507  139.1089  152.5243 H   0  0  0  0  0  0  0  0  0  0  0  0
  145.2790  137.3871  150.4175 H   0  0  0  0  0  0  0  0  0  0  0  0
  146.5080  131.6497  149.9968 H   0  0  0  0  0  0  0  0  0  0  0  0
  147.6864  132.8833  150.3872 H   0  0  0  0  0  0  0  0  0  0  0  0
  146.2786  133.2923  149.4116 H   0  0  0  0  0  0  0  0  0  0  0  0
  143.9325  133.2293  150.4407 H   0  0  0  0  0  0  0  0  0  0  0  0
  143.7147  132.7719  152.1272 H   0  0  0  0  0  0  0  0  0  0  0  0
  144.2831  131.5893  150.9695 H   0  0  0  0  0  0  0  0  0  0  0  0
  146.3071  131.1509  152.5234 H   0  0  0  0  0  0  0  0  0  0  0  0
  145.8002  132.4158  153.6364 H   0  0  0  0  0  0  0  0  0  0  0  0
  147.4088  132.4630  152.9259 H   0  0  0  0  0  0  0  0  0  0  0  0
  146.3362  136.4305  154.5103 H   0  0  0  0  0  0  0  0  0  0  0  0
  146.8461  143.4935  155.3624 H   0  0  0  0  0  0  0  0  0  0  0  0
  144.3063  141.8106  155.2274 H   0  0  0  0  0  0  0  0  0  0  0  0
  145.1410  142.2962  156.6853 H   0  0  0  0  0  0  0  0  0  0  0  0
  143.1740  143.7501  156.2398 H   0  0  0  0  0  0  0  0  0  0  0  0
  144.6561  144.6851  156.2416 H   0  0  0  0  0  0  0  0  0  0  0  0
  144.6877  145.0108  152.6520 H   0  0  0  0  0  0  0  0  0  0  0  0
  145.5522  145.4313  154.1171 H   0  0  0  0  0  0  0  0  0  0  0  0
  146.7355  143.6219  152.9032 H   0  0  0  0  0  0  0  0  0  0  0  0
  145.2946  142.6330  152.8843 H   0  0  0  0  0  0  0  0  0  0  0  0
  1  2  1  0  0  0  0
  1 23  1  0  0  0  0
  1 24  1  0  0  0  0
  1 25  1  0  0  0  0
  2  3  1  0  0  0  0
  2 17  1  0  0  0  0
  2 26  1  0  0  0  0
  3  4  1  0  0  0  0
  3 27  1  0  0  0  0
  4  5  2  0  0  0  0
  4  6  1  0  0  0  0
  6  7  1  0  0  0  0
  6 28  1  0  0  0  0
  7 16  1  0  0  0  0
  7  8  2  0  0  0  0
  8  9  1  0  0  0  0
  8 29  1  0  0  0  0
  9 10  2  0  0  0  0
 10 11  1  0  0  0  0
 10 15  1  0  0  0  0
 11 12  1  0  0  0  0
 11 13  1  0  0  0  0
 11 14  1  0  0  0  0
 12 30  1  0  0  0  0
 12 31  1  0  0  0  0
 12 32  1  0  0  0  0
 13 33  1  0  0  0  0
 13 34  1  0  0  0  0
 13 35  1  0  0  0  0
 14 36  1  0  0  0  0
 14 37  1  0  0  0  0
 14 38  1  0  0  0  0
 15 16  2  0  0  0  0
 16 39  1  0  0  0  0
 17 22  1  0  0  0  0
 17 18  1  0  0  0  0
 17 40  1  0  0  0  0
 18 19  1  0  0  0  0
 18 41  1  0  0  0  0
 18 42  1  0  0  0  0
 19 20  1  0  0  0  0
 19 43  1  0  0  0  0
 19 44  1  0  0  0  0
 20 21  1  0  0  0  0
 21 22  1  0  0  0  0
 21 45  1  0  0  0  0
 21 46  1  0  0  0  0
 22 47  1  0  0  0  0
 22 48  1  0  0  0  0
M  END
> <s_m_source_file>
AV-unprocessed.smi

> <i_m_source_file_index>
2838

> <i_lp_mmshare_version>
43012

> <i_f3d_flags>
0

> <s_epik_input>
W0NIMl0xW0NIMl1PW0NIMl1bQ0gyXVtDSF0xW0NASF0oW0NIM10pW05IXUMoPU8pW05IXWMyW2NIXW5jKEMoW0NIM10pKFtDSDNdKVtDSDNdKW5bY0hdMg==

> <s_epik_cmdline>
J2VwaWtfcHl0aG9uJywgJy1waCcsICc3LjAnLCAnLXRuJywgJzgnLCAnLW1hJywgJzIwMCcsICctbWV0YWxfYmluZGluZycsICctaW1hZScsICc8aW5maWxlLm1hZT4nLCAnLW9tYWUnLCAnPG91dGZpbGUubWFlPic=

> <r_lp_tautomer_probability>
1

> <r_epik_Ionization_Penalty>
2.74753e-05

> <r_epik_Ionization_Penalty_Charging>
0

> <r_epik_Ionization_Penalty_Neutral>
2.74753e-05

> <r_epik_State_Penalty>
-0

> <r_epik_Charging_Adjusted_Penalty>
0

> <i_epik_Tot_Q>
0

> <i_epik_Tot_abs_Q>
0

> <r_epik_Metal_State_Penalty>
-0

> <b_epik_Metal_Only>
0

> <s_lp_Force_Field>
OPLS_2005

> <r_lp_Energy>
9.68517

> <b_lp_Chiralities_Consistent>
1

> <s_lp_Variant>
AV-unprocessed.smi:2838-1

> <Gold.Version>
5.8.1

> <Gold.Id.Protein>
6NUR|6NUR_protein|mol2

> <Gold.PLP.Fitness>
40.6219

> <Gold.PLP.PLP>
-33.1983

> <Gold.PLP.part.hbond>
-2.0000

> <Gold.PLP.part.metal>
0.0000

> <Gold.PLP.part.buried>
-2.2519

> <Gold.PLP.part.nonpolar>
-30.2501

> <Gold.PLP.part.repulsive>
0.8370

> <Gold.PLP.ligand.clash>
0.0000

> <Gold.PLP.ligand.torsion>
0.6545

> <Gold.PLP.Chemscore.Hbond>
1.9750

> <Gold.PLP.Chemscore.CHOScore>
0.8859

> <Gold.PLP.Chemscore.Metal>
0.0000

> <Gold.Chemscore.Hbonds>
donor molecule, donor type, donor heavy atom, donor atom, acceptor molecule, acceptor atom, score
      L1  H     3    27       P1 10175  0.98
      L1  H     6    28       P1 10175  1.00
      L1  C     8    29       P1 10171  0.77

> <Gold.PLP.Chemscore.Internal.Correction>
0.1500

> <Gold.Rescore>
     Score         DG    S(hbond)    S(metal)    S(lipo)     H(rot)  DE(clash)    DE(int)     intcor
     14.31     -17.45       1.87        0.00      78.14       1.34       1.34       1.80       ----

> <Gold.Chemscore.Fitness>
14.3139

> <Gold.Chemscore.DG>
-17.4456

> <Gold.Chemscore.ZeroCoef>
-5.4800

> <Gold.Chemscore.Hbond>
1.8687

> <Gold.Chemscore.Metal>
0.0000

> <Gold.Chemscore.Lipo>
78.1432

> <Gold.Chemscore.Internal_Hbond>
0.0000

> <Gold.Chemscore.DEClash>
1.3358

> <Gold.Chemscore.DEInternal>
1.7958

> <Gold.Chemscore.Rot>
1.3354

> <Gold.Chemscore.Internal.Correction>
   9.000000E+99

> <Gold.Chemscore.Hbonds>
donor molecule, donor type, donor heavy atom, donor atom, acceptor molecule, acceptor atom, score
      L1  H     3    27       P1 10175  0.75
      L1  H     6    28       P1 10175  0.98

> <Gold.Chemscore.Hbond.Weighted>
-6.2414

> <Gold.Chemscore.Metal.Weighted>
-0.0000

> <Gold.Chemscore.Lipo.Weighted>
-9.1428

> <Gold.Chemscore.Internal_Hbond.Weighted>
0.0000

> <Gold.Chemscore.DEClash.Weighted>
1.3358

> <Gold.Chemscore.DEInternal.Weighted>
1.7958

> <Gold.Chemscore.Rot.Weighted>
3.4185

> <Gold.Chemscore.Internal.Correction.Weighted>
   9.000000E+99

> <Gold.Protein.RotatedTorsions>
[ 6907 6896 6895 6894 ] final  -72.30 input  -60.11 | X-H torsion
[ 7974 7965 7964 7962 ] final  155.49 input  175.53 | X-H torsion
[ 8008 7997 7996 7995 ] final -171.96 input   59.86 | X-H torsion
[ 10167 10162 10161 10158 ] final  151.88 input  -65.29 | X-H torsion
[ 10718 10713 10712 10709 ] final -167.62 input   66.30 | X-H torsion
[ 10763 10752 10751 10750 ] final  -90.19 input  -60.55 | X-H torsion
[ 11005 11000 10999 10996 ] final  -76.07 input  -57.11 | X-H torsion

> <Gold.Protein.ActiveResidues>
 VAL166  LYS551  ARG553  GLY616  TRP617  ASP618  TYR619  PRO620  LYS621  CYS622 
 ASP623  PHE694  ASN695  SER759  ASP760  ASP761  ALA762  ILE779  LEU786  VAL792 
 PHE793  MET794  SER795  GLU796  ALA797  LYS798  CYS799  TRP800  GLU811  SER814 

> <Gold.Protein.RotatedAtoms>
  150.7175  134.5182  159.5640 H   0  0  0  0  0  0  0  0  0  0  0  0  # atno 6907 bound_to 6896
  152.2743  134.7895  160.0417 H   0  0  0  0  0  0  0  0  0  0  0  0  # atno 6908 bound_to 6896
  151.8564  133.3414  159.3726 H   0  0  0  0  0  0  0  0  0  0  0  0  # atno 6909 bound_to 6896
  144.8022  139.7075  143.6177 H   0  0  0  0  0  0  0  0  0  0  0  0  # atno 7974 bound_to 7965
  155.9384  140.1104  157.1075 H   0  0  0  0  0  0  0  0  0  0  0  0  # atno 8008 bound_to 7997
  154.4084  140.1224  156.4961 H   0  0  0  0  0  0  0  0  0  0  0  0  # atno 8009 bound_to 7997
  155.6992  140.3472  155.4928 H   0  0  0  0  0  0  0  0  0  0  0  0  # atno 8010 bound_to 7997
  139.4837  144.5404  151.7574 H   0  0  0  0  0  0  0  0  0  0  0  0  # atno 10167 bound_to 10162
  156.6850  130.9137  151.3062 H   0  0  0  0  0  0  0  0  0  0  0  0  # atno 10718 bound_to 10713
  154.6632  135.5313  153.8044 H   0  0  0  0  0  0  0  0  0  0  0  0  # atno 10763 bound_to 10752
  153.0455  135.6511  154.0839 H   0  0  0  0  0  0  0  0  0  0  0  0  # atno 10764 bound_to 10752
  154.0746  135.2951  155.3282 H   0  0  0  0  0  0  0  0  0  0  0  0  # atno 10765 bound_to 10752
  141.1651  133.6970  156.7612 H   0  0  0  0  0  0  0  0  0  0  0  0  # atno 11005 bound_to 11000
  146.2305  139.5805  142.9558 LP  0  0  0  0  0  0  0  0  0  0  0  0  # atno 17320 bound_to 7965
  145.5526  141.0412  143.2270 LP  0  0  0  0  0  0  0  0  0  0  0  0  # atno 17321 bound_to 7965
  140.4943  144.1264  150.5957 LP  0  0  0  0  0  0  0  0  0  0  0  0  # atno 17342 bound_to 10162
  140.4136  143.2645  151.9803 LP  0  0  0  0  0  0  0  0  0  0  0  0  # atno 17343 bound_to 10162
  157.7030  130.9353  150.0842 LP  0  0  0  0  0  0  0  0  0  0  0  0  # atno 17370 bound_to 10713
  156.1839  130.3651  149.8998 LP  0  0  0  0  0  0  0  0  0  0  0  0  # atno 17371 bound_to 10713
  140.2532  134.8524  157.3688 LP  0  0  0  0  0  0  0  0  0  0  0  0  # atno 17394 bound_to 11000
  140.1682  134.4642  155.7849 LP  0  0  0  0  0  0  0  0  0  0  0  0  # atno 17395 bound_to 11000

$$$$
