AV-unprocessed.smi:2226|AV-procd|sdf|9004|dock2
  -GOLD-   2272012213D 1   1.00000     0.00000
 Structure written by MMmdl.
 40 42  0  0  0  0  0  0  0  0  2 V2000
  146.5457  138.6800  152.9976 C   0  0  0  0  0  0  0  0  0  0  0  0
  146.2675  139.9201  153.7609 N   0  3  2  0  0  0  0  0  0  0  0  0
  146.9047  141.1428  153.2168 C   0  0  1  0  0  0  0  0  0  0  0  0
  146.2105  142.3861  153.8190 C   0  0  0  0  0  0  0  0  0  0  0  0
  146.1502  142.3822  155.3584 C   0  0  0  0  0  0  0  0  0  0  0  0
  145.8011  140.9951  155.9321 C   0  0  0  0  0  0  0  0  0  0  0  0
  146.5155  139.8233  155.2193 C   0  0  2  0  0  0  0  0  0  0  0  0
  148.0276  139.6851  155.5298 C   0  0  0  0  0  0  0  0  0  0  0  0
  148.9653  140.6639  154.7804 C   0  0  2  0  0  0  0  0  0  0  0  0
  149.3581  141.7859  155.6308 N   0  0  0  0  0  0  0  0  0  0  0  0
  150.2280  141.7303  156.6507 C   0  0  0  0  0  0  0  0  0  0  0  0
  150.8157  140.7019  156.9869 O   0  0  0  0  0  0  0  0  0  0  0  0
  150.3659  142.9298  157.2393 N   0  0  0  0  0  0  0  0  0  0  0  0
  151.2058  143.2630  158.3315 C   0  0  0  0  0  0  0  0  0  0  0  0
  151.9869  142.4269  159.0169 N   0  0  0  0  0  0  0  0  0  0  0  0
  152.6014  143.2258  159.9706 C   0  0  0  0  0  0  0  0  0  0  0  0
  152.1529  144.5110  159.8054 C   0  0  0  0  0  0  0  0  0  0  0  0
  151.2643  144.5501  158.7644 O   0  0  0  0  0  0  0  0  0  0  0  0
  148.4440  141.1041  153.3853 C   0  0  0  0  0  0  0  0  0  0  0  0
  147.6013  138.4096  153.0183 H   0  0  0  0  0  0  0  0  0  0  0  0
  146.2494  138.8014  151.9554 H   0  0  0  0  0  0  0  0  0  0  0  0
  145.9755  137.8458  153.4068 H   0  0  0  0  0  0  0  0  0  0  0  0
  146.7012  141.1722  152.1452 H   0  0  0  0  0  0  0  0  0  0  0  0
  146.6901  143.2997  153.4661 H   0  0  0  0  0  0  0  0  0  0  0  0
  145.1883  142.4210  153.4397 H   0  0  0  0  0  0  0  0  0  0  0  0
  147.0873  142.7374  155.7726 H   0  0  0  0  0  0  0  0  0  0  0  0
  145.4117  143.1107  155.6947 H   0  0  0  0  0  0  0  0  0  0  0  0
  146.0028  140.9714  157.0035 H   0  0  0  0  0  0  0  0  0  0  0  0
  144.7249  140.8484  155.8300 H   0  0  0  0  0  0  0  0  0  0  0  0
  146.0319  138.9127  155.5764 H   0  0  0  0  0  0  0  0  0  0  0  0
  148.1978  139.7339  156.6064 H   0  0  0  0  0  0  0  0  0  0  0  0
  148.3259  138.6733  155.2529 H   0  0  0  0  0  0  0  0  0  0  0  0
  149.8934  140.1143  154.6097 H   0  0  0  0  0  0  0  0  0  0  0  0
  148.9233  142.6754  155.4335 H   0  0  0  0  0  0  0  0  0  0  0  0
  149.8140  143.6881  156.8667 H   0  0  0  0  0  0  0  0  0  0  0  0
  153.3029  142.8216  160.6856 H   0  0  0  0  0  0  0  0  0  0  0  0
  152.3533  145.4455  160.3082 H   0  0  0  0  0  0  0  0  0  0  0  0
  148.8334  140.3919  152.6570 H   0  0  0  0  0  0  0  0  0  0  0  0
  148.8749  142.0592  153.0838 H   0  0  0  0  0  0  0  0  0  0  0  0
  145.2727  140.0648  153.6624 H   0  0  0  0  0  0  0  0  0  0  0  0
  1  2  1  0  0  0  0
  1 20  1  0  0  0  0
  1 21  1  0  0  0  0
  1 22  1  0  0  0  0
  2  7  1  0  0  0  0
  2  3  1  0  0  0  0
  2 40  1  0  0  0  0
  3 19  1  0  0  0  0
  3  4  1  0  0  0  0
  3 23  1  0  0  0  0
  4  5  1  0  0  0  0
  4 24  1  0  0  0  0
  4 25  1  0  0  0  0
  5  6  1  0  0  0  0
  5 26  1  0  0  0  0
  5 27  1  0  0  0  0
  6  7  1  0  0  0  0
  6 28  1  0  0  0  0
  6 29  1  0  0  0  0
  7  8  1  0  0  0  0
  7 30  1  0  0  0  0
  8  9  1  0  0  0  0
  8 31  1  0  0  0  0
  8 32  1  0  0  0  0
  9 10  1  0  0  0  0
  9 19  1  0  0  0  0
  9 33  1  0  0  0  0
 10 11  1  0  0  0  0
 10 34  1  0  0  0  0
 11 12  2  0  0  0  0
 11 13  1  0  0  0  0
 13 14  1  0  0  0  0
 13 35  1  0  0  0  0
 14 18  1  0  0  0  0
 14 15  2  0  0  0  0
 15 16  1  0  0  0  0
 16 17  2  0  0  0  0
 16 36  1  0  0  0  0
 17 18  1  0  0  0  0
 17 37  1  0  0  0  0
 19 38  1  0  0  0  0
 19 39  1  0  0  0  0
M  CHG  1   2   1
M  END
> <s_m_source_file>
AV-unprocessed.smi

> <i_m_source_file_index>
2226

> <i_lp_mmshare_version>
43012

> <i_f3d_flags>
0

> <s_epik_input>
W0NIMl0xW0NIMl1bQ0gyXVtDQEhdKE4oW0NIM10pW0NIXTEyKVtDSDJdW0NASF0oW0NIMl0yKVtOSF1DKD1PKVtOSF1jM25bY0hdW2NIXW8z

> <s_epik_cmdline>
J2VwaWtfcHl0aG9uJywgJy1waCcsICc3LjAnLCAnLXRuJywgJzgnLCAnLW1hJywgJzIwMCcsICctbWV0YWxfYmluZGluZycsICctaW1hZScsICc8aW5maWxlLm1hZT4nLCAnLW9tYWUnLCAnPG91dGZpbGUubWFlPic=

> <r_lp_tautomer_probability>
0.785861

> <r_epik_Ionization_Penalty>
0.000929358

> <r_epik_Ionization_Penalty_Charging>
0.000890041

> <r_epik_Ionization_Penalty_Neutral>
3.93161e-05

> <r_epik_State_Penalty>
0.0312137

> <r_epik_Charging_Adjusted_Penalty>
0.0321037

> <i_epik_Tot_Q>
1

> <i_epik_Tot_abs_Q>
1

> <r_epik_Metal_State_Penalty>
0.0605703

> <b_epik_Metal_Only>
0

> <s_lp_Force_Field>
OPLS_2005

> <r_lp_Energy>
35.9518

> <b_lp_Chiralities_Consistent>
1

> <s_lp_Variant>
AV-unprocessed.smi:2226-4

> <Gold.Version>
5.8.1

> <Gold.Id.Protein>
6NUR|6NUR_protein|mol2

> <Gold.PLP.Fitness>
41.4704

> <Gold.PLP.PLP>
-30.2777

> <Gold.PLP.part.hbond>
-3.0000

> <Gold.PLP.part.metal>
0.0000

> <Gold.PLP.part.buried>
-2.6813

> <Gold.PLP.part.nonpolar>
-25.6826

> <Gold.PLP.part.repulsive>
0.2731

> <Gold.PLP.ligand.clash>
0.0000

> <Gold.PLP.ligand.torsion>
0.2477

> <Gold.PLP.Chemscore.Hbond>
3.8774

> <Gold.PLP.Chemscore.CHOScore>
0.0000

> <Gold.PLP.Chemscore.Metal>
0.0000

> <Gold.Chemscore.Hbonds>
donor molecule, donor type, donor heavy atom, donor atom, acceptor molecule, acceptor atom, score
      L1  H     2    40       P1 10175  1.98
      L1  H    10    34       P1  8028  0.94
      L1  H    13    35       P1  8028  1.00

> <Gold.PLP.Chemscore.Internal.Correction>
0.0558

> <Gold.Rescore>
     Score         DG    S(hbond)    S(metal)    S(lipo)     H(rot)  DE(clash)    DE(int)     intcor
     17.42     -20.42       2.70        0.00      72.54       1.00       1.52       1.48       ----

> <Gold.Chemscore.Fitness>
17.4171

> <Gold.Chemscore.DG>
-20.4184

> <Gold.Chemscore.ZeroCoef>
-5.4800

> <Gold.Chemscore.Hbond>
2.6979

> <Gold.Chemscore.Metal>
0.0000

> <Gold.Chemscore.Lipo>
72.5416

> <Gold.Chemscore.Internal_Hbond>
0.0000

> <Gold.Chemscore.DEClash>
1.5203

> <Gold.Chemscore.DEInternal>
1.4810

> <Gold.Chemscore.Rot>
1.0000

> <Gold.Chemscore.Internal.Correction>
   9.000000E+99

> <Gold.Chemscore.Hbonds>
donor molecule, donor type, donor heavy atom, donor atom, acceptor molecule, acceptor atom, score
      L1  H     2    40       P1 10175  0.87
      L1  H    10    34       P1  8028  0.85
      L1  H    13    35       P1  8028  0.99

> <Gold.Chemscore.Hbond.Weighted>
-9.0111

> <Gold.Chemscore.Metal.Weighted>
-0.0000

> <Gold.Chemscore.Lipo.Weighted>
-8.4874

> <Gold.Chemscore.Internal_Hbond.Weighted>
0.0000

> <Gold.Chemscore.DEClash.Weighted>
1.5203

> <Gold.Chemscore.DEInternal.Weighted>
1.4810

> <Gold.Chemscore.Rot.Weighted>
2.5600

> <Gold.Chemscore.Internal.Correction.Weighted>
   9.000000E+99

> <Gold.Protein.RotatedTorsions>
[ 6907 6896 6895 6894 ] final   -4.75 input  -60.11 | X-H torsion
[ 7974 7965 7964 7962 ] final  -80.85 input  175.53 | X-H torsion
[ 8008 7997 7996 7995 ] final -156.37 input   59.86 | X-H torsion
[ 10167 10162 10161 10158 ] final  -52.72 input  -65.29 | X-H torsion
[ 10718 10713 10712 10709 ] final -145.03 input   66.30 | X-H torsion
[ 10763 10752 10751 10750 ] final   73.38 input  -60.55 | X-H torsion
[ 11005 11000 10999 10996 ] final -135.77 input  -57.11 | X-H torsion

> <Gold.Protein.ActiveResidues>
 VAL166  LYS551  ARG553  GLY616  TRP617  ASP618  TYR619  PRO620  LYS621  CYS622 
 ASP623  PHE694  ASN695  SER759  ASP760  ASP761  ALA762  ILE779  LEU786  VAL792 
 PHE793  MET794  SER795  GLU796  ALA797  LYS798  CYS799  TRP800  GLU811  SER814 

> <Gold.Protein.RotatedAtoms>
  151.4927  135.1058  159.9807 H   0  0  0  0  0  0  0  0  0  0  0  0  # atno 6907 bound_to 6896
  152.4734  133.8078  159.6998 H   0  0  0  0  0  0  0  0  0  0  0  0  # atno 6908 bound_to 6896
  150.8757  133.7380  159.2973 H   0  0  0  0  0  0  0  0  0  0  0  0  # atno 6909 bound_to 6896
  145.5544  140.9492  143.1481 H   0  0  0  0  0  0  0  0  0  0  0  0  # atno 7974 bound_to 7965
  155.7161  140.0784  157.2351 H   0  0  0  0  0  0  0  0  0  0  0  0  # atno 8008 bound_to 7997
  154.4051  140.1621  156.2404 H   0  0  0  0  0  0  0  0  0  0  0  0  # atno 8009 bound_to 7997
  155.9239  140.3396  155.6197 H   0  0  0  0  0  0  0  0  0  0  0  0  # atno 8010 bound_to 7997
  140.6522  143.2574  151.4689 H   0  0  0  0  0  0  0  0  0  0  0  0  # atno 10167 bound_to 10162
  156.3774  130.7819  151.2008 H   0  0  0  0  0  0  0  0  0  0  0  0  # atno 10718 bound_to 10713
  153.0518  135.5065  154.7885 H   0  0  0  0  0  0  0  0  0  0  0  0  # atno 10763 bound_to 10752
  154.6741  135.2957  154.9704 H   0  0  0  0  0  0  0  0  0  0  0  0  # atno 10764 bound_to 10752
  154.0512  135.6703  153.4853 H   0  0  0  0  0  0  0  0  0  0  0  0  # atno 10765 bound_to 10752
  140.8867  134.1864  157.4555 H   0  0  0  0  0  0  0  0  0  0  0  0  # atno 11005 bound_to 11000
  144.7513  139.7186  143.7272 LP  0  0  0  0  0  0  0  0  0  0  0  0  # atno 17320 bound_to 7965
  146.1894  139.5127  142.9815 LP  0  0  0  0  0  0  0  0  0  0  0  0  # atno 17321 bound_to 7965
  139.5739  144.1864  152.1876 LP  0  0  0  0  0  0  0  0  0  0  0  0  # atno 17342 bound_to 10162
  140.1168  144.5408  150.6888 LP  0  0  0  0  0  0  0  0  0  0  0  0  # atno 17343 bound_to 10162
  157.7489  131.0354  150.4362 LP  0  0  0  0  0  0  0  0  0  0  0  0  # atno 17370 bound_to 10713
  156.4600  130.4030  149.6582 LP  0  0  0  0  0  0  0  0  0  0  0  0  # atno 17371 bound_to 10713
  139.8725  134.9841  156.5224 LP  0  0  0  0  0  0  0  0  0  0  0  0  # atno 17394 bound_to 11000
  140.8396  133.8215  155.9062 LP  0  0  0  0  0  0  0  0  0  0  0  0  # atno 17395 bound_to 11000

$$$$
