AV-unprocessed.smi:2328|AV-procd|sdf|9300|dock4
  -GOLD-   2272012523D 1   1.00000     0.00000
 Structure written by MMmdl.
 40 40  0  0  0  0  0  0  0  0  1 V2000
  147.2792  135.0978  157.4917 C   0  0  0  0  0  0  0  0  0  0  0  0
  147.1565  134.6377  156.0274 C   0  0  0  0  0  0  0  0  0  0  0  0
  148.4993  134.3025  155.2924 C   0  0  1  0  0  0  0  0  0  0  0  0
  148.2389  134.0474  153.8577 N   0  0  0  0  0  0  0  0  0  0  0  0
  147.5837  133.0713  153.1937 C   0  0  0  0  0  0  0  0  0  0  0  0
  147.0557  132.1584  153.8265 O   0  0  0  0  0  0  0  0  0  0  0  0
  147.4798  133.0791  151.6577 C   0  0  0  0  0  0  0  0  0  0  0  0
  146.0385  132.9454  151.1958 C   0  0  0  0  0  0  0  0  0  0  0  0
  145.0453  133.8422  151.6411 C   0  0  0  0  0  0  0  0  0  0  0  0
  143.7237  133.6708  151.1861 C   0  0  0  0  0  0  0  0  0  0  0  0
  143.4514  132.6077  150.3020 C   0  0  0  0  0  0  0  0  0  0  0  0
  144.3945  131.7442  149.8672 N   0  0  0  0  0  0  0  0  0  0  0  0
  145.6588  131.9154  150.3087 C   0  0  0  0  0  0  0  0  0  0  0  0
  149.5085  135.4733  155.4899 C   0  0  0  0  0  0  0  0  0  0  0  0
  149.9508  136.1310  154.4112 N   0  0  0  0  0  0  0  0  0  0  0  0
  149.8870  135.7900  156.6164 O   0  0  0  0  0  0  0  0  0  0  0  0
  149.1221  132.9737  155.8670 C   0  0  0  0  0  0  0  0  0  0  0  0
  149.4324  132.9871  157.3809 C   0  0  0  0  0  0  0  0  0  0  0  0
  150.3750  132.4766  155.1075 C   0  0  0  0  0  0  0  0  0  0  0  0
  146.2907  135.2695  157.9182 H   0  0  0  0  0  0  0  0  0  0  0  0
  147.8307  136.0330  157.5784 H   0  0  0  0  0  0  0  0  0  0  0  0
  147.7741  134.3533  158.1147 H   0  0  0  0  0  0  0  0  0  0  0  0
  146.4869  133.7801  156.0061 H   0  0  0  0  0  0  0  0  0  0  0  0
  146.6038  135.4014  155.4817 H   0  0  0  0  0  0  0  0  0  0  0  0
  148.6534  134.7413  153.2530 H   0  0  0  0  0  0  0  0  0  0  0  0
  147.9008  134.0107  151.2788 H   0  0  0  0  0  0  0  0  0  0  0  0
  148.0428  132.2669  151.2045 H   0  0  0  0  0  0  0  0  0  0  0  0
  145.2887  134.6449  152.3217 H   0  0  0  0  0  0  0  0  0  0  0  0
  142.9371  134.3371  151.5082 H   0  0  0  0  0  0  0  0  0  0  0  0
  142.4490  132.4472  149.9338 H   0  0  0  0  0  0  0  0  0  0  0  0
  146.3894  131.2076  149.9451 H   0  0  0  0  0  0  0  0  0  0  0  0
  150.6038  136.8934  154.5205 H   0  0  0  0  0  0  0  0  0  0  0  0
  149.6285  135.8633  153.4925 H   0  0  0  0  0  0  0  0  0  0  0  0
  148.3817  132.1869  155.7225 H   0  0  0  0  0  0  0  0  0  0  0  0
  150.1618  133.7523  157.6456 H   0  0  0  0  0  0  0  0  0  0  0  0
  149.8466  132.0293  157.6969 H   0  0  0  0  0  0  0  0  0  0  0  0
  148.5403  133.1465  157.9847 H   0  0  0  0  0  0  0  0  0  0  0  0
  151.2242  133.1465  155.2418 H   0  0  0  0  0  0  0  0  0  0  0  0
  150.1981  132.3713  154.0374 H   0  0  0  0  0  0  0  0  0  0  0  0
  150.6822  131.4956  155.4710 H   0  0  0  0  0  0  0  0  0  0  0  0
  1  2  1  0  0  0  0
  1 20  1  0  0  0  0
  1 21  1  0  0  0  0
  1 22  1  0  0  0  0
  2  3  1  0  0  0  0
  2 23  1  0  0  0  0
  2 24  1  0  0  0  0
  3  4  1  0  0  0  0
  3 14  1  0  0  0  0
  3 17  1  0  0  0  0
  4  5  1  0  0  0  0
  4 25  1  0  0  0  0
  5  6  2  0  0  0  0
  5  7  1  0  0  0  0
  7  8  1  0  0  0  0
  7 26  1  0  0  0  0
  7 27  1  0  0  0  0
  8 13  1  0  0  0  0
  8  9  2  0  0  0  0
  9 10  1  0  0  0  0
  9 28  1  0  0  0  0
 10 11  2  0  0  0  0
 10 29  1  0  0  0  0
 11 12  1  0  0  0  0
 11 30  1  0  0  0  0
 12 13  2  0  0  0  0
 13 31  1  0  0  0  0
 14 15  1  0  0  0  0
 14 16  2  0  0  0  0
 15 32  1  0  0  0  0
 15 33  1  0  0  0  0
 17 18  1  0  0  0  0
 17 19  1  0  0  0  0
 17 34  1  0  0  0  0
 18 35  1  0  0  0  0
 18 36  1  0  0  0  0
 18 37  1  0  0  0  0
 19 38  1  0  0  0  0
 19 39  1  0  0  0  0
 19 40  1  0  0  0  0
M  END
> <s_m_source_file>
AV-unprocessed.smi

> <i_m_source_file_index>
2328

> <i_lp_mmshare_version>
43012

> <i_f3d_flags>
0

> <s_epik_input>
W0NIM11bQ0gyXVtDQEBdKEMoPU8pW05IMl0pKFtDSF0oW0NIM10pW0NIM10pW05IXUMoPU8pW0NIMl1jMVtjSF1bY0hdW2NIXW5bY0hdMQ==

> <s_epik_cmdline>
J2VwaWtfcHl0aG9uJywgJy1waCcsICc3LjAnLCAnLXRuJywgJzgnLCAnLW1hJywgJzIwMCcsICctbWV0YWxfYmluZGluZycsICctaW1hZScsICc8aW5maWxlLm1hZT4nLCAnLW9tYWUnLCAnPG91dGZpbGUubWFlPic=

> <r_epik_Ionization_Penalty>
0.00378489

> <r_epik_Ionization_Penalty_Charging>
0

> <r_epik_Ionization_Penalty_Neutral>
0.00378489

> <r_epik_State_Penalty>
0.00269972

> <r_epik_Charging_Adjusted_Penalty>
0.00269972

> <i_epik_Tot_Q>
0

> <i_epik_Tot_abs_Q>
0

> <r_epik_Metal_State_Penalty>
-0

> <b_epik_Metal_Only>
0

> <s_lp_Force_Field>
OPLS_2005

> <r_lp_Energy>
14.3821

> <b_lp_Chiralities_Consistent>
1

> <s_lp_Variant>
AV-unprocessed.smi:2328-1

> <Gold.Version>
5.8.1

> <Gold.Id.Protein>
6NUR|6NUR_protein|mol2

> <Gold.PLP.Fitness>
37.3372

> <Gold.PLP.PLP>
-23.5089

> <Gold.PLP.part.hbond>
-3.4859

> <Gold.PLP.part.metal>
0.0000

> <Gold.PLP.part.buried>
-1.3883

> <Gold.PLP.part.nonpolar>
-19.9486

> <Gold.PLP.part.repulsive>
0.2743

> <Gold.PLP.ligand.clash>
0.0000

> <Gold.PLP.ligand.torsion>
0.2784

> <Gold.PLP.Chemscore.Hbond>
2.2662

> <Gold.PLP.Chemscore.CHOScore>
2.4434

> <Gold.PLP.Chemscore.Metal>
0.0000

> <Gold.Chemscore.Hbonds>
donor molecule, donor type, donor heavy atom, donor atom, acceptor molecule, acceptor atom, score
      L1  H     4    25       P1  7948  1.00
      L1  H    15    33       P1  7948  0.90
      P1  H 10785 10796       L1    12  0.22
      L1  C    11    30       P1 10186  0.78
      L1  C    11    30       P1 10952  0.65
      L1  C    13    31       P1 10747  0.79

> <Gold.PLP.Chemscore.Internal.Correction>
0.2561

> <Gold.Rescore>
     Score         DG    S(hbond)    S(metal)    S(lipo)     H(rot)  DE(clash)    DE(int)     intcor
      9.45     -13.29       1.86        0.00      63.88       2.29       0.14       3.71       ----

> <Gold.Chemscore.Fitness>
9.4482

> <Gold.Chemscore.DG>
-13.2926

> <Gold.Chemscore.ZeroCoef>
-5.4800

> <Gold.Chemscore.Hbond>
1.8582

> <Gold.Chemscore.Metal>
0.0000

> <Gold.Chemscore.Lipo>
63.8793

> <Gold.Chemscore.Internal_Hbond>
0.0000

> <Gold.Chemscore.DEClash>
0.1384

> <Gold.Chemscore.DEInternal>
3.7060

> <Gold.Chemscore.Rot>
2.2921

> <Gold.Chemscore.Internal.Correction>
   9.000000E+99

> <Gold.Chemscore.Hbonds>
donor molecule, donor type, donor heavy atom, donor atom, acceptor molecule, acceptor atom, score
      L1  H     4    25       P1  7948  0.37
      L1  H    15    33       P1  7948  0.17
      P1  H 10785 10796       L1    12  0.11

> <Gold.Chemscore.Hbond.Weighted>
-6.2065

> <Gold.Chemscore.Metal.Weighted>
-0.0000

> <Gold.Chemscore.Lipo.Weighted>
-7.4739

> <Gold.Chemscore.Internal_Hbond.Weighted>
0.0000

> <Gold.Chemscore.DEClash.Weighted>
0.1384

> <Gold.Chemscore.DEInternal.Weighted>
3.7060

> <Gold.Chemscore.Rot.Weighted>
5.8677

> <Gold.Chemscore.Internal.Correction.Weighted>
   9.000000E+99

> <Gold.Protein.RotatedTorsions>
[ 6907 6896 6895 6894 ] final -176.74 input  -60.11 | X-H torsion
[ 7974 7965 7964 7962 ] final -137.82 input  175.53 | X-H torsion
[ 8008 7997 7996 7995 ] final  -98.07 input   59.86 | X-H torsion
[ 10167 10162 10161 10158 ] final   68.47 input  -65.29 | X-H torsion
[ 10718 10713 10712 10709 ] final   58.64 input   66.30 | X-H torsion
[ 10763 10752 10751 10750 ] final -153.72 input  -60.55 | X-H torsion
[ 11005 11000 10999 10996 ] final   64.35 input  -57.11 | X-H torsion

> <Gold.Protein.ActiveResidues>
 VAL166  LYS551  ARG553  GLY616  TRP617  ASP618  TYR619  PRO620  LYS621  CYS622 
 ASP623  PHE694  ASN695  SER759  ASP760  ASP761  ALA762  ILE779  LEU786  VAL792 
 PHE793  MET794  SER795  GLU796  ALA797  LYS798  CYS799  TRP800  GLU811  SER814 

> <Gold.Protein.RotatedAtoms>
  151.6097  133.3348  159.3064 H   0  0  0  0  0  0  0  0  0  0  0  0  # atno 6907 bound_to 6896
  150.8163  134.7350  159.6744 H   0  0  0  0  0  0  0  0  0  0  0  0  # atno 6908 bound_to 6896
  152.4258  134.5875  160.0016 H   0  0  0  0  0  0  0  0  0  0  0  0  # atno 6909 bound_to 6896
  144.8809  140.6506  143.5206 H   0  0  0  0  0  0  0  0  0  0  0  0  # atno 7974 bound_to 7965
  154.7963  140.0458  157.1239 H   0  0  0  0  0  0  0  0  0  0  0  0  # atno 8008 bound_to 7997
  154.9532  140.3068  155.5045 H   0  0  0  0  0  0  0  0  0  0  0  0  # atno 8009 bound_to 7997
  156.2956  140.2284  156.4611 H   0  0  0  0  0  0  0  0  0  0  0  0  # atno 8010 bound_to 7997
  140.0783  144.5093  150.7179 H   0  0  0  0  0  0  0  0  0  0  0  0  # atno 10167 bound_to 10162
  157.5612  130.8837  149.9115 H   0  0  0  0  0  0  0  0  0  0  0  0  # atno 10718 bound_to 10713
  154.7909  135.3206  154.7780 H   0  0  0  0  0  0  0  0  0  0  0  0  # atno 10763 bound_to 10752
  153.8469  135.6866  153.4801 H   0  0  0  0  0  0  0  0  0  0  0  0  # atno 10764 bound_to 10752
  153.1578  135.4673  154.9670 H   0  0  0  0  0  0  0  0  0  0  0  0  # atno 10765 bound_to 10752
  139.9965  134.6510  156.0002 H   0  0  0  0  0  0  0  0  0  0  0  0  # atno 11005 bound_to 11000
  145.3955  139.1608  143.4205 LP  0  0  0  0  0  0  0  0  0  0  0  0  # atno 17320 bound_to 7965
  146.2994  140.4048  142.8710 LP  0  0  0  0  0  0  0  0  0  0  0  0  # atno 17321 bound_to 7965
  140.7090  143.2490  151.4638 LP  0  0  0  0  0  0  0  0  0  0  0  0  # atno 17342 bound_to 10162
  139.5794  144.1743  152.1948 LP  0  0  0  0  0  0  0  0  0  0  0  0  # atno 17343 bound_to 10162
  156.0665  130.3691  150.0868 LP  0  0  0  0  0  0  0  0  0  0  0  0  # atno 17370 bound_to 10713
  156.9031  130.9627  151.3573 LP  0  0  0  0  0  0  0  0  0  0  0  0  # atno 17371 bound_to 10713
  141.1608  133.6539  156.4312 LP  0  0  0  0  0  0  0  0  0  0  0  0  # atno 17394 bound_to 11000
  140.4809  134.6665  157.5170 LP  0  0  0  0  0  0  0  0  0  0  0  0  # atno 17395 bound_to 11000

$$$$
