#       Name:                AV-unprocessed.smi:29
#       Creating user name   scv26
#       Creation time:       Thu Mar 26 15:46:07 2020


#       File generated by GOLD software.
#

@<TRIPOS>MOLECULE
AV-unprocessed.smi:29
    67    70     1
SMALL
NO_CHARGES


@<TRIPOS>ATOM
      1 ****        -0.1935   2.8348  -3.2813 O.2            1 S1                 0.0000
      2 ****         0.1551   2.1640  -2.3118 C.2            1 S1                 0.0000
      3 ****         1.5116   2.4802  -1.6554 C.3            1 S1                 0.0000
      4 ****         1.9572   1.5079  -0.6287 N.am           1 S1                 0.0000
      5 ****         2.7357   0.3992  -1.0419 C.2            1 S1                 0.0000
      6 ****         3.0092   0.2170  -2.2289 O.2            1 S1                 0.0000
      7 ****         3.1788  -0.4897   0.0246 C.2            1 S1                 0.0000
      8 ****         3.9707  -1.5355  -0.2668 F              1 S1                 0.0000
      9 ****         2.8153  -0.2740   1.3050 C.2            1 S1                 0.0000
     10 ****         1.9940   0.7733   1.6895 N.am           1 S1                 0.0000
     11 ****         1.6304   1.0426   3.1425 C.3            1 S1                 0.0000
     12 ****         1.7790  -0.1717   4.0697 C.3            1 S1                 0.0000
     13 ****         3.1573   0.0293   4.6932 C.3            1 S1                 0.0000
     14 ****         3.6721   1.3411   4.0911 C.3            1 S1                 0.0000
     15 ****         2.5000   2.0075   3.6425 O.3            1 S1                 0.0000
     16 ****         1.5833   1.7165   0.7207 C.2            1 S1                 0.0000
     17 ****         0.9023   2.6929   1.0412 O.2            1 S1                 0.0000
     18 ****        -0.5601   1.1502  -1.7868 N.am           1 S1                 0.0000
     19 ****        -1.8160   0.5997  -2.1751 C.ar           1 S1                 0.0000
     20 ****        -2.7108   1.2484  -3.0620 C.ar           1 S1                 0.0000
     21 ****        -3.9435   0.6572  -3.4085 C.ar           1 S1                 0.0000
     22 ****        -4.8867   1.3785  -4.3603 C.3            1 S1                 0.0000
     23 ****        -5.7986   0.5490  -4.8689 F              1 S1                 0.0000
     24 ****        -5.5145   2.3517  -3.7014 F              1 S1                 0.0000
     25 ****        -4.2021   1.9156  -5.3705 F              1 S1                 0.0000
     26 ****        -4.2949  -0.5882  -2.8495 C.ar           1 S1                 0.0000
     27 ****        -3.4219  -1.2343  -1.9567 C.ar           1 S1                 0.0000
     28 ****        -2.1833  -0.6481  -1.6109 C.ar           1 S1                 0.0000
     29 ****        -1.3207  -1.2914  -0.7062 N.3            1 S1                 0.0000
     30 ****        -1.8457  -1.3639   0.6509 C.3            1 S1                 0.0000
     31 ****        -0.7768  -1.9389   1.5944 C.3            1 S1                 0.0000
     32 ****        -0.3384  -3.2048   1.1092 O.3            1 S1                 0.0000
     33 ****         0.2405  -3.1106  -0.1896 C.3            1 S1                 0.0000
     34 ****        -0.8000  -2.5658  -1.1833 C.3            1 S1                 0.0000
     35 ****         2.2570   2.5733  -2.4469 H              1 S1                 0.0000
     36 ****         1.4548   3.4863  -1.2374 H              1 S1                 0.0000
     37 ****         3.2007  -0.9590   2.0433 H              1 S1                 0.0000
     38 ****         0.5997   1.4006   3.1210 H              1 S1                 0.0000
     39 ****         1.0142  -0.1026   4.8441 H              1 S1                 0.0000
     40 ****         1.6377  -1.1214   3.5546 H              1 S1                 0.0000
     41 ****         3.0665   0.1151   5.7766 H              1 S1                 0.0000
     42 ****         3.8329  -0.7996   4.4809 H              1 S1                 0.0000
     43 ****         4.2205   1.9458   4.8136 H              1 S1                 0.0000
     44 ****         4.3334   1.1494   3.2450 H              1 S1                 0.0000
     45 ****        -0.1132   0.6647  -1.0223 H              1 S1                 0.0000
     46 ****        -2.4838   2.2130  -3.4856 H              1 S1                 0.0000
     47 ****        -5.2386  -1.0528  -3.0933 H              1 S1                 0.0000
     48 ****        -3.7130  -2.1844  -1.5334 H              1 S1                 0.0000
     49 ****        -2.1442  -0.3695   0.9859 H              1 S1                 0.0000
     50 ****        -2.7354  -1.9944   0.6719 H              1 S1                 0.0000
     51 ****         0.0698  -1.2583   1.6748 H              1 S1                 0.0000
     52 ****        -1.1840  -2.0614   2.5980 H              1 S1                 0.0000
     53 ****         1.1216  -2.4690  -0.1594 H              1 S1                 0.0000
     54 ****         0.5776  -4.0989  -0.5022 H              1 S1                 0.0000
     55 ****        -1.6141  -3.2829  -1.2943 H              1 S1                 0.0000
     56 ****        -0.3463  -2.4354  -2.1666 H              1 S1                 0.0000
     57 ****         0.3990   3.5639  -3.6239 LP             1 S1                 0.0000
     58 ****        -1.0695   2.6514  -3.7273 LP             1 S1                 0.0000
     59 ****         2.6801   0.8584  -2.9220 LP             1 S1                 0.0000
     60 ****         3.5604  -0.5723  -2.4995 LP             1 S1                 0.0000
     61 ****         2.0702   2.4912   4.4050 LP             1 S1                 0.0000
     62 ****         2.7341   2.6610   2.9227 LP             1 S1                 0.0000
     63 ****         0.6082   3.3476   0.3449 LP             1 S1                 0.0000
     64 ****         0.6441   2.8302   1.9975 LP             1 S1                 0.0000
     65 ****        -0.5245  -0.6885  -0.6552 LP             1 S1                 0.0000
     66 ****        -1.1229  -3.8236   1.0684 LP             1 S1                 0.0000
     67 ****         0.3442  -3.5731   1.7404 LP             1 S1                 0.0000
@<TRIPOS>BOND
    1    1    2 2     
    2    2    3 1     
    3    2   18 am    
    4    3    4 1     
    5    3   35 1     
    6    3   36 1     
    7    4   16 am    
    8    4    5 am    
    9    5    6 2     
   10    5    7 1     
   11    7    8 1     
   12    7    9 2     
   13    9   10 1     
   14    9   37 1     
   15   10   11 1     
   16   10   16 am    
   17   11   15 1     
   18   11   12 1     
   19   11   38 1     
   20   12   13 1     
   21   12   39 1     
   22   12   40 1     
   23   13   14 1     
   24   13   41 1     
   25   13   42 1     
   26   14   15 1     
   27   14   43 1     
   28   14   44 1     
   29   16   17 2     
   30   18   19 1     
   31   18   45 1     
   32   19   28 ar    
   33   19   20 ar    
   34   20   21 ar    
   35   20   46 1     
   36   21   22 1     
   37   21   26 ar    
   38   22   23 1     
   39   22   24 1     
   40   22   25 1     
   41   26   27 ar    
   42   26   47 1     
   43   27   28 ar    
   44   27   48 1     
   45   28   29 1     
   46   29   34 1     
   47   29   30 1     
   48   30   31 1     
   49   30   49 1     
   50   30   50 1     
   51   31   32 1     
   52   31   51 1     
   53   31   52 1     
   54   32   33 1     
   55   33   34 1     
   56   33   53 1     
   57   33   54 1     
   58   34   55 1     
   59   34   56 1     
   60    1   57 1     
   61    1   58 1     
   62    6   59 1     
   63    6   60 1     
   64   15   61 1     
   65   15   62 1     
   66   17   63 1     
   67   17   64 1     
   68   29   65 1     
   69   32   66 1     
   70   32   67 1     
@<TRIPOS>SUBSTRUCTURE
      1 S1             1
@<TRIPOS>SET
LONE_PAIRS      STATIC     ATOMS    <user>   **** ""
11 57 58 59 60 61 62 63 64 65 66 67
DONOR_HYDROGENS      STATIC     ATOMS    <user>   **** ""
1 45
ATOM$BLUE        STATIC     ATOMS    COLORGROUP SYSTEM
11 57 58 59 60 61 62 63 64 65 66 67
ATOM$RED        STATIC     ATOMS    COLORGROUP SYSTEM
1 45
