#       Name:                AV-unprocessed.smi:2024
#       Creating user name   scv26
#       Creation time:       Fri Mar 27 10:45:05 2020


#       File generated by GOLD software.
#

@<TRIPOS>MOLECULE
AV-unprocessed.smi:2024
    48    49     1
SMALL
NO_CHARGES


@<TRIPOS>ATOM
      1 ****        -1.8430  -3.1486   1.7115 C.3            1 S1                 0.0000
      2 ****        -1.1446  -1.8503   1.8524 N.4            1 S1                 1.0000
      3 ****        -2.0084  -0.6748   1.5942 C.3            1 S1                 0.0000
      4 ****        -2.2378  -0.4510   0.0842 C.3            1 S1                 0.0000
      5 ****        -0.9445  -0.2684  -0.5914 N.3            1 S1                 0.0000
      6 ****        -0.9939   0.2474  -1.9842 C.3            1 S1                 0.0000
      7 ****        -1.5317  -0.8223  -2.9633 C.3            1 S1                 0.0000
      8 ****        -1.9113   1.4945  -2.0680 C.3            1 S1                 0.0000
      9 ****         0.4347   0.6873  -2.4270 C.3            1 S1                 0.0000
     10 ****         1.0101   1.7010  -1.5406 N.am           1 S1                 0.0000
     11 ****         1.9380   1.5001  -0.5934 C.2            1 S1                 0.0000
     12 ****         2.4663   0.3930  -0.4677 O.2            1 S1                 0.0000
     13 ****         2.1823   2.5903   0.1675 N.pl3          1 S1                -1.0000
     14 ****         3.0268   2.5036   1.2080 C.2            1 S1                 0.0000
     15 ****         4.2784   2.9745   1.1746 N.2            1 S1                 0.0000
     16 ****         4.9755   2.7817   2.3688 C.2            1 S1                 0.0000
     17 ****         4.2350   2.1552   3.3360 C.2            1 S1                 0.0000
     18 ****         2.6292   1.7881   2.7734 S.3            1 S1                 0.0000
     19 ****        -0.1875  -1.5191  -0.4260 C.3            1 S1                 0.0000
     20 ****         0.1075  -1.7543   1.0674 C.3            1 S1                 0.0000
     21 ****        -2.1931  -3.3145   0.6928 H              1 S1                 0.0000
     22 ****        -2.7058  -3.1908   2.3768 H              1 S1                 0.0000
     23 ****        -1.1786  -3.9702   1.9804 H              1 S1                 0.0000
     24 ****        -2.9604  -0.7893   2.1137 H              1 S1                 0.0000
     25 ****        -1.5294   0.2072   2.0226 H              1 S1                 0.0000
     26 ****        -2.7927  -1.2787  -0.3584 H              1 S1                 0.0000
     27 ****        -2.8633   0.4342  -0.0077 H              1 S1                 0.0000
     28 ****        -1.6254  -0.4122  -3.9693 H              1 S1                 0.0000
     29 ****        -2.5183  -1.1830  -2.6724 H              1 S1                 0.0000
     30 ****        -0.8692  -1.6846  -3.0393 H              1 S1                 0.0000
     31 ****        -1.7944   2.0036  -3.0252 H              1 S1                 0.0000
     32 ****        -1.6850   2.2213  -1.2865 H              1 S1                 0.0000
     33 ****        -2.9681   1.2379  -1.9920 H              1 S1                 0.0000
     34 ****         1.1084  -0.1605  -2.5495 H              1 S1                 0.0000
     35 ****         0.3827   1.1325  -3.4210 H              1 S1                 0.0000
     36 ****         0.6210   2.6300  -1.6081 H              1 S1                 0.0000
     37 ****         5.9970   3.1244   2.4423 H              1 S1                 0.0000
     38 ****         4.5331   1.8912   4.3393 H              1 S1                 0.0000
     39 ****        -0.7383  -2.3614  -0.8455 H              1 S1                 0.0000
     40 ****         0.7627  -1.4849  -0.9528 H              1 S1                 0.0000
     41 ****         0.7050  -0.9286   1.4576 H              1 S1                 0.0000
     42 ****         0.7045  -2.6567   1.2027 H              1 S1                 0.0000
     43 ****        -0.8735  -1.7955   2.8238 H              1 S1                 0.0000
     44 ****        -0.4635   0.4892  -0.1501 LP             1 S1                 0.0000
     45 ****         2.2032  -0.3582  -1.0730 LP             1 S1                 0.0000
     46 ****         3.1579   0.2464   0.2396 LP             1 S1                 0.0000
     47 ****         1.7352   3.4594  -0.0440 LP             1 S1                 0.0000
     48 ****         4.6758   3.4209   0.3728 LP             1 S1                 0.0000
@<TRIPOS>BOND
    1    1    2 1     
    2    1   21 1     
    3    1   22 1     
    4    1   23 1     
    5    2   20 1     
    6    2    3 1     
    7    2   43 1     
    8    3    4 1     
    9    3   24 1     
   10    3   25 1     
   11    4    5 1     
   12    4   26 1     
   13    4   27 1     
   14    5    6 1     
   15    5   19 1     
   16    6    7 1     
   17    6    8 1     
   18    6    9 1     
   19    7   28 1     
   20    7   29 1     
   21    7   30 1     
   22    8   31 1     
   23    8   32 1     
   24    8   33 1     
   25    9   10 1     
   26    9   34 1     
   27    9   35 1     
   28   10   11 am    
   29   10   36 1     
   30   11   12 2     
   31   11   13 1     
   32   13   14 1     
   33   14   18 1     
   34   14   15 2     
   35   15   16 1     
   36   16   17 2     
   37   16   37 1     
   38   17   18 1     
   39   17   38 1     
   40   19   20 1     
   41   19   39 1     
   42   19   40 1     
   43   20   41 1     
   44   20   42 1     
   45    5   44 1     
   46   12   45 1     
   47   12   46 1     
   48   13   47 1     
   49   15   48 1     
@<TRIPOS>SUBSTRUCTURE
      1 S1             1
@<TRIPOS>SET
LONE_PAIRS      STATIC     ATOMS    <user>   **** ""
5 44 45 46 47 48
DONOR_HYDROGENS      STATIC     ATOMS    <user>   **** ""
2 43 36
ATOM$BLUE        STATIC     ATOMS    COLORGROUP SYSTEM
5 44 45 46 47 48
ATOM$RED        STATIC     ATOMS    COLORGROUP SYSTEM
2 43 36
