AV-unprocessed.smi:245|AV-procd|sdf|1876|dock7
  -GOLD-   2262020513D 1   1.00000     0.00000
 Structure written by MMmdl.
 54 58  0  0  0  0  0  0  0  0  1 V2000
  146.9601  143.1926  153.8319 O   0  0  0  0  0  0  0  0  0  0  0  0
  147.2629  142.1661  154.4356 C   0  0  0  0  0  0  0  0  0  0  0  0
  146.6613  140.8205  153.9934 C   0  0  0  0  0  0  0  0  0  0  0  0
  147.1856  139.6194  154.6718 N   0  0  0  0  0  0  0  0  0  0  0  0
  146.7344  138.3885  154.2650 C   0  0  0  0  0  0  0  0  0  0  0  0
  146.5626  137.4179  155.2043 N   0  0  0  0  0  0  0  0  0  0  0  0
  146.1287  136.1996  154.8784 C   0  0  0  0  0  0  0  0  0  0  0  0
  145.8022  135.7292  153.6772 N   0  0  0  0  0  0  0  0  0  0  0  0
  145.9594  136.6819  152.7155 C   0  0  0  0  0  0  0  0  0  0  0  0
  146.4139  138.0213  152.9159 C   0  0  0  0  0  0  0  0  0  0  0  0
  146.4337  138.6769  151.6875 N   0  0  0  0  0  0  0  0  0  0  0  0
  146.0234  137.7899  150.8255 C   0  0  0  0  0  0  0  0  0  0  0  0
  145.7155  136.5602  151.3559 N   0  0  0  0  0  0  0  0  0  0  0  0
  145.2414  135.4145  150.6300 C   0  0  0  0  0  0  0  0  0  0  0  0
  143.9881  134.6567  151.0737 C   0  0  0  0  0  0  0  0  0  0  0  0
  144.6435  133.3144  150.6774 C   0  0  0  0  0  0  0  0  0  0  0  0
  144.5502  132.2070  151.7383 C   0  0  0  0  0  0  0  0  0  0  0  0
  144.9162  132.6820  153.0182 O   0  0  0  0  0  0  0  0  0  0  0  0
  144.2114  132.6961  149.3300 C   0  0  0  0  0  0  0  0  0  0  0  0
  142.9230  132.1157  149.3738 O   0  0  0  0  0  0  0  0  0  0  0  0
  145.9875  134.0784  150.6765 C   0  0  0  0  0  0  0  0  0  0  0  0
  148.4719  139.7289  155.3818 C   0  0  1  0  0  0  0  0  0  0  0  0
  149.6681  139.6909  154.3983 C   0  0  0  0  0  0  0  0  0  0  0  0
  151.0081  139.8790  155.1251 C   0  0  0  0  0  0  0  0  0  0  0  0
  151.0178  141.1796  155.9413 C   0  0  0  0  0  0  0  0  0  0  0  0
  149.8491  141.2104  156.9396 C   0  0  0  0  0  0  0  0  0  0  0  0
  148.4858  141.0094  156.2486 C   0  0  1  0  0  0  0  0  0  0  0  0
  148.1201  142.1846  155.4665 N   0  0  0  0  0  0  0  0  0  0  0  0
  145.5920  140.8982  154.1883 H   0  0  0  0  0  0  0  0  0  0  0  0
  146.8025  140.7229  152.9159 H   0  0  0  0  0  0  0  0  0  0  0  0
  146.0289  135.5032  155.6977 H   0  0  0  0  0  0  0  0  0  0  0  0
  145.9340  138.0135  149.7722 H   0  0  0  0  0  0  0  0  0  0  0  0
  145.1280  135.7349  149.5933 H   0  0  0  0  0  0  0  0  0  0  0  0
  143.8008  134.7354  152.1454 H   0  0  0  0  0  0  0  0  0  0  0  0
  143.0907  134.9090  150.5077 H   0  0  0  0  0  0  0  0  0  0  0  0
  143.5428  131.7923  151.7890 H   0  0  0  0  0  0  0  0  0  0  0  0
  145.2130  131.3767  151.4914 H   0  0  0  0  0  0  0  0  0  0  0  0
  144.1773  132.5807  153.5988 H   0  0  0  0  0  0  0  0  0  0  0  0
  144.2087  133.4501  148.5422 H   0  0  0  0  0  0  0  0  0  0  0  0
  144.9078  131.9180  149.0155 H   0  0  0  0  0  0  0  0  0  0  0  0
  142.2867  132.8064  149.4786 H   0  0  0  0  0  0  0  0  0  0  0  0
  146.6191  133.8911  149.8077 H   0  0  0  0  0  0  0  0  0  0  0  0
  146.5557  133.9424  151.5973 H   0  0  0  0  0  0  0  0  0  0  0  0
  148.5860  138.9080  156.0911 H   0  0  0  0  0  0  0  0  0  0  0  0
  149.6814  138.7437  153.8588 H   0  0  0  0  0  0  0  0  0  0  0  0
  149.5614  140.4678  153.6407 H   0  0  0  0  0  0  0  0  0  0  0  0
  151.1890  139.0297  155.7852 H   0  0  0  0  0  0  0  0  0  0  0  0
  151.8237  139.8882  154.4014 H   0  0  0  0  0  0  0  0  0  0  0  0
  151.9637  141.2749  156.4753 H   0  0  0  0  0  0  0  0  0  0  0  0
  150.9557  142.0362  155.2691 H   0  0  0  0  0  0  0  0  0  0  0  0
  149.9934  140.4224  157.6798 H   0  0  0  0  0  0  0  0  0  0  0  0
  149.8566  142.1500  157.4934 H   0  0  0  0  0  0  0  0  0  0  0  0
  147.7247  140.9113  157.0245 H   0  0  0  0  0  0  0  0  0  0  0  0
  148.5215  143.0693  155.7414 H   0  0  0  0  0  0  0  0  0  0  0  0
  1  2  2  0  0  0  0
  2 28  1  0  0  0  0
  2  3  1  0  0  0  0
  3  4  1  0  0  0  0
  3 29  1  0  0  0  0
  3 30  1  0  0  0  0
  4  5  1  0  0  0  0
  4 22  1  0  0  0  0
  5 10  1  0  0  0  0
  5  6  2  0  0  0  0
  6  7  1  0  0  0  0
  7  8  2  0  0  0  0
  7 31  1  0  0  0  0
  8  9  1  0  0  0  0
  9 13  1  0  0  0  0
  9 10  2  0  0  0  0
 10 11  1  0  0  0  0
 11 12  2  0  0  0  0
 12 13  1  0  0  0  0
 12 32  1  0  0  0  0
 13 14  1  0  0  0  0
 14 21  1  0  0  0  0
 14 15  1  0  0  0  0
 14 33  1  0  0  0  0
 15 16  1  0  0  0  0
 15 34  1  0  0  0  0
 15 35  1  0  0  0  0
 16 17  1  0  0  0  0
 16 19  1  0  0  0  0
 16 21  1  0  0  0  0
 17 18  1  0  0  0  0
 17 36  1  0  0  0  0
 17 37  1  0  0  0  0
 18 38  1  0  0  0  0
 19 20  1  0  0  0  0
 19 39  1  0  0  0  0
 19 40  1  0  0  0  0
 20 41  1  0  0  0  0
 21 42  1  0  0  0  0
 21 43  1  0  0  0  0
 22 27  1  0  0  0  0
 22 23  1  0  0  0  0
 22 44  1  0  0  0  0
 23 24  1  0  0  0  0
 23 45  1  0  0  0  0
 23 46  1  0  0  0  0
 24 25  1  0  0  0  0
 24 47  1  0  0  0  0
 24 48  1  0  0  0  0
 25 26  1  0  0  0  0
 25 49  1  0  0  0  0
 25 50  1  0  0  0  0
 26 27  1  0  0  0  0
 26 51  1  0  0  0  0
 26 52  1  0  0  0  0
 27 28  1  0  0  0  0
 27 53  1  0  0  0  0
 28 54  1  0  0  0  0
M  END
> <s_m_source_file>
AV-unprocessed.smi

> <i_m_source_file_index>
245

> <i_lp_mmshare_version>
43012

> <i_f3d_flags>
0

> <s_epik_input>
W0NIMl0xW0NIMl1bQ0gyXVtDSDJdW0NASF0oW0NASF0xMilbTkhdQyg9TylbQ0gyXU4yYyhuW2NIXW4zKWMoYzM0KW5bY0hdbjRbQ0hdKFtDSDJdNSlbQ0gyXUM1KFtDSDJdW09IXSlbQ0gyXVtPSF0=

> <s_epik_cmdline>
J2VwaWtfcHl0aG9uJywgJy1waCcsICc3LjAnLCAnLXRuJywgJzgnLCAnLW1hJywgJzIwMCcsICctbWV0YWxfYmluZGluZycsICctaW1hZScsICc8aW5maWxlLm1hZT4nLCAnLW9tYWUnLCAnPG91dGZpbGUubWFlPic=

> <r_lp_tautomer_probability>
1

> <r_epik_Ionization_Penalty>
0.000702616

> <r_epik_Ionization_Penalty_Charging>
0

> <r_epik_Ionization_Penalty_Neutral>
0.000702616

> <r_epik_State_Penalty>
0.000343985

> <r_epik_Charging_Adjusted_Penalty>
0.000343985

> <i_epik_Tot_Q>
0

> <i_epik_Tot_abs_Q>
0

> <r_epik_Metal_State_Penalty>
-0

> <b_epik_Metal_Only>
0

> <s_lp_Force_Field>
OPLS_2005

> <r_lp_Energy>
53.0031

> <b_lp_Chiralities_Consistent>
1

> <s_lp_Variant>
AV-unprocessed.smi:245-1

> <Gold.Version>
5.8.1

> <Gold.Id.Protein>
6NUR|6NUR_protein|mol2

> <Gold.PLP.Fitness>
52.1686

> <Gold.PLP.PLP>
-40.5976

> <Gold.PLP.part.hbond>
-5.8229

> <Gold.PLP.part.metal>
0.0000

> <Gold.PLP.part.buried>
2.8018

> <Gold.PLP.part.nonpolar>
-39.4792

> <Gold.PLP.part.repulsive>
1.6414

> <Gold.PLP.ligand.clash>
0.0000

> <Gold.PLP.ligand.torsion>
1.0044

> <Gold.PLP.Chemscore.Hbond>
4.0384

> <Gold.PLP.Chemscore.CHOScore>
0.3287

> <Gold.PLP.Chemscore.Metal>
0.0000

> <Gold.Chemscore.Hbonds>
donor molecule, donor type, donor heavy atom, donor atom, acceptor molecule, acceptor atom, score
      L1  H    18    38       P1 10957  0.89
      L1  H    20    41       P1 10186  0.94
      L1  H    28    54       P1  8028  1.00
      P1  H  8022  8030       L1     1  0.17
      P1  H 10785 10796       L1    20  0.84
      L1  C    12    32       P1 10171  0.36

> <Gold.PLP.Chemscore.Internal.Correction>
0.4784

> <Gold.Rescore>
     Score         DG    S(hbond)    S(metal)    S(lipo)     H(rot)  DE(clash)    DE(int)     intcor
     14.18     -18.47       3.17        0.00      84.46       2.91       3.31       0.98       ----

> <Gold.Chemscore.Fitness>
14.1794

> <Gold.Chemscore.DG>
-18.4731

> <Gold.Chemscore.ZeroCoef>
-5.4800

> <Gold.Chemscore.Hbond>
3.1656

> <Gold.Chemscore.Metal>
0.0000

> <Gold.Chemscore.Lipo>
84.4601

> <Gold.Chemscore.Internal_Hbond>
0.0000

> <Gold.Chemscore.DEClash>
3.3111

> <Gold.Chemscore.DEInternal>
0.9826

> <Gold.Chemscore.Rot>
2.9147

> <Gold.Chemscore.Internal.Correction>
   9.000000E+99

> <Gold.Chemscore.Hbonds>
donor molecule, donor type, donor heavy atom, donor atom, acceptor molecule, acceptor atom, score
      L1  H    18    38       P1 10957  0.38
      L1  H    20    41       P1 10186  0.90
      L1  H    28    54       P1  8028  0.98
      P1  H  8022  8030       L1     1  0.17
      P1  H 10785 10796       L1    20  0.42

> <Gold.Chemscore.Hbond.Weighted>
-10.5730

> <Gold.Chemscore.Metal.Weighted>
-0.0000

> <Gold.Chemscore.Lipo.Weighted>
-9.8818

> <Gold.Chemscore.Internal_Hbond.Weighted>
0.0000

> <Gold.Chemscore.DEClash.Weighted>
3.3111

> <Gold.Chemscore.DEInternal.Weighted>
0.9826

> <Gold.Chemscore.Rot.Weighted>
7.4617

> <Gold.Chemscore.Internal.Correction.Weighted>
   9.000000E+99

> <Gold.Protein.RotatedTorsions>
[ 6907 6896 6895 6894 ] final -144.02 input  -60.11 | X-H torsion
[ 7974 7965 7964 7962 ] final   42.81 input  175.53 | X-H torsion
[ 8008 7997 7996 7995 ] final  -99.68 input   59.86 | X-H torsion
[ 10167 10162 10161 10158 ] final  138.35 input  -65.29 | X-H torsion
[ 10718 10713 10712 10709 ] final  -79.89 input   66.30 | X-H torsion
[ 10763 10752 10751 10750 ] final -134.71 input  -60.55 | X-H torsion
[ 11005 11000 10999 10996 ] final   70.63 input  -57.11 | X-H torsion

> <Gold.Protein.ActiveResidues>
 VAL166  LYS551  ARG553  GLY616  TRP617  ASP618  TYR619  PRO620  LYS621  CYS622 
 ASP623  PHE694  ASN695  SER759  ASP760  ASP761  ALA762  ILE779  LEU786  VAL792 
 PHE793  MET794  SER795  GLU796  ALA797  LYS798  CYS799  TRP800  GLU811  SER814 

> <Gold.Protein.RotatedAtoms>
  151.1083  133.5192  159.2606 H   0  0  0  0  0  0  0  0  0  0  0  0  # atno 6907 bound_to 6896
  151.1996  135.0436  159.8876 H   0  0  0  0  0  0  0  0  0  0  0  0  # atno 6908 bound_to 6896
  152.5448  134.0913  159.8331 H   0  0  0  0  0  0  0  0  0  0  0  0  # atno 6909 bound_to 6896
  146.0709  139.5258  142.9598 H   0  0  0  0  0  0  0  0  0  0  0  0  # atno 7974 bound_to 7965
  154.8181  140.0446  157.1391 H   0  0  0  0  0  0  0  0  0  0  0  0  # atno 8008 bound_to 7997
  154.9291  140.3037  155.5157 H   0  0  0  0  0  0  0  0  0  0  0  0  # atno 8009 bound_to 7997
  156.2978  140.2326  156.4349 H   0  0  0  0  0  0  0  0  0  0  0  0  # atno 8010 bound_to 7997
  139.5114  144.6358  151.5699 H   0  0  0  0  0  0  0  0  0  0  0  0  # atno 10167 bound_to 10162
  156.0082  130.4558  150.3717 H   0  0  0  0  0  0  0  0  0  0  0  0  # atno 10718 bound_to 10713
  154.8715  135.3726  154.4780 H   0  0  0  0  0  0  0  0  0  0  0  0  # atno 10763 bound_to 10752
  153.5435  135.7026  153.5630 H   0  0  0  0  0  0  0  0  0  0  0  0  # atno 10764 bound_to 10752
  153.3781  135.4004  155.1801 H   0  0  0  0  0  0  0  0  0  0  0  0  # atno 10765 bound_to 10752
  139.9587  134.7099  156.0694 H   0  0  0  0  0  0  0  0  0  0  0  0  # atno 11005 bound_to 11000
  145.6393  141.0287  143.1820 LP  0  0  0  0  0  0  0  0  0  0  0  0  # atno 17320 bound_to 7965
  144.7231  139.7964  143.7375 LP  0  0  0  0  0  0  0  0  0  0  0  0  # atno 17321 bound_to 7965
  140.6107  143.9441  150.6451 LP  0  0  0  0  0  0  0  0  0  0  0  0  # atno 17342 bound_to 10162
  140.2683  143.3474  152.1261 LP  0  0  0  0  0  0  0  0  0  0  0  0  # atno 17343 bound_to 10162
  157.1801  131.0390  151.2752 LP  0  0  0  0  0  0  0  0  0  0  0  0  # atno 17370 bound_to 10713
  157.4153  130.7407  149.6870 LP  0  0  0  0  0  0  0  0  0  0  0  0  # atno 17371 bound_to 10713
  141.1262  133.6599  156.3342 LP  0  0  0  0  0  0  0  0  0  0  0  0  # atno 17394 bound_to 11000
  140.5549  134.5991  157.5418 LP  0  0  0  0  0  0  0  0  0  0  0  0  # atno 17395 bound_to 11000

$$$$
