AV-unprocessed.smi:1875|AV-procd|sdf|7617|dock10
  -GOLD-   22720 9343D 1   1.00000     0.00000
 Structure written by MMmdl.
 49 51  0  0  0  0  0  0  0  0  3 V2000
  145.7837  133.0147  152.0243 C   0  0  0  0  0  0  0  0  0  0  0  0
  147.1480  132.9807  152.6814 C   0  0  0  0  0  0  0  0  0  0  0  0
  147.9750  131.9979  152.3115 N   0  0  0  0  0  0  0  0  0  0  0  0
  149.1931  131.9695  152.8947 C   0  0  0  0  0  0  0  0  0  0  0  0
  149.5791  132.9304  153.8516 C   0  0  0  0  0  0  0  0  0  0  0  0
  148.6234  133.9215  154.1586 C   0  0  0  0  0  0  0  0  0  0  0  0
  148.9049  135.0016  155.1819 C   0  0  0  0  0  0  0  0  0  0  0  0
  149.9317  135.9295  154.6733 N   0  3  0  0  0  0  0  0  0  0  0  0
  150.1669  137.1057  155.5345 C   0  0  0  0  0  0  0  0  0  0  0  0
  150.7060  138.2927  154.7189 C   0  0  1  0  0  0  0  0  0  0  0  0
  149.9225  138.4383  153.5498 O   0  0  0  0  0  0  0  0  0  0  0  0
  150.6789  139.6121  155.5176 C   0  0  0  0  0  0  0  0  0  0  0  0
  151.4035  139.5229  156.7933 N   0  0  0  0  0  0  0  0  0  0  0  0
  152.1387  138.5030  157.3156 C   0  0  0  0  0  0  0  0  0  0  0  0
  152.5952  138.9076  158.5330 N   0  3  0  0  0  0  0  0  0  0  0  0
  152.1504  140.2061  158.7899 C   0  0  0  0  0  0  0  0  0  0  0  0
  152.3501  141.0376  159.8855 C   0  0  0  0  0  0  0  0  0  0  0  0
  151.7576  142.3198  159.8387 C   0  0  0  0  0  0  0  0  0  0  0  0
  151.9558  143.2536  161.0206 C   0  0  0  0  0  0  0  0  0  0  0  0
  150.9954  142.7313  158.7146 C   0  0  0  0  0  0  0  0  0  0  0  0
  150.3682  144.1142  158.6724 C   0  0  0  0  0  0  0  0  0  0  0  0
  150.8023  141.8700  157.6107 C   0  0  0  0  0  0  0  0  0  0  0  0
  151.3904  140.6091  157.6750 C   0  0  0  0  0  0  0  0  0  0  0  0
  147.4045  133.9417  153.5746 N   0  0  0  0  0  0  0  0  0  0  0  0
  145.5967  132.1091  151.4458 H   0  0  0  0  0  0  0  0  0  0  0  0
  145.7113  133.8694  151.3512 H   0  0  0  0  0  0  0  0  0  0  0  0
  144.9993  133.1023  152.7767 H   0  0  0  0  0  0  0  0  0  0  0  0
  149.8625  131.1754  152.5987 H   0  0  0  0  0  0  0  0  0  0  0  0
  150.5528  132.9036  154.3181 H   0  0  0  0  0  0  0  0  0  0  0  0
  147.9882  135.5495  155.4039 H   0  0  0  0  0  0  0  0  0  0  0  0
  149.2443  134.5447  156.1129 H   0  0  0  0  0  0  0  0  0  0  0  0
  150.7978  135.4188  154.5772 H   0  0  0  0  0  0  0  0  0  0  0  0
  149.2456  137.3811  156.0502 H   0  0  0  0  0  0  0  0  0  0  0  0
  150.8908  136.8268  156.3015 H   0  0  0  0  0  0  0  0  0  0  0  0
  151.7316  138.0810  154.4140 H   0  0  0  0  0  0  0  0  0  0  0  0
  149.9144  137.6156  153.0843 H   0  0  0  0  0  0  0  0  0  0  0  0
  151.1339  140.4170  154.9384 H   0  0  0  0  0  0  0  0  0  0  0  0
  149.6542  139.9222  155.7269 H   0  0  0  0  0  0  0  0  0  0  0  0
  152.3221  137.5438  156.8529 H   0  0  0  0  0  0  0  0  0  0  0  0
  152.9334  140.7182  160.7370 H   0  0  0  0  0  0  0  0  0  0  0  0
  152.4944  144.1501  160.7135 H   0  0  0  0  0  0  0  0  0  0  0  0
  152.5289  142.7758  161.8156 H   0  0  0  0  0  0  0  0  0  0  0  0
  150.9948  143.5529  161.4395 H   0  0  0  0  0  0  0  0  0  0  0  0
  149.8297  144.2800  157.7388 H   0  0  0  0  0  0  0  0  0  0  0  0
  151.1348  144.8850  158.7556 H   0  0  0  0  0  0  0  0  0  0  0  0
  149.6598  144.2392  159.4916 H   0  0  0  0  0  0  0  0  0  0  0  0
  150.2228  142.1834  156.7553 H   0  0  0  0  0  0  0  0  0  0  0  0
  149.6463  136.2509  153.7591 H   0  0  0  0  0  0  0  0  0  0  0  0
  153.1678  138.3372  159.1424 H   0  0  0  0  0  0  0  0  0  0  0  0
  1  2  1  0  0  0  0
  1 25  1  0  0  0  0
  1 26  1  0  0  0  0
  1 27  1  0  0  0  0
  2 24  1  0  0  0  0
  2  3  2  0  0  0  0
  3  4  1  0  0  0  0
  4  5  2  0  0  0  0
  4 28  1  0  0  0  0
  5  6  1  0  0  0  0
  5 29  1  0  0  0  0
  6  7  1  0  0  0  0
  6 24  2  0  0  0  0
  7  8  1  0  0  0  0
  7 30  1  0  0  0  0
  7 31  1  0  0  0  0
  8  9  1  0  0  0  0
  8 32  1  0  0  0  0
  8 48  1  0  0  0  0
  9 10  1  0  0  0  0
  9 33  1  0  0  0  0
  9 34  1  0  0  0  0
 10 11  1  0  0  0  0
 10 12  1  0  0  0  0
 10 35  1  0  0  0  0
 11 36  1  0  0  0  0
 12 13  1  0  0  0  0
 12 37  1  0  0  0  0
 12 38  1  0  0  0  0
 13 23  1  0  0  0  0
 13 14  1  0  0  0  0
 14 15  2  0  0  0  0
 14 39  1  0  0  0  0
 15 16  1  0  0  0  0
 15 49  1  0  0  0  0
 16 23  2  0  0  0  0
 16 17  1  0  0  0  0
 17 18  2  0  0  0  0
 17 40  1  0  0  0  0
 18 19  1  0  0  0  0
 18 20  1  0  0  0  0
 19 41  1  0  0  0  0
 19 42  1  0  0  0  0
 19 43  1  0  0  0  0
 20 21  1  0  0  0  0
 20 22  2  0  0  0  0
 21 44  1  0  0  0  0
 21 45  1  0  0  0  0
 21 46  1  0  0  0  0
 22 23  1  0  0  0  0
 22 47  1  0  0  0  0
M  CHG  1   8   1
M  CHG  1  15   1
M  END
> <s_m_source_file>
AV-unprocessed.smi

> <i_m_source_file_index>
1875

> <i_lp_mmshare_version>
43012

> <i_f3d_flags>
0

> <s_epik_input>
W0NIM11jMW5bY0hdW2NIXWMobjEpW0NIMl1bTkhdW0NIMl1bQ0BIXShbT0hdKVtDSDJdbihbY0hdbjIpYyhjMjMpW2NIXWMoW0NIM10pYyhbY0hdMylbQ0gzXQ==

> <s_epik_cmdline>
J2VwaWtfcHl0aG9uJywgJy1waCcsICc3LjAnLCAnLXRuJywgJzgnLCAnLW1hJywgJzIwMCcsICctbWV0YWxfYmluZGluZycsICctaW1hZScsICc8aW5maWxlLm1hZT4nLCAnLW9tYWUnLCAnPG91dGZpbGUubWFlPic=

> <r_lp_tautomer_probability>
1

> <r_epik_Ionization_Penalty>
1.27527

> <r_epik_Ionization_Penalty_Charging>
1.27526

> <r_epik_Ionization_Penalty_Neutral>
8.72389e-06

> <r_epik_State_Penalty>
1.28654

> <r_epik_Charging_Adjusted_Penalty>
2.5618

> <i_epik_Tot_Q>
2

> <i_epik_Tot_abs_Q>
2

> <r_epik_Metal_State_Penalty>
1.36882

> <b_epik_Metal_Only>
0

> <s_epik_Chemistry_Notes>
This compound contains an electron-poor aromatic ring that is susceptible to covalent hydrolysis at low pH, typically resulting in measured values for nitrogen ring protonation that are around two units higher than predicted values.

> <s_lp_Force_Field>
OPLS_2005

> <r_lp_Energy>
13.7453

> <b_lp_Chiralities_Consistent>
1

> <s_lp_Variant>
AV-unprocessed.smi:1875-6

> <Gold.Version>
5.8.1

> <Gold.Id.Protein>
6NUR|6NUR_protein|mol2

> <Gold.PLP.Fitness>
53.7387

> <Gold.PLP.PLP>
-43.3110

> <Gold.PLP.part.hbond>
-3.0000

> <Gold.PLP.part.metal>
0.0000

> <Gold.PLP.part.buried>
-5.2758

> <Gold.PLP.part.nonpolar>
-35.8783

> <Gold.PLP.part.repulsive>
0.3499

> <Gold.PLP.ligand.clash>
0.0000

> <Gold.PLP.ligand.torsion>
0.3386

> <Gold.PLP.Chemscore.Hbond>
2.9588

> <Gold.PLP.Chemscore.CHOScore>
0.7283

> <Gold.PLP.Chemscore.Metal>
0.0000

> <Gold.Chemscore.Hbonds>
donor molecule, donor type, donor heavy atom, donor atom, acceptor molecule, acceptor atom, score
      L1  H     8    48       P1  7948  2.00
      L1  H    11    36       P1  7948  0.99
      L1  C     4    28       P1 10747  0.13

> <Gold.PLP.Chemscore.Internal.Correction>
0.0437

> <Gold.Rescore>
     Score         DG    S(hbond)    S(metal)    S(lipo)     H(rot)  DE(clash)    DE(int)     intcor
     15.60     -17.44       1.92        0.00     110.44       2.88       0.00       1.83       ----

> <Gold.Chemscore.Fitness>
15.6021

> <Gold.Chemscore.DG>
-17.4355

> <Gold.Chemscore.ZeroCoef>
-5.4800

> <Gold.Chemscore.Hbond>
1.9211

> <Gold.Chemscore.Metal>
0.0000

> <Gold.Chemscore.Lipo>
110.4399

> <Gold.Chemscore.Internal_Hbond>
0.0000

> <Gold.Chemscore.DEClash>
0.0013

> <Gold.Chemscore.DEInternal>
1.8321

> <Gold.Chemscore.Rot>
2.8838

> <Gold.Chemscore.Internal.Correction>
   9.000000E+99

> <Gold.Chemscore.Hbonds>
donor molecule, donor type, donor heavy atom, donor atom, acceptor molecule, acceptor atom, score
      L1  H     8    48       P1  7948  0.48
      L1  H    11    36       P1  7948  0.35

> <Gold.Chemscore.Hbond.Weighted>
-6.4164

> <Gold.Chemscore.Metal.Weighted>
-0.0000

> <Gold.Chemscore.Lipo.Weighted>
-12.9215

> <Gold.Chemscore.Internal_Hbond.Weighted>
0.0000

> <Gold.Chemscore.DEClash.Weighted>
0.0013

> <Gold.Chemscore.DEInternal.Weighted>
1.8321

> <Gold.Chemscore.Rot.Weighted>
7.3824

> <Gold.Chemscore.Internal.Correction.Weighted>
   9.000000E+99

> <Gold.Protein.RotatedTorsions>
[ 6907 6896 6895 6894 ] final   39.02 input  -60.11 | X-H torsion
[ 7974 7965 7964 7962 ] final  122.35 input  175.53 | X-H torsion
[ 8008 7997 7996 7995 ] final  -53.64 input   59.86 | X-H torsion
[ 10167 10162 10161 10158 ] final -109.98 input  -65.29 | X-H torsion
[ 10718 10713 10712 10709 ] final  -11.90 input   66.30 | X-H torsion
[ 10763 10752 10751 10750 ] final   88.54 input  -60.55 | X-H torsion
[ 11005 11000 10999 10996 ] final  156.89 input  -57.11 | X-H torsion

> <Gold.Protein.ActiveResidues>
 VAL166  LYS551  ARG553  GLY616  TRP617  ASP618  TYR619  PRO620  LYS621  CYS622 
 ASP623  PHE694  ASN695  SER759  ASP760  ASP761  ALA762  ILE779  LEU786  VAL792 
 PHE793  MET794  SER795  GLU796  ALA797  LYS798  CYS799  TRP800  GLU811  SER814 

> <Gold.Protein.RotatedAtoms>
  152.1641  134.8888  160.0539 H   0  0  0  0  0  0  0  0  0  0  0  0  # atno 6907 bound_to 6896
  151.9873  133.3773  159.4139 H   0  0  0  0  0  0  0  0  0  0  0  0  # atno 6908 bound_to 6896
  150.6892  134.3897  159.5115 H   0  0  0  0  0  0  0  0  0  0  0  0  # atno 6909 bound_to 6896
  145.1086  139.3468  143.4775 H   0  0  0  0  0  0  0  0  0  0  0  0  # atno 7974 bound_to 7965
  154.4139  140.1195  156.5186 H   0  0  0  0  0  0  0  0  0  0  0  0  # atno 8008 bound_to 7997
  155.6726  140.3496  155.4805 H   0  0  0  0  0  0  0  0  0  0  0  0  # atno 8009 bound_to 7997
  155.9620  140.1125  157.0877 H   0  0  0  0  0  0  0  0  0  0  0  0  # atno 8010 bound_to 7997
  140.1494  143.4212  152.1506 H   0  0  0  0  0  0  0  0  0  0  0  0  # atno 10167 bound_to 10162
  156.6524  130.4958  149.6057 H   0  0  0  0  0  0  0  0  0  0  0  0  # atno 10718 bound_to 10713
  153.1779  135.4503  154.9990 H   0  0  0  0  0  0  0  0  0  0  0  0  # atno 10763 bound_to 10752
  154.8011  135.3256  154.7551 H   0  0  0  0  0  0  0  0  0  0  0  0  # atno 10764 bound_to 10752
  153.8019  135.6962  153.4909 H   0  0  0  0  0  0  0  0  0  0  0  0  # atno 10765 bound_to 10752
  140.1718  134.8538  157.2699 H   0  0  0  0  0  0  0  0  0  0  0  0  # atno 11005 bound_to 11000
  146.3527  140.0995  142.8608 LP  0  0  0  0  0  0  0  0  0  0  0  0  # atno 17320 bound_to 7965
  145.0873  140.9261  143.4790 LP  0  0  0  0  0  0  0  0  0  0  0  0  # atno 17321 bound_to 7965
  139.5433  144.7276  151.4663 LP  0  0  0  0  0  0  0  0  0  0  0  0  # atno 17342 bound_to 10162
  140.6712  143.8290  150.7001 LP  0  0  0  0  0  0  0  0  0  0  0  0  # atno 17343 bound_to 10162
  156.2074  130.6657  151.1233 LP  0  0  0  0  0  0  0  0  0  0  0  0  # atno 17370 bound_to 10713
  157.7136  131.0721  150.6409 LP  0  0  0  0  0  0  0  0  0  0  0  0  # atno 17371 bound_to 10713
  140.2369  134.3842  155.7497 LP  0  0  0  0  0  0  0  0  0  0  0  0  # atno 17394 bound_to 11000
  141.2218  133.7244  156.8728 LP  0  0  0  0  0  0  0  0  0  0  0  0  # atno 17395 bound_to 11000

$$$$
