AV-unprocessed.smi:2049|AV-procd|sdf|8323|dock9
  -GOLD-   2272010593D 1   1.00000     0.00000
 Structure written by MMmdl.
 50 52  0  0  0  0  0  0  0  0  1 V2000
  146.5287  133.2635  154.0470 O   0  0  0  0  0  0  0  0  0  0  0  0
  147.3015  133.8642  153.3003 C   0  0  0  0  0  0  0  0  0  0  0  0
  147.5000  133.3971  151.8534 C   0  0  0  0  0  0  0  0  0  0  0  0
  146.2561  133.4685  151.0709 N   0  0  0  0  0  0  0  0  0  0  0  0
  145.8492  132.3113  150.3858 C   0  0  0  0  0  0  0  0  0  0  0  0
  144.7224  132.3025  149.6594 C   0  0  0  0  0  0  0  0  0  0  0  0
  143.9564  133.5552  149.6270 C   0  0  0  0  0  0  0  0  0  0  0  0
  144.3224  134.6108  150.2533 N   0  0  0  0  0  0  0  0  0  0  0  0
  145.5046  134.6169  151.0178 C   0  0  0  0  0  0  0  0  0  0  0  0
  145.8602  135.6269  151.6265 O   0  0  0  0  0  0  0  0  0  0  0  0
  148.0103  134.9392  153.6740 N   0  0  0  0  0  0  0  0  0  0  0  0
  147.9171  135.6272  154.9611 C   0  0  0  0  0  0  0  0  0  0  0  0
  149.3235  135.9265  155.5844 C   0  0  0  0  0  0  0  0  0  0  0  0
  149.8962  137.1667  154.9657 N   0  0  0  0  0  0  0  0  0  0  0  0
  151.3130  137.4108  155.2740 C   0  0  0  0  0  0  0  0  0  0  0  0
  151.8845  138.6067  154.4951 C   0  0  0  0  0  0  0  0  0  0  0  0
  151.1185  139.7693  154.7789 O   0  0  0  0  0  0  0  0  0  0  0  0
  149.7497  139.6057  154.4328 C   0  0  0  0  0  0  0  0  0  0  0  0
  149.1530  138.4137  155.2013 C   0  0  0  0  0  0  0  0  0  0  0  0
  149.1429  136.1015  157.1312 C   0  0  0  0  0  0  0  0  0  0  0  0
  148.6681  134.8398  157.8770 C   0  0  0  0  0  0  0  0  0  0  0  0
  149.6108  133.6598  157.6118 C   0  0  0  0  0  0  0  0  0  0  0  0
  149.7769  133.4109  156.1073 C   0  0  0  0  0  0  0  0  0  0  0  0
  150.2391  134.6808  155.3653 C   0  0  0  0  0  0  0  0  0  0  0  0
  148.2770  133.9912  151.3678 H   0  0  0  0  0  0  0  0  0  0  0  0
  147.8877  132.3779  151.8757 H   0  0  0  0  0  0  0  0  0  0  0  0
  146.4953  131.4522  150.4932 H   0  0  0  0  0  0  0  0  0  0  0  0
  144.3515  131.4489  149.1118 H   0  0  0  0  0  0  0  0  0  0  0  0
  143.0434  133.5289  149.0269 H   0  0  0  0  0  0  0  0  0  0  0  0
  148.6181  135.3596  152.9862 H   0  0  0  0  0  0  0  0  0  0  0  0
  147.3115  136.5253  154.8574 H   0  0  0  0  0  0  0  0  0  0  0  0
  147.3236  135.0014  155.6263 H   0  0  0  0  0  0  0  0  0  0  0  0
  151.4390  137.5971  156.3406 H   0  0  0  0  0  0  0  0  0  0  0  0
  151.9262  136.5463  155.0298 H   0  0  0  0  0  0  0  0  0  0  0  0
  152.9208  138.7852  154.7819 H   0  0  0  0  0  0  0  0  0  0  0  0
  151.8783  138.4076  153.4224 H   0  0  0  0  0  0  0  0  0  0  0  0
  149.2105  140.5210  154.6773 H   0  0  0  0  0  0  0  0  0  0  0  0
  149.6544  139.4565  153.3560 H   0  0  0  0  0  0  0  0  0  0  0  0
  148.1196  138.3275  154.8765 H   0  0  0  0  0  0  0  0  0  0  0  0
  149.1380  138.6542  156.2640 H   0  0  0  0  0  0  0  0  0  0  0  0
  150.0901  136.3546  157.6017 H   0  0  0  0  0  0  0  0  0  0  0  0
  148.4748  136.9343  157.3515 H   0  0  0  0  0  0  0  0  0  0  0  0
  148.6368  135.0437  158.9475 H   0  0  0  0  0  0  0  0  0  0  0  0
  147.6482  134.5767  157.6012 H   0  0  0  0  0  0  0  0  0  0  0  0
  150.5853  133.8656  158.0563 H   0  0  0  0  0  0  0  0  0  0  0  0
  149.2319  132.7615  158.1003 H   0  0  0  0  0  0  0  0  0  0  0  0
  150.5042  132.6138  155.9502 H   0  0  0  0  0  0  0  0  0  0  0  0
  148.8406  133.0443  155.6871 H   0  0  0  0  0  0  0  0  0  0  0  0
  150.3172  134.4459  154.3038 H   0  0  0  0  0  0  0  0  0  0  0  0
  151.2534  134.8980  155.6978 H   0  0  0  0  0  0  0  0  0  0  0  0
  1  2  2  0  0  0  0
  2  3  1  0  0  0  0
  2 11  1  0  0  0  0
  3  4  1  0  0  0  0
  3 25  1  0  0  0  0
  3 26  1  0  0  0  0
  4  9  1  0  0  0  0
  4  5  1  0  0  0  0
  5  6  2  0  0  0  0
  5 27  1  0  0  0  0
  6  7  1  0  0  0  0
  6 28  1  0  0  0  0
  7  8  2  0  0  0  0
  7 29  1  0  0  0  0
  8  9  1  0  0  0  0
  9 10  2  0  0  0  0
 11 12  1  0  0  0  0
 11 30  1  0  0  0  0
 12 13  1  0  0  0  0
 12 31  1  0  0  0  0
 12 32  1  0  0  0  0
 13 24  1  0  0  0  0
 13 14  1  0  0  0  0
 13 20  1  0  0  0  0
 14 19  1  0  0  0  0
 14 15  1  0  0  0  0
 15 16  1  0  0  0  0
 15 33  1  0  0  0  0
 15 34  1  0  0  0  0
 16 17  1  0  0  0  0
 16 35  1  0  0  0  0
 16 36  1  0  0  0  0
 17 18  1  0  0  0  0
 18 19  1  0  0  0  0
 18 37  1  0  0  0  0
 18 38  1  0  0  0  0
 19 39  1  0  0  0  0
 19 40  1  0  0  0  0
 20 21  1  0  0  0  0
 20 41  1  0  0  0  0
 20 42  1  0  0  0  0
 21 22  1  0  0  0  0
 21 43  1  0  0  0  0
 21 44  1  0  0  0  0
 22 23  1  0  0  0  0
 22 45  1  0  0  0  0
 22 46  1  0  0  0  0
 23 24  1  0  0  0  0
 23 47  1  0  0  0  0
 23 48  1  0  0  0  0
 24 49  1  0  0  0  0
 24 50  1  0  0  0  0
M  END
> <s_m_source_file>
AV-unprocessed.smi

> <i_m_source_file_index>
2049

> <i_lp_mmshare_version>
43012

> <i_f3d_flags>
0

> <s_epik_input>
Tz1jMW5bY0hdW2NIXVtjSF1uMVtDSDJdQyg9TylbTkhdW0NIMl1DMihbQ0gyXVtDSDJdW0NIMl1bQ0gyXVtDSDJdMilOM1tDSDJdW0NIMl1PW0NIMl1bQ0gyXTM=

> <s_epik_cmdline>
J2VwaWtfcHl0aG9uJywgJy1waCcsICc3LjAnLCAnLXRuJywgJzgnLCAnLW1hJywgJzIwMCcsICctbWV0YWxfYmluZGluZycsICctaW1hZScsICc8aW5maWxlLm1hZT4nLCAnLW9tYWUnLCAnPG91dGZpbGUubWFlPic=

> <r_lp_tautomer_probability>
1

> <r_epik_Ionization_Penalty>
0.421133

> <r_epik_Ionization_Penalty_Charging>
1.67008e-08

> <r_epik_Ionization_Penalty_Neutral>
0.421133

> <r_epik_State_Penalty>
0.421833

> <r_epik_Charging_Adjusted_Penalty>
0.421833

> <i_epik_Tot_Q>
0

> <i_epik_Tot_abs_Q>
0

> <r_epik_Metal_State_Penalty>
0.421832

> <b_epik_Metal_Only>
0

> <s_lp_Force_Field>
OPLS_2005

> <r_lp_Energy>
55.5371

> <b_lp_Chiralities_Consistent>
1

> <s_lp_Variant>
AV-unprocessed.smi:2049-2

> <Gold.Version>
5.8.1

> <Gold.Id.Protein>
6NUR|6NUR_protein|mol2

> <Gold.PLP.Fitness>
43.1351

> <Gold.PLP.PLP>
-32.3696

> <Gold.PLP.part.hbond>
-1.8869

> <Gold.PLP.part.metal>
0.0000

> <Gold.PLP.part.buried>
-3.1833

> <Gold.PLP.part.nonpolar>
-28.0429

> <Gold.PLP.part.repulsive>
0.8029

> <Gold.PLP.ligand.clash>
0.0000

> <Gold.PLP.ligand.torsion>
0.5619

> <Gold.PLP.Chemscore.Hbond>
2.0000

> <Gold.PLP.Chemscore.CHOScore>
1.9358

> <Gold.PLP.Chemscore.Metal>
0.0000

> <Gold.Chemscore.Hbonds>
donor molecule, donor type, donor heavy atom, donor atom, acceptor molecule, acceptor atom, score
      L1  H    11    30       P1  7948  0.76
      P1  H  7989  7998       L1    17  1.00
      L1  C     5    27       P1 10747  0.94
      L1  C     7    29       P1 10186  0.96

> <Gold.PLP.Chemscore.Internal.Correction>
0.0820

> <Gold.Rescore>
     Score         DG    S(hbond)    S(metal)    S(lipo)     H(rot)  DE(clash)    DE(int)     intcor
     11.84     -13.76       1.11        0.00      81.92       1.95       0.63       1.29       ----

> <Gold.Chemscore.Fitness>
11.8427

> <Gold.Chemscore.DG>
-13.7638

> <Gold.Chemscore.ZeroCoef>
-5.4800

> <Gold.Chemscore.Hbond>
1.1074

> <Gold.Chemscore.Metal>
0.0000

> <Gold.Chemscore.Lipo>
81.9223

> <Gold.Chemscore.Internal_Hbond>
0.0000

> <Gold.Chemscore.DEClash>
0.6318

> <Gold.Chemscore.DEInternal>
1.2893

> <Gold.Chemscore.Rot>
1.9531

> <Gold.Chemscore.Internal.Correction>
   9.000000E+99

> <Gold.Chemscore.Hbonds>
donor molecule, donor type, donor heavy atom, donor atom, acceptor molecule, acceptor atom, score
      L1  H    11    30       P1  7948  0.63
      P1  H  7989  7998       L1    17  0.09

> <Gold.Chemscore.Hbond.Weighted>
-3.6989

> <Gold.Chemscore.Metal.Weighted>
-0.0000

> <Gold.Chemscore.Lipo.Weighted>
-9.5849

> <Gold.Chemscore.Internal_Hbond.Weighted>
0.0000

> <Gold.Chemscore.DEClash.Weighted>
0.6318

> <Gold.Chemscore.DEInternal.Weighted>
1.2893

> <Gold.Chemscore.Rot.Weighted>
5.0000

> <Gold.Chemscore.Internal.Correction.Weighted>
   9.000000E+99

> <Gold.Protein.RotatedTorsions>
[ 6907 6896 6895 6894 ] final -179.50 input  -60.11 | X-H torsion
[ 7974 7965 7964 7962 ] final -103.00 input  175.53 | X-H torsion
[ 8008 7997 7996 7995 ] final   54.73 input   59.86 | X-H torsion
[ 10167 10162 10161 10158 ] final  156.68 input  -65.29 | X-H torsion
[ 10718 10713 10712 10709 ] final   31.20 input   66.30 | X-H torsion
[ 10763 10752 10751 10750 ] final  -65.05 input  -60.55 | X-H torsion
[ 11005 11000 10999 10996 ] final   -1.52 input  -57.11 | X-H torsion

> <Gold.Protein.ActiveResidues>
 VAL166  LYS551  ARG553  GLY616  TRP617  ASP618  TYR619  PRO620  LYS621  CYS622 
 ASP623  PHE694  ASN695  SER759  ASP760  ASP761  ALA762  ILE779  LEU786  VAL792 
 PHE793  MET794  SER795  GLU796  ALA797  LYS798  CYS799  TRP800  GLU811  SER814 

> <Gold.Protein.RotatedAtoms>
  151.6544  133.3319  159.3159 H   0  0  0  0  0  0  0  0  0  0  0  0  # atno 6907 bound_to 6896
  150.7944  134.6996  159.6552 H   0  0  0  0  0  0  0  0  0  0  0  0  # atno 6908 bound_to 6896
  152.4029  134.6260  160.0114 H   0  0  0  0  0  0  0  0  0  0  0  0  # atno 6909 bound_to 6896
  145.2614  140.9270  143.3038 H   0  0  0  0  0  0  0  0  0  0  0  0  # atno 7974 bound_to 7965
  155.4896  140.3471  155.4353 H   0  0  0  0  0  0  0  0  0  0  0  0  # atno 8008 bound_to 7997
  156.0986  140.1429  156.9526 H   0  0  0  0  0  0  0  0  0  0  0  0  # atno 8009 bound_to 7997
  154.4679  140.0911  156.7046 H   0  0  0  0  0  0  0  0  0  0  0  0  # atno 8010 bound_to 7997
  139.4821  144.4986  151.8202 H   0  0  0  0  0  0  0  0  0  0  0  0  # atno 10167 bound_to 10162
  157.2694  130.7200  149.6496 H   0  0  0  0  0  0  0  0  0  0  0  0  # atno 10718 bound_to 10713
  154.3393  135.6160  153.5588 H   0  0  0  0  0  0  0  0  0  0  0  0  # atno 10763 bound_to 10752
  152.9805  135.5765  154.4871 H   0  0  0  0  0  0  0  0  0  0  0  0  # atno 10764 bound_to 10752
  154.4572  135.2854  155.1716 H   0  0  0  0  0  0  0  0  0  0  0  0  # atno 10765 bound_to 10752
  140.6482  133.9428  155.8365 H   0  0  0  0  0  0  0  0  0  0  0  0  # atno 11005 bound_to 11000
  144.9415  139.4184  143.6447 LP  0  0  0  0  0  0  0  0  0  0  0  0  # atno 17320 bound_to 7965
  146.3274  139.8377  142.8896 LP  0  0  0  0  0  0  0  0  0  0  0  0  # atno 17321 bound_to 7965
  140.4477  144.1898  150.5895 LP  0  0  0  0  0  0  0  0  0  0  0  0  # atno 17342 bound_to 10162
  140.4617  143.2446  151.9210 LP  0  0  0  0  0  0  0  0  0  0  0  0  # atno 17343 bound_to 10162
  155.9663  130.4372  150.5167 LP  0  0  0  0  0  0  0  0  0  0  0  0  # atno 17370 bound_to 10713
  157.3088  131.0659  151.2016 LP  0  0  0  0  0  0  0  0  0  0  0  0  # atno 17371 bound_to 10713
  141.0556  134.0421  157.3726 LP  0  0  0  0  0  0  0  0  0  0  0  0  # atno 17394 bound_to 11000
  139.9055  135.0178  156.7466 LP  0  0  0  0  0  0  0  0  0  0  0  0  # atno 17395 bound_to 11000

$$$$
