AV-unprocessed.smi:2492|AV-procd|sdf|9817|dock7
  -GOLD-   2272013443D 1   1.00000     0.00000
 Structure written by MMmdl.
 32 33  0  0  0  0  0  0  0  0  2 V2000
  153.5046  142.6744  162.9137 C   0  0  0  0  0  0  0  0  0  0  0  0
  152.5367  143.8530  161.9348 S   0  0  0  0  0  0  0  0  0  0  0  0
  152.8628  143.2247  160.2622 C   0  0  2  0  0  0  0  0  0  0  0  0
  151.6745  143.4170  159.3236 C   0  0  0  0  0  0  0  0  0  0  0  0
  151.9350  142.4306  158.1848 C   0  0  0  0  0  0  0  0  0  0  0  0
  152.7070  141.2517  158.8118 C   0  0  2  0  0  0  0  0  0  0  0  0
  151.8859  140.0449  158.8837 N   0  0  0  0  0  0  0  0  0  0  0  0
  152.1491  138.8775  158.2787 C   0  0  0  0  0  0  0  0  0  0  0  0
  153.1590  138.7610  157.5805 O   0  0  0  0  0  0  0  0  0  0  0  0
  151.2250  137.9194  158.5176 N   0  5  0  0  0  0  0  0  0  0  0  0
  151.0919  136.8892  157.6661 C   0  0  0  0  0  0  0  0  0  0  0  0
  150.6103  135.6818  157.9642 N   0  0  0  0  0  0  0  0  0  0  0  0
  150.6884  135.0461  156.7647 C   0  0  0  0  0  0  0  0  0  0  0  0
  150.2630  133.6315  156.5674 C   0  0  0  0  0  0  0  0  0  0  0  0
  151.1638  135.7656  155.7593 N   0  0  0  0  0  0  0  0  0  0  0  0
  151.4333  137.0052  156.3561 O   0  0  0  0  0  0  0  0  0  0  0  0
  153.1221  141.7154  160.2209 C   0  0  0  0  0  0  0  0  0  0  0  0
  153.4478  142.9302  163.9717 H   0  0  0  0  0  0  0  0  0  0  0  0
  154.5511  142.6941  162.6085 H   0  0  0  0  0  0  0  0  0  0  0  0
  153.1217  141.6621  162.7846 H   0  0  0  0  0  0  0  0  0  0  0  0
  153.7245  143.7507  159.8489 H   0  0  0  0  0  0  0  0  0  0  0  0
  150.7477  143.1474  159.8324 H   0  0  0  0  0  0  0  0  0  0  0  0
  151.5767  144.4445  158.9727 H   0  0  0  0  0  0  0  0  0  0  0  0
  151.0112  142.1315  157.6873 H   0  0  0  0  0  0  0  0  0  0  0  0
  152.5625  142.9083  157.4312 H   0  0  0  0  0  0  0  0  0  0  0  0
  153.6021  141.0482  158.2211 H   0  0  0  0  0  0  0  0  0  0  0  0
  151.0476  140.0967  159.4436 H   0  0  0  0  0  0  0  0  0  0  0  0
  149.3049  133.5964  156.0486 H   0  0  0  0  0  0  0  0  0  0  0  0
  150.1564  133.1247  157.5269 H   0  0  0  0  0  0  0  0  0  0  0  0
  151.0012  133.0912  155.9737 H   0  0  0  0  0  0  0  0  0  0  0  0
  154.1625  141.4731  160.4391 H   0  0  0  0  0  0  0  0  0  0  0  0
  152.5113  141.2212  160.9787 H   0  0  0  0  0  0  0  0  0  0  0  0
  1  2  1  0  0  0  0
  1 18  1  0  0  0  0
  1 19  1  0  0  0  0
  1 20  1  0  0  0  0
  2  3  1  0  0  0  0
  3 17  1  0  0  0  0
  3  4  1  0  0  0  0
  3 21  1  0  0  0  0
  4  5  1  0  0  0  0
  4 22  1  0  0  0  0
  4 23  1  0  0  0  0
  5  6  1  0  0  0  0
  5 24  1  0  0  0  0
  5 25  1  0  0  0  0
  6  7  1  0  0  0  0
  6 17  1  0  0  0  0
  6 26  1  0  0  0  0
  7  8  1  0  0  0  0
  7 27  1  0  0  0  0
  8  9  2  0  0  0  0
  8 10  1  0  0  0  0
 10 11  1  0  0  0  0
 11 16  1  0  0  0  0
 11 12  2  0  0  0  0
 12 13  1  0  0  0  0
 13 14  1  0  0  0  0
 13 15  2  0  0  0  0
 14 28  1  0  0  0  0
 14 29  1  0  0  0  0
 14 30  1  0  0  0  0
 15 16  1  0  0  0  0
 17 31  1  0  0  0  0
 17 32  1  0  0  0  0
M  CHG  1  10  -1
M  END
> <s_m_source_file>
AV-unprocessed.smi

> <i_m_source_file_index>
2492

> <i_lp_mmshare_version>
43012

> <i_f3d_flags>
0

> <s_epik_input>
W0NIM11TW0NAQEhdMVtDSDJdW0NIMl1bQ0BIXShbQ0gyXTEpW05IXUMoPU8pW05IXWMybmMoW0NIM10pbm8y

> <s_epik_cmdline>
J2VwaWtfcHl0aG9uJywgJy1waCcsICc3LjAnLCAnLXRuJywgJzgnLCAnLW1hJywgJzIwMCcsICctbWV0YWxfYmluZGluZycsICctaW1hZScsICc8aW5maWxlLm1hZT4nLCAnLW9tYWUnLCAnPG91dGZpbGUubWFlPic=

> <r_lp_tautomer_probability>
1

> <r_epik_Ionization_Penalty>
6.26454

> <r_epik_Ionization_Penalty_Charging>
6.26445

> <r_epik_Ionization_Penalty_Neutral>
9.05726e-05

> <r_epik_State_Penalty>
6.26444

> <r_epik_Charging_Adjusted_Penalty>
12.5289

> <i_epik_Tot_Q>
-1

> <i_epik_Tot_abs_Q>
1

> <r_epik_Metal_State_Penalty>
2.20125

> <b_epik_Metal_Only>
1

> <s_lp_Force_Field>
OPLS_2005

> <r_lp_Energy>
10.8343

> <b_lp_Chiralities_Consistent>
1

> <s_lp_Variant>
AV-unprocessed.smi:2492-7

> <Gold.Version>
5.8.1

> <Gold.Id.Protein>
6NUR|6NUR_protein|mol2

> <Gold.PLP.Fitness>
37.5399

> <Gold.PLP.PLP>
-31.4061

> <Gold.PLP.part.hbond>
-3.0000

> <Gold.PLP.part.metal>
0.0000

> <Gold.PLP.part.buried>
-4.7634

> <Gold.PLP.part.nonpolar>
-23.3364

> <Gold.PLP.part.repulsive>
0.2120

> <Gold.PLP.ligand.clash>
0.0000

> <Gold.PLP.ligand.torsion>
0.6651

> <Gold.PLP.Chemscore.Hbond>
2.4826

> <Gold.PLP.Chemscore.CHOScore>
0.0000

> <Gold.PLP.Chemscore.Metal>
0.0000

> <Gold.Chemscore.Hbonds>
donor molecule, donor type, donor heavy atom, donor atom, acceptor molecule, acceptor atom, score
      P1  H  6896  6908       L1    12  0.58
      P1  H  7997  8009       L1     9  1.00
      P1  H 10752 10764       L1    15  0.67

> <Gold.PLP.Chemscore.Internal.Correction>
0.0164

> <Gold.Rescore>
     Score         DG    S(hbond)    S(metal)    S(lipo)     H(rot)  DE(clash)    DE(int)     intcor
     17.63     -19.71       2.29        0.00      84.15       1.27       0.03       2.05       ----

> <Gold.Chemscore.Fitness>
17.6285

> <Gold.Chemscore.DG>
-19.7142

> <Gold.Chemscore.ZeroCoef>
-5.4800

> <Gold.Chemscore.Hbond>
2.2881

> <Gold.Chemscore.Metal>
0.0000

> <Gold.Chemscore.Lipo>
84.1543

> <Gold.Chemscore.Internal_Hbond>
0.0000

> <Gold.Chemscore.DEClash>
0.0329

> <Gold.Chemscore.DEInternal>
2.0529

> <Gold.Chemscore.Rot>
1.2712

> <Gold.Chemscore.Internal.Correction>
   9.000000E+99

> <Gold.Chemscore.Hbonds>
donor molecule, donor type, donor heavy atom, donor atom, acceptor molecule, acceptor atom, score
      P1  H  6896  6908       L1    12  0.56
      P1  H  7997  8009       L1     9  0.98
      P1  H 10752 10764       L1    15  0.14

> <Gold.Chemscore.Hbond.Weighted>
-7.6423

> <Gold.Chemscore.Metal.Weighted>
-0.0000

> <Gold.Chemscore.Lipo.Weighted>
-9.8461

> <Gold.Chemscore.Internal_Hbond.Weighted>
0.0000

> <Gold.Chemscore.DEClash.Weighted>
0.0329

> <Gold.Chemscore.DEInternal.Weighted>
2.0529

> <Gold.Chemscore.Rot.Weighted>
3.2542

> <Gold.Chemscore.Internal.Correction.Weighted>
   9.000000E+99

> <Gold.Protein.RotatedTorsions>
[ 6907 6896 6895 6894 ] final  174.78 input  -60.11 | X-H torsion
[ 7974 7965 7964 7962 ] final  102.33 input  175.53 | X-H torsion
[ 8008 7997 7996 7995 ] final  169.19 input   59.86 | X-H torsion
[ 10167 10162 10161 10158 ] final   75.24 input  -65.29 | X-H torsion
[ 10718 10713 10712 10709 ] final   58.70 input   66.30 | X-H torsion
[ 10763 10752 10751 10750 ] final  -63.82 input  -60.55 | X-H torsion
[ 11005 11000 10999 10996 ] final -167.44 input  -57.11 | X-H torsion

> <Gold.Protein.ActiveResidues>
 VAL166  LYS551  ARG553  GLY616  TRP617  ASP618  TYR619  PRO620  LYS621  CYS622 
 ASP623  PHE694  ASN695  SER759  ASP760  ASP761  ALA762  ILE779  LEU786  VAL792 
 PHE793  MET794  SER795  GLU796  ALA797  LYS798  CYS799  TRP800  GLU811  SER814 

> <Gold.Protein.RotatedAtoms>
  151.7468  133.3325  159.3380 H   0  0  0  0  0  0  0  0  0  0  0  0  # atno 6907 bound_to 6896
  150.7551  134.6228  159.6154 H   0  0  0  0  0  0  0  0  0  0  0  0  # atno 6908 bound_to 6896
  152.3495  134.7028  160.0292 H   0  0  0  0  0  0  0  0  0  0  0  0  # atno 6909 bound_to 6896
  145.3605  139.2419  143.3509 H   0  0  0  0  0  0  0  0  0  0  0  0  # atno 7974 bound_to 7965
  156.1480  140.1571  156.8816 H   0  0  0  0  0  0  0  0  0  0  0  0  # atno 8008 bound_to 7997
  154.5045  140.0816  156.7904 H   0  0  0  0  0  0  0  0  0  0  0  0  # atno 8009 bound_to 7997
  155.3952  140.3412  155.4256 H   0  0  0  0  0  0  0  0  0  0  0  0  # atno 8010 bound_to 7997
  140.0051  144.5657  150.7705 H   0  0  0  0  0  0  0  0  0  0  0  0  # atno 10167 bound_to 10162
  157.5617  130.8840  149.9122 H   0  0  0  0  0  0  0  0  0  0  0  0  # atno 10718 bound_to 10713
  154.3208  135.6196  153.5507 H   0  0  0  0  0  0  0  0  0  0  0  0  # atno 10763 bound_to 10752
  152.9820  135.5723  154.5072 H   0  0  0  0  0  0  0  0  0  0  0  0  # atno 10764 bound_to 10752
  154.4740  135.2860  155.1598 H   0  0  0  0  0  0  0  0  0  0  0  0  # atno 10765 bound_to 10752
  140.5532  134.5407  157.5127 H   0  0  0  0  0  0  0  0  0  0  0  0  # atno 11005 bound_to 11000
  146.2929  140.4238  142.8732 LP  0  0  0  0  0  0  0  0  0  0  0  0  # atno 17320 bound_to 7965
  144.8650  140.7193  143.6083 LP  0  0  0  0  0  0  0  0  0  0  0  0  # atno 17321 bound_to 7965
  140.7403  143.2803  151.3618 LP  0  0  0  0  0  0  0  0  0  0  0  0  # atno 17342 bound_to 10162
  139.6244  144.0843  152.2421 LP  0  0  0  0  0  0  0  0  0  0  0  0  # atno 17343 bound_to 10162
  156.0669  130.3691  150.0859 LP  0  0  0  0  0  0  0  0  0  0  0  0  # atno 17370 bound_to 10713
  156.9023  130.9624  151.3574 LP  0  0  0  0  0  0  0  0  0  0  0  0  # atno 17371 bound_to 10713
  139.9445  134.7727  156.0597 LP  0  0  0  0  0  0  0  0  0  0  0  0  # atno 17394 bound_to 11000
  141.1159  133.6628  156.3093 LP  0  0  0  0  0  0  0  0  0  0  0  0  # atno 17395 bound_to 11000

$$$$
