AV-unprocessed.smi:290|AV-procd|sdf|2228|dock2
  -GOLD-   2262022 83D 1   1.00000     0.00000
 Structure written by MMmdl.
 59 62  0  0  0  0  0  0  0  0  2 V2000
  152.1546  145.3619  158.7572 C   0  0  0  0  0  0  0  0  0  0  0  0
  152.3571  143.8653  158.4699 C   0  0  1  0  0  0  0  0  0  0  0  0
  152.8345  143.1977  159.6297 O   0  0  0  0  0  0  0  0  0  0  0  0
  152.5977  141.8144  159.4422 C   0  0  0  0  0  0  0  0  0  0  0  0
  151.1827  141.7930  158.8788 C   0  0  0  0  0  0  0  0  0  0  0  0
  151.1092  143.0587  158.0198 C   0  0  1  0  0  0  0  0  0  0  0  0
  149.9028  143.7350  158.3333 O   0  0  0  0  0  0  0  0  0  0  0  0
  151.1090  142.7323  156.5054 C   0  0  0  0  0  0  0  0  0  0  0  0
  150.1809  141.6735  156.1389 N   0  0  0  0  0  0  0  0  0  0  0  0
  148.8196  141.6593  156.3433 C   0  0  0  0  0  0  0  0  0  0  0  0
  148.2064  140.5840  155.9312 N   0  0  0  0  0  0  0  0  0  0  0  0
  149.2191  139.7982  155.3929 C   0  0  0  0  0  0  0  0  0  0  0  0
  149.2581  138.5150  154.7745 C   0  0  0  0  0  0  0  0  0  0  0  0
  148.1539  137.7384  154.6115 N   0  0  0  0  0  0  0  0  0  0  0  0
  148.0616  136.5382  155.4402 C   0  0  0  0  0  0  0  0  0  0  0  0
  147.4074  135.4573  154.5734 C   0  0  0  0  0  0  0  0  0  0  0  0
  146.6620  136.2747  153.5131 C   0  0  2  0  0  0  0  0  0  0  0  0
  146.2860  135.5410  152.2708 N   0  3  2  0  0  0  0  0  0  0  0  0
  145.3700  136.3311  151.4146 C   0  0  0  0  0  0  0  0  0  0  0  0
  145.8229  134.1395  152.4639 C   0  0  0  0  0  0  0  0  0  0  0  0
  145.1920  133.5685  151.1842 C   0  0  0  0  0  0  0  0  0  0  0  0
  146.1568  133.5120  150.1545 O   0  0  0  0  0  0  0  0  0  0  0  0
  147.5897  137.4769  153.2875 C   0  0  1  0  0  0  0  0  0  0  0  0
  146.8568  138.6982  152.7037 C   0  0  0  0  0  0  0  0  0  0  0  0
  150.4684  138.0706  154.3425 N   0  0  0  0  0  0  0  0  0  0  0  0
  151.5637  138.8180  154.5058 C   0  0  0  0  0  0  0  0  0  0  0  0
  151.6750  140.0218  155.0687 N   0  0  0  0  0  0  0  0  0  0  0  0
  150.4655  140.4775  155.5034 C   0  0  0  0  0  0  0  0  0  0  0  0
  145.7473  136.6556  153.9726 H   0  0  0  0  0  0  0  0  0  0  0  0
  148.4055  137.2013  152.6203 H   0  0  0  0  0  0  0  0  0  0  0  0
  151.7695  145.8823  157.8801 H   0  0  0  0  0  0  0  0  0  0  0  0
  153.0980  145.8330  159.0333 H   0  0  0  0  0  0  0  0  0  0  0  0
  151.4561  145.5211  159.5790 H   0  0  0  0  0  0  0  0  0  0  0  0
  153.1438  143.7604  157.7216 H   0  0  0  0  0  0  0  0  0  0  0  0
  153.3134  141.4095  158.7247 H   0  0  0  0  0  0  0  0  0  0  0  0
  152.6892  141.2582  160.3753 H   0  0  0  0  0  0  0  0  0  0  0  0
  150.9695  140.8770  158.3264 H   0  0  0  0  0  0  0  0  0  0  0  0
  150.4766  141.8430  159.7097 H   0  0  0  0  0  0  0  0  0  0  0  0
  149.5865  144.1645  157.5534 H   0  0  0  0  0  0  0  0  0  0  0  0
  150.8539  143.6227  155.9289 H   0  0  0  0  0  0  0  0  0  0  0  0
  152.1080  142.4378  156.1812 H   0  0  0  0  0  0  0  0  0  0  0  0
  148.2913  142.4737  156.8173 H   0  0  0  0  0  0  0  0  0  0  0  0
  149.0346  136.2075  155.8071 H   0  0  0  0  0  0  0  0  0  0  0  0
  147.4350  136.7623  156.3040 H   0  0  0  0  0  0  0  0  0  0  0  0
  148.1902  134.8409  154.1321 H   0  0  0  0  0  0  0  0  0  0  0  0
  146.7508  134.8021  155.1463 H   0  0  0  0  0  0  0  0  0  0  0  0
  144.4121  136.4925  151.9105 H   0  0  0  0  0  0  0  0  0  0  0  0
  145.1800  135.8272  150.4673 H   0  0  0  0  0  0  0  0  0  0  0  0
  145.8010  137.3053  151.1824 H   0  0  0  0  0  0  0  0  0  0  0  0
  146.6379  133.4818  152.7625 H   0  0  0  0  0  0  0  0  0  0  0  0
  145.1028  134.1066  153.2829 H   0  0  0  0  0  0  0  0  0  0  0  0
  144.8267  132.5576  151.3668 H   0  0  0  0  0  0  0  0  0  0  0  0
  144.3382  134.1596  150.8538 H   0  0  0  0  0  0  0  0  0  0  0  0
  145.8494  134.0237  149.4210 H   0  0  0  0  0  0  0  0  0  0  0  0
  146.4160  138.4606  151.7354 H   0  0  0  0  0  0  0  0  0  0  0  0
  147.5303  139.5417  152.5546 H   0  0  0  0  0  0  0  0  0  0  0  0
  146.0533  139.0305  153.3618 H   0  0  0  0  0  0  0  0  0  0  0  0
  152.4827  138.3894  154.1336 H   0  0  0  0  0  0  0  0  0  0  0  0
  147.1482  135.4657  151.7492 H   0  0  0  0  0  0  0  0  0  0  0  0
  1  2  1  0  0  0  0
  1 31  1  0  0  0  0
  1 32  1  0  0  0  0
  1 33  1  0  0  0  0
  2  6  1  0  0  0  0
  2  3  1  0  0  0  0
  2 34  1  0  0  0  0
  3  4  1  0  0  0  0
  4  5  1  0  0  0  0
  4 35  1  0  0  0  0
  4 36  1  0  0  0  0
  5  6  1  0  0  0  0
  5 37  1  0  0  0  0
  5 38  1  0  0  0  0
  6  7  1  0  0  0  0
  6  8  1  0  0  0  0
  7 39  1  0  0  0  0
  8  9  1  0  0  0  0
  8 40  1  0  0  0  0
  8 41  1  0  0  0  0
  9 28  1  0  0  0  0
  9 10  1  0  0  0  0
 10 11  2  0  0  0  0
 10 42  1  0  0  0  0
 11 12  1  0  0  0  0
 12 28  2  0  0  0  0
 12 13  1  0  0  0  0
 13 14  1  0  0  0  0
 13 25  2  0  0  0  0
 14 23  1  0  0  0  0
 14 15  1  0  0  0  0
 15 16  1  0  0  0  0
 15 43  1  0  0  0  0
 15 44  1  0  0  0  0
 16 17  1  0  0  0  0
 16 45  1  0  0  0  0
 16 46  1  0  0  0  0
 17 29  1  0  0  0  0
 17 18  1  0  0  0  0
 17 23  1  0  0  0  0
 18 19  1  0  0  0  0
 18 20  1  0  0  0  0
 18 59  1  0  0  0  0
 19 47  1  0  0  0  0
 19 48  1  0  0  0  0
 19 49  1  0  0  0  0
 20 21  1  0  0  0  0
 20 50  1  0  0  0  0
 20 51  1  0  0  0  0
 21 22  1  0  0  0  0
 21 52  1  0  0  0  0
 21 53  1  0  0  0  0
 22 54  1  0  0  0  0
 23 30  1  0  0  0  0
 23 24  1  0  0  0  0
 24 55  1  0  0  0  0
 24 56  1  0  0  0  0
 24 57  1  0  0  0  0
 25 26  1  0  0  0  0
 26 27  2  0  0  0  0
 26 58  1  0  0  0  0
 27 28  1  0  0  0  0
M  CHG  1  18   1
M  END
> <s_m_source_file>
AV-unprocessed.smi

> <i_m_source_file_index>
290

> <i_lp_mmshare_version>
43012

> <i_f3d_flags>
0

> <s_epik_input>
W0NIMl0xW0NIMl1PW0NAQEhdKFtDSDNdKVtDQEBdMShbT0hdKVtDSDJdbihbY0hdbjIpYyhjMjMpbltjSF1uYzNONFtDSDJdW0NIMl1bQ0BIXShbQ0BIXTRbQ0gzXSlOKFtDSDNdKVtDSDJdW0NIMl1bT0hd

> <s_epik_cmdline>
J2VwaWtfcHl0aG9uJywgJy1waCcsICc3LjAnLCAnLXRuJywgJzgnLCAnLW1hJywgJzIwMCcsICctbWV0YWxfYmluZGluZycsICctaW1hZScsICc8aW5maWxlLm1hZT4nLCAnLW9tYWUnLCAnPG91dGZpbGUubWFlPic=

> <r_lp_tautomer_probability>
1

> <r_epik_Ionization_Penalty>
0.0036983

> <r_epik_Ionization_Penalty_Charging>
0.0032725

> <r_epik_Ionization_Penalty_Neutral>
0.000425798

> <r_epik_State_Penalty>
-0

> <r_epik_Charging_Adjusted_Penalty>
0.0032725

> <i_epik_Tot_Q>
1

> <i_epik_Tot_abs_Q>
1

> <r_epik_Metal_State_Penalty>
-0

> <b_epik_Metal_Only>
0

> <s_lp_Force_Field>
OPLS_2005

> <r_lp_Energy>
60.2599

> <b_lp_Chiralities_Consistent>
1

> <s_lp_Variant>
AV-unprocessed.smi:290-14

> <Gold.Version>
5.8.1

> <Gold.Id.Protein>
6NUR|6NUR_protein|mol2

> <Gold.PLP.Fitness>
52.1180

> <Gold.PLP.PLP>
-38.5232

> <Gold.PLP.part.hbond>
-4.6046

> <Gold.PLP.part.metal>
0.0000

> <Gold.PLP.part.buried>
2.3640

> <Gold.PLP.part.nonpolar>
-36.0453

> <Gold.PLP.part.repulsive>
0.4310

> <Gold.PLP.ligand.clash>
0.0000

> <Gold.PLP.ligand.torsion>
0.7419

> <Gold.PLP.Chemscore.Hbond>
4.1680

> <Gold.PLP.Chemscore.CHOScore>
0.6503

> <Gold.PLP.Chemscore.Metal>
0.0000

> <Gold.Chemscore.Hbonds>
donor molecule, donor type, donor heavy atom, donor atom, acceptor molecule, acceptor atom, score
      L1  H     7    39       P1  8028  0.82
      L1  H    18    59       P1  7948  1.54
      L1  H    22    54       P1  7921  0.99
      P1  H  7989  7998       L1    27  0.55
      L1  C    10    42       P1  8028  0.53

> <Gold.PLP.Chemscore.Internal.Correction>
0.6238

> <Gold.Rescore>
     Score         DG    S(hbond)    S(metal)    S(lipo)     H(rot)  DE(clash)    DE(int)     intcor
      9.27     -12.66       1.46        0.00      99.96       3.67       2.52       0.87       ----

> <Gold.Chemscore.Fitness>
9.2661

> <Gold.Chemscore.DG>
-12.6577

> <Gold.Chemscore.ZeroCoef>
-5.4800

> <Gold.Chemscore.Hbond>
1.4571

> <Gold.Chemscore.Metal>
0.0000

> <Gold.Chemscore.Lipo>
99.9601

> <Gold.Chemscore.Internal_Hbond>
0.0000

> <Gold.Chemscore.DEClash>
2.5234

> <Gold.Chemscore.DEInternal>
0.8682

> <Gold.Chemscore.Rot>
3.6658

> <Gold.Chemscore.Internal.Correction>
   9.000000E+99

> <Gold.Chemscore.Hbonds>
donor molecule, donor type, donor heavy atom, donor atom, acceptor molecule, acceptor atom, score
      L1  H     7    39       P1  8028  0.16
      L1  H    18    59       P1  7948  0.75
      L1  H    22    54       P1  7921  0.32
      P1  H  7989  7998       L1    27  0.01

> <Gold.Chemscore.Hbond.Weighted>
-4.8668

> <Gold.Chemscore.Metal.Weighted>
-0.0000

> <Gold.Chemscore.Lipo.Weighted>
-11.6953

> <Gold.Chemscore.Internal_Hbond.Weighted>
0.0000

> <Gold.Chemscore.DEClash.Weighted>
2.5234

> <Gold.Chemscore.DEInternal.Weighted>
0.8682

> <Gold.Chemscore.Rot.Weighted>
9.3844

> <Gold.Chemscore.Internal.Correction.Weighted>
   9.000000E+99

> <Gold.Protein.RotatedTorsions>
[ 6907 6896 6895 6894 ] final  -16.97 input  -60.11 | X-H torsion
[ 7974 7965 7964 7962 ] final -171.53 input  175.53 | X-H torsion
[ 8008 7997 7996 7995 ] final  -24.65 input   59.86 | X-H torsion
[ 10167 10162 10161 10158 ] final   30.88 input  -65.29 | X-H torsion
[ 10718 10713 10712 10709 ] final  154.52 input   66.30 | X-H torsion
[ 10763 10752 10751 10750 ] final   37.18 input  -60.55 | X-H torsion
[ 11005 11000 10999 10996 ] final   29.95 input  -57.11 | X-H torsion

> <Gold.Protein.ActiveResidues>
 VAL166  LYS551  ARG553  GLY616  TRP617  ASP618  TYR619  PRO620  LYS621  CYS622 
 ASP623  PHE694  ASN695  SER759  ASP760  ASP761  ALA762  ILE779  LEU786  VAL792 
 PHE793  MET794  SER795  GLU796  ALA797  LYS798  CYS799  TRP800  GLU811  SER814 

> <Gold.Protein.RotatedAtoms>
  151.3004  135.0767  159.9236 H   0  0  0  0  0  0  0  0  0  0  0  0  # atno 6907 bound_to 6896
  152.5298  133.9839  159.7829 H   0  0  0  0  0  0  0  0  0  0  0  0  # atno 6908 bound_to 6896
  151.0125  133.5901  159.2711 H   0  0  0  0  0  0  0  0  0  0  0  0  # atno 6909 bound_to 6896
  144.7156  140.1908  143.6349 H   0  0  0  0  0  0  0  0  0  0  0  0  # atno 7974 bound_to 7965
  154.4517  140.1948  156.0498 H   0  0  0  0  0  0  0  0  0  0  0  0  # atno 8008 bound_to 7997
  156.0663  140.3290  155.7494 H   0  0  0  0  0  0  0  0  0  0  0  0  # atno 8009 bound_to 7997
  155.5334  140.0580  157.2875 H   0  0  0  0  0  0  0  0  0  0  0  0  # atno 8010 bound_to 7997
  140.4638  144.0866  150.6219 H   0  0  0  0  0  0  0  0  0  0  0  0  # atno 10167 bound_to 10162
  157.2305  131.0738  151.1856 H   0  0  0  0  0  0  0  0  0  0  0  0  # atno 10718 bound_to 10713
  153.0047  135.6285  154.2104 H   0  0  0  0  0  0  0  0  0  0  0  0  # atno 10763 bound_to 10752
  154.1848  135.2811  155.3042 H   0  0  0  0  0  0  0  0  0  0  0  0  # atno 10764 bound_to 10752
  154.5806  135.5648  153.7241 H   0  0  0  0  0  0  0  0  0  0  0  0  # atno 10765 bound_to 10752
  140.2995  134.2772  155.7757 H   0  0  0  0  0  0  0  0  0  0  0  0  # atno 11005 bound_to 11000
  145.8770  139.2302  143.1627 LP  0  0  0  0  0  0  0  0  0  0  0  0  # atno 17320 bound_to 7965
  146.0031  140.8503  143.0009 LP  0  0  0  0  0  0  0  0  0  0  0  0  # atno 17321 bound_to 7965
  140.4061  143.2680  151.9889 LP  0  0  0  0  0  0  0  0  0  0  0  0  # atno 17342 bound_to 10162
  139.4809  144.5956  151.7696 LP  0  0  0  0  0  0  0  0  0  0  0  0  # atno 17343 bound_to 10162
  157.3482  130.7068  149.6424 LP  0  0  0  0  0  0  0  0  0  0  0  0  # atno 17370 bound_to 10713
  155.9676  130.4260  150.4679 LP  0  0  0  0  0  0  0  0  0  0  0  0  # atno 17371 bound_to 10713
  141.2131  133.7637  156.9746 LP  0  0  0  0  0  0  0  0  0  0  0  0  # atno 17394 bound_to 11000
  140.1122  134.9470  157.2082 LP  0  0  0  0  0  0  0  0  0  0  0  0  # atno 17395 bound_to 11000

$$$$
