AV-unprocessed.smi:1867|AV-procd|sdf|7573|dock2
  -GOLD-   22720 9283D 1   1.00000     0.00000
 Structure written by MMmdl.
 53 56  0  0  0  0  0  0  0  0  3 V2000
  146.6803  139.8742  153.6911 O   0  0  0  0  0  0  0  0  0  0  0  0
  147.5262  139.0621  153.3261 C   0  0  0  0  0  0  0  0  0  0  0  0
  148.8274  139.0896  153.6785 N   0  0  0  0  0  0  0  0  0  0  0  0
  149.5191  140.0107  154.5137 C   0  0  0  0  0  0  0  0  0  0  0  0
  150.6225  139.5211  155.2445 C   0  0  0  0  0  0  0  0  0  0  0  0
  151.3444  140.3844  156.0939 C   0  0  0  0  0  0  0  0  0  0  0  0
  150.9560  141.7399  156.2080 C   0  0  0  0  0  0  0  0  0  0  0  0
  151.6215  142.6605  157.0397 N   0  0  0  0  0  0  0  0  0  0  0  0
  151.4232  144.0936  156.9045 C   0  0  0  0  0  0  0  0  0  0  0  0
  152.1979  144.7017  158.0731 C   0  0  0  0  0  0  0  0  0  0  0  0
  152.0721  143.6387  159.1647 C   0  0  0  0  0  0  0  0  0  0  0  0
  152.0319  142.3137  158.3945 C   0  0  0  0  0  0  0  0  0  0  0  0
  149.8868  142.1660  155.4950 N   0  3  0  0  0  0  0  0  0  0  0  0
  149.1676  141.3738  154.6707 C   0  0  0  0  0  0  0  0  0  0  0  0
  147.1981  138.0454  152.5088 N   0  0  0  0  0  0  0  0  0  0  0  0
  145.8878  137.7239  151.9420 C   0  0  1  0  0  0  0  0  0  0  0  0
  145.8849  136.5152  151.0093 C   0  0  0  0  0  0  0  0  0  0  0  0
  144.4091  136.1117  151.0059 C   0  0  0  0  0  0  0  0  0  0  0  0
  143.8963  136.4286  152.3586 N   0  3  2  0  0  0  0  0  0  0  0  0
  142.4899  136.8992  152.3931 C   0  0  0  0  0  0  0  0  0  0  0  0
  142.0479  137.1901  153.8397 C   0  0  0  0  0  0  0  0  0  0  0  0
  143.0407  138.0881  154.6086 C   0  0  0  0  0  0  0  0  0  0  0  0
  144.2310  138.5240  153.7403 C   0  0  0  0  0  0  0  0  0  0  0  0
  144.8857  137.3164  153.0328 C   0  0  2  0  0  0  0  0  0  0  0  0
  149.4010  138.3624  153.2775 H   0  0  0  0  0  0  0  0  0  0  0  0
  150.9193  138.4859  155.1579 H   0  0  0  0  0  0  0  0  0  0  0  0
  152.1851  139.9940  156.6478 H   0  0  0  0  0  0  0  0  0  0  0  0
  151.7876  144.4650  155.9463 H   0  0  0  0  0  0  0  0  0  0  0  0
  150.3597  144.3227  156.9856 H   0  0  0  0  0  0  0  0  0  0  0  0
  153.2465  144.8236  157.7983 H   0  0  0  0  0  0  0  0  0  0  0  0
  151.8135  145.6757  158.3774 H   0  0  0  0  0  0  0  0  0  0  0  0
  152.8817  143.6794  159.8940 H   0  0  0  0  0  0  0  0  0  0  0  0
  151.1323  143.7781  159.7009 H   0  0  0  0  0  0  0  0  0  0  0  0
  151.3485  141.6083  158.8689 H   0  0  0  0  0  0  0  0  0  0  0  0
  153.0220  141.8584  158.3562 H   0  0  0  0  0  0  0  0  0  0  0  0
  148.3437  141.8720  154.1840 H   0  0  0  0  0  0  0  0  0  0  0  0
  147.9499  137.4197  152.2555 H   0  0  0  0  0  0  0  0  0  0  0  0
  145.4916  138.5867  151.4026 H   0  0  0  0  0  0  0  0  0  0  0  0
  146.2615  136.7425  150.0115 H   0  0  0  0  0  0  0  0  0  0  0  0
  146.4924  135.7099  151.4258 H   0  0  0  0  0  0  0  0  0  0  0  0
  143.8778  136.7038  150.2588 H   0  0  0  0  0  0  0  0  0  0  0  0
  144.2639  135.0594  150.7608 H   0  0  0  0  0  0  0  0  0  0  0  0
  142.3868  137.7971  151.7815 H   0  0  0  0  0  0  0  0  0  0  0  0
  141.8425  136.1419  151.9495 H   0  0  0  0  0  0  0  0  0  0  0  0
  141.0600  137.6520  153.8308 H   0  0  0  0  0  0  0  0  0  0  0  0
  141.9318  136.2476  154.3768 H   0  0  0  0  0  0  0  0  0  0  0  0
  142.5272  138.9677  154.9986 H   0  0  0  0  0  0  0  0  0  0  0  0
  143.4125  137.5460  155.4792 H   0  0  0  0  0  0  0  0  0  0  0  0
  143.8851  139.2497  153.0026 H   0  0  0  0  0  0  0  0  0  0  0  0
  144.9686  139.0459  154.3510 H   0  0  0  0  0  0  0  0  0  0  0  0
  145.3877  136.6951  153.7767 H   0  0  0  0  0  0  0  0  0  0  0  0
  143.9147  135.5643  152.8814 H   0  0  0  0  0  0  0  0  0  0  0  0
  149.6058  143.1425  155.5858 H   0  0  0  0  0  0  0  0  0  0  0  0
  1  2  2  0  0  0  0
  2  3  1  0  0  0  0
  2 15  1  0  0  0  0
  3  4  1  0  0  0  0
  3 25  1  0  0  0  0
  4 14  1  0  0  0  0
  4  5  2  0  0  0  0
  5  6  1  0  0  0  0
  5 26  1  0  0  0  0
  6  7  2  0  0  0  0
  6 27  1  0  0  0  0
  7  8  1  0  0  0  0
  7 13  1  0  0  0  0
  8 12  1  0  0  0  0
  8  9  1  0  0  0  0
  9 10  1  0  0  0  0
  9 28  1  0  0  0  0
  9 29  1  0  0  0  0
 10 11  1  0  0  0  0
 10 30  1  0  0  0  0
 10 31  1  0  0  0  0
 11 12  1  0  0  0  0
 11 32  1  0  0  0  0
 11 33  1  0  0  0  0
 12 34  1  0  0  0  0
 12 35  1  0  0  0  0
 13 14  2  0  0  0  0
 13 53  1  0  0  0  0
 14 36  1  0  0  0  0
 15 16  1  0  0  0  0
 15 37  1  0  0  0  0
 16 24  1  0  0  0  0
 16 17  1  0  0  0  0
 16 38  1  0  0  0  0
 17 18  1  0  0  0  0
 17 39  1  0  0  0  0
 17 40  1  0  0  0  0
 18 19  1  0  0  0  0
 18 41  1  0  0  0  0
 18 42  1  0  0  0  0
 19 24  1  0  0  0  0
 19 20  1  0  0  0  0
 19 52  1  0  0  0  0
 20 21  1  0  0  0  0
 20 43  1  0  0  0  0
 20 44  1  0  0  0  0
 21 22  1  0  0  0  0
 21 45  1  0  0  0  0
 21 46  1  0  0  0  0
 22 23  1  0  0  0  0
 22 47  1  0  0  0  0
 22 48  1  0  0  0  0
 23 24  1  0  0  0  0
 23 49  1  0  0  0  0
 23 50  1  0  0  0  0
 24 51  1  0  0  0  0
M  CHG  1  13   1
M  CHG  1  19   1
M  END
> <s_m_source_file>
AV-unprocessed.smi

> <i_m_source_file_index>
1867

> <i_lp_mmshare_version>
43012

> <i_f3d_flags>
0

> <s_epik_input>
W0NIMl0xW0NIMl1bQ0gyXVtDSDJdW0NASF0oTjEyKVtDQEBIXShbQ0gyXVtDSDJdMilbTkhdQyg9TylbTkhdYzNbY0hdW2NIXWMobltjSF0zKU40W0NIMl1bQ0gyXVtDSDJdW0NIMl00

> <s_epik_cmdline>
J2VwaWtfcHl0aG9uJywgJy1waCcsICc3LjAnLCAnLXRuJywgJzgnLCAnLW1hJywgJzIwMCcsICctbWV0YWxfYmluZGluZycsICctaW1hZScsICc8aW5maWxlLm1hZT4nLCAnLW9tYWUnLCAnPG91dGZpbGUubWFlPic=

> <r_lp_tautomer_probability>
0.999994

> <r_epik_Ionization_Penalty>
1.27347

> <r_epik_Ionization_Penalty_Charging>
1.27345

> <r_epik_Ionization_Penalty_Neutral>
1.96458e-05

> <r_epik_State_Penalty>
1.34393

> <r_epik_Charging_Adjusted_Penalty>
2.61738

> <i_epik_Tot_Q>
2

> <i_epik_Tot_abs_Q>
2

> <r_epik_Metal_State_Penalty>
1.41094

> <b_epik_Metal_Only>
0

> <s_lp_Force_Field>
OPLS_2005

> <r_lp_Energy>
84.8883

> <b_lp_Chiralities_Consistent>
1

> <s_lp_Variant>
AV-unprocessed.smi:1867-14

> <Gold.Version>
5.8.1

> <Gold.Id.Protein>
6NUR|6NUR_protein|mol2

> <Gold.PLP.Fitness>
48.9103

> <Gold.PLP.PLP>
-40.9673

> <Gold.PLP.part.hbond>
-3.0000

> <Gold.PLP.part.metal>
0.0000

> <Gold.PLP.part.buried>
-2.4949

> <Gold.PLP.part.nonpolar>
-35.7865

> <Gold.PLP.part.repulsive>
0.4049

> <Gold.PLP.ligand.clash>
0.0000

> <Gold.PLP.ligand.torsion>
0.6233

> <Gold.PLP.Chemscore.Hbond>
3.0000

> <Gold.PLP.Chemscore.CHOScore>
0.0000

> <Gold.PLP.Chemscore.Metal>
0.0000

> <Gold.Chemscore.Hbonds>
donor molecule, donor type, donor heavy atom, donor atom, acceptor molecule, acceptor atom, score
      L1  H    13    53       P1  8028  2.00
      L1  H    15    37       P1  7948  1.00

> <Gold.PLP.Chemscore.Internal.Correction>
0.1897

> <Gold.Rescore>
     Score         DG    S(hbond)    S(metal)    S(lipo)     H(rot)  DE(clash)    DE(int)     intcor
     19.14     -21.42       2.00        0.00     101.05       1.00       0.25       2.03       ----

> <Gold.Chemscore.Fitness>
19.1425

> <Gold.Chemscore.DG>
-21.4186

> <Gold.Chemscore.ZeroCoef>
-5.4800

> <Gold.Chemscore.Hbond>
1.9989

> <Gold.Chemscore.Metal>
0.0000

> <Gold.Chemscore.Lipo>
101.0460

> <Gold.Chemscore.Internal_Hbond>
0.0000

> <Gold.Chemscore.DEClash>
0.2473

> <Gold.Chemscore.DEInternal>
2.0288

> <Gold.Chemscore.Rot>
1.0000

> <Gold.Chemscore.Internal.Correction>
   9.000000E+99

> <Gold.Chemscore.Hbonds>
donor molecule, donor type, donor heavy atom, donor atom, acceptor molecule, acceptor atom, score
      L1  H    13    53       P1  8028  1.00
      L1  H    15    37       P1  7948  0.98

> <Gold.Chemscore.Hbond.Weighted>
-6.6762

> <Gold.Chemscore.Metal.Weighted>
-0.0000

> <Gold.Chemscore.Lipo.Weighted>
-11.8224

> <Gold.Chemscore.Internal_Hbond.Weighted>
0.0000

> <Gold.Chemscore.DEClash.Weighted>
0.2473

> <Gold.Chemscore.DEInternal.Weighted>
2.0288

> <Gold.Chemscore.Rot.Weighted>
2.5600

> <Gold.Chemscore.Internal.Correction.Weighted>
   9.000000E+99

> <Gold.Protein.RotatedTorsions>
[ 6907 6896 6895 6894 ] final   42.13 input  -60.11 | X-H torsion
[ 7974 7965 7964 7962 ] final  -34.36 input  175.53 | X-H torsion
[ 8008 7997 7996 7995 ] final  -16.51 input   59.86 | X-H torsion
[ 10167 10162 10161 10158 ] final   41.41 input  -65.29 | X-H torsion
[ 10718 10713 10712 10709 ] final  119.55 input   66.30 | X-H torsion
[ 10763 10752 10751 10750 ] final -118.56 input  -60.55 | X-H torsion
[ 11005 11000 10999 10996 ] final -136.24 input  -57.11 | X-H torsion

> <Gold.Protein.ActiveResidues>
 VAL166  LYS551  ARG553  GLY616  TRP617  ASP618  TYR619  PRO620  LYS621  CYS622 
 ASP623  PHE694  ASN695  SER759  ASP760  ASP761  ALA762  ILE779  LEU786  VAL792 
 PHE793  MET794  SER795  GLU796  ALA797  LYS798  CYS799  TRP800  GLU811  SER814 

> <Gold.Protein.RotatedAtoms>
  152.2040  134.8562  160.0504 H   0  0  0  0  0  0  0  0  0  0  0  0  # atno 6907 bound_to 6896
  151.9405  133.3631  159.3971 H   0  0  0  0  0  0  0  0  0  0  0  0  # atno 6908 bound_to 6896
  150.6961  134.4369  159.5318 H   0  0  0  0  0  0  0  0  0  0  0  0  # atno 6909 bound_to 6896
  146.0836  140.6029  142.8897 H   0  0  0  0  0  0  0  0  0  0  0  0  # atno 7974 bound_to 7965
  154.5048  140.2167  155.9274 H   0  0  0  0  0  0  0  0  0  0  0  0  # atno 8008 bound_to 7997
  156.1479  140.3167  155.8568 H   0  0  0  0  0  0  0  0  0  0  0  0  # atno 8009 bound_to 7997
  155.3995  140.0483  157.3028 H   0  0  0  0  0  0  0  0  0  0  0  0  # atno 8010 bound_to 7997
  140.3645  144.2185  150.6136 H   0  0  0  0  0  0  0  0  0  0  0  0  # atno 10167 bound_to 10162
  157.5954  131.1059  150.7912 H   0  0  0  0  0  0  0  0  0  0  0  0  # atno 10718 bound_to 10713
  154.8591  135.4270  154.2158 H   0  0  0  0  0  0  0  0  0  0  0  0  # atno 10763 bound_to 10752
  153.3173  135.6980  153.7067 H   0  0  0  0  0  0  0  0  0  0  0  0  # atno 10764 bound_to 10752
  153.6136  135.3515  155.2961 H   0  0  0  0  0  0  0  0  0  0  0  0  # atno 10765 bound_to 10752
  140.8823  134.1916  157.4583 H   0  0  0  0  0  0  0  0  0  0  0  0  # atno 11005 bound_to 11000
  144.7310  140.4671  143.6938 LP  0  0  0  0  0  0  0  0  0  0  0  0  # atno 17320 bound_to 7965
  145.6172  139.1520  143.3042 LP  0  0  0  0  0  0  0  0  0  0  0  0  # atno 17321 bound_to 7965
  140.5094  143.2295  151.8559 LP  0  0  0  0  0  0  0  0  0  0  0  0  # atno 17342 bound_to 10162
  139.4810  144.4968  151.9114 LP  0  0  0  0  0  0  0  0  0  0  0  0  # atno 17343 bound_to 10162
  156.8324  130.5020  149.5330 LP  0  0  0  0  0  0  0  0  0  0  0  0  # atno 17370 bound_to 10713
  156.1015  130.5973  150.9902 LP  0  0  0  0  0  0  0  0  0  0  0  0  # atno 17371 bound_to 10713
  139.8721  134.9823  156.5149 LP  0  0  0  0  0  0  0  0  0  0  0  0  # atno 17394 bound_to 11000
  140.8446  133.8178  155.9108 LP  0  0  0  0  0  0  0  0  0  0  0  0  # atno 17395 bound_to 11000

$$$$
