#       Name:                AV-unprocessed.smi:1703
#       Creating user name   scv26
#       Creation time:       Fri Mar 27 08:06:28 2020


#       File generated by GOLD software.
#

@<TRIPOS>MOLECULE
AV-unprocessed.smi:1703
    56    58     1
SMALL
NO_CHARGES


@<TRIPOS>ATOM
      1 ****        -5.1880   1.2722  -2.6507 C.3            1 S1                 0.0000
      2 ****        -3.8970   1.3800  -1.8325 C.3            1 S1                 0.0000
      3 ****        -3.1133   0.0535  -1.8017 C.3            1 S1                 0.0000
      4 ****        -1.9168   0.1403  -0.9690 N.3            1 S1                 0.0000
      5 ****        -1.1837  -1.1292  -0.9698 C.3            1 S1                 0.0000
      6 ****         0.3443  -1.0339  -0.7593 C.3            1 S1                 0.0000
      7 ****         0.8819  -2.2922  -1.1176 O.3            1 S1                 0.0000
      8 ****         0.8007  -0.6932   0.6771 C.3            1 S1                 0.0000
      9 ****         2.2478  -0.8647   0.8841 N.pl3          1 S1                 0.0000
     10 ****         2.9423  -1.8711   1.4893 C.2            1 S1                 0.0000
     11 ****         2.3632  -3.1028   2.1101 C.3            1 S1                 0.0000
     12 ****         3.3428  -4.0071   2.5757 O.3            1 S1                 0.0000
     13 ****         4.2646  -1.5431   1.4189 N.pl3          1 S1                 1.0000
     14 ****         4.4163  -0.3188   0.7670 C.ar           1 S1                 0.0000
     15 ****         5.5566   0.4173   0.4605 C.ar           1 S1                 0.0000
     16 ****         5.3584   1.6383  -0.2176 C.ar           1 S1                 0.0000
     17 ****         4.0663   2.0851  -0.5634 C.ar           1 S1                 0.0000
     18 ****         2.9175   1.3303  -0.2468 C.ar           1 S1                 0.0000
     19 ****         3.1233   0.1240   0.4222 C.ar           1 S1                 0.0000
     20 ****        -2.3327   0.5498   0.3721 C.3            1 S1                 0.0000
     21 ****        -3.1102   1.8798   0.3564 C.3            1 S1                 0.0000
     22 ****        -3.6068   2.2766   1.7506 C.3            1 S1                 0.0000
     23 ****        -4.2406   1.7477  -0.5000 O.3            1 S1                 0.0000
     24 ****        -4.9752   1.0010  -3.6849 H              1 S1                 0.0000
     25 ****        -5.7236   2.2218  -2.6594 H              1 S1                 0.0000
     26 ****        -5.8558   0.5166  -2.2361 H              1 S1                 0.0000
     27 ****        -3.2723   2.1635  -2.2654 H              1 S1                 0.0000
     28 ****        -3.7612  -0.7449  -1.4354 H              1 S1                 0.0000
     29 ****        -2.8341  -0.2162  -2.8212 H              1 S1                 0.0000
     30 ****        -1.6279  -1.8263  -0.2575 H              1 S1                 0.0000
     31 ****        -1.3218  -1.5971  -1.9462 H              1 S1                 0.0000
     32 ****         0.7537  -0.3031  -1.4572 H              1 S1                 0.0000
     33 ****         1.8244  -2.2363  -1.0789 H              1 S1                 0.0000
     34 ****         0.5633   0.3376   0.9330 H              1 S1                 0.0000
     35 ****         0.2844  -1.3261   1.3996 H              1 S1                 0.0000
     36 ****         1.7230  -2.8151   2.9445 H              1 S1                 0.0000
     37 ****         1.7346  -3.6109   1.3785 H              1 S1                 0.0000
     38 ****         2.9050  -4.7581   2.9476 H              1 S1                 0.0000
     39 ****         6.5474   0.0778   0.7251 H              1 S1                 0.0000
     40 ****         6.2142   2.2445  -0.4772 H              1 S1                 0.0000
     41 ****         3.9536   3.0262  -1.0822 H              1 S1                 0.0000
     42 ****         1.9321   1.6808  -0.5161 H              1 S1                 0.0000
     43 ****        -2.9579  -0.2268   0.8155 H              1 S1                 0.0000
     44 ****        -1.4770   0.6613   1.0300 H              1 S1                 0.0000
     45 ****        -2.4667   2.6742  -0.0258 H              1 S1                 0.0000
     46 ****        -2.7745   2.3954   2.4448 H              1 S1                 0.0000
     47 ****        -4.2795   1.5220   2.1594 H              1 S1                 0.0000
     48 ****        -4.1486   3.2220   1.7162 H              1 S1                 0.0000
     49 ****         5.0055  -2.1220   1.7937 H              1 S1                 0.0000
     50 ****        -1.2808   0.8203  -1.3337 LP             1 S1                 0.0000
     51 ****         0.5956  -2.5297  -2.0458 LP             1 S1                 0.0000
     52 ****         0.5586  -2.9914  -0.4799 LP             1 S1                 0.0000
     53 ****         3.9056  -3.5647   3.2739 LP             1 S1                 0.0000
     54 ****         3.9228  -4.2974   1.8146 LP             1 S1                 0.0000
     55 ****        -4.8446   1.0457  -0.1226 LP             1 S1                 0.0000
     56 ****        -4.7230   2.6233  -0.5265 LP             1 S1                 0.0000
@<TRIPOS>BOND
    1    1    2 1     
    2    1   24 1     
    3    1   25 1     
    4    1   26 1     
    5    2   23 1     
    6    2    3 1     
    7    2   27 1     
    8    3    4 1     
    9    3   28 1     
   10    3   29 1     
   11    4    5 1     
   12    4   20 1     
   13    5    6 1     
   14    5   30 1     
   15    5   31 1     
   16    6    7 1     
   17    6    8 1     
   18    6   32 1     
   19    7   33 1     
   20    8    9 1     
   21    8   34 1     
   22    8   35 1     
   23    9   19 1     
   24    9   10 1     
   25   10   11 1     
   26   10   13 2     
   27   11   12 1     
   28   11   36 1     
   29   11   37 1     
   30   12   38 1     
   31   13   14 1     
   32   13   49 1     
   33   14   19 ar    
   34   14   15 ar    
   35   15   16 ar    
   36   15   39 1     
   37   16   17 ar    
   38   16   40 1     
   39   17   18 ar    
   40   17   41 1     
   41   18   19 ar    
   42   18   42 1     
   43   20   21 1     
   44   20   43 1     
   45   20   44 1     
   46   21   22 1     
   47   21   23 1     
   48   21   45 1     
   49   22   46 1     
   50   22   47 1     
   51   22   48 1     
   52    4   50 1     
   53    7   51 1     
   54    7   52 1     
   55   12   53 1     
   56   12   54 1     
   57   23   55 1     
   58   23   56 1     
@<TRIPOS>SUBSTRUCTURE
      1 S1             1
@<TRIPOS>SET
LONE_PAIRS      STATIC     ATOMS    <user>   **** ""
7 50 51 52 53 54 55 56
DONOR_HYDROGENS      STATIC     ATOMS    <user>   **** ""
3 33 38 49
ATOM$BLUE        STATIC     ATOMS    COLORGROUP SYSTEM
7 50 51 52 53 54 55 56
ATOM$RED        STATIC     ATOMS    COLORGROUP SYSTEM
3 33 38 49
