AV-unprocessed.smi:1296|AV-procd|sdf|5415|dock2
  -GOLD-   22720 4573D 1   1.00000     0.00000
 Structure written by MMmdl.
 35 35  0  0  0  0  0  0  0  0  2 V2000
  151.0147  142.7740  157.6021 C   0  0  0  0  0  0  0  0  0  0  0  0
  151.0094  141.6828  156.5530 C   0  0  0  0  0  0  0  0  0  0  0  0
  149.9018  141.3375  156.0155 N   0  0  0  0  0  0  0  0  0  0  0  0
  149.8914  140.3212  155.0453 C   0  0  0  0  0  0  0  0  0  0  0  0
  148.5309  139.9706  154.4681 C   0  0  0  0  0  0  0  0  0  0  0  0
  151.0428  139.6983  154.6621 C   0  0  0  0  0  0  0  0  0  0  0  0
  151.0791  138.5810  153.6191 C   0  0  0  0  0  0  0  0  0  0  0  0
  151.6033  137.2298  154.1108 C   0  0  0  0  0  0  0  0  0  0  0  0
  152.6516  137.1677  154.7528 O   0  0  0  0  0  0  0  0  0  0  0  0
  150.8632  136.1561  153.7944 N   0  0  0  0  0  0  0  0  0  0  0  0
  151.1763  134.7746  154.1456 C   0  0  0  0  0  0  0  0  0  0  0  0
  150.3544  133.7757  153.3080 C   0  0  0  0  0  0  0  0  0  0  0  0
  148.8929  133.6819  153.7801 C   0  0  0  0  0  0  0  0  0  0  0  0
  151.0152  132.3892  153.3130 C   0  0  0  0  0  0  0  0  0  0  0  0
  152.2992  140.1314  155.3002 C   0  0  0  0  0  0  0  0  0  0  0  0
  153.3690  139.6131  154.9825 O   0  0  0  0  0  0  0  0  0  0  0  0
  152.2248  141.1170  156.2398 N   0  5  0  0  0  0  0  0  0  0  0  0
  150.0399  143.2592  157.6694 H   0  0  0  0  0  0  0  0  0  0  0  0
  151.7570  143.5341  157.3567 H   0  0  0  0  0  0  0  0  0  0  0  0
  151.2577  142.3552  158.5790 H   0  0  0  0  0  0  0  0  0  0  0  0
  148.2753  138.9350  154.6923 H   0  0  0  0  0  0  0  0  0  0  0  0
  148.5263  140.1051  153.3863 H   0  0  0  0  0  0  0  0  0  0  0  0
  147.7494  140.6064  154.8860 H   0  0  0  0  0  0  0  0  0  0  0  0
  150.0923  138.4220  153.1841 H   0  0  0  0  0  0  0  0  0  0  0  0
  151.6946  138.9189  152.7849 H   0  0  0  0  0  0  0  0  0  0  0  0
  150.0175  136.3089  153.2644 H   0  0  0  0  0  0  0  0  0  0  0  0
  152.2415  134.6215  153.9690 H   0  0  0  0  0  0  0  0  0  0  0  0
  151.0083  134.5856  155.2072 H   0  0  0  0  0  0  0  0  0  0  0  0
  150.3472  134.1281  152.2755 H   0  0  0  0  0  0  0  0  0  0  0  0
  148.8337  133.3595  154.8202 H   0  0  0  0  0  0  0  0  0  0  0  0
  148.3313  132.9670  153.1781 H   0  0  0  0  0  0  0  0  0  0  0  0
  148.3823  134.6418  153.7007 H   0  0  0  0  0  0  0  0  0  0  0  0
  151.0562  131.9730  154.3202 H   0  0  0  0  0  0  0  0  0  0  0  0
  152.0356  132.4383  152.9317 H   0  0  0  0  0  0  0  0  0  0  0  0
  150.4647  131.6879  152.6853 H   0  0  0  0  0  0  0  0  0  0  0  0
  1  2  1  0  0  0  0
  1 18  1  0  0  0  0
  1 19  1  0  0  0  0
  1 20  1  0  0  0  0
  2 17  1  0  0  0  0
  2  3  2  0  0  0  0
  3  4  1  0  0  0  0
  4  5  1  0  0  0  0
  4  6  2  0  0  0  0
  5 21  1  0  0  0  0
  5 22  1  0  0  0  0
  5 23  1  0  0  0  0
  6  7  1  0  0  0  0
  6 15  1  0  0  0  0
  7  8  1  0  0  0  0
  7 24  1  0  0  0  0
  7 25  1  0  0  0  0
  8  9  2  0  0  0  0
  8 10  1  0  0  0  0
 10 11  1  0  0  0  0
 10 26  1  0  0  0  0
 11 12  1  0  0  0  0
 11 27  1  0  0  0  0
 11 28  1  0  0  0  0
 12 13  1  0  0  0  0
 12 14  1  0  0  0  0
 12 29  1  0  0  0  0
 13 30  1  0  0  0  0
 13 31  1  0  0  0  0
 13 32  1  0  0  0  0
 14 33  1  0  0  0  0
 14 34  1  0  0  0  0
 14 35  1  0  0  0  0
 15 16  2  0  0  0  0
 15 17  1  0  0  0  0
M  CHG  1  17  -1
M  END
> <s_m_source_file>
AV-unprocessed.smi

> <i_m_source_file_index>
1296

> <i_lp_mmshare_version>
43012

> <i_f3d_flags>
0

> <s_epik_input>
W0NIM11jMW5jKFtDSDNdKWMoYyg9TylbbkhdMSlbQ0gyXUMoPU8pW05IXVtDSDJdW0NIXShbQ0gzXSlbQ0gzXQ==

> <s_epik_cmdline>
J2VwaWtfcHl0aG9uJywgJy1waCcsICc3LjAnLCAnLXRuJywgJzgnLCAnLW1hJywgJzIwMCcsICctbWV0YWxfYmluZGluZycsICctaW1hZScsICc8aW5maWxlLm1hZT4nLCAnLW9tYWUnLCAnPG91dGZpbGUubWFlPic=

> <r_lp_tautomer_probability>
0.839158

> <r_epik_Ionization_Penalty>
6.60351

> <r_epik_Ionization_Penalty_Charging>
6.70818e-08

> <r_epik_Ionization_Penalty_Neutral>
6.60351

> <r_epik_State_Penalty>
4.42903

> <r_epik_Charging_Adjusted_Penalty>
4.42903

> <i_epik_Tot_Q>
-1

> <i_epik_Tot_abs_Q>
1

> <r_epik_Metal_State_Penalty>
0.797668

> <b_epik_Metal_Only>
1

> <s_lp_Force_Field>
OPLS_2005

> <r_lp_Energy>
9.77774

> <b_lp_Chiralities_Consistent>
1

> <s_lp_Variant>
AV-unprocessed.smi:1296-3

> <Gold.Version>
5.8.1

> <Gold.Id.Protein>
6NUR|6NUR_protein|mol2

> <Gold.PLP.Fitness>
40.7178

> <Gold.PLP.PLP>
-32.6354

> <Gold.PLP.part.hbond>
-4.0465

> <Gold.PLP.part.metal>
0.0000

> <Gold.PLP.part.buried>
-0.3834

> <Gold.PLP.part.nonpolar>
-28.3436

> <Gold.PLP.part.repulsive>
0.1911

> <Gold.PLP.ligand.clash>
0.0000

> <Gold.PLP.ligand.torsion>
0.3831

> <Gold.PLP.Chemscore.Hbond>
2.9440

> <Gold.PLP.Chemscore.CHOScore>
0.0000

> <Gold.PLP.Chemscore.Metal>
0.0000

> <Gold.Chemscore.Hbonds>
donor molecule, donor type, donor heavy atom, donor atom, acceptor molecule, acceptor atom, score
      L1  H    10    26       P1  7948  0.50
      P1  H  7997  8009       L1    16  0.99
      P1  H 10752 10763       L1     9  0.43

> <Gold.PLP.Chemscore.Internal.Correction>
0.0166

> <Gold.Rescore>
     Score         DG    S(hbond)    S(metal)    S(lipo)     H(rot)  DE(clash)    DE(int)     intcor
     13.74     -15.69       2.43        0.00      54.78       1.68       0.17       1.77       ----

> <Gold.Chemscore.Fitness>
13.7446

> <Gold.Chemscore.DG>
-15.6901

> <Gold.Chemscore.ZeroCoef>
-5.4800

> <Gold.Chemscore.Hbond>
2.4263

> <Gold.Chemscore.Metal>
0.0000

> <Gold.Chemscore.Lipo>
54.7780

> <Gold.Chemscore.Internal_Hbond>
0.0000

> <Gold.Chemscore.DEClash>
0.1729

> <Gold.Chemscore.DEInternal>
1.7727

> <Gold.Chemscore.Rot>
1.6808

> <Gold.Chemscore.Internal.Correction>
   9.000000E+99

> <Gold.Chemscore.Hbonds>
donor molecule, donor type, donor heavy atom, donor atom, acceptor molecule, acceptor atom, score
      L1  H    10    26       P1  7948  0.02
      P1  H  7997  8009       L1    16  0.56
      P1  H 10752 10763       L1     9  0.20

> <Gold.Chemscore.Hbond.Weighted>
-8.1040

> <Gold.Chemscore.Metal.Weighted>
-0.0000

> <Gold.Chemscore.Lipo.Weighted>
-6.4090

> <Gold.Chemscore.Internal_Hbond.Weighted>
0.0000

> <Gold.Chemscore.DEClash.Weighted>
0.1729

> <Gold.Chemscore.DEInternal.Weighted>
1.7727

> <Gold.Chemscore.Rot.Weighted>
4.3029

> <Gold.Chemscore.Internal.Correction.Weighted>
   9.000000E+99

> <Gold.Protein.RotatedTorsions>
[ 6907 6896 6895 6894 ] final   70.67 input  -60.11 | X-H torsion
[ 7974 7965 7964 7962 ] final    9.29 input  175.53 | X-H torsion
[ 8008 7997 7996 7995 ] final -137.62 input   59.86 | X-H torsion
[ 10167 10162 10161 10158 ] final -138.65 input  -65.29 | X-H torsion
[ 10718 10713 10712 10709 ] final  -12.47 input   66.30 | X-H torsion
[ 10763 10752 10751 10750 ] final   71.25 input  -60.55 | X-H torsion
[ 11005 11000 10999 10996 ] final -146.13 input  -57.11 | X-H torsion

> <Gold.Protein.ActiveResidues>
 VAL166  LYS551  ARG553  GLY616  TRP617  ASP618  TYR619  PRO620  LYS621  CYS622 
 ASP623  PHE694  ASN695  SER759  ASP760  ASP761  ALA762  ILE779  LEU786  VAL792 
 PHE793  MET794  SER795  GLU796  ALA797  LYS798  CYS799  TRP800  GLU811  SER814 

> <Gold.Protein.RotatedAtoms>
  152.4764  134.4834  159.9672 H   0  0  0  0  0  0  0  0  0  0  0  0  # atno 6907 bound_to 6896
  151.4849  133.3532  159.2852 H   0  0  0  0  0  0  0  0  0  0  0  0  # atno 6908 bound_to 6896
  150.8805  134.8222  159.7283 H   0  0  0  0  0  0  0  0  0  0  0  0  # atno 6909 bound_to 6896
  146.2405  139.9805  142.8436 H   0  0  0  0  0  0  0  0  0  0  0  0  # atno 7974 bound_to 7965
  155.4148  140.0514  157.3029 H   0  0  0  0  0  0  0  0  0  0  0  0  # atno 8008 bound_to 7997
  154.4930  140.2127  155.9468 H   0  0  0  0  0  0  0  0  0  0  0  0  # atno 8009 bound_to 7997
  156.1367  140.3162  155.8437 H   0  0  0  0  0  0  0  0  0  0  0  0  # atno 8010 bound_to 7997
  139.8457  143.7263  152.2661 H   0  0  0  0  0  0  0  0  0  0  0  0  # atno 10167 bound_to 10162
  156.6441  130.4936  149.6085 H   0  0  0  0  0  0  0  0  0  0  0  0  # atno 10718 bound_to 10713
  153.0388  135.5144  154.7564 H   0  0  0  0  0  0  0  0  0  0  0  0  # atno 10763 bound_to 10752
  154.6518  135.2926  154.9979 H   0  0  0  0  0  0  0  0  0  0  0  0  # atno 10764 bound_to 10752
  154.0860  135.6657  153.4897 H   0  0  0  0  0  0  0  0  0  0  0  0  # atno 10765 bound_to 10752
  140.7851  134.3033  157.5032 H   0  0  0  0  0  0  0  0  0  0  0  0  # atno 11005 bound_to 11000
  145.1596  140.9666  143.4385 LP  0  0  0  0  0  0  0  0  0  0  0  0  # atno 17320 bound_to 7965
  145.0128  139.3494  143.6111 LP  0  0  0  0  0  0  0  0  0  0  0  0  # atno 17321 bound_to 7965
  139.7514  144.7533  151.0500 LP  0  0  0  0  0  0  0  0  0  0  0  0  # atno 17342 bound_to 10162
  140.7793  143.4855  150.9961 LP  0  0  0  0  0  0  0  0  0  0  0  0  # atno 17343 bound_to 10162
  156.2136  130.6694  151.1295 LP  0  0  0  0  0  0  0  0  0  0  0  0  # atno 17370 bound_to 10713
  157.7162  131.0708  150.6318 LP  0  0  0  0  0  0  0  0  0  0  0  0  # atno 17371 bound_to 10713
  139.8737  134.9342  156.3600 LP  0  0  0  0  0  0  0  0  0  0  0  0  # atno 17394 bound_to 11000
  140.9444  133.7493  156.0189 LP  0  0  0  0  0  0  0  0  0  0  0  0  # atno 17395 bound_to 11000

$$$$
