AV-unprocessed.smi:1749|AV-procd|sdf|7048|dock9
  -GOLD-   22720 8263D 1   1.00000     0.00000
 Structure written by MMmdl.
 31 32  0  0  0  0  0  0  0  0  2 V2000
  151.6948  145.6972  159.8386 C   0  0  0  0  0  0  0  0  0  0  0  0
  151.8709  144.1800  159.9928 C   0  0  2  0  0  0  0  0  0  0  0  0
  152.3532  143.8096  161.4084 C   0  0  0  0  0  0  0  0  0  0  0  0
  152.5358  142.2916  161.5643 C   0  0  0  0  0  0  0  0  0  0  0  0
  153.4952  141.7318  160.5002 C   0  0  0  0  0  0  0  0  0  0  0  0
  153.0453  142.0928  159.0692 C   0  0  1  0  0  0  0  0  0  0  0  0
  151.8185  141.3858  158.7076 N   0  0  0  0  0  0  0  0  0  0  0  0
  151.6955  140.3738  157.8270 C   0  0  0  0  0  0  0  0  0  0  0  0
  152.6949  139.9796  157.2273 O   0  0  0  0  0  0  0  0  0  0  0  0
  150.4588  139.8376  157.6510 N   0  5  0  0  0  0  0  0  0  0  0  0
  150.0305  139.3871  156.4568 C   0  0  0  0  0  0  0  0  0  0  0  0
  148.7614  139.0021  156.2449 N   0  0  0  0  0  0  0  0  0  0  0  0
  148.5277  138.5861  154.9413 N   0  0  0  0  0  0  0  0  0  0  0  0
  149.6349  138.6570  154.2027 C   0  0  0  0  0  0  0  0  0  0  0  0
  151.0631  139.2390  155.0320 S   0  0  0  0  0  0  0  0  0  0  0  0
  152.8347  143.6136  158.9280 C   0  0  0  0  0  0  0  0  0  0  0  0
  152.6397  146.2229  159.9797 H   0  0  0  0  0  0  0  0  0  0  0  0
  150.9846  146.0862  160.5685 H   0  0  0  0  0  0  0  0  0  0  0  0
  151.3182  145.9490  158.8467 H   0  0  0  0  0  0  0  0  0  0  0  0
  150.8910  143.7243  159.8427 H   0  0  0  0  0  0  0  0  0  0  0  0
  153.2985  144.3119  161.6193 H   0  0  0  0  0  0  0  0  0  0  0  0
  151.6405  144.1691  162.1515 H   0  0  0  0  0  0  0  0  0  0  0  0
  152.9152  142.0642  162.5607 H   0  0  0  0  0  0  0  0  0  0  0  0
  151.5674  141.7957  161.4848 H   0  0  0  0  0  0  0  0  0  0  0  0
  154.4932  142.1365  160.6727 H   0  0  0  0  0  0  0  0  0  0  0  0
  153.5859  140.6506  160.6109 H   0  0  0  0  0  0  0  0  0  0  0  0
  153.8292  141.7981  158.3693 H   0  0  0  0  0  0  0  0  0  0  0  0
  150.9787  141.6793  159.1846 H   0  0  0  0  0  0  0  0  0  0  0  0
  149.6111  138.3624  153.1641 H   0  0  0  0  0  0  0  0  0  0  0  0
  152.4649  143.8436  157.9276 H   0  0  0  0  0  0  0  0  0  0  0  0
  153.8002  144.1139  159.0150 H   0  0  0  0  0  0  0  0  0  0  0  0
  1  2  1  0  0  0  0
  1 17  1  0  0  0  0
  1 18  1  0  0  0  0
  1 19  1  0  0  0  0
  2 16  1  0  0  0  0
  2  3  1  0  0  0  0
  2 20  1  0  0  0  0
  3  4  1  0  0  0  0
  3 21  1  0  0  0  0
  3 22  1  0  0  0  0
  4  5  1  0  0  0  0
  4 23  1  0  0  0  0
  4 24  1  0  0  0  0
  5  6  1  0  0  0  0
  5 25  1  0  0  0  0
  5 26  1  0  0  0  0
  6  7  1  0  0  0  0
  6 16  1  0  0  0  0
  6 27  1  0  0  0  0
  7  8  1  0  0  0  0
  7 28  1  0  0  0  0
  8  9  2  0  0  0  0
  8 10  1  0  0  0  0
 10 11  1  0  0  0  0
 11 15  1  0  0  0  0
 11 12  2  0  0  0  0
 12 13  1  0  0  0  0
 13 14  2  0  0  0  0
 14 15  1  0  0  0  0
 14 29  1  0  0  0  0
 16 30  1  0  0  0  0
 16 31  1  0  0  0  0
M  CHG  1  10  -1
M  END
> <s_m_source_file>
AV-unprocessed.smi

> <i_m_source_file_index>
1749

> <i_lp_mmshare_version>
43012

> <i_f3d_flags>
0

> <s_epik_input>
W0NIM11bQ0BASF0xW0NIMl1bQ0gyXVtDSDJdW0NASF0oW0NIMl0xKVtOSF1DKD1PKVtOSF1jMm5uW2NIXXMy

> <s_epik_cmdline>
J2VwaWtfcHl0aG9uJywgJy1waCcsICc3LjAnLCAnLXRuJywgJzgnLCAnLW1hJywgJzIwMCcsICctbWV0YWxfYmluZGluZycsICctaW1hZScsICc8aW5maWxlLm1hZT4nLCAnLW9tYWUnLCAnPG91dGZpbGUubWFlPic=

> <r_lp_tautomer_probability>
1

> <r_epik_Ionization_Penalty>
4.55442

> <r_epik_Ionization_Penalty_Charging>
4.5081

> <r_epik_Ionization_Penalty_Neutral>
0.0463156

> <r_epik_State_Penalty>
4.50781

> <r_epik_Charging_Adjusted_Penalty>
9.01591

> <i_epik_Tot_Q>
-1

> <i_epik_Tot_abs_Q>
1

> <r_epik_Metal_State_Penalty>
0.823335

> <b_epik_Metal_Only>
1

> <s_lp_Force_Field>
OPLS_2005

> <r_lp_Energy>
7.79414

> <b_lp_Chiralities_Consistent>
1

> <s_lp_Variant>
AV-unprocessed.smi:1749-5

> <Gold.Version>
5.8.1

> <Gold.Id.Protein>
6NUR|6NUR_protein|mol2

> <Gold.PLP.Fitness>
42.7473

> <Gold.PLP.PLP>
-34.9240

> <Gold.PLP.part.hbond>
-1.0000

> <Gold.PLP.part.metal>
0.0000

> <Gold.PLP.part.buried>
-2.2628

> <Gold.PLP.part.nonpolar>
-31.5668

> <Gold.PLP.part.repulsive>
0.2119

> <Gold.PLP.ligand.clash>
0.0000

> <Gold.PLP.ligand.torsion>
0.3532

> <Gold.PLP.Chemscore.Hbond>
1.0000

> <Gold.PLP.Chemscore.CHOScore>
1.8412

> <Gold.PLP.Chemscore.Metal>
0.0000

> <Gold.Chemscore.Hbonds>
donor molecule, donor type, donor heavy atom, donor atom, acceptor molecule, acceptor atom, score
      P1  H  7997  8010       L1     9  1.00
      L1  C    14    29       P1  7948  0.97
      L1  C    14    29       P1  7957  0.75

> <Gold.PLP.Chemscore.Internal.Correction>
0.0063

> <Gold.Rescore>
     Score         DG    S(hbond)    S(metal)    S(lipo)     H(rot)  DE(clash)    DE(int)     intcor
     15.74     -17.35       0.99        0.00      95.13       1.00       0.01       1.61       ----

> <Gold.Chemscore.Fitness>
15.7361

> <Gold.Chemscore.DG>
-17.3490

> <Gold.Chemscore.ZeroCoef>
-5.4800

> <Gold.Chemscore.Hbond>
0.9878

> <Gold.Chemscore.Metal>
0.0000

> <Gold.Chemscore.Lipo>
95.1254

> <Gold.Chemscore.Internal_Hbond>
0.0000

> <Gold.Chemscore.DEClash>
0.0060

> <Gold.Chemscore.DEInternal>
1.6070

> <Gold.Chemscore.Rot>
1.0000

> <Gold.Chemscore.Internal.Correction>
   9.000000E+99

> <Gold.Chemscore.Hbonds>
donor molecule, donor type, donor heavy atom, donor atom, acceptor molecule, acceptor atom, score
      P1  H  7997  8010       L1     9  0.96

> <Gold.Chemscore.Hbond.Weighted>
-3.2994

> <Gold.Chemscore.Metal.Weighted>
-0.0000

> <Gold.Chemscore.Lipo.Weighted>
-11.1297

> <Gold.Chemscore.Internal_Hbond.Weighted>
0.0000

> <Gold.Chemscore.DEClash.Weighted>
0.0060

> <Gold.Chemscore.DEInternal.Weighted>
1.6070

> <Gold.Chemscore.Rot.Weighted>
2.5600

> <Gold.Chemscore.Internal.Correction.Weighted>
   9.000000E+99

> <Gold.Protein.RotatedTorsions>
[ 6907 6896 6895 6894 ] final  -96.21 input  -60.11 | X-H torsion
[ 7974 7965 7964 7962 ] final   44.83 input  175.53 | X-H torsion
[ 8008 7997 7996 7995 ] final   69.90 input   59.86 | X-H torsion
[ 10167 10162 10161 10158 ] final   63.53 input  -65.29 | X-H torsion
[ 10718 10713 10712 10709 ] final  -40.00 input   66.30 | X-H torsion
[ 10763 10752 10751 10750 ] final  -74.21 input  -60.55 | X-H torsion
[ 11005 11000 10999 10996 ] final   31.00 input  -57.11 | X-H torsion

> <Gold.Protein.ActiveResidues>
 VAL166  LYS551  ARG553  GLY616  TRP617  ASP618  TYR619  PRO620  LYS621  CYS622 
 ASP623  PHE694  ASN695  SER759  ASP760  ASP761  ALA762  ILE779  LEU786  VAL792 
 PHE793  MET794  SER795  GLU796  ALA797  LYS798  CYS799  TRP800  GLU811  SER814 

> <Gold.Protein.RotatedAtoms>
  150.6983  134.1538  159.4150 H   0  0  0  0  0  0  0  0  0  0  0  0  # atno 6907 bound_to 6896
  151.9520  135.0162  160.0552 H   0  0  0  0  0  0  0  0  0  0  0  0  # atno 6908 bound_to 6896
  152.2002  133.4800  159.5091 H   0  0  0  0  0  0  0  0  0  0  0  0  # atno 6909 bound_to 6896
  146.0534  139.5031  142.9704 H   0  0  0  0  0  0  0  0  0  0  0  0  # atno 7974 bound_to 7965
  155.7307  140.3492  155.5058 H   0  0  0  0  0  0  0  0  0  0  0  0  # atno 8008 bound_to 7997
  155.9185  140.1063  157.1247 H   0  0  0  0  0  0  0  0  0  0  0  0  # atno 8009 bound_to 7997
  154.4066  140.1254  156.4635 H   0  0  0  0  0  0  0  0  0  0  0  0  # atno 8010 bound_to 7997
  140.1321  144.4633  150.6859 H   0  0  0  0  0  0  0  0  0  0  0  0  # atno 10167 bound_to 10162
  156.2862  130.4223  149.8285 H   0  0  0  0  0  0  0  0  0  0  0  0  # atno 10718 bound_to 10713
  154.4700  135.5872  153.6315 H   0  0  0  0  0  0  0  0  0  0  0  0  # atno 10763 bound_to 10752
  152.9833  135.6064  154.3378 H   0  0  0  0  0  0  0  0  0  0  0  0  # atno 10764 bound_to 10752
  154.3259  135.2843  155.2475 H   0  0  0  0  0  0  0  0  0  0  0  0  # atno 10765 bound_to 10752
  140.2884  134.2892  155.7782 H   0  0  0  0  0  0  0  0  0  0  0  0  # atno 11005 bound_to 11000
  145.6686  141.0222  143.1670 LP  0  0  0  0  0  0  0  0  0  0  0  0  # atno 17320 bound_to 7965
  144.7134  139.8284  143.7407 LP  0  0  0  0  0  0  0  0  0  0  0  0  # atno 17321 bound_to 7965
  140.6811  143.2327  151.5382 LP  0  0  0  0  0  0  0  0  0  0  0  0  # atno 17342 bound_to 10162
  139.5514  144.2385  152.1537 LP  0  0  0  0  0  0  0  0  0  0  0  0  # atno 17343 bound_to 10162
  156.5714  130.8426  151.3357 LP  0  0  0  0  0  0  0  0  0  0  0  0  # atno 17370 bound_to 10713
  157.7329  130.9722  150.1952 LP  0  0  0  0  0  0  0  0  0  0  0  0  # atno 17371 bound_to 10713
  141.2150  133.7569  156.9587 LP  0  0  0  0  0  0  0  0  0  0  0  0  # atno 17394 bound_to 11000
  140.1218  134.9412  157.2214 LP  0  0  0  0  0  0  0  0  0  0  0  0  # atno 17395 bound_to 11000

$$$$
