AV-unprocessed.smi:738|AV-procd|sdf|3541|dock4
  -GOLD-   22720 0533D 1   1.00000     0.00000
 Structure written by MMmdl.
 35 37  0  0  0  0  0  0  0  0  1 V2000
  146.4374  145.3467  160.2152 N   0  0  0  0  0  0  0  0  0  0  0  0
  147.7588  145.4278  160.3977 C   0  0  0  0  0  0  0  0  0  0  0  0
  148.2838  146.3561  161.0095 O   0  0  0  0  0  0  0  0  0  0  0  0
  148.5852  144.3520  159.7542 C   0  0  0  0  0  0  0  0  0  0  0  0
  147.9708  143.2041  159.2088 C   0  0  0  0  0  0  0  0  0  0  0  0
  148.6531  142.2116  158.5997 N   0  0  0  0  0  0  0  0  0  0  0  0
  149.9998  142.3166  158.4947 C   0  0  0  0  0  0  0  0  0  0  0  0
  150.6931  141.2801  157.8428 N   0  0  0  0  0  0  0  0  0  0  0  0
  151.6718  140.6524  158.7184 C   0  0  0  0  0  0  0  0  0  0  0  0
  152.1605  139.3433  158.0858 C   0  0  0  0  0  0  0  0  0  0  0  0
  152.7299  139.6069  156.8068 O   0  0  0  0  0  0  0  0  0  0  0  0
  151.8722  140.3039  155.9006 C   0  0  1  0  0  0  0  0  0  0  0  0
  150.7260  139.4735  155.3008 C   0  0  0  0  0  0  0  0  0  0  0  0
  149.6006  140.4781  155.0042 C   0  0  0  0  0  0  0  0  0  0  0  0
  150.0977  141.8501  155.4842 C   0  0  0  0  0  0  0  0  0  0  0  0
  151.2128  141.5576  156.5006 C   0  0  1  0  0  0  0  0  0  0  0  0
  150.7087  143.4349  158.9964 C   0  0  0  0  0  0  0  0  0  0  0  0
  152.4291  143.5553  158.8635 Cl  0  0  0  0  0  0  0  0  0  0  0  0
  149.9878  144.4651  159.6309 C   0  0  0  0  0  0  0  0  0  0  0  0
  145.8332  146.0463  160.6220 H   0  0  0  0  0  0  0  0  0  0  0  0
  146.0466  144.5922  159.6700 H   0  0  0  0  0  0  0  0  0  0  0  0
  146.9003  143.0686  159.2630 H   0  0  0  0  0  0  0  0  0  0  0  0
  152.5104  141.3328  158.8737 H   0  0  0  0  0  0  0  0  0  0  0  0
  151.2367  140.4494  159.6978 H   0  0  0  0  0  0  0  0  0  0  0  0
  152.9211  138.8842  158.7173 H   0  0  0  0  0  0  0  0  0  0  0  0
  151.3455  138.6238  158.0070 H   0  0  0  0  0  0  0  0  0  0  0  0
  152.5002  140.6282  155.0695 H   0  0  0  0  0  0  0  0  0  0  0  0
  151.0479  138.9417  154.4049 H   0  0  0  0  0  0  0  0  0  0  0  0
  150.3610  138.7253  156.0032 H   0  0  0  0  0  0  0  0  0  0  0  0
  149.3428  140.4992  153.9449 H   0  0  0  0  0  0  0  0  0  0  0  0
  148.7014  140.1934  155.5522 H   0  0  0  0  0  0  0  0  0  0  0  0
  150.5299  142.3837  154.6366 H   0  0  0  0  0  0  0  0  0  0  0  0
  149.2930  142.4755  155.8718 H   0  0  0  0  0  0  0  0  0  0  0  0
  151.9304  142.3777  156.5519 H   0  0  0  0  0  0  0  0  0  0  0  0
  150.5145  145.3273  160.0140 H   0  0  0  0  0  0  0  0  0  0  0  0
  1  2  1  0  0  0  0
  1 20  1  0  0  0  0
  1 21  1  0  0  0  0
  2  3  2  0  0  0  0
  2  4  1  0  0  0  0
  4 19  1  0  0  0  0
  4  5  2  0  0  0  0
  5  6  1  0  0  0  0
  5 22  1  0  0  0  0
  6  7  2  0  0  0  0
  7  8  1  0  0  0  0
  7 17  1  0  0  0  0
  8 16  1  0  0  0  0
  8  9  1  0  0  0  0
  9 10  1  0  0  0  0
  9 23  1  0  0  0  0
  9 24  1  0  0  0  0
 10 11  1  0  0  0  0
 10 25  1  0  0  0  0
 10 26  1  0  0  0  0
 11 12  1  0  0  0  0
 12 16  1  0  0  0  0
 12 13  1  0  0  0  0
 12 27  1  0  0  0  0
 13 14  1  0  0  0  0
 13 28  1  0  0  0  0
 13 29  1  0  0  0  0
 14 15  1  0  0  0  0
 14 30  1  0  0  0  0
 14 31  1  0  0  0  0
 15 16  1  0  0  0  0
 15 32  1  0  0  0  0
 15 33  1  0  0  0  0
 16 34  1  0  0  0  0
 17 18  1  0  0  0  0
 17 19  2  0  0  0  0
 19 35  1  0  0  0  0
M  END
> <s_m_source_file>
AV-unprocessed.smi

> <i_m_source_file_index>
738

> <i_lp_mmshare_version>
43012

> <i_f3d_flags>
0

> <s_epik_input>
W05IMl1DKD1PKWMxW2NIXW5jKGMoQ2wpW2NIXTEpTihbQ0gyXVtDSDJdTzIpW0NASF0oW0NASF0yMylbQ0gyXVtDSDJdW0NIMl0z

> <s_epik_cmdline>
J2VwaWtfcHl0aG9uJywgJy1waCcsICc3LjAnLCAnLXRuJywgJzgnLCAnLW1hJywgJzIwMCcsICctbWV0YWxfYmluZGluZycsICctaW1hZScsICc8aW5maWxlLm1hZT4nLCAnLW9tYWUnLCAnPG91dGZpbGUubWFlPic=

> <r_lp_tautomer_probability>
1

> <r_epik_Ionization_Penalty>
6.75978e-06

> <r_epik_Ionization_Penalty_Charging>
0

> <r_epik_Ionization_Penalty_Neutral>
6.75978e-06

> <r_epik_State_Penalty>
-0

> <r_epik_Charging_Adjusted_Penalty>
0

> <i_epik_Tot_Q>
0

> <i_epik_Tot_abs_Q>
0

> <r_epik_Metal_State_Penalty>
-0

> <b_epik_Metal_Only>
0

> <s_lp_Force_Field>
OPLS_2005

> <r_lp_Energy>
43.0455

> <b_lp_Chiralities_Consistent>
1

> <s_lp_Variant>
AV-unprocessed.smi:738-4

> <Gold.Version>
5.8.1

> <Gold.Id.Protein>
6NUR|6NUR_protein|mol2

> <Gold.PLP.Fitness>
33.9675

> <Gold.PLP.PLP>
-31.1960

> <Gold.PLP.part.hbond>
-3.4217

> <Gold.PLP.part.metal>
0.0000

> <Gold.PLP.part.buried>
-2.0956

> <Gold.PLP.part.nonpolar>
-24.6244

> <Gold.PLP.part.repulsive>
0.4947

> <Gold.PLP.ligand.clash>
0.0000

> <Gold.PLP.ligand.torsion>
0.2015

> <Gold.PLP.Chemscore.Hbond>
1.0000

> <Gold.PLP.Chemscore.CHOScore>
0.0000

> <Gold.PLP.Chemscore.Metal>
0.0000

> <Gold.Chemscore.Hbonds>
donor molecule, donor type, donor heavy atom, donor atom, acceptor molecule, acceptor atom, score
      P1  H  7997  8009       L1    11  1.00

> <Gold.PLP.Chemscore.Internal.Correction>
0.1746

> <Gold.Rescore>
     Score         DG    S(hbond)    S(metal)    S(lipo)     H(rot)  DE(clash)    DE(int)     intcor
     13.72     -14.84       0.85        0.00      77.71       1.00       0.27       0.85       ----

> <Gold.Chemscore.Fitness>
13.7237

> <Gold.Chemscore.DG>
-14.8444

> <Gold.Chemscore.ZeroCoef>
-5.4800

> <Gold.Chemscore.Hbond>
0.8481

> <Gold.Chemscore.Metal>
0.0000

> <Gold.Chemscore.Lipo>
77.7058

> <Gold.Chemscore.Internal_Hbond>
0.0000

> <Gold.Chemscore.DEClash>
0.2720

> <Gold.Chemscore.DEInternal>
0.8487

> <Gold.Chemscore.Rot>
1.0000

> <Gold.Chemscore.Internal.Correction>
   9.000000E+99

> <Gold.Chemscore.Hbonds>
donor molecule, donor type, donor heavy atom, donor atom, acceptor molecule, acceptor atom, score
      P1  H  7997  8009       L1    11  0.86

> <Gold.Chemscore.Hbond.Weighted>
-2.8328

> <Gold.Chemscore.Metal.Weighted>
-0.0000

> <Gold.Chemscore.Lipo.Weighted>
-9.0916

> <Gold.Chemscore.Internal_Hbond.Weighted>
0.0000

> <Gold.Chemscore.DEClash.Weighted>
0.2720

> <Gold.Chemscore.DEInternal.Weighted>
0.8487

> <Gold.Chemscore.Rot.Weighted>
2.5600

> <Gold.Chemscore.Internal.Correction.Weighted>
   9.000000E+99

> <Gold.Protein.RotatedTorsions>
[ 6907 6896 6895 6894 ] final   61.59 input  -60.11 | X-H torsion
[ 7974 7965 7964 7962 ] final  172.40 input  175.53 | X-H torsion
[ 8008 7997 7996 7995 ] final  172.34 input   59.86 | X-H torsion
[ 10167 10162 10161 10158 ] final  106.23 input  -65.29 | X-H torsion
[ 10718 10713 10712 10709 ] final  -31.73 input   66.30 | X-H torsion
[ 10763 10752 10751 10750 ] final    0.59 input  -60.55 | X-H torsion
[ 11005 11000 10999 10996 ] final  -49.99 input  -57.11 | X-H torsion

> <Gold.Protein.ActiveResidues>
 VAL166  LYS551  ARG553  GLY616  TRP617  ASP618  TYR619  PRO620  LYS621  CYS622 
 ASP623  PHE694  ASN695  SER759  ASP760  ASP761  ALA762  ILE779  LEU786  VAL792 
 PHE793  MET794  SER795  GLU796  ALA797  LYS798  CYS799  TRP800  GLU811  SER814 

> <Gold.Protein.RotatedAtoms>
  152.4101  134.6139  160.0032 H   0  0  0  0  0  0  0  0  0  0  0  0  # atno 6907 bound_to 6896
  151.6318  133.3326  159.3118 H   0  0  0  0  0  0  0  0  0  0  0  0  # atno 6908 bound_to 6896
  150.7993  134.7115  159.6651 H   0  0  0  0  0  0  0  0  0  0  0  0  # atno 6909 bound_to 6896
  144.7269  139.9492  143.6431 H   0  0  0  0  0  0  0  0  0  0  0  0  # atno 7974 bound_to 7965
  156.1184  140.1488  156.9239 H   0  0  0  0  0  0  0  0  0  0  0  0  # atno 8008 bound_to 7997
  154.4817  140.0877  156.7436 H   0  0  0  0  0  0  0  0  0  0  0  0  # atno 8009 bound_to 7997
  155.4472  140.3433  155.4299 H   0  0  0  0  0  0  0  0  0  0  0  0  # atno 8010 bound_to 7997
  139.7026  144.7091  151.1159 H   0  0  0  0  0  0  0  0  0  0  0  0  # atno 10167 bound_to 10162
  156.3837  130.4360  149.7449 H   0  0  0  0  0  0  0  0  0  0  0  0  # atno 10718 bound_to 10713
  153.3187  135.6968  153.7050 H   0  0  0  0  0  0  0  0  0  0  0  0  # atno 10763 bound_to 10752
  153.5898  135.3482  155.2907 H   0  0  0  0  0  0  0  0  0  0  0  0  # atno 10764 bound_to 10752
  154.8592  135.4315  154.2346 H   0  0  0  0  0  0  0  0  0  0  0  0  # atno 10765 bound_to 10752
  141.0791  133.6658  156.3666 H   0  0  0  0  0  0  0  0  0  0  0  0  # atno 11005 bound_to 11000
  146.0724  139.3713  143.0514 LP  0  0  0  0  0  0  0  0  0  0  0  0  # atno 17320 bound_to 7965
  145.7950  140.9797  143.1029 LP  0  0  0  0  0  0  0  0  0  0  0  0  # atno 17321 bound_to 7965
  140.7713  143.5402  150.9321 LP  0  0  0  0  0  0  0  0  0  0  0  0  # atno 17342 bound_to 10162
  139.9084  143.6750  152.3119 LP  0  0  0  0  0  0  0  0  0  0  0  0  # atno 17343 bound_to 10162
  156.4530  130.7915  151.2937 LP  0  0  0  0  0  0  0  0  0  0  0  0  # atno 17370 bound_to 10713
  157.7494  131.0089  150.3248 LP  0  0  0  0  0  0  0  0  0  0  0  0  # atno 17371 bound_to 10713
  140.5509  134.6029  157.5407 LP  0  0  0  0  0  0  0  0  0  0  0  0  # atno 17394 bound_to 11000
  139.9604  134.7463  156.0250 LP  0  0  0  0  0  0  0  0  0  0  0  0  # atno 17395 bound_to 11000

$$$$
