AV-unprocessed.smi:3311|AV-procd|sdf|12720|dock7
  -GOLD-   2272019 63D 1   1.00000     0.00000
 Structure written by MMmdl.
 44 45  0  0  0  0  0  0  0  0  2 V2000
  147.2733  139.6847  153.3186 C   0  0  0  0  0  0  0  0  0  0  0  0
  147.9661  138.6526  154.2268 C   0  0  1  0  0  0  0  0  0  0  0  0
  147.4818  137.3011  153.8690 N   0  3  0  0  0  0  0  0  0  0  0  0
  146.0490  137.2262  153.5096 C   0  0  0  0  0  0  0  0  0  0  0  0
  145.8069  136.3904  152.2336 C   0  0  0  0  0  0  0  0  0  0  0  0
  146.4225  137.0802  151.1597 O   0  0  0  0  0  0  0  0  0  0  0  0
  146.4952  135.0117  152.3716 C   0  0  0  0  0  0  0  0  0  0  0  0
  146.2189  134.0786  151.1787 C   0  0  0  0  0  0  0  0  0  0  0  0
  144.7122  133.9083  150.9413 C   0  0  0  0  0  0  0  0  0  0  0  0
  144.0290  135.2692  150.7470 C   0  0  0  0  0  0  0  0  0  0  0  0
  144.2975  136.2100  151.9356 C   0  0  0  0  0  0  0  0  0  0  0  0
  149.5142  138.7042  154.1473 C   0  0  2  0  0  0  0  0  0  0  0  0
  150.1793  137.3876  154.5908 C   0  0  0  0  0  0  0  0  0  0  0  0
  150.0596  139.8177  154.9137 N   0  0  0  0  0  0  0  0  0  0  0  0
  151.1544  139.8351  155.7554 C   0  0  0  0  0  0  0  0  0  0  0  0
  151.2649  141.1006  156.2559 C   0  0  0  0  0  0  0  0  0  0  0  0
  150.1772  141.7961  155.6589 C   0  0  0  0  0  0  0  0  0  0  0  0
  149.4570  141.0258  154.8595 N   0  0  0  0  0  0  0  0  0  0  0  0
  147.5123  140.7078  153.6096 H   0  0  0  0  0  0  0  0  0  0  0  0
  146.1887  139.5844  153.3695 H   0  0  0  0  0  0  0  0  0  0  0  0
  147.5700  139.5573  152.2771 H   0  0  0  0  0  0  0  0  0  0  0  0
  147.6685  138.8806  155.2520 H   0  0  0  0  0  0  0  0  0  0  0  0
  148.0230  136.9623  153.0868 H   0  0  0  0  0  0  0  0  0  0  0  0
  145.4961  136.7955  154.3460 H   0  0  0  0  0  0  0  0  0  0  0  0
  145.6707  138.2400  153.3703 H   0  0  0  0  0  0  0  0  0  0  0  0
  147.3602  137.0339  151.2725 H   0  0  0  0  0  0  0  0  0  0  0  0
  147.5718  135.1360  152.4969 H   0  0  0  0  0  0  0  0  0  0  0  0
  146.1420  134.5235  153.2811 H   0  0  0  0  0  0  0  0  0  0  0  0
  146.6898  134.4758  150.2786 H   0  0  0  0  0  0  0  0  0  0  0  0
  146.6767  133.1052  151.3574 H   0  0  0  0  0  0  0  0  0  0  0  0
  144.5421  133.2786  150.0672 H   0  0  0  0  0  0  0  0  0  0  0  0
  144.2631  133.3893  151.7891 H   0  0  0  0  0  0  0  0  0  0  0  0
  144.3844  135.7287  149.8240 H   0  0  0  0  0  0  0  0  0  0  0  0
  142.9548  135.1278  150.6236 H   0  0  0  0  0  0  0  0  0  0  0  0
  143.8042  135.8032  152.8195 H   0  0  0  0  0  0  0  0  0  0  0  0
  143.8251  137.1740  151.7426 H   0  0  0  0  0  0  0  0  0  0  0  0
  149.7877  138.8671  153.1028 H   0  0  0  0  0  0  0  0  0  0  0  0
  149.8876  136.5562  153.9490 H   0  0  0  0  0  0  0  0  0  0  0  0
  149.9090  137.1259  155.6143 H   0  0  0  0  0  0  0  0  0  0  0  0
  151.2662  137.4639  154.5433 H   0  0  0  0  0  0  0  0  0  0  0  0
  151.7577  138.9557  155.9273 H   0  0  0  0  0  0  0  0  0  0  0  0
  152.0091  141.4729  156.9444 H   0  0  0  0  0  0  0  0  0  0  0  0
  149.8904  142.8301  155.7824 H   0  0  0  0  0  0  0  0  0  0  0  0
  147.6414  136.6870  154.6555 H   0  0  0  0  0  0  0  0  0  0  0  0
  1  2  1  0  0  0  0
  1 19  1  0  0  0  0
  1 20  1  0  0  0  0
  1 21  1  0  0  0  0
  2  3  1  0  0  0  0
  2 12  1  0  0  0  0
  2 22  1  0  0  0  0
  3  4  1  0  0  0  0
  3 23  1  0  0  0  0
  3 44  1  0  0  0  0
  4  5  1  0  0  0  0
  4 24  1  0  0  0  0
  4 25  1  0  0  0  0
  5 11  1  0  0  0  0
  5  6  1  0  0  0  0
  5  7  1  0  0  0  0
  6 26  1  0  0  0  0
  7  8  1  0  0  0  0
  7 27  1  0  0  0  0
  7 28  1  0  0  0  0
  8  9  1  0  0  0  0
  8 29  1  0  0  0  0
  8 30  1  0  0  0  0
  9 10  1  0  0  0  0
  9 31  1  0  0  0  0
  9 32  1  0  0  0  0
 10 11  1  0  0  0  0
 10 33  1  0  0  0  0
 10 34  1  0  0  0  0
 11 35  1  0  0  0  0
 11 36  1  0  0  0  0
 12 13  1  0  0  0  0
 12 14  1  0  0  0  0
 12 37  1  0  0  0  0
 13 38  1  0  0  0  0
 13 39  1  0  0  0  0
 13 40  1  0  0  0  0
 14 18  1  0  0  0  0
 14 15  1  0  0  0  0
 15 16  2  0  0  0  0
 15 41  1  0  0  0  0
 16 17  1  0  0  0  0
 16 42  1  0  0  0  0
 17 18  2  0  0  0  0
 17 43  1  0  0  0  0
M  CHG  1   3   1
M  END
> <s_m_source_file>
AV-unprocessed.smi

> <i_m_source_file_index>
3311

> <i_lp_mmshare_version>
43012

> <i_f3d_flags>
0

> <s_epik_input>
bjFbY0hdW2NIXVtjSF1uMVtDQEBIXShbQ0gzXSlbQ0BIXShbQ0gzXSlbTkhdW0NIMl1DMihbT0hdKVtDSDJdW0NIMl1bQ0gyXVtDSDJdW0NIMl0y

> <s_epik_cmdline>
J2VwaWtfcHl0aG9uJywgJy1waCcsICc3LjAnLCAnLXRuJywgJzgnLCAnLW1hJywgJzIwMCcsICctbWV0YWxfYmluZGluZycsICctaW1hZScsICc8aW5maWxlLm1hZT4nLCAnLW9tYWUnLCAnPG91dGZpbGUubWFlPic=

> <r_lp_tautomer_probability>
1

> <r_epik_Ionization_Penalty>
0.0141403

> <r_epik_Ionization_Penalty_Charging>
0.0141276

> <r_epik_Ionization_Penalty_Neutral>
1.27139e-05

> <r_epik_State_Penalty>
0.0110334

> <r_epik_Charging_Adjusted_Penalty>
0.025161

> <i_epik_Tot_Q>
1

> <i_epik_Tot_abs_Q>
1

> <r_epik_Metal_State_Penalty>
0.0110573

> <b_epik_Metal_Only>
0

> <s_lp_Force_Field>
OPLS_2005

> <r_lp_Energy>
23.6471

> <b_lp_Chiralities_Consistent>
1

> <s_lp_Variant>
AV-unprocessed.smi:3311-2

> <Gold.Version>
5.8.1

> <Gold.Id.Protein>
6NUR|6NUR_protein|mol2

> <Gold.PLP.Fitness>
38.3464

> <Gold.PLP.PLP>
-28.8932

> <Gold.PLP.part.hbond>
-2.6104

> <Gold.PLP.part.metal>
0.0000

> <Gold.PLP.part.buried>
0.9291

> <Gold.PLP.part.nonpolar>
-26.7141

> <Gold.PLP.part.repulsive>
0.1252

> <Gold.PLP.ligand.clash>
0.0000

> <Gold.PLP.ligand.torsion>
1.3067

> <Gold.PLP.Chemscore.Hbond>
3.0000

> <Gold.PLP.Chemscore.CHOScore>
1.0000

> <Gold.PLP.Chemscore.Metal>
0.0000

> <Gold.Chemscore.Hbonds>
donor molecule, donor type, donor heavy atom, donor atom, acceptor molecule, acceptor atom, score
      L1  H     3    23       P1  7948  2.00
      L1  H     6    26       P1  7948  1.00
      L1  C    17    43       P1  8028  1.00

> <Gold.PLP.Chemscore.Internal.Correction>
0.0667

> <Gold.Rescore>
     Score         DG    S(hbond)    S(metal)    S(lipo)     H(rot)  DE(clash)    DE(int)     intcor
     12.87     -15.57       2.00        0.00      75.99       2.14       0.15       2.55       ----

> <Gold.Chemscore.Fitness>
12.8707

> <Gold.Chemscore.DG>
-15.5659

> <Gold.Chemscore.ZeroCoef>
-5.4800

> <Gold.Chemscore.Hbond>
1.9999

> <Gold.Chemscore.Metal>
0.0000

> <Gold.Chemscore.Lipo>
75.9914

> <Gold.Chemscore.Internal_Hbond>
0.0000

> <Gold.Chemscore.DEClash>
0.1471

> <Gold.Chemscore.DEInternal>
2.5481

> <Gold.Chemscore.Rot>
2.1424

> <Gold.Chemscore.Internal.Correction>
   9.000000E+99

> <Gold.Chemscore.Hbonds>
donor molecule, donor type, donor heavy atom, donor atom, acceptor molecule, acceptor atom, score
      L1  H     3    23       P1  7948  1.00
      L1  H     6    26       P1  7948  0.98

> <Gold.Chemscore.Hbond.Weighted>
-6.6795

> <Gold.Chemscore.Metal.Weighted>
-0.0000

> <Gold.Chemscore.Lipo.Weighted>
-8.8910

> <Gold.Chemscore.Internal_Hbond.Weighted>
0.0000

> <Gold.Chemscore.DEClash.Weighted>
0.1471

> <Gold.Chemscore.DEInternal.Weighted>
2.5481

> <Gold.Chemscore.Rot.Weighted>
5.4846

> <Gold.Chemscore.Internal.Correction.Weighted>
   9.000000E+99

> <Gold.Protein.RotatedTorsions>
[ 6907 6896 6895 6894 ] final   -7.84 input  -60.11 | X-H torsion
[ 7974 7965 7964 7962 ] final -112.32 input  175.53 | X-H torsion
[ 8008 7997 7996 7995 ] final -167.86 input   59.86 | X-H torsion
[ 10167 10162 10161 10158 ] final  151.83 input  -65.29 | X-H torsion
[ 10718 10713 10712 10709 ] final   49.71 input   66.30 | X-H torsion
[ 10763 10752 10751 10750 ] final  -72.03 input  -60.55 | X-H torsion
[ 11005 11000 10999 10996 ] final  126.90 input  -57.11 | X-H torsion

> <Gold.Protein.ActiveResidues>
 VAL166  LYS551  ARG553  GLY616  TRP617  ASP618  TYR619  PRO620  LYS621  CYS622 
 ASP623  PHE694  ASN695  SER759  ASP760  ASP761  ALA762  ILE779  LEU786  VAL792 
 PHE793  MET794  SER795  GLU796  ALA797  LYS798  CYS799  TRP800  GLU811  SER814 

> <Gold.Protein.RotatedAtoms>
  151.4432  135.1022  159.9675 H   0  0  0  0  0  0  0  0  0  0  0  0  # atno 6907 bound_to 6896
  152.4915  133.8509  159.7212 H   0  0  0  0  0  0  0  0  0  0  0  0  # atno 6908 bound_to 6896
  150.9074  133.6982  159.2891 H   0  0  0  0  0  0  0  0  0  0  0  0  # atno 6909 bound_to 6896
  145.1455  140.8801  143.3677 H   0  0  0  0  0  0  0  0  0  0  0  0  # atno 7974 bound_to 7965
  155.8836  140.1013  157.1468 H   0  0  0  0  0  0  0  0  0  0  0  0  # atno 8008 bound_to 7997
  154.4007  140.1324  156.4290 H   0  0  0  0  0  0  0  0  0  0  0  0  # atno 8009 bound_to 7997
  155.7615  140.3463  155.5203 H   0  0  0  0  0  0  0  0  0  0  0  0  # atno 8010 bound_to 7997
  139.4837  144.5408  151.7567 H   0  0  0  0  0  0  0  0  0  0  0  0  # atno 10167 bound_to 10162
  157.4813  130.8317  149.8097 H   0  0  0  0  0  0  0  0  0  0  0  0  # atno 10718 bound_to 10713
  154.4400  135.5943  153.6123 H   0  0  0  0  0  0  0  0  0  0  0  0  # atno 10763 bound_to 10752
  152.9805  135.5996  154.3734 H   0  0  0  0  0  0  0  0  0  0  0  0  # atno 10764 bound_to 10752
  154.3583  135.2841  155.2313 H   0  0  0  0  0  0  0  0  0  0  0  0  # atno 10765 bound_to 10752
  139.9480  134.9627  156.8776 H   0  0  0  0  0  0  0  0  0  0  0  0  # atno 11005 bound_to 11000
  145.0487  139.3200  143.5940 LP  0  0  0  0  0  0  0  0  0  0  0  0  # atno 17320 bound_to 7965
  146.3500  139.9887  142.8688 LP  0  0  0  0  0  0  0  0  0  0  0  0  # atno 17321 bound_to 7965
  140.4947  144.1257  150.5958 LP  0  0  0  0  0  0  0  0  0  0  0  0  # atno 17342 bound_to 10162
  140.4130  143.2647  151.9809 LP  0  0  0  0  0  0  0  0  0  0  0  0  # atno 17343 bound_to 10162
  156.0123  130.3828  150.2223 LP  0  0  0  0  0  0  0  0  0  0  0  0  # atno 17370 bound_to 10713
  157.0409  131.0035  151.3283 LP  0  0  0  0  0  0  0  0  0  0  0  0  # atno 17371 bound_to 10713
  140.5788  134.0372  155.7456 LP  0  0  0  0  0  0  0  0  0  0  0  0  # atno 17394 bound_to 11000
  141.1135  133.9577  157.2865 LP  0  0  0  0  0  0  0  0  0  0  0  0  # atno 17395 bound_to 11000

$$$$
