AV-unprocessed.smi:508|AV-procd|sdf|2759|dock8
  -GOLD-   2262023223D 1   1.00000     0.00000
 Structure written by MMmdl.
 48 50  0  0  0  0  0  0  0  0  2 V2000
  147.3260  140.8338  154.5823 C   0  0  0  0  0  0  0  0  0  0  0  0
  148.5564  141.7294  154.4203 C   0  0  0  0  0  0  0  0  0  0  0  0
  149.6983  140.9117  154.2297 O   0  0  0  0  0  0  0  0  0  0  0  0
  150.1067  140.2553  155.4181 C   0  0  0  0  0  0  0  0  0  0  0  0
  151.4888  140.7899  155.8199 C   0  0  0  0  0  0  0  0  0  0  0  0
  151.9863  140.2042  157.0609 N   0  0  0  0  0  0  0  0  0  0  0  0
  152.2183  140.8224  158.2512 C   0  0  0  0  0  0  0  0  0  0  0  0
  151.9299  142.1735  158.4574 N   0  0  0  0  0  0  0  0  0  0  0  0
  152.8884  143.1439  158.9810 C   0  0  0  0  0  0  0  0  0  0  0  0
  152.3880  143.9705  160.1823 C   0  0  0  0  0  0  0  0  0  0  0  0
  151.3751  145.0547  159.7855 C   0  0  0  0  0  0  0  0  0  0  0  0
  149.9226  144.5660  159.6411 C   0  0  0  0  0  0  0  0  0  0  0  0
  149.7274  143.1835  158.9912 C   0  0  0  0  0  0  0  0  0  0  0  0
  150.7461  142.8213  157.8988 C   0  0  0  0  0  0  0  0  0  0  0  0
  152.7597  140.0402  159.1881 N   0  0  0  0  0  0  0  0  0  0  0  0
  152.8525  138.8132  158.5501 C   0  0  0  0  0  0  0  0  0  0  0  0
  152.3947  138.8838  157.2725 C   0  0  0  0  0  0  0  0  0  0  0  0
  152.3857  137.7373  156.3389 C   0  0  0  0  0  0  0  0  0  0  0  0
  151.9745  137.8595  155.1869 O   0  0  0  0  0  0  0  0  0  0  0  0
  152.8726  136.5951  156.9200 N   0  5  0  0  0  0  0  0  0  0  0  0
  153.3425  136.4776  158.2112 C   0  0  0  0  0  0  0  0  0  0  0  0
  153.7596  135.4051  158.6491 O   0  0  0  0  0  0  0  0  0  0  0  0
  153.3488  137.5746  159.0353 N   0  0  0  0  0  0  0  0  0  0  0  0
  153.8409  137.5355  160.4159 C   0  0  0  0  0  0  0  0  0  0  0  0
  146.4261  141.4310  154.7310 H   0  0  0  0  0  0  0  0  0  0  0  0
  147.4347  140.1720  155.4418 H   0  0  0  0  0  0  0  0  0  0  0  0
  147.1744  140.2142  153.6984 H   0  0  0  0  0  0  0  0  0  0  0  0
  148.4222  142.3930  153.5648 H   0  0  0  0  0  0  0  0  0  0  0  0
  148.6831  142.3523  155.3070 H   0  0  0  0  0  0  0  0  0  0  0  0
  149.3768  140.4369  156.2055 H   0  0  0  0  0  0  0  0  0  0  0  0
  150.1434  139.1777  155.2566 H   0  0  0  0  0  0  0  0  0  0  0  0
  152.2121  140.5961  155.0283 H   0  0  0  0  0  0  0  0  0  0  0  0
  151.4661  141.8726  155.9185 H   0  0  0  0  0  0  0  0  0  0  0  0
  153.7947  142.6121  159.2631 H   0  0  0  0  0  0  0  0  0  0  0  0
  153.1926  143.8102  158.1729 H   0  0  0  0  0  0  0  0  0  0  0  0
  151.9909  143.3403  160.9766 H   0  0  0  0  0  0  0  0  0  0  0  0
  153.2558  144.4709  160.6127 H   0  0  0  0  0  0  0  0  0  0  0  0
  151.3921  145.8497  160.5317 H   0  0  0  0  0  0  0  0  0  0  0  0
  151.6988  145.5246  158.8560 H   0  0  0  0  0  0  0  0  0  0  0  0
  149.4498  144.5489  160.6237 H   0  0  0  0  0  0  0  0  0  0  0  0
  149.3725  145.3117  159.0663 H   0  0  0  0  0  0  0  0  0  0  0  0
  149.7310  142.4090  159.7602 H   0  0  0  0  0  0  0  0  0  0  0  0
  148.7254  143.1552  158.5623 H   0  0  0  0  0  0  0  0  0  0  0  0
  151.0170  143.6945  157.3041 H   0  0  0  0  0  0  0  0  0  0  0  0
  150.2746  142.1243  157.2051 H   0  0  0  0  0  0  0  0  0  0  0  0
  154.2723  136.5796  160.7135 H   0  0  0  0  0  0  0  0  0  0  0  0
  153.0257  137.7555  161.1055 H   0  0  0  0  0  0  0  0  0  0  0  0
  154.6124  138.2932  160.5567 H   0  0  0  0  0  0  0  0  0  0  0  0
  1  2  1  0  0  0  0
  1 25  1  0  0  0  0
  1 26  1  0  0  0  0
  1 27  1  0  0  0  0
  2  3  1  0  0  0  0
  2 28  1  0  0  0  0
  2 29  1  0  0  0  0
  3  4  1  0  0  0  0
  4  5  1  0  0  0  0
  4 30  1  0  0  0  0
  4 31  1  0  0  0  0
  5  6  1  0  0  0  0
  5 32  1  0  0  0  0
  5 33  1  0  0  0  0
  6 17  1  0  0  0  0
  6  7  1  0  0  0  0
  7  8  1  0  0  0  0
  7 15  2  0  0  0  0
  8 14  1  0  0  0  0
  8  9  1  0  0  0  0
  9 10  1  0  0  0  0
  9 34  1  0  0  0  0
  9 35  1  0  0  0  0
 10 11  1  0  0  0  0
 10 36  1  0  0  0  0
 10 37  1  0  0  0  0
 11 12  1  0  0  0  0
 11 38  1  0  0  0  0
 11 39  1  0  0  0  0
 12 13  1  0  0  0  0
 12 40  1  0  0  0  0
 12 41  1  0  0  0  0
 13 14  1  0  0  0  0
 13 42  1  0  0  0  0
 13 43  1  0  0  0  0
 14 44  1  0  0  0  0
 14 45  1  0  0  0  0
 15 16  1  0  0  0  0
 16 23  1  0  0  0  0
 16 17  2  0  0  0  0
 17 18  1  0  0  0  0
 18 19  2  0  0  0  0
 18 20  1  0  0  0  0
 20 21  1  0  0  0  0
 21 22  2  0  0  0  0
 21 23  1  0  0  0  0
 23 24  1  0  0  0  0
 24 46  1  0  0  0  0
 24 47  1  0  0  0  0
 24 48  1  0  0  0  0
M  CHG  1  20  -1
M  END
> <s_m_source_file>
AV-unprocessed.smi

> <i_m_source_file_index>
508

> <i_lp_mmshare_version>
43012

> <i_f3d_flags>
0

> <s_epik_input>
W0NIM11uMWMoPU8pW25IXWMoPU8pYyhjMTIpbihbQ0gyXVtDSDJdT1tDSDJdW0NIM10pYyhuMilOM1tDSDJdW0NIMl1bQ0gyXVtDSDJdW0NIMl1bQ0gyXTM=

> <s_epik_cmdline>
J2VwaWtfcHl0aG9uJywgJy1waCcsICc3LjAnLCAnLXRuJywgJzgnLCAnLW1hJywgJzIwMCcsICctbWV0YWxfYmluZGluZycsICctaW1hZScsICc8aW5maWxlLm1hZT4nLCAnLW9tYWUnLCAnPG91dGZpbGUubWFlPic=

> <r_lp_tautomer_probability>
1

> <r_epik_Ionization_Penalty>
6.1764

> <r_epik_Ionization_Penalty_Charging>
0.0751667

> <r_epik_Ionization_Penalty_Neutral>
6.10123

> <r_epik_State_Penalty>
6.09793

> <r_epik_Charging_Adjusted_Penalty>
6.17309

> <i_epik_Tot_Q>
-1

> <i_epik_Tot_abs_Q>
1

> <r_epik_Metal_State_Penalty>
2.04406

> <b_epik_Metal_Only>
1

> <s_lp_Force_Field>
OPLS_2005

> <r_lp_Energy>
49.0985

> <b_lp_Chiralities_Consistent>
1

> <s_lp_Variant>
AV-unprocessed.smi:508-2

> <Gold.Version>
5.8.1

> <Gold.Id.Protein>
6NUR|6NUR_protein|mol2

> <Gold.PLP.Fitness>
48.1976

> <Gold.PLP.PLP>
-39.7432

> <Gold.PLP.part.hbond>
-3.7834

> <Gold.PLP.part.metal>
0.0000

> <Gold.PLP.part.buried>
-4.7008

> <Gold.PLP.part.nonpolar>
-32.7000

> <Gold.PLP.part.repulsive>
0.9454

> <Gold.PLP.ligand.clash>
0.0000

> <Gold.PLP.ligand.torsion>
1.2071

> <Gold.PLP.Chemscore.Hbond>
3.3720

> <Gold.PLP.Chemscore.CHOScore>
0.0000

> <Gold.PLP.Chemscore.Metal>
0.0000

> <Gold.Chemscore.Hbonds>
donor molecule, donor type, donor heavy atom, donor atom, acceptor molecule, acceptor atom, score
      P1  H  6896  6907       L1    22  0.75
      P1  H  7989  7998       L1     3  0.32
      P1  H 10752 10764       L1    20  1.62

> <Gold.PLP.Chemscore.Internal.Correction>
0.7526

> <Gold.Rescore>
     Score         DG    S(hbond)    S(metal)    S(lipo)     H(rot)  DE(clash)    DE(int)     intcor
     14.63     -16.73       1.21        0.00      95.70       1.55       0.54       1.57       ----

> <Gold.Chemscore.Fitness>
14.6263

> <Gold.Chemscore.DG>
-16.7334

> <Gold.Chemscore.ZeroCoef>
-5.4800

> <Gold.Chemscore.Hbond>
1.2075

> <Gold.Chemscore.Metal>
0.0000

> <Gold.Chemscore.Lipo>
95.7014

> <Gold.Chemscore.Internal_Hbond>
0.0000

> <Gold.Chemscore.DEClash>
0.5418

> <Gold.Chemscore.DEInternal>
1.5652

> <Gold.Chemscore.Rot>
1.5534

> <Gold.Chemscore.Internal.Correction>
   9.000000E+99

> <Gold.Chemscore.Hbonds>
donor molecule, donor type, donor heavy atom, donor atom, acceptor molecule, acceptor atom, score
      P1  H  6896  6907       L1    22  0.68
      P1  H  7989  7998       L1     3  0.02
      P1  H 10752 10764       L1    20  0.43

> <Gold.Chemscore.Hbond.Weighted>
-4.0332

> <Gold.Chemscore.Metal.Weighted>
-0.0000

> <Gold.Chemscore.Lipo.Weighted>
-11.1971

> <Gold.Chemscore.Internal_Hbond.Weighted>
0.0000

> <Gold.Chemscore.DEClash.Weighted>
0.5418

> <Gold.Chemscore.DEInternal.Weighted>
1.5652

> <Gold.Chemscore.Rot.Weighted>
3.9768

> <Gold.Chemscore.Internal.Correction.Weighted>
   9.000000E+99

> <Gold.Protein.RotatedTorsions>
[ 6907 6896 6895 6894 ] final   75.74 input  -60.11 | X-H torsion
[ 7974 7965 7964 7962 ] final   37.30 input  175.53 | X-H torsion
[ 8008 7997 7996 7995 ] final -119.34 input   59.86 | X-H torsion
[ 10167 10162 10161 10158 ] final  -33.88 input  -65.29 | X-H torsion
[ 10718 10713 10712 10709 ] final -109.02 input   66.30 | X-H torsion
[ 10763 10752 10751 10750 ] final    0.40 input  -60.55 | X-H torsion
[ 11005 11000 10999 10996 ] final  -76.26 input  -57.11 | X-H torsion

> <Gold.Protein.ActiveResidues>
 VAL166  LYS551  ARG553  GLY616  TRP617  ASP618  TYR619  PRO620  LYS621  CYS622 
 ASP623  PHE694  ASN695  SER759  ASP760  ASP761  ALA762  ILE779  LEU786  VAL792 
 PHE793  MET794  SER795  GLU796  ALA797  LYS798  CYS799  TRP800  GLU811  SER814 

> <Gold.Protein.RotatedAtoms>
  152.5040  134.4074  159.9436 H   0  0  0  0  0  0  0  0  0  0  0  0  # atno 6907 bound_to 6896
  151.4041  133.3742  159.2743 H   0  0  0  0  0  0  0  0  0  0  0  0  # atno 6908 bound_to 6896
  150.9340  134.8775  159.7628 H   0  0  0  0  0  0  0  0  0  0  0  0  # atno 6909 bound_to 6896
  146.1147  139.5910  142.9329 H   0  0  0  0  0  0  0  0  0  0  0  0  # atno 7974 bound_to 7965
  155.1141  140.0397  157.2732 H   0  0  0  0  0  0  0  0  0  0  0  0  # atno 8008 bound_to 7997
  154.6663  140.2602  155.7029 H   0  0  0  0  0  0  0  0  0  0  0  0  # atno 8009 bound_to 7997
  156.2640  140.2807  156.1155 H   0  0  0  0  0  0  0  0  0  0  0  0  # atno 8010 bound_to 7997
  140.7196  143.3588  151.2005 H   0  0  0  0  0  0  0  0  0  0  0  0  # atno 10167 bound_to 10162
  156.0515  130.5743  150.8042 H   0  0  0  0  0  0  0  0  0  0  0  0  # atno 10718 bound_to 10713
  153.3211  135.6969  153.7030 H   0  0  0  0  0  0  0  0  0  0  0  0  # atno 10763 bound_to 10752
  153.5869  135.3487  155.2897 H   0  0  0  0  0  0  0  0  0  0  0  0  # atno 10764 bound_to 10752
  154.8598  135.4308  154.2375 H   0  0  0  0  0  0  0  0  0  0  0  0  # atno 10765 bound_to 10752
  141.1652  133.6977  156.7642 H   0  0  0  0  0  0  0  0  0  0  0  0  # atno 11005 bound_to 11000
  145.5591  141.0406  143.2236 LP  0  0  0  0  0  0  0  0  0  0  0  0  # atno 17320 bound_to 7965
  144.7543  139.7115  143.7260 LP  0  0  0  0  0  0  0  0  0  0  0  0  # atno 17321 bound_to 7965
  139.7135  143.9338  152.2957 LP  0  0  0  0  0  0  0  0  0  0  0  0  # atno 17342 bound_to 10162
  139.9071  144.6878  150.8602 LP  0  0  0  0  0  0  0  0  0  0  0  0  # atno 17343 bound_to 10162
  157.5446  131.0942  150.9780 LP  0  0  0  0  0  0  0  0  0  0  0  0  # atno 17370 bound_to 10713
  157.0054  130.5616  149.5315 LP  0  0  0  0  0  0  0  0  0  0  0  0  # atno 17371 bound_to 10713
  140.2511  134.8540  157.3668 LP  0  0  0  0  0  0  0  0  0  0  0  0  # atno 17394 bound_to 11000
  140.1702  134.4619  155.7837 LP  0  0  0  0  0  0  0  0  0  0  0  0  # atno 17395 bound_to 11000

$$$$
