AV-unprocessed.smi:535|AV-procd|sdf|2861|dock6
  -GOLD-   2262023353D 1   1.00000     0.00000
 Structure written by MMmdl.
 45 47  0  0  0  0  0  0  0  0  2 V2000
  151.4658  138.2124  154.4713 C   0  0  0  0  0  0  0  0  0  0  0  0
  151.2289  139.5802  154.7539 O   0  0  0  0  0  0  0  0  0  0  0  0
  151.9012  140.0164  155.9234 C   0  0  0  0  0  0  0  0  0  0  0  0
  151.3384  139.2505  157.1325 C   0  0  0  0  0  0  0  0  0  0  0  0
  152.1622  139.4122  158.3280 N   0  0  0  0  0  0  0  0  0  0  0  0
  152.4153  140.5413  159.0532 C   0  0  0  0  0  0  0  0  0  0  0  0
  151.9072  141.8078  158.7285 N   0  0  0  0  0  0  0  0  0  0  0  0
  150.8396  142.1287  157.7775 C   0  0  0  0  0  0  0  0  0  0  0  0
  149.7818  143.0636  158.3904 C   0  0  0  0  0  0  0  0  0  0  0  0
  150.4328  144.3617  158.8816 C   0  0  0  0  0  0  0  0  0  0  0  0
  151.6164  144.0386  159.8079 C   0  0  2  0  0  0  0  0  0  0  0  0
  152.3463  145.3123  160.2551 C   0  0  0  0  0  0  0  0  0  0  0  0
  152.5768  143.0541  159.1100 C   0  0  0  0  0  0  0  0  0  0  0  0
  153.1712  140.3356  160.1353 N   0  0  0  0  0  0  0  0  0  0  0  0
  153.4344  138.9773  160.0922 C   0  0  0  0  0  0  0  0  0  0  0  0
  152.8301  138.3959  159.0229 C   0  0  0  0  0  0  0  0  0  0  0  0
  152.8987  136.9452  158.7323 C   0  0  0  0  0  0  0  0  0  0  0  0
  152.3117  136.4605  157.7673 O   0  0  0  0  0  0  0  0  0  0  0  0
  153.6627  136.2687  159.6472 N   0  5  0  0  0  0  0  0  0  0  0  0
  154.2988  136.8206  160.7380 C   0  0  0  0  0  0  0  0  0  0  0  0
  154.9678  136.1379  161.5147 O   0  0  0  0  0  0  0  0  0  0  0  0
  154.1928  138.1650  160.9787 N   0  0  0  0  0  0  0  0  0  0  0  0
  154.8541  138.7790  162.1338 C   0  0  0  0  0  0  0  0  0  0  0  0
  150.9353  137.9290  153.5624 H   0  0  0  0  0  0  0  0  0  0  0  0
  151.1093  137.5753  155.2818 H   0  0  0  0  0  0  0  0  0  0  0  0
  152.5279  138.0196  154.3151 H   0  0  0  0  0  0  0  0  0  0  0  0
  152.9722  139.8414  155.8222 H   0  0  0  0  0  0  0  0  0  0  0  0
  151.7693  141.0913  156.0465 H   0  0  0  0  0  0  0  0  0  0  0  0
  150.3196  139.5627  157.3460 H   0  0  0  0  0  0  0  0  0  0  0  0
  151.2579  138.1887  156.9020 H   0  0  0  0  0  0  0  0  0  0  0  0
  151.2856  142.6056  156.9037 H   0  0  0  0  0  0  0  0  0  0  0  0
  150.3681  141.2259  157.4020 H   0  0  0  0  0  0  0  0  0  0  0  0
  149.0112  143.2893  157.6530 H   0  0  0  0  0  0  0  0  0  0  0  0
  149.2795  142.5695  159.2222 H   0  0  0  0  0  0  0  0  0  0  0  0
  150.7805  144.9402  158.0246 H   0  0  0  0  0  0  0  0  0  0  0  0
  149.6976  144.9786  159.3994 H   0  0  0  0  0  0  0  0  0  0  0  0
  151.2253  143.5509  160.7023 H   0  0  0  0  0  0  0  0  0  0  0  0
  152.7701  145.8459  159.4039 H   0  0  0  0  0  0  0  0  0  0  0  0
  153.1615  145.0769  160.9400 H   0  0  0  0  0  0  0  0  0  0  0  0
  151.6683  145.9923  160.7714 H   0  0  0  0  0  0  0  0  0  0  0  0
  153.4073  142.8340  159.7815 H   0  0  0  0  0  0  0  0  0  0  0  0
  153.0148  143.5128  158.2224 H   0  0  0  0  0  0  0  0  0  0  0  0
  155.9309  138.6115  162.0914 H   0  0  0  0  0  0  0  0  0  0  0  0
  154.4777  138.3484  163.0626 H   0  0  0  0  0  0  0  0  0  0  0  0
  154.6961  139.8559  162.1865 H   0  0  0  0  0  0  0  0  0  0  0  0
  1  2  1  0  0  0  0
  1 24  1  0  0  0  0
  1 25  1  0  0  0  0
  1 26  1  0  0  0  0
  2  3  1  0  0  0  0
  3  4  1  0  0  0  0
  3 27  1  0  0  0  0
  3 28  1  0  0  0  0
  4  5  1  0  0  0  0
  4 29  1  0  0  0  0
  4 30  1  0  0  0  0
  5 16  1  0  0  0  0
  5  6  1  0  0  0  0
  6  7  1  0  0  0  0
  6 14  2  0  0  0  0
  7 13  1  0  0  0  0
  7  8  1  0  0  0  0
  8  9  1  0  0  0  0
  8 31  1  0  0  0  0
  8 32  1  0  0  0  0
  9 10  1  0  0  0  0
  9 33  1  0  0  0  0
  9 34  1  0  0  0  0
 10 11  1  0  0  0  0
 10 35  1  0  0  0  0
 10 36  1  0  0  0  0
 11 12  1  0  0  0  0
 11 13  1  0  0  0  0
 11 37  1  0  0  0  0
 12 38  1  0  0  0  0
 12 39  1  0  0  0  0
 12 40  1  0  0  0  0
 13 41  1  0  0  0  0
 13 42  1  0  0  0  0
 14 15  1  0  0  0  0
 15 22  1  0  0  0  0
 15 16  2  0  0  0  0
 16 17  1  0  0  0  0
 17 18  2  0  0  0  0
 17 19  1  0  0  0  0
 19 20  1  0  0  0  0
 20 21  2  0  0  0  0
 20 22  1  0  0  0  0
 22 23  1  0  0  0  0
 23 43  1  0  0  0  0
 23 44  1  0  0  0  0
 23 45  1  0  0  0  0
M  CHG  1  19  -1
M  END
> <s_m_source_file>
AV-unprocessed.smi

> <i_m_source_file_index>
535

> <i_lp_mmshare_version>
43012

> <i_f3d_flags>
0

> <s_epik_input>
W0NIM11uMWMoPU8pW25IXWMoPU8pYyhjMTIpbihbQ0gyXVtDSDJdT1tDSDNdKWMobjIpTjNbQ0gyXVtDSDJdW0NIMl1bQ0BASF0oW0NIM10pW0NIMl0z

> <s_epik_cmdline>
J2VwaWtfcHl0aG9uJywgJy1waCcsICc3LjAnLCAnLXRuJywgJzgnLCAnLW1hJywgJzIwMCcsICctbWV0YWxfYmluZGluZycsICctaW1hZScsICc8aW5maWxlLm1hZT4nLCAnLW9tYWUnLCAnPG91dGZpbGUubWFlPic=

> <r_lp_tautomer_probability>
1

> <r_epik_Ionization_Penalty>
5.11375

> <r_epik_Ionization_Penalty_Charging>
0.0788329

> <r_epik_Ionization_Penalty_Neutral>
5.03492

> <r_epik_State_Penalty>
5.02848

> <r_epik_Charging_Adjusted_Penalty>
5.10731

> <i_epik_Tot_Q>
-1

> <i_epik_Tot_abs_Q>
1

> <r_epik_Metal_State_Penalty>
1.14014

> <b_epik_Metal_Only>
1

> <s_lp_Force_Field>
OPLS_2005

> <r_lp_Energy>
42.0611

> <b_lp_Chiralities_Consistent>
1

> <s_lp_Variant>
AV-unprocessed.smi:535-4

> <Gold.Version>
5.8.1

> <Gold.Id.Protein>
6NUR|6NUR_protein|mol2

> <Gold.PLP.Fitness>
47.6628

> <Gold.PLP.PLP>
-39.3700

> <Gold.PLP.part.hbond>
-2.0736

> <Gold.PLP.part.metal>
0.0000

> <Gold.PLP.part.buried>
-6.9776

> <Gold.PLP.part.nonpolar>
-30.9859

> <Gold.PLP.part.repulsive>
0.0706

> <Gold.PLP.ligand.clash>
0.2867

> <Gold.PLP.ligand.torsion>
0.2632

> <Gold.PLP.Chemscore.Hbond>
3.0000

> <Gold.PLP.Chemscore.CHOScore>
0.0000

> <Gold.PLP.Chemscore.Metal>
0.0000

> <Gold.Chemscore.Hbonds>
donor molecule, donor type, donor heavy atom, donor atom, acceptor molecule, acceptor atom, score
      P1  H  6896  6908       L1    19  1.88
      P1  H  7989  7998       L1     2  1.00

> <Gold.PLP.Chemscore.Internal.Correction>
0.1060

> <Gold.Rescore>
     Score         DG    S(hbond)    S(metal)    S(lipo)     H(rot)  DE(clash)    DE(int)     intcor
     14.79     -16.48       1.40        0.00      85.45       1.44       0.33       1.36       ----

> <Gold.Chemscore.Fitness>
14.7936

> <Gold.Chemscore.DG>
-16.4791

> <Gold.Chemscore.ZeroCoef>
-5.4800

> <Gold.Chemscore.Hbond>
1.4015

> <Gold.Chemscore.Metal>
0.0000

> <Gold.Chemscore.Lipo>
85.4490

> <Gold.Chemscore.Internal_Hbond>
0.0000

> <Gold.Chemscore.DEClash>
0.3276

> <Gold.Chemscore.DEInternal>
1.3579

> <Gold.Chemscore.Rot>
1.4372

> <Gold.Chemscore.Internal.Correction>
   9.000000E+99

> <Gold.Chemscore.Hbonds>
donor molecule, donor type, donor heavy atom, donor atom, acceptor molecule, acceptor atom, score
      P1  H  6896  6908       L1    19  0.19
      P1  H  7989  7998       L1     2  0.44

> <Gold.Chemscore.Hbond.Weighted>
-4.6809

> <Gold.Chemscore.Metal.Weighted>
-0.0000

> <Gold.Chemscore.Lipo.Weighted>
-9.9975

> <Gold.Chemscore.Internal_Hbond.Weighted>
0.0000

> <Gold.Chemscore.DEClash.Weighted>
0.3276

> <Gold.Chemscore.DEInternal.Weighted>
1.3579

> <Gold.Chemscore.Rot.Weighted>
3.6793

> <Gold.Chemscore.Internal.Correction.Weighted>
   9.000000E+99

> <Gold.Protein.RotatedTorsions>
[ 6907 6896 6895 6894 ] final  -59.85 input  -60.11 | X-H torsion
[ 7974 7965 7964 7962 ] final  -31.46 input  175.53 | X-H torsion
[ 8008 7997 7996 7995 ] final  153.54 input   59.86 | X-H torsion
[ 10167 10162 10161 10158 ] final  106.73 input  -65.29 | X-H torsion
[ 10718 10713 10712 10709 ] final  172.46 input   66.30 | X-H torsion
[ 10763 10752 10751 10750 ] final -158.66 input  -60.55 | X-H torsion
[ 11005 11000 10999 10996 ] final  140.28 input  -57.11 | X-H torsion

> <Gold.Protein.ActiveResidues>
 VAL166  LYS551  ARG553  GLY616  TRP617  ASP618  TYR619  PRO620  LYS621  CYS622 
 ASP623  PHE694  ASN695  SER759  ASP760  ASP761  ALA762  ILE779  LEU786  VAL792 
 PHE793  MET794  SER795  GLU796  ALA797  LYS798  CYS799  TRP800  GLU811  SER814 

> <Gold.Protein.RotatedAtoms>
  150.7900  134.6915  159.6498 H   0  0  0  0  0  0  0  0  0  0  0  0  # atno 6907 bound_to 6896
  152.4003  134.6294  160.0081 H   0  0  0  0  0  0  0  0  0  0  0  0  # atno 6908 bound_to 6896
  151.6567  133.3282  159.3200 H   0  0  0  0  0  0  0  0  0  0  0  0  # atno 6909 bound_to 6896
  146.1065  140.5670  142.8797 H   0  0  0  0  0  0  0  0  0  0  0  0  # atno 7974 bound_to 7965
  156.2576  140.1991  156.6506 H   0  0  0  0  0  0  0  0  0  0  0  0  # atno 8008 bound_to 7997
  154.6539  140.0568  157.0012 H   0  0  0  0  0  0  0  0  0  0  0  0  # atno 8009 bound_to 7997
  155.1376  140.3239  155.4462 H   0  0  0  0  0  0  0  0  0  0  0  0  # atno 8010 bound_to 7997
  139.6985  144.7098  151.1225 H   0  0  0  0  0  0  0  0  0  0  0  0  # atno 10167 bound_to 10162
  156.9786  131.0112  151.2887 H   0  0  0  0  0  0  0  0  0  0  0  0  # atno 10718 bound_to 10713
  154.7538  135.3099  154.8507 H   0  0  0  0  0  0  0  0  0  0  0  0  # atno 10763 bound_to 10752
  153.9287  135.6787  153.4750 H   0  0  0  0  0  0  0  0  0  0  0  0  # atno 10764 bound_to 10752
  153.1135  135.4855  154.9005 H   0  0  0  0  0  0  0  0  0  0  0  0  # atno 10765 bound_to 10752
  140.0315  134.9349  157.0672 H   0  0  0  0  0  0  0  0  0  0  0  0  # atno 11005 bound_to 11000
  144.7475  140.5107  143.6825 LP  0  0  0  0  0  0  0  0  0  0  0  0  # atno 17320 bound_to 7965
  145.5750  139.1485  143.3267 LP  0  0  0  0  0  0  0  0  0  0  0  0  # atno 17321 bound_to 7965
  140.7703  143.5457  150.9261 LP  0  0  0  0  0  0  0  0  0  0  0  0  # atno 17342 bound_to 10162
  139.9138  143.6688  152.3110 LP  0  0  0  0  0  0  0  0  0  0  0  0  # atno 17343 bound_to 10162
  157.5542  130.8202  149.8183 LP  0  0  0  0  0  0  0  0  0  0  0  0  # atno 17370 bound_to 10713
  156.0253  130.3781  150.1840 LP  0  0  0  0  0  0  0  0  0  0  0  0  # atno 17371 bound_to 10713
  140.4217  134.1874  155.7165 LP  0  0  0  0  0  0  0  0  0  0  0  0  # atno 17394 bound_to 11000
  141.1834  133.8366  157.1177 LP  0  0  0  0  0  0  0  0  0  0  0  0  # atno 17395 bound_to 11000

$$$$
