AV-unprocessed.smi:3160|AV-procd|sdf|12053|dock2
  -GOLD-   2272017483D 1   1.00000     0.00000
 Structure written by MMmdl.
 40 41  0  0  0  0  0  0  0  0  2 V2000
  145.2208  142.2992  155.0840 C   0  0  0  0  0  0  0  0  0  0  0  0
  146.6366  141.9153  154.7632 C   0  0  0  0  0  0  0  0  0  0  0  0
  147.2016  141.6484  153.4843 C   0  0  0  0  0  0  0  0  0  0  0  0
  148.4843  141.3320  153.5460 N   0  0  0  0  0  0  0  0  0  0  0  0
  148.7864  141.3853  154.8624 N   0  0  0  0  0  0  0  0  0  0  0  0
  150.1368  141.0785  155.3216 C   0  0  2  0  0  0  0  0  0  0  0  0
  150.4598  139.5986  155.0405 C   0  0  0  0  0  0  0  0  0  0  0  0
  150.3328  141.4771  156.8094 C   0  0  1  0  0  0  0  0  0  0  0  0
  151.3048  140.5481  157.5558 C   0  0  0  0  0  0  0  0  0  0  0  0
  150.8375  142.8678  156.9026 N   0  3  0  0  0  0  0  0  0  0  0  0
  150.9888  143.3973  158.2749 C   0  0  0  0  0  0  0  0  0  0  0  0
  151.0091  144.9243  158.3052 C   0  0  0  0  0  0  0  0  0  0  0  0
  151.6465  145.2675  159.6553 C   0  0  0  0  0  0  0  0  0  0  0  0
  152.5261  144.0632  160.0313 C   0  0  0  0  0  0  0  0  0  0  0  0
  152.3187  143.0161  158.9297 C   0  0  0  0  0  0  0  0  0  0  0  0
  147.6880  141.7407  155.6178 C   0  0  0  0  0  0  0  0  0  0  0  0
  144.6017  142.3508  154.1879 H   0  0  0  0  0  0  0  0  0  0  0  0
  145.1682  143.2752  155.5666 H   0  0  0  0  0  0  0  0  0  0  0  0
  144.7517  141.5810  155.7568 H   0  0  0  0  0  0  0  0  0  0  0  0
  146.7191  141.6731  152.5183 H   0  0  0  0  0  0  0  0  0  0  0  0
  150.8187  141.6795  154.7176 H   0  0  0  0  0  0  0  0  0  0  0  0
  151.5131  139.3762  155.2092 H   0  0  0  0  0  0  0  0  0  0  0  0
  150.2449  139.3434  154.0022 H   0  0  0  0  0  0  0  0  0  0  0  0
  149.8718  138.9329  155.6732 H   0  0  0  0  0  0  0  0  0  0  0  0
  149.3668  141.4106  157.3131 H   0  0  0  0  0  0  0  0  0  0  0  0
  150.9269  139.5277  157.6113 H   0  0  0  0  0  0  0  0  0  0  0  0
  151.4559  140.8844  158.5821 H   0  0  0  0  0  0  0  0  0  0  0  0
  152.2805  140.5185  157.0696 H   0  0  0  0  0  0  0  0  0  0  0  0
  151.7265  142.9293  156.4274 H   0  0  0  0  0  0  0  0  0  0  0  0
  150.1606  143.0524  158.8960 H   0  0  0  0  0  0  0  0  0  0  0  0
  151.6372  145.3080  157.4998 H   0  0  0  0  0  0  0  0  0  0  0  0
  150.0159  145.3599  158.1889 H   0  0  0  0  0  0  0  0  0  0  0  0
  152.2176  146.1952  159.6066 H   0  0  0  0  0  0  0  0  0  0  0  0
  150.8695  145.4023  160.4089 H   0  0  0  0  0  0  0  0  0  0  0  0
  153.5774  144.3400  160.1175 H   0  0  0  0  0  0  0  0  0  0  0  0
  152.2146  143.6651  160.9977 H   0  0  0  0  0  0  0  0  0  0  0  0
  152.3198  141.9975  159.3190 H   0  0  0  0  0  0  0  0  0  0  0  0
  153.1292  143.0927  158.2030 H   0  0  0  0  0  0  0  0  0  0  0  0
  147.7422  141.8358  156.6925 H   0  0  0  0  0  0  0  0  0  0  0  0
  150.1761  143.4593  156.4205 H   0  0  0  0  0  0  0  0  0  0  0  0
  1  2  1  0  0  0  0
  1 17  1  0  0  0  0
  1 18  1  0  0  0  0
  1 19  1  0  0  0  0
  2 16  2  0  0  0  0
  2  3  1  0  0  0  0
  3  4  2  0  0  0  0
  3 20  1  0  0  0  0
  4  5  1  0  0  0  0
  5  6  1  0  0  0  0
  5 16  1  0  0  0  0
  6  7  1  0  0  0  0
  6  8  1  0  0  0  0
  6 21  1  0  0  0  0
  7 22  1  0  0  0  0
  7 23  1  0  0  0  0
  7 24  1  0  0  0  0
  8  9  1  0  0  0  0
  8 10  1  0  0  0  0
  8 25  1  0  0  0  0
  9 26  1  0  0  0  0
  9 27  1  0  0  0  0
  9 28  1  0  0  0  0
 10 11  1  0  0  0  0
 10 29  1  0  0  0  0
 10 40  1  0  0  0  0
 11 15  1  0  0  0  0
 11 12  1  0  0  0  0
 11 30  1  0  0  0  0
 12 13  1  0  0  0  0
 12 31  1  0  0  0  0
 12 32  1  0  0  0  0
 13 14  1  0  0  0  0
 13 33  1  0  0  0  0
 13 34  1  0  0  0  0
 14 15  1  0  0  0  0
 14 35  1  0  0  0  0
 14 36  1  0  0  0  0
 15 37  1  0  0  0  0
 15 38  1  0  0  0  0
 16 39  1  0  0  0  0
M  CHG  1  10   1
M  END
> <s_m_source_file>
AV-unprocessed.smi

> <i_m_source_file_index>
3160

> <i_lp_mmshare_version>
43012

> <i_f3d_flags>
0

> <s_epik_input>
W0NIM11jMVtjSF1ubihbY0hdMSlbQ0BIXShbQ0gzXSlbQ0BIXShbQ0gzXSlbTkhdW0NIXTJbQ0gyXVtDSDJdW0NIMl1bQ0gyXTI=

> <s_epik_cmdline>
J2VwaWtfcHl0aG9uJywgJy1waCcsICc3LjAnLCAnLXRuJywgJzgnLCAnLW1hJywgJzIwMCcsICctbWV0YWxfYmluZGluZycsICctaW1hZScsICc8aW5maWxlLm1hZT4nLCAnLW9tYWUnLCAnPG91dGZpbGUubWFlPic=

> <r_lp_tautomer_probability>
1

> <r_epik_Ionization_Penalty>
0.00117636

> <r_epik_Ionization_Penalty_Charging>
0.00115264

> <r_epik_Ionization_Penalty_Neutral>
2.37123e-05

> <r_epik_State_Penalty>
-0

> <r_epik_Charging_Adjusted_Penalty>
0.00115264

> <i_epik_Tot_Q>
1

> <i_epik_Tot_abs_Q>
1

> <r_epik_Metal_State_Penalty>
-0

> <b_epik_Metal_Only>
0

> <s_lp_Force_Field>
OPLS_2005

> <r_lp_Energy>
30.6135

> <b_lp_Chiralities_Consistent>
1

> <s_lp_Variant>
AV-unprocessed.smi:3160-3

> <Gold.Version>
5.8.1

> <Gold.Id.Protein>
6NUR|6NUR_protein|mol2

> <Gold.PLP.Fitness>
43.8307

> <Gold.PLP.PLP>
-37.9150

> <Gold.PLP.part.hbond>
-2.0000

> <Gold.PLP.part.metal>
0.0000

> <Gold.PLP.part.buried>
-4.0544

> <Gold.PLP.part.nonpolar>
-32.5735

> <Gold.PLP.part.repulsive>
1.5613

> <Gold.PLP.ligand.clash>
0.0000

> <Gold.PLP.ligand.torsion>
1.2877

> <Gold.PLP.Chemscore.Hbond>
2.8000

> <Gold.PLP.Chemscore.CHOScore>
0.0000

> <Gold.PLP.Chemscore.Metal>
0.0000

> <Gold.Chemscore.Hbonds>
donor molecule, donor type, donor heavy atom, donor atom, acceptor molecule, acceptor atom, score
      L1  H    10    40       P1  8028  2.00
      P1  H  8011  8017       L1     4  0.69

> <Gold.PLP.Chemscore.Internal.Correction>
0.0912

> <Gold.Rescore>
     Score         DG    S(hbond)    S(metal)    S(lipo)     H(rot)  DE(clash)    DE(int)     intcor
     17.25     -19.38       1.61        0.00     102.92       1.37       0.68       1.46       ----

> <Gold.Chemscore.Fitness>
17.2466

> <Gold.Chemscore.DG>
-19.3847

> <Gold.Chemscore.ZeroCoef>
-5.4800

> <Gold.Chemscore.Hbond>
1.6086

> <Gold.Chemscore.Metal>
0.0000

> <Gold.Chemscore.Lipo>
102.9191

> <Gold.Chemscore.Internal_Hbond>
0.0000

> <Gold.Chemscore.DEClash>
0.6810

> <Gold.Chemscore.DEInternal>
1.4571

> <Gold.Chemscore.Rot>
1.3709

> <Gold.Chemscore.Internal.Correction>
   9.000000E+99

> <Gold.Chemscore.Hbonds>
donor molecule, donor type, donor heavy atom, donor atom, acceptor molecule, acceptor atom, score
      L1  H    10    40       P1  8028  0.99
      P1  H  8011  8017       L1     4  0.56

> <Gold.Chemscore.Hbond.Weighted>
-5.3727

> <Gold.Chemscore.Metal.Weighted>
-0.0000

> <Gold.Chemscore.Lipo.Weighted>
-12.0415

> <Gold.Chemscore.Internal_Hbond.Weighted>
0.0000

> <Gold.Chemscore.DEClash.Weighted>
0.6810

> <Gold.Chemscore.DEInternal.Weighted>
1.4571

> <Gold.Chemscore.Rot.Weighted>
3.5095

> <Gold.Chemscore.Internal.Correction.Weighted>
   9.000000E+99

> <Gold.Protein.RotatedTorsions>
[ 6907 6896 6895 6894 ] final  -77.64 input  -60.11 | X-H torsion
[ 7974 7965 7964 7962 ] final   83.47 input  175.53 | X-H torsion
[ 8008 7997 7996 7995 ] final -115.00 input   59.86 | X-H torsion
[ 10167 10162 10161 10158 ] final   47.16 input  -65.29 | X-H torsion
[ 10718 10713 10712 10709 ] final  -50.07 input   66.30 | X-H torsion
[ 10763 10752 10751 10750 ] final -127.62 input  -60.55 | X-H torsion
[ 11005 11000 10999 10996 ] final -179.17 input  -57.11 | X-H torsion

> <Gold.Protein.ActiveResidues>
 VAL166  LYS551  ARG553  GLY616  TRP617  ASP618  TYR619  PRO620  LYS621  CYS622 
 ASP623  PHE694  ASN695  SER759  ASP760  ASP761  ALA762  ILE779  LEU786  VAL792 
 PHE793  MET794  SER795  GLU796  ALA797  LYS798  CYS799  TRP800  GLU811  SER814 

> <Gold.Protein.RotatedAtoms>
  150.6993  134.4392  159.5284 H   0  0  0  0  0  0  0  0  0  0  0  0  # atno 6907 bound_to 6896
  152.2105  134.8503  160.0507 H   0  0  0  0  0  0  0  0  0  0  0  0  # atno 6908 bound_to 6896
  151.9390  133.3597  159.3995 H   0  0  0  0  0  0  0  0  0  0  0  0  # atno 6909 bound_to 6896
  145.6114  139.2369  143.2190 H   0  0  0  0  0  0  0  0  0  0  0  0  # atno 7974 bound_to 7965
  155.0452  140.0392  157.2524 H   0  0  0  0  0  0  0  0  0  0  0  0  # atno 8008 bound_to 7997
  154.7183  140.2707  155.6541 H   0  0  0  0  0  0  0  0  0  0  0  0  # atno 8009 bound_to 7997
  156.2809  140.2708  156.1847 H   0  0  0  0  0  0  0  0  0  0  0  0  # atno 8010 bound_to 7997
  140.3065  144.2871  150.6208 H   0  0  0  0  0  0  0  0  0  0  0  0  # atno 10167 bound_to 10162
  156.1834  130.4151  149.9474 H   0  0  0  0  0  0  0  0  0  0  0  0  # atno 10718 bound_to 10713
  154.8753  135.3956  154.3623 H   0  0  0  0  0  0  0  0  0  0  0  0  # atno 10763 bound_to 10752
  153.4393  135.7026  153.6184 H   0  0  0  0  0  0  0  0  0  0  0  0  # atno 10764 bound_to 10752
  153.4772  135.3777  155.2392 H   0  0  0  0  0  0  0  0  0  0  0  0  # atno 10765 bound_to 10752
  140.4216  134.6601  157.4666 H   0  0  0  0  0  0  0  0  0  0  0  0  # atno 11005 bound_to 11000
  146.1501  140.6937  142.9326 LP  0  0  0  0  0  0  0  0  0  0  0  0  # atno 17320 bound_to 7965
  144.7268  140.4550  143.6967 LP  0  0  0  0  0  0  0  0  0  0  0  0  # atno 17321 bound_to 7965
  140.5605  143.2193  151.7773 LP  0  0  0  0  0  0  0  0  0  0  0  0  # atno 17342 bound_to 10162
  139.4903  144.4355  151.9824 LP  0  0  0  0  0  0  0  0  0  0  0  0  # atno 17343 bound_to 10162
  156.7237  130.9016  151.3620 LP  0  0  0  0  0  0  0  0  0  0  0  0  # atno 17370 bound_to 10713
  157.6883  130.9208  150.0445 LP  0  0  0  0  0  0  0  0  0  0  0  0  # atno 17371 bound_to 10713
  140.0196  134.6566  155.9258 LP  0  0  0  0  0  0  0  0  0  0  0  0  # atno 17394 bound_to 11000
  141.1782  133.6543  156.4912 LP  0  0  0  0  0  0  0  0  0  0  0  0  # atno 17395 bound_to 11000

$$$$
