AV-unprocessed.smi:2725|AV-procd|sdf|10516|dock10
  -GOLD-   2272014553D 1   1.00000     0.00000
 Structure written by MMmdl.
 44 45  0  0  0  0  0  0  0  0  1 V2000
  148.5683  140.1204  157.2516 O   0  0  0  0  0  0  0  0  0  0  0  0
  148.9150  141.2982  157.1667 C   0  0  0  0  0  0  0  0  0  0  0  0
  149.7038  141.9544  158.3020 C   0  0  0  0  0  0  0  0  0  0  0  0
  151.1166  142.3850  157.8674 C   0  0  0  0  0  0  0  0  0  0  0  0
  151.9192  143.0464  159.0016 C   0  0  0  0  0  0  0  0  0  0  0  0
  152.0698  142.1836  160.2588 C   0  0  0  0  0  0  0  0  0  0  0  0
  152.3869  143.1675  161.3915 C   0  0  0  0  0  0  0  0  0  0  0  0
  151.9301  144.5509  160.9044 C   0  0  0  0  0  0  0  0  0  0  0  0
  151.2753  144.3263  159.5384 C   0  0  0  0  0  0  0  0  0  0  0  0
  148.6504  142.0728  156.1040 N   0  0  0  0  0  0  0  0  0  0  0  0
  147.9488  141.6471  154.8931 C   0  0  1  0  0  0  0  0  0  0  0  0
  148.6016  140.3710  154.3197 C   0  0  0  0  0  0  0  0  0  0  0  0
  149.7757  140.6902  153.6035 O   0  0  0  0  0  0  0  0  0  0  0  0
  146.4588  141.4130  155.2223 C   0  0  0  0  0  0  0  0  0  0  0  0
  145.6079  142.6706  155.1399 C   0  0  0  0  0  0  0  0  0  0  0  0
  145.8081  143.6126  154.1076 C   0  0  0  0  0  0  0  0  0  0  0  0
  144.9872  144.7562  154.0740 C   0  0  0  0  0  0  0  0  0  0  0  0
  144.0038  144.9146  155.0693 C   0  0  0  0  0  0  0  0  0  0  0  0
  143.8839  143.9172  156.0575 C   0  0  0  0  0  0  0  0  0  0  0  0
  144.6659  142.8168  156.0986 N   0  0  0  0  0  0  0  0  0  0  0  0
  149.1364  142.8180  158.6492 H   0  0  0  0  0  0  0  0  0  0  0  0
  149.7728  141.2671  159.1468 H   0  0  0  0  0  0  0  0  0  0  0  0
  151.6630  141.5088  157.5150 H   0  0  0  0  0  0  0  0  0  0  0  0
  151.0565  143.0670  157.0179 H   0  0  0  0  0  0  0  0  0  0  0  0
  152.9152  143.2997  158.6345 H   0  0  0  0  0  0  0  0  0  0  0  0
  151.1287  141.6760  160.4749 H   0  0  0  0  0  0  0  0  0  0  0  0
  152.8381  141.4171  160.1508 H   0  0  0  0  0  0  0  0  0  0  0  0
  151.8837  142.8774  162.3144 H   0  0  0  0  0  0  0  0  0  0  0  0
  153.4584  143.1808  161.5952 H   0  0  0  0  0  0  0  0  0  0  0  0
  151.2445  145.0286  161.6051 H   0  0  0  0  0  0  0  0  0  0  0  0
  152.7960  145.2054  160.7980 H   0  0  0  0  0  0  0  0  0  0  0  0
  151.4094  145.1758  158.8680 H   0  0  0  0  0  0  0  0  0  0  0  0
  150.2027  144.1765  159.6706 H   0  0  0  0  0  0  0  0  0  0  0  0
  148.9778  143.0275  156.1258 H   0  0  0  0  0  0  0  0  0  0  0  0
  147.9848  142.4458  154.1490 H   0  0  0  0  0  0  0  0  0  0  0  0
  148.8225  139.6408  155.0993 H   0  0  0  0  0  0  0  0  0  0  0  0
  147.9282  139.8825  153.6145 H   0  0  0  0  0  0  0  0  0  0  0  0
  149.6729  140.4000  152.7102 H   0  0  0  0  0  0  0  0  0  0  0  0
  146.0426  140.6670  154.5438 H   0  0  0  0  0  0  0  0  0  0  0  0
  146.3652  140.9921  156.2245 H   0  0  0  0  0  0  0  0  0  0  0  0
  146.5692  143.4627  153.3562 H   0  0  0  0  0  0  0  0  0  0  0  0
  145.1097  145.4981  153.2987 H   0  0  0  0  0  0  0  0  0  0  0  0
  143.3567  145.7792  155.0752 H   0  0  0  0  0  0  0  0  0  0  0  0
  143.1407  144.0061  156.8360 H   0  0  0  0  0  0  0  0  0  0  0  0
  1  2  2  0  0  0  0
  2  3  1  0  0  0  0
  2 10  1  0  0  0  0
  3  4  1  0  0  0  0
  3 21  1  0  0  0  0
  3 22  1  0  0  0  0
  4  5  1  0  0  0  0
  4 23  1  0  0  0  0
  4 24  1  0  0  0  0
  5  9  1  0  0  0  0
  5  6  1  0  0  0  0
  5 25  1  0  0  0  0
  6  7  1  0  0  0  0
  6 26  1  0  0  0  0
  6 27  1  0  0  0  0
  7  8  1  0  0  0  0
  7 28  1  0  0  0  0
  7 29  1  0  0  0  0
  8  9  1  0  0  0  0
  8 30  1  0  0  0  0
  8 31  1  0  0  0  0
  9 32  1  0  0  0  0
  9 33  1  0  0  0  0
 10 11  1  0  0  0  0
 10 34  1  0  0  0  0
 11 12  1  0  0  0  0
 11 14  1  0  0  0  0
 11 35  1  0  0  0  0
 12 13  1  0  0  0  0
 12 36  1  0  0  0  0
 12 37  1  0  0  0  0
 13 38  1  0  0  0  0
 14 15  1  0  0  0  0
 14 39  1  0  0  0  0
 14 40  1  0  0  0  0
 15 20  1  0  0  0  0
 15 16  2  0  0  0  0
 16 17  1  0  0  0  0
 16 41  1  0  0  0  0
 17 18  2  0  0  0  0
 17 42  1  0  0  0  0
 18 19  1  0  0  0  0
 18 43  1  0  0  0  0
 19 20  2  0  0  0  0
 19 44  1  0  0  0  0
M  END
> <s_m_source_file>
AV-unprocessed.smi

> <i_m_source_file_index>
2725

> <i_lp_mmshare_version>
43012

> <i_f3d_flags>
0

> <s_epik_input>
W0NIMl0xW0NIMl1bQ0gyXVtDSDJdW0NIXTFbQ0gyXVtDSDJdQyg9TylbTkhdW0NASF0oW0NIMl1bT0hdKVtDSDJdYzJbY0hdW2NIXVtjSF1bY0hdbjI=

> <s_epik_cmdline>
J2VwaWtfcHl0aG9uJywgJy1waCcsICc3LjAnLCAnLXRuJywgJzgnLCAnLW1hJywgJzIwMCcsICctbWV0YWxfYmluZGluZycsICctaW1hZScsICc8aW5maWxlLm1hZT4nLCAnLW9tYWUnLCAnPG91dGZpbGUubWFlPic=

> <r_epik_Ionization_Penalty>
0.0257016

> <r_epik_Ionization_Penalty_Charging>
0

> <r_epik_Ionization_Penalty_Neutral>
0.0257016

> <r_epik_State_Penalty>
0.0209381

> <r_epik_Charging_Adjusted_Penalty>
0.0209381

> <i_epik_Tot_Q>
0

> <i_epik_Tot_abs_Q>
0

> <r_epik_Metal_State_Penalty>
0.0200649

> <b_epik_Metal_Only>
0

> <s_lp_Force_Field>
OPLS_2005

> <r_lp_Energy>
24.1231

> <b_lp_Chiralities_Consistent>
1

> <s_lp_Variant>
AV-unprocessed.smi:2725-2

> <Gold.Version>
5.8.1

> <Gold.Id.Protein>
6NUR|6NUR_protein|mol2

> <Gold.PLP.Fitness>
54.9896

> <Gold.PLP.PLP>
-48.8593

> <Gold.PLP.part.hbond>
-2.5808

> <Gold.PLP.part.metal>
0.0000

> <Gold.PLP.part.buried>
-7.8194

> <Gold.PLP.part.nonpolar>
-39.2484

> <Gold.PLP.part.repulsive>
0.2846

> <Gold.PLP.ligand.clash>
0.0000

> <Gold.PLP.ligand.torsion>
0.8736

> <Gold.PLP.Chemscore.Hbond>
2.5959

> <Gold.PLP.Chemscore.CHOScore>
0.0000

> <Gold.PLP.Chemscore.Metal>
0.0000

> <Gold.Chemscore.Hbonds>
donor molecule, donor type, donor heavy atom, donor atom, acceptor molecule, acceptor atom, score
      L1  H    10    34       P1  8028  1.00
      L1  H    13    38       P1  7957  1.00
      P1  H  7989  7998       L1    13  0.30

> <Gold.PLP.Chemscore.Internal.Correction>
0.0899

> <Gold.Rescore>
     Score         DG    S(hbond)    S(metal)    S(lipo)     H(rot)  DE(clash)    DE(int)     intcor
     17.32     -19.51       1.89        0.00     119.55       2.44       0.09       2.11       ----

> <Gold.Chemscore.Fitness>
17.3161

> <Gold.Chemscore.DG>
-19.5141

> <Gold.Chemscore.ZeroCoef>
-5.4800

> <Gold.Chemscore.Hbond>
1.8855

> <Gold.Chemscore.Metal>
0.0000

> <Gold.Chemscore.Lipo>
119.5458

> <Gold.Chemscore.Internal_Hbond>
0.0000

> <Gold.Chemscore.DEClash>
0.0900

> <Gold.Chemscore.DEInternal>
2.1079

> <Gold.Chemscore.Rot>
2.4416

> <Gold.Chemscore.Internal.Correction>
   9.000000E+99

> <Gold.Chemscore.Hbonds>
donor molecule, donor type, donor heavy atom, donor atom, acceptor molecule, acceptor atom, score
      L1  H    10    34       P1  8028  0.96
      L1  H    13    38       P1  7957  0.98
      P1  H  7989  7998       L1    13  0.03

> <Gold.Chemscore.Hbond.Weighted>
-6.2977

> <Gold.Chemscore.Metal.Weighted>
-0.0000

> <Gold.Chemscore.Lipo.Weighted>
-13.9869

> <Gold.Chemscore.Internal_Hbond.Weighted>
0.0000

> <Gold.Chemscore.DEClash.Weighted>
0.0900

> <Gold.Chemscore.DEInternal.Weighted>
2.1079

> <Gold.Chemscore.Rot.Weighted>
6.2505

> <Gold.Chemscore.Internal.Correction.Weighted>
   9.000000E+99

> <Gold.Protein.RotatedTorsions>
[ 6907 6896 6895 6894 ] final  164.84 input  -60.11 | X-H torsion
[ 7974 7965 7964 7962 ] final  -65.66 input  175.53 | X-H torsion
[ 8008 7997 7996 7995 ] final  -33.95 input   59.86 | X-H torsion
[ 10167 10162 10161 10158 ] final  -14.69 input  -65.29 | X-H torsion
[ 10718 10713 10712 10709 ] final  167.67 input   66.30 | X-H torsion
[ 10763 10752 10751 10750 ] final -146.96 input  -60.55 | X-H torsion
[ 11005 11000 10999 10996 ] final   35.05 input  -57.11 | X-H torsion

> <Gold.Protein.ActiveResidues>
 VAL166  LYS551  ARG553  GLY616  TRP617  ASP618  TYR619  PRO620  LYS621  CYS622 
 ASP623  PHE694  ASN695  SER759  ASP760  ASP761  ALA762  ILE779  LEU786  VAL792 
 PHE793  MET794  SER795  GLU796  ALA797  LYS798  CYS799  TRP800  GLU811  SER814 

> <Gold.Protein.RotatedAtoms>
  151.9037  133.3544  159.3839 H   0  0  0  0  0  0  0  0  0  0  0  0  # atno 6907 bound_to 6896
  150.7074  134.4802  159.5476 H   0  0  0  0  0  0  0  0  0  0  0  0  # atno 6908 bound_to 6896
  152.2395  134.8243  160.0513 H   0  0  0  0  0  0  0  0  0  0  0  0  # atno 6909 bound_to 6896
  145.7515  140.8906  143.0477 H   0  0  0  0  0  0  0  0  0  0  0  0  # atno 7974 bound_to 7965
  154.4134  140.1697  156.1970 H   0  0  0  0  0  0  0  0  0  0  0  0  # atno 8008 bound_to 7997
  155.9556  140.3397  155.6422 H   0  0  0  0  0  0  0  0  0  0  0  0  # atno 8009 bound_to 7997
  155.6815  140.0723  157.2474 H   0  0  0  0  0  0  0  0  0  0  0  0  # atno 8010 bound_to 7997
  140.7206  143.5295  150.9537 H   0  0  0  0  0  0  0  0  0  0  0  0  # atno 10167 bound_to 10162
  157.0482  131.0306  151.2690 H   0  0  0  0  0  0  0  0  0  0  0  0  # atno 10718 bound_to 10713
  154.8310  135.3373  154.6743 H   0  0  0  0  0  0  0  0  0  0  0  0  # atno 10763 bound_to 10752
  153.7362  135.6949  153.4982 H   0  0  0  0  0  0  0  0  0  0  0  0  # atno 10764 bound_to 10752
  153.2276  135.4427  155.0511 H   0  0  0  0  0  0  0  0  0  0  0  0  # atno 10765 bound_to 10752
  140.2466  134.3352  155.7905 H   0  0  0  0  0  0  0  0  0  0  0  0  # atno 11005 bound_to 11000
  144.6849  139.9598  143.7480 LP  0  0  0  0  0  0  0  0  0  0  0  0  # atno 17320 bound_to 7965
  146.0352  139.3371  143.0731 LP  0  0  0  0  0  0  0  0  0  0  0  0  # atno 17321 bound_to 7965
  139.9015  143.6830  152.3130 LP  0  0  0  0  0  0  0  0  0  0  0  0  # atno 17342 bound_to 10162
  139.7181  144.7608  151.1000 LP  0  0  0  0  0  0  0  0  0  0  0  0  # atno 17343 bound_to 10162
  157.5051  130.7904  149.7645 LP  0  0  0  0  0  0  0  0  0  0  0  0  # atno 17370 bound_to 10713
  156.0016  130.3877  150.2585 LP  0  0  0  0  0  0  0  0  0  0  0  0  # atno 17371 bound_to 10713
  141.2205  133.7329  156.8971 LP  0  0  0  0  0  0  0  0  0  0  0  0  # atno 17394 bound_to 11000
  140.1599  134.9172  157.2702 LP  0  0  0  0  0  0  0  0  0  0  0  0  # atno 17395 bound_to 11000

$$$$
