AV-unprocessed.smi:749|AV-procd|sdf|3585|dock7
  -GOLD-   22720 0583D 1   1.00000     0.00000
 Structure written by MMmdl.
 43 44  0  0  0  0  0  0  0  0  1 V2000
  152.0576  139.3131  155.4700 C   0  0  0  0  0  0  0  0  0  0  0  0
  150.7090  139.7822  155.1477 N   0  0  0  0  0  0  0  0  0  0  0  0
  149.9729  138.9362  154.1955 C   0  0  0  0  0  0  0  0  0  0  0  0
  148.4620  139.2200  154.1364 C   0  0  2  0  0  0  0  0  0  0  0  0
  147.8864  138.5754  152.9613 N   0  0  0  0  0  0  0  0  0  0  0  0
  146.9409  137.6212  152.9730 C   0  0  0  0  0  0  0  0  0  0  0  0
  146.4581  137.1744  154.0122 O   0  0  0  0  0  0  0  0  0  0  0  0
  146.5380  137.1693  151.7667 N   0  0  0  0  0  0  0  0  0  0  0  0
  145.5737  136.1825  151.4147 C   0  0  0  0  0  0  0  0  0  0  0  0
  145.9823  134.9726  150.7943 C   0  0  0  0  0  0  0  0  0  0  0  0
  144.8082  134.2922  150.6180 C   0  0  0  0  0  0  0  0  0  0  0  0
  144.4677  132.9518  150.0291 C   0  0  0  0  0  0  0  0  0  0  0  0
  143.5233  132.1682  150.9622 C   0  0  0  0  0  0  0  0  0  0  0  0
  145.7503  132.1228  149.8288 C   0  0  0  0  0  0  0  0  0  0  0  0
  143.7657  133.1361  148.6706 C   0  0  0  0  0  0  0  0  0  0  0  0
  143.7690  135.0311  151.0976 O   0  0  0  0  0  0  0  0  0  0  0  0
  144.2640  136.2373  151.6041 N   0  0  0  0  0  0  0  0  0  0  0  0
  148.2221  140.7323  154.0953 C   0  0  0  0  0  0  0  0  0  0  0  0
  148.8179  141.4031  155.3383 C   0  0  0  0  0  0  0  0  0  0  0  0
  150.2518  140.9522  155.6562 C   0  0  0  0  0  0  0  0  0  0  0  0
  150.9323  141.6630  156.3964 O   0  0  0  0  0  0  0  0  0  0  0  0
  152.1370  139.0836  156.5336 H   0  0  0  0  0  0  0  0  0  0  0  0
  152.8016  140.0736  155.2275 H   0  0  0  0  0  0  0  0  0  0  0  0
  152.3234  138.4120  154.9155 H   0  0  0  0  0  0  0  0  0  0  0  0
  150.4169  139.0972  153.2118 H   0  0  0  0  0  0  0  0  0  0  0  0
  150.1276  137.8835  154.4373 H   0  0  0  0  0  0  0  0  0  0  0  0
  147.9994  138.8112  155.0373 H   0  0  0  0  0  0  0  0  0  0  0  0
  148.2283  138.8839  152.0620 H   0  0  0  0  0  0  0  0  0  0  0  0
  147.0161  137.5861  150.9812 H   0  0  0  0  0  0  0  0  0  0  0  0
  146.9775  134.6544  150.5221 H   0  0  0  0  0  0  0  0  0  0  0  0
  143.2728  131.1912  150.5473 H   0  0  0  0  0  0  0  0  0  0  0  0
  142.5869  132.7039  151.1224 H   0  0  0  0  0  0  0  0  0  0  0  0
  143.9782  132.0004  151.9393 H   0  0  0  0  0  0  0  0  0  0  0  0
  146.2716  131.9667  150.7737 H   0  0  0  0  0  0  0  0  0  0  0  0
  146.4450  132.6184  149.1496 H   0  0  0  0  0  0  0  0  0  0  0  0
  145.5297  131.1410  149.4085 H   0  0  0  0  0  0  0  0  0  0  0  0
  143.4976  132.1765  148.2267 H   0  0  0  0  0  0  0  0  0  0  0  0
  144.4045  133.6576  147.9569 H   0  0  0  0  0  0  0  0  0  0  0  0
  142.8489  133.7176  148.7750 H   0  0  0  0  0  0  0  0  0  0  0  0
  148.6677  141.1593  153.1953 H   0  0  0  0  0  0  0  0  0  0  0  0
  147.1540  140.9468  154.0441 H   0  0  0  0  0  0  0  0  0  0  0  0
  148.7958  142.4871  155.2202 H   0  0  0  0  0  0  0  0  0  0  0  0
  148.2002  141.1723  156.2069 H   0  0  0  0  0  0  0  0  0  0  0  0
  1  2  1  0  0  0  0
  1 22  1  0  0  0  0
  1 23  1  0  0  0  0
  1 24  1  0  0  0  0
  2 20  1  0  0  0  0
  2  3  1  0  0  0  0
  3  4  1  0  0  0  0
  3 25  1  0  0  0  0
  3 26  1  0  0  0  0
  4  5  1  0  0  0  0
  4 18  1  0  0  0  0
  4 27  1  0  0  0  0
  5  6  1  0  0  0  0
  5 28  1  0  0  0  0
  6  7  2  0  0  0  0
  6  8  1  0  0  0  0
  8  9  1  0  0  0  0
  8 29  1  0  0  0  0
  9 17  2  0  0  0  0
  9 10  1  0  0  0  0
 10 11  2  0  0  0  0
 10 30  1  0  0  0  0
 11 12  1  0  0  0  0
 11 16  1  0  0  0  0
 12 13  1  0  0  0  0
 12 14  1  0  0  0  0
 12 15  1  0  0  0  0
 13 31  1  0  0  0  0
 13 32  1  0  0  0  0
 13 33  1  0  0  0  0
 14 34  1  0  0  0  0
 14 35  1  0  0  0  0
 14 36  1  0  0  0  0
 15 37  1  0  0  0  0
 15 38  1  0  0  0  0
 15 39  1  0  0  0  0
 16 17  1  0  0  0  0
 18 19  1  0  0  0  0
 18 40  1  0  0  0  0
 18 41  1  0  0  0  0
 19 20  1  0  0  0  0
 19 42  1  0  0  0  0
 19 43  1  0  0  0  0
 20 21  2  0  0  0  0
M  END
> <s_m_source_file>
AV-unprocessed.smi

> <i_m_source_file_index>
749

> <i_lp_mmshare_version>
43012

> <i_f3d_flags>
0

> <s_epik_input>
Tz1DMVtDSDJdW0NIMl1bQ0BASF0oW0NIMl1OMVtDSDNdKVtOSF1DKD1PKVtOSF1jMltjSF1jKG9uMilDKFtDSDNdKShbQ0gzXSlbQ0gzXQ==

> <s_epik_cmdline>
J2VwaWtfcHl0aG9uJywgJy1waCcsICc3LjAnLCAnLXRuJywgJzgnLCAnLW1hJywgJzIwMCcsICctbWV0YWxfYmluZGluZycsICctaW1hZScsICc8aW5maWxlLm1hZT4nLCAnLW9tYWUnLCAnPG91dGZpbGUubWFlPic=

> <r_lp_tautomer_probability>
1

> <r_epik_Ionization_Penalty>
2.91905e-05

> <r_epik_Ionization_Penalty_Charging>
0

> <r_epik_Ionization_Penalty_Neutral>
2.91905e-05

> <r_epik_State_Penalty>
-0

> <r_epik_Charging_Adjusted_Penalty>
0

> <i_epik_Tot_Q>
0

> <i_epik_Tot_abs_Q>
0

> <r_epik_Metal_State_Penalty>
0.0102923

> <b_epik_Metal_Only>
0

> <s_lp_Force_Field>
OPLS_2005

> <r_lp_Energy>
15.3042

> <b_lp_Chiralities_Consistent>
1

> <s_lp_Variant>
AV-unprocessed.smi:749-2

> <Gold.Version>
5.8.1

> <Gold.Id.Protein>
6NUR|6NUR_protein|mol2

> <Gold.PLP.Fitness>
39.7295

> <Gold.PLP.PLP>
-39.1130

> <Gold.PLP.part.hbond>
-3.0000

> <Gold.PLP.part.metal>
0.0000

> <Gold.PLP.part.buried>
0.8966

> <Gold.PLP.part.nonpolar>
-37.4202

> <Gold.PLP.part.repulsive>
1.6607

> <Gold.PLP.ligand.clash>
0.0000

> <Gold.PLP.ligand.torsion>
1.0364

> <Gold.PLP.Chemscore.Hbond>
0.8960

> <Gold.PLP.Chemscore.CHOScore>
0.0000

> <Gold.PLP.Chemscore.Metal>
0.0000

> <Gold.Chemscore.Hbonds>
donor molecule, donor type, donor heavy atom, donor atom, acceptor molecule, acceptor atom, score
      L1  H     5    28       P1  7957  0.91

> <Gold.PLP.Chemscore.Internal.Correction>
0.0013

> <Gold.Rescore>
     Score         DG    S(hbond)    S(metal)    S(lipo)     H(rot)  DE(clash)    DE(int)     intcor
     13.16     -15.45       0.91        0.00      86.28       1.23       1.60       0.69       ----

> <Gold.Chemscore.Fitness>
13.1612

> <Gold.Chemscore.DG>
-15.4529

> <Gold.Chemscore.ZeroCoef>
-5.4800

> <Gold.Chemscore.Hbond>
0.9075

> <Gold.Chemscore.Metal>
0.0000

> <Gold.Chemscore.Lipo>
86.2821

> <Gold.Chemscore.Internal_Hbond>
0.0000

> <Gold.Chemscore.DEClash>
1.6006

> <Gold.Chemscore.DEInternal>
0.6910

> <Gold.Chemscore.Rot>
1.2317

> <Gold.Chemscore.Internal.Correction>
   9.000000E+99

> <Gold.Chemscore.Hbonds>
donor molecule, donor type, donor heavy atom, donor atom, acceptor molecule, acceptor atom, score
      L1  H     5    28       P1  7957  0.83

> <Gold.Chemscore.Hbond.Weighted>
-3.0310

> <Gold.Chemscore.Metal.Weighted>
-0.0000

> <Gold.Chemscore.Lipo.Weighted>
-10.0950

> <Gold.Chemscore.Internal_Hbond.Weighted>
0.0000

> <Gold.Chemscore.DEClash.Weighted>
1.6006

> <Gold.Chemscore.DEInternal.Weighted>
0.6910

> <Gold.Chemscore.Rot.Weighted>
3.1531

> <Gold.Chemscore.Internal.Correction.Weighted>
   9.000000E+99

> <Gold.Protein.RotatedTorsions>
[ 6907 6896 6895 6894 ] final   75.67 input  -60.11 | X-H torsion
[ 7974 7965 7964 7962 ] final  128.70 input  175.53 | X-H torsion
[ 8008 7997 7996 7995 ] final  129.08 input   59.86 | X-H torsion
[ 10167 10162 10161 10158 ] final   60.65 input  -65.29 | X-H torsion
[ 10718 10713 10712 10709 ] final  -53.13 input   66.30 | X-H torsion
[ 10763 10752 10751 10750 ] final -101.38 input  -60.55 | X-H torsion
[ 11005 11000 10999 10996 ] final  -14.14 input  -57.11 | X-H torsion

> <Gold.Protein.ActiveResidues>
 VAL166  LYS551  ARG553  GLY616  TRP617  ASP618  TYR619  PRO620  LYS621  CYS622 
 ASP623  PHE694  ASN695  SER759  ASP760  ASP761  ALA762  ILE779  LEU786  VAL792 
 PHE793  MET794  SER795  GLU796  ALA797  LYS798  CYS799  TRP800  GLU811  SER814 

> <Gold.Protein.RotatedAtoms>
  152.5037  134.4085  159.9440 H   0  0  0  0  0  0  0  0  0  0  0  0  # atno 6907 bound_to 6896
  151.4052  133.3738  159.2745 H   0  0  0  0  0  0  0  0  0  0  0  0  # atno 6908 bound_to 6896
  150.9332  134.8768  159.7624 H   0  0  0  0  0  0  0  0  0  0  0  0  # atno 6909 bound_to 6896
  145.0367  139.3999  143.5122 H   0  0  0  0  0  0  0  0  0  0  0  0  # atno 7974 bound_to 7965
  156.2929  140.2629  156.2541 H   0  0  0  0  0  0  0  0  0  0  0  0  # atno 8008 bound_to 7997
  154.9853  140.0389  157.2314 H   0  0  0  0  0  0  0  0  0  0  0  0  # atno 8009 bound_to 7997
  154.7735  140.2782  155.6124 H   0  0  0  0  0  0  0  0  0  0  0  0  # atno 8010 bound_to 7997
  140.1633  144.4349  150.6698 H   0  0  0  0  0  0  0  0  0  0  0  0  # atno 10167 bound_to 10162
  156.1562  130.4150  149.9866 H   0  0  0  0  0  0  0  0  0  0  0  0  # atno 10718 bound_to 10713
  154.7653  135.4900  153.9542 H   0  0  0  0  0  0  0  0  0  0  0  0  # atno 10763 bound_to 10752
  153.1300  135.6751  153.9201 H   0  0  0  0  0  0  0  0  0  0  0  0  # atno 10764 bound_to 10752
  153.8907  135.3121  155.3426 H   0  0  0  0  0  0  0  0  0  0  0  0  # atno 10765 bound_to 10752
  140.7833  133.8345  155.9312 H   0  0  0  0  0  0  0  0  0  0  0  0  # atno 11005 bound_to 11000
  146.3505  139.9946  142.8682 LP  0  0  0  0  0  0  0  0  0  0  0  0  # atno 17320 bound_to 7965
  145.1700  140.9716  143.4327 LP  0  0  0  0  0  0  0  0  0  0  0  0  # atno 17321 bound_to 7965
  140.6629  143.2258  151.5813 LP  0  0  0  0  0  0  0  0  0  0  0  0  # atno 17342 bound_to 10162
  139.5371  144.2750  152.1274 LP  0  0  0  0  0  0  0  0  0  0  0  0  # atno 17343 bound_to 10162
  156.7709  130.9186  151.3644 LP  0  0  0  0  0  0  0  0  0  0  0  0  # atno 17370 bound_to 10713
  157.6696  130.9039  150.0011 LP  0  0  0  0  0  0  0  0  0  0  0  0  # atno 17371 bound_to 10713
  140.9461  134.1838  157.4762 LP  0  0  0  0  0  0  0  0  0  0  0  0  # atno 17394 bound_to 11000
  139.8740  134.9891  156.5442 LP  0  0  0  0  0  0  0  0  0  0  0  0  # atno 17395 bound_to 11000

$$$$
