AV-unprocessed.smi:1936|AV-procd|sdf|7829|dock7
  -GOLD-   22720 9573D 1   1.00000     0.00000
 Structure written by MMmdl.
 38 39  0  0  0  0  0  0  0  0  1 V2000
  152.0670  139.5328  159.1732 C   0  0  0  0  0  0  0  0  0  0  0  0
  152.1599  140.2818  157.8375 C   0  0  2  0  0  0  0  0  0  0  0  0
  151.5062  141.6782  157.9162 C   0  0  0  0  0  0  0  0  0  0  0  0
  152.0913  142.5900  158.9022 N   0  0  0  0  0  0  0  0  0  0  0  0
  151.6688  142.2977  160.2697 C   0  0  0  0  0  0  0  0  0  0  0  0
  152.3008  143.2689  161.2817 C   0  0  0  0  0  0  0  0  0  0  0  0
  151.9851  144.6103  160.9220 O   0  0  0  0  0  0  0  0  0  0  0  0
  152.4193  144.9448  159.6078 C   0  0  0  0  0  0  0  0  0  0  0  0
  151.7809  143.9804  158.5936 C   0  0  0  0  0  0  0  0  0  0  0  0
  151.5128  139.5001  156.7867 N   0  0  0  0  0  0  0  0  0  0  0  0
  152.1302  138.9290  155.7409 C   0  0  0  0  0  0  0  0  0  0  0  0
  153.3530  138.8580  155.6220 O   0  0  0  0  0  0  0  0  0  0  0  0
  151.2210  138.3928  154.6359 C   0  0  0  0  0  0  0  0  0  0  0  0
  150.3278  139.4367  154.1619 N   0  0  0  0  0  0  0  0  0  0  0  0
  149.1461  139.3034  153.4612 C   0  0  0  0  0  0  0  0  0  0  0  0
  148.6513  140.5588  153.2534 C   0  0  0  0  0  0  0  0  0  0  0  0
  149.6118  141.4066  153.8726 C   0  0  0  0  0  0  0  0  0  0  0  0
  150.6135  140.7330  154.4147 N   0  0  0  0  0  0  0  0  0  0  0  0
  152.5512  140.0960  159.9715 H   0  0  0  0  0  0  0  0  0  0  0  0
  152.5570  138.5605  159.1125 H   0  0  0  0  0  0  0  0  0  0  0  0
  151.0296  139.3658  159.4653 H   0  0  0  0  0  0  0  0  0  0  0  0
  153.2196  140.4117  157.6136 H   0  0  0  0  0  0  0  0  0  0  0  0
  151.5880  142.1379  156.9302 H   0  0  0  0  0  0  0  0  0  0  0  0
  150.4370  141.5690  158.1042 H   0  0  0  0  0  0  0  0  0  0  0  0
  150.5816  142.3548  160.3421 H   0  0  0  0  0  0  0  0  0  0  0  0
  151.9485  141.2811  160.5449 H   0  0  0  0  0  0  0  0  0  0  0  0
  151.9232  143.0699  162.2847 H   0  0  0  0  0  0  0  0  0  0  0  0
  153.3834  143.1385  161.3159 H   0  0  0  0  0  0  0  0  0  0  0  0
  152.1320  145.9730  159.3876 H   0  0  0  0  0  0  0  0  0  0  0  0
  153.5081  144.8971  159.5537 H   0  0  0  0  0  0  0  0  0  0  0  0
  152.1356  144.2263  157.5920 H   0  0  0  0  0  0  0  0  0  0  0  0
  150.6994  144.1260  158.5866 H   0  0  0  0  0  0  0  0  0  0  0  0
  150.5033  139.4940  156.7919 H   0  0  0  0  0  0  0  0  0  0  0  0
  151.8202  138.0173  153.8046 H   0  0  0  0  0  0  0  0  0  0  0  0
  150.6247  137.5583  155.0076 H   0  0  0  0  0  0  0  0  0  0  0  0
  148.7566  138.3364  153.1779 H   0  0  0  0  0  0  0  0  0  0  0  0
  147.7400  140.8299  152.7418 H   0  0  0  0  0  0  0  0  0  0  0  0
  149.6100  142.4843  153.9456 H   0  0  0  0  0  0  0  0  0  0  0  0
  1  2  1  0  0  0  0
  1 19  1  0  0  0  0
  1 20  1  0  0  0  0
  1 21  1  0  0  0  0
  2  3  1  0  0  0  0
  2 10  1  0  0  0  0
  2 22  1  0  0  0  0
  3  4  1  0  0  0  0
  3 23  1  0  0  0  0
  3 24  1  0  0  0  0
  4  9  1  0  0  0  0
  4  5  1  0  0  0  0
  5  6  1  0  0  0  0
  5 25  1  0  0  0  0
  5 26  1  0  0  0  0
  6  7  1  0  0  0  0
  6 27  1  0  0  0  0
  6 28  1  0  0  0  0
  7  8  1  0  0  0  0
  8  9  1  0  0  0  0
  8 29  1  0  0  0  0
  8 30  1  0  0  0  0
  9 31  1  0  0  0  0
  9 32  1  0  0  0  0
 10 11  1  0  0  0  0
 10 33  1  0  0  0  0
 11 12  2  0  0  0  0
 11 13  1  0  0  0  0
 13 14  1  0  0  0  0
 13 34  1  0  0  0  0
 13 35  1  0  0  0  0
 14 18  1  0  0  0  0
 14 15  1  0  0  0  0
 15 16  2  0  0  0  0
 15 36  1  0  0  0  0
 16 17  1  0  0  0  0
 16 37  1  0  0  0  0
 17 18  2  0  0  0  0
 17 38  1  0  0  0  0
M  END
> <s_m_source_file>
AV-unprocessed.smi

> <i_m_source_file_index>
1936

> <i_lp_mmshare_version>
43012

> <i_f3d_flags>
0

> <s_epik_input>
W0NIMl0xW0NIMl1PW0NIMl1bQ0gyXU4xW0NIMl1bQ0BASF0oW0NIM10pW05IXUMoPU8pW0NIMl1uMltjSF1bY0hdW2NIXW4y

> <s_epik_cmdline>
J2VwaWtfcHl0aG9uJywgJy1waCcsICc3LjAnLCAnLXRuJywgJzgnLCAnLW1hJywgJzIwMCcsICctbWV0YWxfYmluZGluZycsICctaW1hZScsICc8aW5maWxlLm1hZT4nLCAnLW9tYWUnLCAnPG91dGZpbGUubWFlPic=

> <r_lp_tautomer_probability>
1

> <r_epik_Ionization_Penalty>
0.196927

> <r_epik_Ionization_Penalty_Charging>
0

> <r_epik_Ionization_Penalty_Neutral>
0.196927

> <r_epik_State_Penalty>
0.186684

> <r_epik_Charging_Adjusted_Penalty>
0.186684

> <i_epik_Tot_Q>
0

> <i_epik_Tot_abs_Q>
0

> <r_epik_Metal_State_Penalty>
0.186682

> <b_epik_Metal_Only>
0

> <s_lp_Force_Field>
OPLS_2005

> <r_lp_Energy>
24.3888

> <b_lp_Chiralities_Consistent>
1

> <s_lp_Variant>
AV-unprocessed.smi:1936-1

> <Gold.Version>
5.8.1

> <Gold.Id.Protein>
6NUR|6NUR_protein|mol2

> <Gold.PLP.Fitness>
45.5161

> <Gold.PLP.PLP>
-37.4810

> <Gold.PLP.part.hbond>
-2.0000

> <Gold.PLP.part.metal>
0.0000

> <Gold.PLP.part.buried>
-3.1131

> <Gold.PLP.part.nonpolar>
-31.8977

> <Gold.PLP.part.repulsive>
0.3640

> <Gold.PLP.ligand.clash>
0.0000

> <Gold.PLP.ligand.torsion>
0.4844

> <Gold.PLP.Chemscore.Hbond>
1.5936

> <Gold.PLP.Chemscore.CHOScore>
1.3954

> <Gold.PLP.Chemscore.Metal>
0.0000

> <Gold.Chemscore.Hbonds>
donor molecule, donor type, donor heavy atom, donor atom, acceptor molecule, acceptor atom, score
      P1  H  7989  7998       L1    18  0.47
      P1  H  7997  8009       L1    12  1.00
      L1  C    15    36       P1  7948  1.00
      L1  C    17    38       P1  8028  0.11

> <Gold.PLP.Chemscore.Internal.Correction>
0.0368

> <Gold.Rescore>
     Score         DG    S(hbond)    S(metal)    S(lipo)     H(rot)  DE(clash)    DE(int)     intcor
     17.32     -18.08       1.93        0.00      93.24       1.85       0.07       0.69       ----

> <Gold.Chemscore.Fitness>
17.3189

> <Gold.Chemscore.DG>
-18.0834

> <Gold.Chemscore.ZeroCoef>
-5.4800

> <Gold.Chemscore.Hbond>
1.9289

> <Gold.Chemscore.Metal>
0.0000

> <Gold.Chemscore.Lipo>
93.2441

> <Gold.Chemscore.Internal_Hbond>
0.0000

> <Gold.Chemscore.DEClash>
0.0710

> <Gold.Chemscore.DEInternal>
0.6936

> <Gold.Chemscore.Rot>
1.8549

> <Gold.Chemscore.Internal.Correction>
   9.000000E+99

> <Gold.Chemscore.Hbonds>
donor molecule, donor type, donor heavy atom, donor atom, acceptor molecule, acceptor atom, score
      P1  H  7989  7998       L1    18  0.04
      P1  H  7997  8009       L1    12  0.94

> <Gold.Chemscore.Hbond.Weighted>
-6.4424

> <Gold.Chemscore.Metal.Weighted>
-0.0000

> <Gold.Chemscore.Lipo.Weighted>
-10.9096

> <Gold.Chemscore.Internal_Hbond.Weighted>
0.0000

> <Gold.Chemscore.DEClash.Weighted>
0.0710

> <Gold.Chemscore.DEInternal.Weighted>
0.6936

> <Gold.Chemscore.Rot.Weighted>
4.7485

> <Gold.Chemscore.Internal.Correction.Weighted>
   9.000000E+99

> <Gold.Protein.RotatedTorsions>
[ 6907 6896 6895 6894 ] final -165.31 input  -60.11 | X-H torsion
[ 7974 7965 7964 7962 ] final  150.01 input  175.53 | X-H torsion
[ 8008 7997 7996 7995 ] final -147.74 input   59.86 | X-H torsion
[ 10167 10162 10161 10158 ] final  -69.37 input  -65.29 | X-H torsion
[ 10718 10713 10712 10709 ] final  108.25 input   66.30 | X-H torsion
[ 10763 10752 10751 10750 ] final   85.82 input  -60.55 | X-H torsion
[ 11005 11000 10999 10996 ] final  170.51 input  -57.11 | X-H torsion

> <Gold.Protein.ActiveResidues>
 VAL166  LYS551  ARG553  GLY616  TRP617  ASP618  TYR619  PRO620  LYS621  CYS622 
 ASP623  PHE694  ASN695  SER759  ASP760  ASP761  ALA762  ILE779  LEU786  VAL792 
 PHE793  MET794  SER795  GLU796  ALA797  LYS798  CYS799  TRP800  GLU811  SER814 

> <Gold.Protein.RotatedAtoms>
  151.4257  133.3685  159.2761 H   0  0  0  0  0  0  0  0  0  0  0  0  # atno 6907 bound_to 6896
  150.9261  134.8679  159.7531 H   0  0  0  0  0  0  0  0  0  0  0  0  # atno 6908 bound_to 6896
  152.5006  134.4198  159.9529 H   0  0  0  0  0  0  0  0  0  0  0  0  # atno 6909 bound_to 6896
  144.8395  139.6354  143.6023 H   0  0  0  0  0  0  0  0  0  0  0  0  # atno 7974 bound_to 7965
  155.5805  140.0643  157.2784 H   0  0  0  0  0  0  0  0  0  0  0  0  # atno 8008 bound_to 7997
  154.4334  140.1853  156.1018 H   0  0  0  0  0  0  0  0  0  0  0  0  # atno 8009 bound_to 7997
  156.0309  140.3306  155.7142 H   0  0  0  0  0  0  0  0  0  0  0  0  # atno 8010 bound_to 7997
  140.5436  143.2314  151.7043 H   0  0  0  0  0  0  0  0  0  0  0  0  # atno 10167 bound_to 10162
  157.6594  131.0890  150.6278 H   0  0  0  0  0  0  0  0  0  0  0  0  # atno 10718 bound_to 10713
  153.1512  135.4603  154.9638 H   0  0  0  0  0  0  0  0  0  0  0  0  # atno 10763 bound_to 10752
  154.7826  135.3193  154.7959 H   0  0  0  0  0  0  0  0  0  0  0  0  # atno 10764 bound_to 10752
  153.8464  135.6925  153.4851 H   0  0  0  0  0  0  0  0  0  0  0  0  # atno 10765 bound_to 10752
  140.3092  134.7531  157.3977 H   0  0  0  0  0  0  0  0  0  0  0  0  # atno 11005 bound_to 11000
  146.2690  139.6589  142.9309 LP  0  0  0  0  0  0  0  0  0  0  0  0  # atno 17320 bound_to 7965
  145.4723  141.0436  143.2692 LP  0  0  0  0  0  0  0  0  0  0  0  0  # atno 17321 bound_to 7965
  139.4998  144.3930  152.0260 LP  0  0  0  0  0  0  0  0  0  0  0  0  # atno 17342 bound_to 10162
  140.3041  144.3613  150.6052 LP  0  0  0  0  0  0  0  0  0  0  0  0  # atno 17343 bound_to 10162
  156.6582  130.4504  149.5696 LP  0  0  0  0  0  0  0  0  0  0  0  0  # atno 17370 bound_to 10713
  156.2087  130.6665  151.1246 LP  0  0  0  0  0  0  0  0  0  0  0  0  # atno 17371 bound_to 10713
  140.1040  134.5434  155.8326 LP  0  0  0  0  0  0  0  0  0  0  0  0  # atno 17394 bound_to 11000
  141.2112  133.6703  156.6564 LP  0  0  0  0  0  0  0  0  0  0  0  0  # atno 17395 bound_to 11000

$$$$
