#       Name:                AV-unprocessed.smi:148
#       Creating user name   scv26
#       Creation time:       Thu Mar 26 18:39:14 2020


#       File generated by GOLD software.
#

@<TRIPOS>MOLECULE
AV-unprocessed.smi:148
    73    77     1
SMALL
NO_CHARGES


@<TRIPOS>ATOM
      1 ****        -3.4159   2.8714   2.4567 O.3            1 S1                 0.0000
      2 ****        -3.7618   2.3173   1.2047 C.3            1 S1                 0.0000
      3 ****        -3.1160   3.1125   0.0454 C.3            1 S1                 0.0000
      4 ****        -1.5636   3.1020   0.1142 C.3            1 S1                 0.0000
      5 ****        -0.9660   1.7776   0.0187 N.pl3          1 S1                 0.0000
      6 ****        -0.6019   1.1145  -1.1328 C.2            1 S1                 0.0000
      7 ****        -0.0878  -0.0716  -0.9562 N.2            1 S1                 0.0000
      8 ****        -0.0782  -0.2326   0.4232 C.ar           1 S1                 0.0000
      9 ****         0.3456  -1.2707   1.3004 C.ar           1 S1                 0.0000
     10 ****         0.8696  -2.4493   0.8990 N.3            1 S1                 0.0000
     11 ****        -0.1965  -3.2582   0.3025 C.3            1 S1                 0.0000
     12 ****         0.2567  -4.7004   0.0610 C.3            1 S1                 0.0000
     13 ****         1.5153  -4.7044  -0.8061 C.3            1 S1                 0.0000
     14 ****         2.6055  -3.8596  -0.1364 C.3            1 S1                 0.0000
     15 ****         2.1467  -2.4035   0.1539 C.3            1 S1                 0.0000
     16 ****         3.2861  -1.6188   0.8937 C.3            1 S1                 0.0000
     17 ****         3.1428  -0.0836   0.9860 C.3            1 S1                 0.0000
     18 ****         4.5544   0.4910   1.1728 C.3            1 S1                 0.0000
     19 ****         5.5209  -0.6820   0.9902 C.3            1 S1                 0.0000
     20 ****         4.7028  -1.7739   0.2999 C.3            1 S1                 0.0000
     21 ****         4.7093  -1.5273  -1.0955 O.3            1 S1                 0.0000
     22 ****         0.1916  -1.0819   2.6342 N.ar           1 S1                 0.0000
     23 ****        -0.3227   0.0647   3.0893 C.ar           1 S1                 0.0000
     24 ****        -0.7485   1.1227   2.3952 N.ar           1 S1                 0.0000
     25 ****        -0.6149   0.9252   1.0521 C.ar           1 S1                 0.0000
     26 ****        -3.6537   2.6322  -1.3285 C.3            1 S1                 0.0000
     27 ****        -3.2046   3.4709  -2.5136 C.3            1 S1                 0.0000
     28 ****        -4.2119   3.0797  -3.5889 C.3            1 S1                 0.0000
     29 ****        -5.4228   2.8028  -2.8955 O.3            1 S1                 0.0000
     30 ****        -5.1749   2.7273  -1.4953 C.3            1 S1                 0.0000
     31 ****        -2.4873   2.7531   2.5900 H              1 S1                 0.0000
     32 ****        -3.4752   1.2660   1.1768 H              1 S1                 0.0000
     33 ****        -4.8487   2.3470   1.1385 H              1 S1                 0.0000
     34 ****        -3.4276   4.1518   0.1619 H              1 S1                 0.0000
     35 ****        -1.1428   3.7222  -0.6772 H              1 S1                 0.0000
     36 ****        -1.2274   3.5591   1.0453 H              1 S1                 0.0000
     37 ****        -0.7349   1.5346  -2.1183 H              1 S1                 0.0000
     38 ****        -1.0732  -3.2615   0.9528 H              1 S1                 0.0000
     39 ****        -0.5064  -2.8142  -0.6445 H              1 S1                 0.0000
     40 ****         0.4581  -5.1917   1.0139 H              1 S1                 0.0000
     41 ****        -0.5380  -5.2683  -0.4236 H              1 S1                 0.0000
     42 ****         1.8662  -5.7258  -0.9558 H              1 S1                 0.0000
     43 ****         1.2888  -4.3005  -1.7939 H              1 S1                 0.0000
     44 ****         2.9075  -4.3393   0.7959 H              1 S1                 0.0000
     45 ****         3.4797  -3.8746  -0.7856 H              1 S1                 0.0000
     46 ****         1.9579  -1.9196  -0.8050 H              1 S1                 0.0000
     47 ****         3.3358  -2.0008   1.9151 H              1 S1                 0.0000
     48 ****         2.7164   0.3097   0.0625 H              1 S1                 0.0000
     49 ****         2.4975   0.2283   1.8058 H              1 S1                 0.0000
     50 ****         4.7434   1.2665   0.4294 H              1 S1                 0.0000
     51 ****         4.6769   0.9451   2.1567 H              1 S1                 0.0000
     52 ****         6.4221  -0.4068   0.4404 H              1 S1                 0.0000
     53 ****         5.8376  -1.0397   1.9710 H              1 S1                 0.0000
     54 ****         5.1284  -2.7595   0.4911 H              1 S1                 0.0000
     55 ****         4.1742  -2.1814  -1.5185 H              1 S1                 0.0000
     56 ****        -0.4049   0.1464   4.1631 H              1 S1                 0.0000
     57 ****        -3.3607   1.5953  -1.4998 H              1 S1                 0.0000
     58 ****        -3.2981   4.5337  -2.2854 H              1 S1                 0.0000
     59 ****        -2.1770   3.2813  -2.8213 H              1 S1                 0.0000
     60 ****        -4.3491   3.8610  -4.3368 H              1 S1                 0.0000
     61 ****        -3.8895   2.1719  -4.1007 H              1 S1                 0.0000
     62 ****        -5.6972   1.8771  -1.0560 H              1 S1                 0.0000
     63 ****        -5.5600   3.6365  -1.0313 H              1 S1                 0.0000
     64 ****        -3.9229   2.4073   3.1829 LP             1 S1                 0.0000
     65 ****        -3.6368   3.8467   2.4668 LP             1 S1                 0.0000
     66 ****         0.2268  -0.7160  -1.6532 LP             1 S1                 0.0000
     67 ****         1.2056  -2.9173   1.7164 LP             1 S1                 0.0000
     68 ****         5.6454  -1.5810  -1.4431 LP             1 S1                 0.0000
     69 ****         4.3375  -0.6173  -1.2789 LP             1 S1                 0.0000
     70 ****         0.4623  -1.7992   3.2762 LP             1 S1                 0.0000
     71 ****        -1.1187   1.9550   2.8078 LP             1 S1                 0.0000
     72 ****        -5.7947   1.9308  -3.2136 LP             1 S1                 0.0000
     73 ****        -6.0824   3.5324  -3.0763 LP             1 S1                 0.0000
@<TRIPOS>BOND
    1    1    2 1     
    2    1   31 1     
    3    2    3 1     
    4    2   32 1     
    5    2   33 1     
    6    3    4 1     
    7    3   26 1     
    8    3   34 1     
    9    4    5 1     
   10    4   35 1     
   11    4   36 1     
   12    5   25 1     
   13    5    6 1     
   14    6    7 2     
   15    6   37 1     
   16    7    8 1     
   17    8   25 ar    
   18    8    9 ar    
   19    9   10 1     
   20    9   22 ar    
   21   10   15 1     
   22   10   11 1     
   23   11   12 1     
   24   11   38 1     
   25   11   39 1     
   26   12   13 1     
   27   12   40 1     
   28   12   41 1     
   29   13   14 1     
   30   13   42 1     
   31   13   43 1     
   32   14   15 1     
   33   14   44 1     
   34   14   45 1     
   35   15   16 1     
   36   15   46 1     
   37   16   20 1     
   38   16   17 1     
   39   16   47 1     
   40   17   18 1     
   41   17   48 1     
   42   17   49 1     
   43   18   19 1     
   44   18   50 1     
   45   18   51 1     
   46   19   20 1     
   47   19   52 1     
   48   19   53 1     
   49   20   21 1     
   50   20   54 1     
   51   21   55 1     
   52   22   23 ar    
   53   23   24 ar    
   54   23   56 1     
   55   24   25 ar    
   56   26   30 1     
   57   26   27 1     
   58   26   57 1     
   59   27   28 1     
   60   27   58 1     
   61   27   59 1     
   62   28   29 1     
   63   28   60 1     
   64   28   61 1     
   65   29   30 1     
   66   30   62 1     
   67   30   63 1     
   68    1   64 1     
   69    1   65 1     
   70    7   66 1     
   71   10   67 1     
   72   21   68 1     
   73   21   69 1     
   74   22   70 1     
   75   24   71 1     
   76   29   72 1     
   77   29   73 1     
@<TRIPOS>SUBSTRUCTURE
      1 S1             1
@<TRIPOS>SET
LONE_PAIRS      STATIC     ATOMS    <user>   **** ""
10 64 65 66 67 68 69 70 71 72 73
DONOR_HYDROGENS      STATIC     ATOMS    <user>   **** ""
2 31 55
ATOM$BLUE        STATIC     ATOMS    COLORGROUP SYSTEM
10 64 65 66 67 68 69 70 71 72 73
ATOM$RED        STATIC     ATOMS    COLORGROUP SYSTEM
2 31 55
