AV-unprocessed.smi:284|AV-procd|sdf|2159|dock8
  -GOLD-   2262021513D 1   1.00000     0.00000
 Structure written by MMmdl.
 60 62  0  0  0  0  0  0  0  0  1 V2000
  146.0444  134.4959  158.9903 C   0  0  0  0  0  0  0  0  0  0  0  0
  146.8207  135.1861  157.8793 C   0  0  0  0  0  0  0  0  0  0  0  0
  146.2040  135.7727  156.8278 C   0  0  0  0  0  0  0  0  0  0  0  0
  146.8769  136.3993  155.7965 N   0  0  0  0  0  0  0  0  0  0  0  0
  146.0865  137.0469  154.6795 C   0  0  2  0  0  0  0  0  0  0  0  0
  144.5662  136.9842  154.8865 C   0  0  0  0  0  0  0  0  0  0  0  0
  144.0775  136.9231  153.4535 C   0  0  2  0  0  0  0  0  0  0  0  0
  142.8142  136.2949  153.3762 O   0  0  0  0  0  0  0  0  0  0  0  0
  145.1829  136.0985  152.7799 C   0  0  1  0  0  0  0  0  0  0  0  0
  145.3684  136.2896  151.2641 C   0  0  0  0  0  0  0  0  0  0  0  0
  146.0233  137.5045  150.9615 O   0  0  0  0  0  0  0  0  0  0  0  0
  146.3883  136.4010  153.4779 O   0  0  0  0  0  0  0  0  0  0  0  0
  148.2862  136.4891  155.8379 C   0  0  0  0  0  0  0  0  0  0  0  0
  148.9139  137.0762  154.9546 O   0  0  0  0  0  0  0  0  0  0  0  0
  148.9612  135.8856  156.9232 N   0  0  0  0  0  0  0  0  0  0  0  0
  150.4407  135.9307  156.9554 C   0  0  0  0  0  0  0  0  0  0  0  0
  151.0005  137.1494  157.7070 C   0  0  0  0  0  0  0  0  0  0  0  0
  151.7721  136.9988  158.6555 O   0  0  0  0  0  0  0  0  0  0  0  0
  150.6105  138.3450  157.2284 N   0  0  0  0  0  0  0  0  0  0  0  0
  150.9379  139.6399  157.7138 C   0  0  0  0  0  0  0  0  0  0  0  0
  150.4226  140.7476  157.0132 C   0  0  0  0  0  0  0  0  0  0  0  0
  150.6935  142.0604  157.4445 C   0  0  0  0  0  0  0  0  0  0  0  0
  151.4806  142.2976  158.5984 C   0  0  0  0  0  0  0  0  0  0  0  0
  151.8048  143.7181  159.1000 C   0  0  0  0  0  0  0  0  0  0  0  0
  150.4946  144.4612  159.4337 C   0  0  0  0  0  0  0  0  0  0  0  0
  152.5725  144.5647  158.0597 C   0  0  0  0  0  0  0  0  0  0  0  0
  152.6787  143.6323  160.3690 C   0  0  0  0  0  0  0  0  0  0  0  0
  151.9755  141.1781  159.3082 C   0  0  0  0  0  0  0  0  0  0  0  0
  151.7060  139.8650  158.8789 C   0  0  0  0  0  0  0  0  0  0  0  0
  148.2824  135.2099  157.9669 C   0  0  0  0  0  0  0  0  0  0  0  0
  148.9113  134.6773  158.8835 O   0  0  0  0  0  0  0  0  0  0  0  0
  144.9690  134.5261  158.8132 H   0  0  0  0  0  0  0  0  0  0  0  0
  146.2390  134.9790  159.9484 H   0  0  0  0  0  0  0  0  0  0  0  0
  146.3388  133.4485  159.0683 H   0  0  0  0  0  0  0  0  0  0  0  0
  145.1243  135.7406  156.7923 H   0  0  0  0  0  0  0  0  0  0  0  0
  146.4398  138.0757  154.6047 H   0  0  0  0  0  0  0  0  0  0  0  0
  144.2789  136.0895  155.4377 H   0  0  0  0  0  0  0  0  0  0  0  0
  144.2094  137.8570  155.4338 H   0  0  0  0  0  0  0  0  0  0  0  0
  144.0207  137.9328  153.0459 H   0  0  0  0  0  0  0  0  0  0  0  0
  142.7365  135.8804  152.5302 H   0  0  0  0  0  0  0  0  0  0  0  0
  144.9949  135.0405  152.9693 H   0  0  0  0  0  0  0  0  0  0  0  0
  145.9283  135.4567  150.8380 H   0  0  0  0  0  0  0  0  0  0  0  0
  144.3945  136.3038  150.7744 H   0  0  0  0  0  0  0  0  0  0  0  0
  145.3858  138.1123  150.6190 H   0  0  0  0  0  0  0  0  0  0  0  0
  150.8564  135.0291  157.4078 H   0  0  0  0  0  0  0  0  0  0  0  0
  150.8485  135.9261  155.9431 H   0  0  0  0  0  0  0  0  0  0  0  0
  150.0629  138.3249  156.3805 H   0  0  0  0  0  0  0  0  0  0  0  0
  149.8186  140.5952  156.1303 H   0  0  0  0  0  0  0  0  0  0  0  0
  150.2805  142.8706  156.8644 H   0  0  0  0  0  0  0  0  0  0  0  0
  150.6915  145.4783  159.7745 H   0  0  0  0  0  0  0  0  0  0  0  0
  149.9296  143.9649  160.2229 H   0  0  0  0  0  0  0  0  0  0  0  0
  149.8462  144.5290  158.5593 H   0  0  0  0  0  0  0  0  0  0  0  0
  151.9965  144.6976  157.1431 H   0  0  0  0  0  0  0  0  0  0  0  0
  153.5292  144.1116  157.7970 H   0  0  0  0  0  0  0  0  0  0  0  0
  152.7890  145.5619  158.4449 H   0  0  0  0  0  0  0  0  0  0  0  0
  152.9433  144.6244  160.7367 H   0  0  0  0  0  0  0  0  0  0  0  0
  153.6088  143.0979  160.1716 H   0  0  0  0  0  0  0  0  0  0  0  0
  152.1706  143.1164  161.1837 H   0  0  0  0  0  0  0  0  0  0  0  0
  152.5691  141.3162  160.1993 H   0  0  0  0  0  0  0  0  0  0  0  0
  152.0888  139.0455  159.4678 H   0  0  0  0  0  0  0  0  0  0  0  0
  1  2  1  0  0  0  0
  1 32  1  0  0  0  0
  1 33  1  0  0  0  0
  1 34  1  0  0  0  0
  2 30  1  0  0  0  0
  2  3  2  0  0  0  0
  3  4  1  0  0  0  0
  3 35  1  0  0  0  0
  4  5  1  0  0  0  0
  4 13  1  0  0  0  0
  5 12  1  0  0  0  0
  5  6  1  0  0  0  0
  5 36  1  0  0  0  0
  6  7  1  0  0  0  0
  6 37  1  0  0  0  0
  6 38  1  0  0  0  0
  7  8  1  0  0  0  0
  7  9  1  0  0  0  0
  7 39  1  0  0  0  0
  8 40  1  0  0  0  0
  9 10  1  0  0  0  0
  9 12  1  0  0  0  0
  9 41  1  0  0  0  0
 10 11  1  0  0  0  0
 10 42  1  0  0  0  0
 10 43  1  0  0  0  0
 11 44  1  0  0  0  0
 13 14  2  0  0  0  0
 13 15  1  0  0  0  0
 15 16  1  0  0  0  0
 15 30  1  0  0  0  0
 16 17  1  0  0  0  0
 16 45  1  0  0  0  0
 16 46  1  0  0  0  0
 17 18  2  0  0  0  0
 17 19  1  0  0  0  0
 19 20  1  0  0  0  0
 19 47  1  0  0  0  0
 20 29  1  0  0  0  0
 20 21  2  0  0  0  0
 21 22  1  0  0  0  0
 21 48  1  0  0  0  0
 22 23  2  0  0  0  0
 22 49  1  0  0  0  0
 23 24  1  0  0  0  0
 23 28  1  0  0  0  0
 24 25  1  0  0  0  0
 24 26  1  0  0  0  0
 24 27  1  0  0  0  0
 25 50  1  0  0  0  0
 25 51  1  0  0  0  0
 25 52  1  0  0  0  0
 26 53  1  0  0  0  0
 26 54  1  0  0  0  0
 26 55  1  0  0  0  0
 27 56  1  0  0  0  0
 27 57  1  0  0  0  0
 27 58  1  0  0  0  0
 28 29  2  0  0  0  0
 28 59  1  0  0  0  0
 29 60  1  0  0  0  0
 30 31  2  0  0  0  0
M  END
> <s_m_source_file>
AV-unprocessed.smi

> <i_m_source_file_index>
284

> <i_lp_mmshare_version>
43012

> <i_f3d_flags>
0

> <s_epik_input>
W09IXVtDSDJdW0NAQEhdKE8xKVtDQEhdKFtPSF0pW0NIMl1bQ0BIXTFuKFtjSF1jMltDSDNdKWMoPU8pbihjMj1PKVtDSDJdQyg9TylbTkhdYzNbY0hdW2NIXWMoQyhbQ0gzXSkoW0NIM10pW0NIM10pW2NIXVtjSF0z

> <s_epik_cmdline>
J2VwaWtfcHl0aG9uJywgJy1waCcsICc3LjAnLCAnLXRuJywgJzgnLCAnLW1hJywgJzIwMCcsICctbWV0YWxfYmluZGluZycsICctaW1hZScsICc8aW5maWxlLm1hZT4nLCAnLW9tYWUnLCAnPG91dGZpbGUubWFlPic=

> <r_lp_tautomer_probability>
1

> <r_epik_Ionization_Penalty>
4.92358e-06

> <r_epik_Ionization_Penalty_Charging>
1.29777e-07

> <r_epik_Ionization_Penalty_Neutral>
4.79381e-06

> <r_epik_State_Penalty>
-0

> <r_epik_Charging_Adjusted_Penalty>
1.29777e-07

> <i_epik_Tot_Q>
0

> <i_epik_Tot_abs_Q>
0

> <r_epik_Metal_State_Penalty>
-0

> <b_epik_Metal_Only>
0

> <s_epik_Chemistry_Notes>
This compound contains an acetal/aminal-like group ( X-CH(R)-Y where X, Y are N, S, or O) that may be acid/base labile, releasing an aldehyde.

> <s_lp_Force_Field>
OPLS_2005

> <r_lp_Energy>
37.3901

> <b_lp_Chiralities_Consistent>
1

> <s_lp_Variant>
AV-unprocessed.smi:284-3

> <Gold.Version>
5.8.1

> <Gold.Id.Protein>
6NUR|6NUR_protein|mol2

> <Gold.PLP.Fitness>
45.7196

> <Gold.PLP.PLP>
-37.7932

> <Gold.PLP.part.hbond>
-4.8791

> <Gold.PLP.part.metal>
0.0000

> <Gold.PLP.part.buried>
-7.3911

> <Gold.PLP.part.nonpolar>
-28.8625

> <Gold.PLP.part.repulsive>
2.5805

> <Gold.PLP.ligand.clash>
0.0000

> <Gold.PLP.ligand.torsion>
0.5413

> <Gold.PLP.Chemscore.Hbond>
2.9913

> <Gold.PLP.Chemscore.CHOScore>
0.0000

> <Gold.PLP.Chemscore.Metal>
0.0000

> <Gold.Chemscore.Hbonds>
donor molecule, donor type, donor heavy atom, donor atom, acceptor molecule, acceptor atom, score
      L1  H    11    44       P1 10171  1.00
      P1  H  6896  6909       L1    31  1.00
      P1  H  7954  7966       L1    11  0.03

> <Gold.PLP.Chemscore.Internal.Correction>
0.0353

> <Gold.Rescore>
     Score         DG    S(hbond)    S(metal)    S(lipo)     H(rot)  DE(clash)    DE(int)     intcor
     13.64     -16.90       2.15        0.00     108.03       3.27       0.38       2.88       ----

> <Gold.Chemscore.Fitness>
13.6411

> <Gold.Chemscore.DG>
-16.9044

> <Gold.Chemscore.ZeroCoef>
-5.4800

> <Gold.Chemscore.Hbond>
2.1451

> <Gold.Chemscore.Metal>
0.0000

> <Gold.Chemscore.Lipo>
108.0316

> <Gold.Chemscore.Internal_Hbond>
0.0000

> <Gold.Chemscore.DEClash>
0.3800

> <Gold.Chemscore.DEInternal>
2.8833

> <Gold.Chemscore.Rot>
3.2735

> <Gold.Chemscore.Internal.Correction>
   9.000000E+99

> <Gold.Chemscore.Hbonds>
donor molecule, donor type, donor heavy atom, donor atom, acceptor molecule, acceptor atom, score
      L1  H    11    44       P1 10171  0.99
      P1  H  6896  6909       L1    31  1.00
      P1  H  7954  7966       L1    11  0.06

> <Gold.Chemscore.Hbond.Weighted>
-7.1648

> <Gold.Chemscore.Metal.Weighted>
-0.0000

> <Gold.Chemscore.Lipo.Weighted>
-12.6397

> <Gold.Chemscore.Internal_Hbond.Weighted>
0.0000

> <Gold.Chemscore.DEClash.Weighted>
0.3800

> <Gold.Chemscore.DEInternal.Weighted>
2.8833

> <Gold.Chemscore.Rot.Weighted>
8.3801

> <Gold.Chemscore.Internal.Correction.Weighted>
   9.000000E+99

> <Gold.Protein.RotatedTorsions>
[ 6907 6896 6895 6894 ] final   43.50 input  -60.11 | X-H torsion
[ 7974 7965 7964 7962 ] final   32.30 input  175.53 | X-H torsion
[ 8008 7997 7996 7995 ] final  106.94 input   59.86 | X-H torsion
[ 10167 10162 10161 10158 ] final  -10.23 input  -65.29 | X-H torsion
[ 10718 10713 10712 10709 ] final  166.28 input   66.30 | X-H torsion
[ 10763 10752 10751 10750 ] final  148.58 input  -60.55 | X-H torsion
[ 11005 11000 10999 10996 ] final   -3.57 input  -57.11 | X-H torsion

> <Gold.Protein.ActiveResidues>
 VAL166  LYS551  ARG553  GLY616  TRP617  ASP618  TYR619  PRO620  LYS621  CYS622 
 ASP623  PHE694  ASN695  SER759  ASP760  ASP761  ALA762  ILE779  LEU786  VAL792 
 PHE793  MET794  SER795  GLU796  ALA797  LYS798  CYS799  TRP800  GLU811  SER814 

> <Gold.Protein.RotatedAtoms>
  152.2210  134.8413  160.0485 H   0  0  0  0  0  0  0  0  0  0  0  0  # atno 6907 bound_to 6896
  151.9196  133.3577  159.3900 H   0  0  0  0  0  0  0  0  0  0  0  0  # atno 6908 bound_to 6896
  150.7000  134.4573  159.5408 H   0  0  0  0  0  0  0  0  0  0  0  0  # atno 6909 bound_to 6896
  146.1495  139.6543  142.9108 H   0  0  0  0  0  0  0  0  0  0  0  0  # atno 7974 bound_to 7965
  156.1783  140.3104  155.9101 H   0  0  0  0  0  0  0  0  0  0  0  0  # atno 8008 bound_to 7997
  155.3438  140.0467  157.3062 H   0  0  0  0  0  0  0  0  0  0  0  0  # atno 8009 bound_to 7997
  154.5315  140.2232  155.8807 H   0  0  0  0  0  0  0  0  0  0  0  0  # atno 8010 bound_to 7997
  140.7108  143.5771  150.9031 H   0  0  0  0  0  0  0  0  0  0  0  0  # atno 10167 bound_to 10162
  157.0681  131.0358  151.2622 H   0  0  0  0  0  0  0  0  0  0  0  0  # atno 10718 bound_to 10713
  154.0571  135.2877  155.3331 H   0  0  0  0  0  0  0  0  0  0  0  0  # atno 10763 bound_to 10752
  154.6832  135.5255  153.8294 H   0  0  0  0  0  0  0  0  0  0  0  0  # atno 10764 bound_to 10752
  153.0537  135.6587  154.0763 H   0  0  0  0  0  0  0  0  0  0  0  0  # atno 10765 bound_to 10752
  140.6708  133.9238  155.8493 H   0  0  0  0  0  0  0  0  0  0  0  0  # atno 11005 bound_to 11000
  145.4857  141.0438  143.2621 LP  0  0  0  0  0  0  0  0  0  0  0  0  # atno 17320 bound_to 7965
  144.7886  139.6374  143.7123 LP  0  0  0  0  0  0  0  0  0  0  0  0  # atno 17321 bound_to 7965
  139.9497  143.6287  152.3032 LP  0  0  0  0  0  0  0  0  0  0  0  0  # atno 17342 bound_to 10162
  139.6801  144.7656  151.1624 LP  0  0  0  0  0  0  0  0  0  0  0  0  # atno 17343 bound_to 10162
  157.4900  130.7816  149.7498 LP  0  0  0  0  0  0  0  0  0  0  0  0  # atno 17370 bound_to 10713
  155.9958  130.3909  150.2802 LP  0  0  0  0  0  0  0  0  0  0  0  0  # atno 17371 bound_to 10713
  141.0393  134.0644  157.3921 LP  0  0  0  0  0  0  0  0  0  0  0  0  # atno 17394 bound_to 11000
  139.8982  135.0153  156.7138 LP  0  0  0  0  0  0  0  0  0  0  0  0  # atno 17395 bound_to 11000

$$$$
