#       Name:                AV-unprocessed.smi:2061
#       Creating user name   scv26
#       Creation time:       Fri Mar 27 11:07:55 2020


#       File generated by GOLD software.
#

@<TRIPOS>MOLECULE
AV-unprocessed.smi:2061
    53    54     1
SMALL
NO_CHARGES


@<TRIPOS>ATOM
      1 ****        -6.2880   5.4566  -2.2074 C.3            1 S1                 0.0000
      2 ****        -5.4217   4.2544  -2.0498 C.2            1 S1                 0.0000
      3 ****        -4.1922   4.0610  -1.4857 C.2            1 S1                 0.0000
      4 ****        -3.9605   2.6739  -1.6866 C.2            1 S1                 0.0000
      5 ****        -2.7593   2.0664  -1.2330 N.am           1 S1                 0.0000
      6 ****        -2.3591   0.7884  -1.3674 C.2            1 S1                 0.0000
      7 ****        -3.0814  -0.0334  -1.9442 O.2            1 S1                 0.0000
      8 ****        -1.1348   0.5695  -0.8134 N.pl3          1 S1                -1.0000
      9 ****        -0.4355  -0.7152  -0.8411 C.3            1 S1                 0.0000
     10 ****         0.9637  -0.5983  -0.1683 C.3            1 S1                 0.0000
     11 ****         1.9082   0.3038  -1.0151 C.3            1 S1                 0.0000
     12 ****         1.5059  -1.9762   0.1088 N.4            1 S1                 1.0000
     13 ****         2.9675  -2.2053  -0.0636 C.3            1 S1                 0.0000
     14 ****         3.7717  -1.6915   1.1499 C.3            1 S1                 0.0000
     15 ****         5.2686  -1.9905   1.0158 C.3            1 S1                 0.0000
     16 ****         3.2966  -2.3409   2.3225 O.3            1 S1                 0.0000
     17 ****         1.9271  -2.0591   2.5854 C.3            1 S1                 0.0000
     18 ****         1.5505  -2.7379   3.9068 C.3            1 S1                 0.0000
     19 ****         1.0712  -2.5705   1.4073 C.3            1 S1                 0.0000
     20 ****        -4.9622   2.0753  -2.3140 N.2            1 S1                 0.0000
     21 ****        -5.9031   3.0845  -2.5497 O.3            1 S1                 0.0000
     22 ****        -5.7239   6.3703  -2.0198 H              1 S1                 0.0000
     23 ****        -7.1230   5.4243  -1.5077 H              1 S1                 0.0000
     24 ****        -6.6937   5.5122  -3.2177 H              1 S1                 0.0000
     25 ****        -3.5601   4.7952  -1.0086 H              1 S1                 0.0000
     26 ****        -2.1154   2.6783  -0.7543 H              1 S1                 0.0000
     27 ****        -1.0177  -1.4771  -0.3216 H              1 S1                 0.0000
     28 ****        -0.3079  -1.0921  -1.8568 H              1 S1                 0.0000
     29 ****         0.8411  -0.0984   0.7934 H              1 S1                 0.0000
     30 ****         1.4971   1.3034  -1.1713 H              1 S1                 0.0000
     31 ****         2.1137  -0.1161  -2.0018 H              1 S1                 0.0000
     32 ****         2.8651   0.4686  -0.5234 H              1 S1                 0.0000
     33 ****         3.1182  -3.2825  -0.1488 H              1 S1                 0.0000
     34 ****         3.3442  -1.7992  -1.0013 H              1 S1                 0.0000
     35 ****         3.6470  -0.6151   1.2694 H              1 S1                 0.0000
     36 ****         5.6891  -1.5017   0.1366 H              1 S1                 0.0000
     37 ****         5.4512  -3.0615   0.9234 H              1 S1                 0.0000
     38 ****         5.8168  -1.6333   1.8878 H              1 S1                 0.0000
     39 ****         1.7988  -0.9825   2.7063 H              1 S1                 0.0000
     40 ****         0.5095  -2.5421   4.1652 H              1 S1                 0.0000
     41 ****         2.1703  -2.3697   4.7246 H              1 S1                 0.0000
     42 ****         1.6840  -3.8186   3.8487 H              1 S1                 0.0000
     43 ****         0.0147  -2.3838   1.6009 H              1 S1                 0.0000
     44 ****         1.1728  -3.6540   1.3312 H              1 S1                 0.0000
     45 ****         1.0735  -2.5399  -0.6095 H              1 S1                 0.0000
     46 ****        -3.9665   0.2507  -2.3129 LP             1 S1                 0.0000
     47 ****        -2.7803  -0.9820  -2.0420 LP             1 S1                 0.0000
     48 ****        -0.6841   1.3371  -0.3578 LP             1 S1                 0.0000
     49 ****         3.8424  -2.0342   3.1022 LP             1 S1                 0.0000
     50 ****         3.4044  -3.3285   2.2080 LP             1 S1                 0.0000
     51 ****        -5.0312   1.1098  -2.5653 LP             1 S1                 0.0000
     52 ****        -6.0580   3.1772  -3.5333 LP             1 S1                 0.0000
     53 ****        -6.7644   2.8541  -2.0969 LP             1 S1                 0.0000
@<TRIPOS>BOND
    1    1    2 1     
    2    1   22 1     
    3    1   23 1     
    4    1   24 1     
    5    2   21 1     
    6    2    3 2     
    7    3    4 1     
    8    3   25 1     
    9    4    5 1     
   10    4   20 2     
   11    5    6 am    
   12    5   26 1     
   13    6    7 2     
   14    6    8 1     
   15    8    9 1     
   16    9   10 1     
   17    9   27 1     
   18    9   28 1     
   19   10   11 1     
   20   10   12 1     
   21   10   29 1     
   22   11   30 1     
   23   11   31 1     
   24   11   32 1     
   25   12   19 1     
   26   12   13 1     
   27   12   45 1     
   28   13   14 1     
   29   13   33 1     
   30   13   34 1     
   31   14   15 1     
   32   14   16 1     
   33   14   35 1     
   34   15   36 1     
   35   15   37 1     
   36   15   38 1     
   37   16   17 1     
   38   17   18 1     
   39   17   19 1     
   40   17   39 1     
   41   18   40 1     
   42   18   41 1     
   43   18   42 1     
   44   19   43 1     
   45   19   44 1     
   46   20   21 1     
   47    7   46 1     
   48    7   47 1     
   49    8   48 1     
   50   16   49 1     
   51   16   50 1     
   52   20   51 1     
   53   21   52 1     
   54   21   53 1     
@<TRIPOS>SUBSTRUCTURE
      1 S1             1
@<TRIPOS>SET
LONE_PAIRS      STATIC     ATOMS    <user>   **** ""
8 46 47 48 49 50 51 52 53
DONOR_HYDROGENS      STATIC     ATOMS    <user>   **** ""
2 26 45
ATOM$BLUE        STATIC     ATOMS    COLORGROUP SYSTEM
8 46 47 48 49 50 51 52 53
ATOM$RED        STATIC     ATOMS    COLORGROUP SYSTEM
2 26 45
