#       Name:                AV-unprocessed.smi:103
#       Creating user name   scv26
#       Creation time:       Thu Mar 26 17:55:48 2020


#       File generated by GOLD software.
#

@<TRIPOS>MOLECULE
AV-unprocessed.smi:103
    64    66     1
SMALL
NO_CHARGES


@<TRIPOS>ATOM
      1 ****        -0.9140   5.3946   1.3201 C.3            1 S1                 0.0000
      2 ****        -0.8034   3.9469   1.7793 C.2            1 S1                 0.0000
      3 ****         0.0714   3.5914   2.5693 O.2            1 S1                 0.0000
      4 ****        -1.7501   3.1650   1.2321 O.3            1 S1                 0.0000
      5 ****        -1.7974   1.7752   1.5222 C.3            1 S1                 0.0000
      6 ****        -1.9811   0.9881   0.2182 C.3            1 S1                 0.0000
      7 ****        -0.7626   1.0626  -0.5196 O.3            1 S1                 0.0000
      8 ****        -0.3631  -0.2062  -0.9189 C.3            1 S1                 0.0000
      9 ****         1.1338  -0.2636  -0.9753 N.pl3          1 S1                 0.0000
     10 ****         1.9462  -1.0166  -1.7978 C.2            1 S1                 0.0000
     11 ****         1.4063  -2.1041  -3.1106 S.o2           1 S1                 0.0000
     12 ****         1.1493  -0.9234  -4.4961 C.3            1 S1                 0.0000
     13 ****         2.5372  -2.9907  -3.4265 O.2            1 S1                 0.0000
     14 ****         0.1076  -2.6634  -2.7053 O.2            1 S1                 0.0000
     15 ****         3.2336  -0.8430  -1.6702 N.2            1 S1                 0.0000
     16 ****         3.3254   0.0530  -0.6143 C.ar           1 S1                 0.0000
     17 ****         4.4080   0.6498   0.0796 C.ar           1 S1                 0.0000
     18 ****         5.6913   0.4060  -0.2197 N.pl3          1 S1                 0.0000
     19 ****         4.1352   1.5029   1.0944 N.ar           1 S1                 0.0000
     20 ****         2.8632   1.7605   1.4144 C.ar           1 S1                 0.0000
     21 ****         1.7492   1.2809   0.8563 N.ar           1 S1                 0.0000
     22 ****         2.0235   0.4206  -0.1683 C.ar           1 S1                 0.0000
     23 ****        -0.9469  -1.1940   0.0913 C.3            1 S1                 0.0000
     24 ****        -0.0928  -1.3583   1.2182 O.3            1 S1                 0.0000
     25 ****        -0.0969  -2.5014   1.9194 C.2            1 S1                 0.0000
     26 ****         0.9089  -2.4807   3.0627 C.3            1 S1                 0.0000
     27 ****        -0.8063  -3.4835   1.7038 O.2            1 S1                 0.0000
     28 ****        -2.2441  -0.5037   0.4834 C.3            1 S1                 0.0000
     29 ****        -3.3127  -0.9677  -0.3339 O.3            1 S1                 0.0000
     30 ****        -4.0269  -2.0488   0.0287 C.2            1 S1                 0.0000
     31 ****        -5.1201  -2.3889  -0.9754 C.3            1 S1                 0.0000
     32 ****        -3.8550  -2.7249   1.0427 O.2            1 S1                 0.0000
     33 ****        -1.0621   5.4423   0.2411 H              1 S1                 0.0000
     34 ****        -0.0059   5.9445   1.5680 H              1 S1                 0.0000
     35 ****        -1.7580   5.8819   1.8084 H              1 S1                 0.0000
     36 ****        -0.9081   1.4211   2.0454 H              1 S1                 0.0000
     37 ****        -2.6455   1.6004   2.1846 H              1 S1                 0.0000
     38 ****        -2.7927   1.4221  -0.3678 H              1 S1                 0.0000
     39 ****        -0.7114  -0.3751  -1.9372 H              1 S1                 0.0000
     40 ****         0.8115  -1.4672  -5.3779 H              1 S1                 0.0000
     41 ****         2.0885  -0.4174  -4.7193 H              1 S1                 0.0000
     42 ****         0.3988  -0.1858  -4.2139 H              1 S1                 0.0000
     43 ****         5.9211  -0.2290  -0.9707 H              1 S1                 0.0000
     44 ****         6.4258   0.8545   0.3082 H              1 S1                 0.0000
     45 ****         2.7155   2.4504   2.2323 H              1 S1                 0.0000
     46 ****        -1.1121  -2.1508  -0.4064 H              1 S1                 0.0000
     47 ****         1.0430  -1.4661   3.4392 H              1 S1                 0.0000
     48 ****         1.8745  -2.8526   2.7200 H              1 S1                 0.0000
     49 ****         0.5659  -3.1107   3.8836 H              1 S1                 0.0000
     50 ****        -2.4847  -0.6725   1.5346 H              1 S1                 0.0000
     51 ****        -5.5132  -1.4835  -1.4384 H              1 S1                 0.0000
     52 ****        -5.9421  -2.9072  -0.4812 H              1 S1                 0.0000
     53 ****        -4.7237  -3.0361  -1.7580 H              1 S1                 0.0000
     54 ****         0.7273   4.2586   2.9225 LP             1 S1                 0.0000
     55 ****         0.1260   2.6355   2.8579 LP             1 S1                 0.0000
     56 ****        -0.0520   1.4662   0.0568 LP             1 S1                 0.0000
     57 ****        -0.9009   1.6347  -1.3280 LP             1 S1                 0.0000
     58 ****         3.9729  -1.2548  -2.2029 LP             1 S1                 0.0000
     59 ****         4.8798   1.9374   1.6011 LP             1 S1                 0.0000
     60 ****         0.8252   1.5225   1.1528 LP             1 S1                 0.0000
     61 ****        -1.4566  -3.4735   0.9441 LP             1 S1                 0.0000
     62 ****        -0.7326  -4.2915   2.2883 LP             1 S1                 0.0000
     63 ****        -3.1280  -2.4852   1.6862 LP             1 S1                 0.0000
     64 ****        -4.4424  -3.5138   1.2231 LP             1 S1                 0.0000
@<TRIPOS>BOND
    1    1    2 1     
    2    1   33 1     
    3    1   34 1     
    4    1   35 1     
    5    2    3 2     
    6    2    4 1     
    7    4    5 1     
    8    5    6 1     
    9    5   36 1     
   10    5   37 1     
   11    6   28 1     
   12    6    7 1     
   13    6   38 1     
   14    7    8 1     
   15    8    9 1     
   16    8   23 1     
   17    8   39 1     
   18    9   22 1     
   19    9   10 1     
   20   10   11 1     
   21   10   15 2     
   22   11   12 1     
   23   11   13 2     
   24   11   14 2     
   25   12   40 1     
   26   12   41 1     
   27   12   42 1     
   28   15   16 1     
   29   16   22 ar    
   30   16   17 ar    
   31   17   18 1     
   32   17   19 ar    
   33   18   43 1     
   34   18   44 1     
   35   19   20 ar    
   36   20   21 ar    
   37   20   45 1     
   38   21   22 ar    
   39   23   24 1     
   40   23   28 1     
   41   23   46 1     
   42   24   25 1     
   43   25   26 1     
   44   25   27 2     
   45   26   47 1     
   46   26   48 1     
   47   26   49 1     
   48   28   29 1     
   49   28   50 1     
   50   29   30 1     
   51   30   31 1     
   52   30   32 2     
   53   31   51 1     
   54   31   52 1     
   55   31   53 1     
   56    3   54 1     
   57    3   55 1     
   58    7   56 1     
   59    7   57 1     
   60   15   58 1     
   61   19   59 1     
   62   21   60 1     
   63   27   61 1     
   64   27   62 1     
   65   32   63 1     
   66   32   64 1     
@<TRIPOS>SUBSTRUCTURE
      1 S1             1
@<TRIPOS>SET
LONE_PAIRS      STATIC     ATOMS    <user>   **** ""
13 54 55 56 57 13 14 58 59 60 61 62 63 64
DONOR_HYDROGENS      STATIC     ATOMS    <user>   **** ""
2 43 44
ATOM$BLUE        STATIC     ATOMS    COLORGROUP SYSTEM
13 54 55 56 57 13 14 58 59 60 61 62 63 64
ATOM$RED        STATIC     ATOMS    COLORGROUP SYSTEM
2 43 44
