#       Name:                AV-unprocessed.smi:1575
#       Creating user name   scv26
#       Creation time:       Fri Mar 27 06:55:43 2020


#       File generated by GOLD software.
#

@<TRIPOS>MOLECULE
AV-unprocessed.smi:1575
    49    49     1
SMALL
NO_CHARGES


@<TRIPOS>ATOM
      1 ****        -0.1083  -4.1200  -2.0786 C.3            1 S1                 0.0000
      2 ****         0.1782  -3.2182  -0.9739 N.am           1 S1                 0.0000
      3 ****         0.6383  -1.9676  -1.1206 C.2            1 S1                 0.0000
      4 ****         0.8731  -1.4626  -2.2200 O.2            1 S1                 0.0000
      5 ****         0.8894  -1.1793   0.1766 C.3            1 S1                 0.0000
      6 ****         2.3998  -1.2684   0.5006 C.3            1 S1                 0.0000
      7 ****         2.8311  -0.5825   1.8173 C.3            1 S1                 0.0000
      8 ****         4.3626  -0.5443   1.9293 C.3            1 S1                 0.0000
      9 ****         2.2213  -1.2566   3.0578 C.3            1 S1                 0.0000
     10 ****         0.5319   0.2264  -0.0151 N.am           1 S1                 0.0000
     11 ****        -0.7025   0.7374   0.1103 C.2            1 S1                 0.0000
     12 ****        -1.6788   0.0659   0.4469 O.2            1 S1                 0.0000
     13 ****        -0.8435   2.2398  -0.1702 C.3            1 S1                 0.0000
     14 ****        -2.1821   2.6045  -0.6558 N.am           1 S1                 0.0000
     15 ****        -3.1184   3.1507   0.2106 C.2            1 S1                 0.0000
     16 ****        -4.3726   3.4941  -0.1671 C.2            1 S1                 0.0000
     17 ****        -4.8087   3.2980  -1.5455 C.2            1 S1                 0.0000
     18 ****        -5.9224   3.5774  -1.9836 O.2            1 S1                 0.0000
     19 ****        -3.8390   2.7454  -2.3860 N.am           1 S1                 0.0000
     20 ****        -2.5451   2.3886  -2.0032 C.2            1 S1                 0.0000
     21 ****        -1.7683   1.9043  -2.8256 O.2            1 S1                 0.0000
     22 ****        -4.0958   2.5892  -3.3498 H              1 S1                 0.0000
     23 ****        -0.4210  -5.0908  -1.6942 H              1 S1                 0.0000
     24 ****         0.7759  -4.2685  -2.6997 H              1 S1                 0.0000
     25 ****        -0.9107  -3.7247  -2.7028 H              1 S1                 0.0000
     26 ****         0.0128  -3.5637  -0.0396 H              1 S1                 0.0000
     27 ****         0.2989  -1.6149   0.9842 H              1 S1                 0.0000
     28 ****         2.7032  -2.3160   0.5409 H              1 S1                 0.0000
     29 ****         2.9657  -0.8300  -0.3237 H              1 S1                 0.0000
     30 ****         2.4905   0.4533   1.8003 H              1 S1                 0.0000
     31 ****         4.7831  -1.5500   1.9638 H              1 S1                 0.0000
     32 ****         4.6783  -0.0202   2.8320 H              1 S1                 0.0000
     33 ****         4.8075  -0.0264   1.0792 H              1 S1                 0.0000
     34 ****         2.4876  -2.3130   3.1063 H              1 S1                 0.0000
     35 ****         1.1340  -1.1843   3.0626 H              1 S1                 0.0000
     36 ****         2.5758  -0.7837   3.9741 H              1 S1                 0.0000
     37 ****         1.2755   0.8483  -0.2971 H              1 S1                 0.0000
     38 ****        -0.6114   2.7783   0.7498 H              1 S1                 0.0000
     39 ****        -0.0861   2.5586  -0.8897 H              1 S1                 0.0000
     40 ****        -2.8410   3.3098   1.2428 H              1 S1                 0.0000
     41 ****        -5.0573   3.9150   0.5548 H              1 S1                 0.0000
     42 ****         0.7211  -1.9906  -3.0555 LP             1 S1                 0.0000
     43 ****         1.2156  -0.5248  -2.2765 LP             1 S1                 0.0000
     44 ****        -1.5720  -0.9091   0.6415 LP             1 S1                 0.0000
     45 ****        -2.5783   0.4958   0.5256 LP             1 S1                 0.0000
     46 ****        -6.6132   3.9728  -1.3781 LP             1 S1                 0.0000
     47 ****        -6.1379   3.4094  -2.9455 LP             1 S1                 0.0000
     48 ****        -0.8423   1.6482  -2.5482 LP             1 S1                 0.0000
     49 ****        -2.0631   1.7669  -3.7712 LP             1 S1                 0.0000
@<TRIPOS>BOND
    1    1    2 1     
    2    1   23 1     
    3    1   24 1     
    4    1   25 1     
    5    2    3 am    
    6    2   26 1     
    7    3    4 2     
    8    3    5 1     
    9    5    6 1     
   10    5   10 1     
   11    5   27 1     
   12    6    7 1     
   13    6   28 1     
   14    6   29 1     
   15    7    8 1     
   16    7    9 1     
   17    7   30 1     
   18    8   31 1     
   19    8   32 1     
   20    8   33 1     
   21    9   34 1     
   22    9   35 1     
   23    9   36 1     
   24   10   11 am    
   25   10   37 1     
   26   11   12 2     
   27   11   13 1     
   28   13   14 1     
   29   13   38 1     
   30   13   39 1     
   31   14   20 1     
   32   14   15 1     
   33   15   16 2     
   34   15   40 1     
   35   16   17 1     
   36   16   41 1     
   37   17   18 2     
   38   17   19 1     
   39   19   22 1     
   40   19   20 1     
   41   20   21 2     
   42    4   42 1     
   43    4   43 1     
   44   12   44 1     
   45   12   45 1     
   46   18   46 1     
   47   18   47 1     
   48   21   48 1     
   49   21   49 1     
@<TRIPOS>SUBSTRUCTURE
      1 S1             1
@<TRIPOS>SET
LONE_PAIRS      STATIC     ATOMS    <user>   **** ""
8 42 43 44 45 46 47 48 49
DONOR_HYDROGENS      STATIC     ATOMS    <user>   **** ""
3 26 37 22
ATOM$BLUE        STATIC     ATOMS    COLORGROUP SYSTEM
8 42 43 44 45 46 47 48 49
ATOM$RED        STATIC     ATOMS    COLORGROUP SYSTEM
3 26 37 22
