AV-unprocessed.smi:1005|AV-procd|sdf|4372|dock7
  -GOLD-   22720 2283D 1   1.00000     0.00000
 Structure written by MMmdl.
 57 59  0  0  0  0  0  0  0  0  3 V2000
  153.4188  142.4881  160.4009 C   0  0  0  0  0  0  0  0  0  0  0  0
  152.3692  142.1651  159.3521 C   0  0  0  0  0  0  0  0  0  0  0  0
  152.0179  140.8153  159.1244 C   0  0  0  0  0  0  0  0  0  0  0  0
  151.0494  140.4726  158.1557 C   0  0  0  0  0  0  0  0  0  0  0  0
  150.5648  139.2355  157.7667 N   0  0  0  0  0  0  0  0  0  0  0  0
  149.6883  139.5739  156.8257 C   0  0  0  0  0  0  0  0  0  0  0  0
  149.5488  140.8862  156.5559 N   0  0  0  0  0  0  0  0  0  0  0  0
  148.6625  141.4860  155.5740 C   0  0  0  0  0  0  0  0  0  0  0  0
  148.5725  140.6587  154.2770 C   0  0  2  0  0  0  0  0  0  0  0  0
  149.6345  141.0184  153.4136 O   0  0  0  0  0  0  0  0  0  0  0  0
  147.2381  140.8968  153.5418 C   0  0  0  0  0  0  0  0  0  0  0  0
  146.2538  139.8064  153.7643 N   0  3  2  0  0  0  0  0  0  0  0  0
  145.6208  139.8791  155.1021 C   0  0  0  0  0  0  0  0  0  0  0  0
  144.5607  138.7763  155.2538 C   0  0  0  0  0  0  0  0  0  0  0  0
  145.1578  137.5057  155.0226 O   0  0  0  0  0  0  0  0  0  0  0  0
  145.6875  137.3861  153.7061 C   0  0  2  0  0  0  0  0  0  0  0  0
  146.2348  135.9560  153.5369 C   0  0  0  0  0  0  0  0  0  0  0  0
  146.6447  135.6539  152.1410 N   0  3  0  0  0  0  0  0  0  0  0  0
  146.9072  134.2155  151.9011 C   0  0  0  0  0  0  0  0  0  0  0  0
  145.6898  136.2000  151.1513 C   0  0  0  0  0  0  0  0  0  0  0  0
  146.7939  138.4451  153.5245 C   0  0  0  0  0  0  0  0  0  0  0  0
  150.4335  141.5258  157.4181 C   0  0  0  0  0  0  0  0  0  0  0  0
  150.7723  142.8727  157.6379 C   0  0  0  0  0  0  0  0  0  0  0  0
  151.7464  143.1973  158.6050 C   0  0  0  0  0  0  0  0  0  0  0  0
  152.1132  144.6540  158.8262 C   0  0  0  0  0  0  0  0  0  0  0  0
  153.7691  141.5869  160.9046 H   0  0  0  0  0  0  0  0  0  0  0  0
  153.0100  143.1566  161.1589 H   0  0  0  0  0  0  0  0  0  0  0  0
  154.2813  142.9711  159.9413 H   0  0  0  0  0  0  0  0  0  0  0  0
  152.4933  140.0288  159.6920 H   0  0  0  0  0  0  0  0  0  0  0  0
  149.1157  138.8239  156.2995 H   0  0  0  0  0  0  0  0  0  0  0  0
  147.6740  141.5858  156.0245 H   0  0  0  0  0  0  0  0  0  0  0  0
  149.0104  142.4982  155.3635 H   0  0  0  0  0  0  0  0  0  0  0  0
  148.6829  139.6054  154.5331 H   0  0  0  0  0  0  0  0  0  0  0  0
  149.6604  140.4023  152.6963 H   0  0  0  0  0  0  0  0  0  0  0  0
  146.7989  141.8490  153.8429 H   0  0  0  0  0  0  0  0  0  0  0  0
  147.4451  140.9805  152.4736 H   0  0  0  0  0  0  0  0  0  0  0  0
  146.3843  139.7741  155.8747 H   0  0  0  0  0  0  0  0  0  0  0  0
  145.1547  140.8553  155.2412 H   0  0  0  0  0  0  0  0  0  0  0  0
  144.1435  138.7935  156.2608 H   0  0  0  0  0  0  0  0  0  0  0  0
  143.7312  138.9339  154.5623 H   0  0  0  0  0  0  0  0  0  0  0  0
  144.8997  137.5744  152.9761 H   0  0  0  0  0  0  0  0  0  0  0  0
  147.0826  135.7886  154.2031 H   0  0  0  0  0  0  0  0  0  0  0  0
  145.4589  135.2543  153.8478 H   0  0  0  0  0  0  0  0  0  0  0  0
  146.0139  133.6181  152.0877 H   0  0  0  0  0  0  0  0  0  0  0  0
  147.7082  133.8405  152.5367 H   0  0  0  0  0  0  0  0  0  0  0  0
  147.2140  134.0493  150.8678 H   0  0  0  0  0  0  0  0  0  0  0  0
  144.7079  135.7369  151.2574 H   0  0  0  0  0  0  0  0  0  0  0  0
  146.0432  136.0231  150.1348 H   0  0  0  0  0  0  0  0  0  0  0  0
  145.5758  137.2776  151.2750 H   0  0  0  0  0  0  0  0  0  0  0  0
  147.1973  138.3701  152.5154 H   0  0  0  0  0  0  0  0  0  0  0  0
  147.6184  138.2538  154.2133 H   0  0  0  0  0  0  0  0  0  0  0  0
  150.2900  143.6493  157.0627 H   0  0  0  0  0  0  0  0  0  0  0  0
  151.5805  145.3079  158.1349 H   0  0  0  0  0  0  0  0  0  0  0  0
  153.1816  144.8074  158.6723 H   0  0  0  0  0  0  0  0  0  0  0  0
  151.8612  144.9614  159.8413 H   0  0  0  0  0  0  0  0  0  0  0  0
  147.5147  136.1432  151.9834 H   0  0  0  0  0  0  0  0  0  0  0  0
  145.5144  139.9583  153.0923 H   0  0  0  0  0  0  0  0  0  0  0  0
  1  2  1  0  0  0  0
  1 26  1  0  0  0  0
  1 27  1  0  0  0  0
  1 28  1  0  0  0  0
  2 24  1  0  0  0  0
  2  3  2  0  0  0  0
  3  4  1  0  0  0  0
  3 29  1  0  0  0  0
  4 22  2  0  0  0  0
  4  5  1  0  0  0  0
  5  6  2  0  0  0  0
  6  7  1  0  0  0  0
  6 30  1  0  0  0  0
  7  8  1  0  0  0  0
  7 22  1  0  0  0  0
  8  9  1  0  0  0  0
  8 31  1  0  0  0  0
  8 32  1  0  0  0  0
  9 10  1  0  0  0  0
  9 11  1  0  0  0  0
  9 33  1  0  0  0  0
 10 34  1  0  0  0  0
 11 12  1  0  0  0  0
 11 35  1  0  0  0  0
 11 36  1  0  0  0  0
 12 21  1  0  0  0  0
 12 13  1  0  0  0  0
 12 57  1  0  0  0  0
 13 14  1  0  0  0  0
 13 37  1  0  0  0  0
 13 38  1  0  0  0  0
 14 15  1  0  0  0  0
 14 39  1  0  0  0  0
 14 40  1  0  0  0  0
 15 16  1  0  0  0  0
 16 17  1  0  0  0  0
 16 21  1  0  0  0  0
 16 41  1  0  0  0  0
 17 18  1  0  0  0  0
 17 42  1  0  0  0  0
 17 43  1  0  0  0  0
 18 19  1  0  0  0  0
 18 20  1  0  0  0  0
 18 56  1  0  0  0  0
 19 44  1  0  0  0  0
 19 45  1  0  0  0  0
 19 46  1  0  0  0  0
 20 47  1  0  0  0  0
 20 48  1  0  0  0  0
 20 49  1  0  0  0  0
 21 50  1  0  0  0  0
 21 51  1  0  0  0  0
 22 23  1  0  0  0  0
 23 24  2  0  0  0  0
 23 52  1  0  0  0  0
 24 25  1  0  0  0  0
 25 53  1  0  0  0  0
 25 54  1  0  0  0  0
 25 55  1  0  0  0  0
M  CHG  1  12   1
M  CHG  1  18   1
M  END
> <s_m_source_file>
AV-unprocessed.smi

> <i_m_source_file_index>
1005

> <i_lp_mmshare_version>
43012

> <i_f3d_flags>
0

> <s_epik_input>
W0NIM11jKFtjSF0xKWMoW0NIM10pW2NIXWMoYzEyKW4oW2NIXW4yKVtDSDJdW0NASF0oW09IXSlbQ0gyXU4zW0NIMl1bQ0gyXU9bQ0BIXShbQ0gyXTMpW0NIMl1OKFtDSDNdKVtDSDNd

> <s_epik_cmdline>
J2VwaWtfcHl0aG9uJywgJy1waCcsICc3LjAnLCAnLXRuJywgJzgnLCAnLW1hJywgJzIwMCcsICctbWV0YWxfYmluZGluZycsICctaW1hZScsICc8aW5maWxlLm1hZT4nLCAnLW9tYWUnLCAnPG91dGZpbGUubWFlPic=

> <r_epik_Ionization_Penalty>
1.0968

> <r_epik_Ionization_Penalty_Charging>
1.0096

> <r_epik_Ionization_Penalty_Neutral>
0.0871956

> <r_epik_State_Penalty>
1.31185

> <r_epik_Charging_Adjusted_Penalty>
2.32145

> <i_epik_Tot_Q>
2

> <i_epik_Tot_abs_Q>
2

> <r_epik_Metal_State_Penalty>
1.22442

> <b_epik_Metal_Only>
0

> <s_lp_Force_Field>
OPLS_2005

> <r_lp_Energy>
33.8105

> <b_lp_Chiralities_Consistent>
1

> <s_lp_Variant>
AV-unprocessed.smi:1005-11

> <Gold.Version>
5.8.1

> <Gold.Id.Protein>
6NUR|6NUR_protein|mol2

> <Gold.PLP.Fitness>
58.9114

> <Gold.PLP.PLP>
-43.5087

> <Gold.PLP.part.hbond>
-4.3153

> <Gold.PLP.part.metal>
0.0000

> <Gold.PLP.part.buried>
-4.4561

> <Gold.PLP.part.nonpolar>
-34.7520

> <Gold.PLP.part.repulsive>
0.0527

> <Gold.PLP.ligand.clash>
0.0000

> <Gold.PLP.ligand.torsion>
1.4228

> <Gold.PLP.Chemscore.Hbond>
5.9823

> <Gold.PLP.Chemscore.CHOScore>
0.0000

> <Gold.PLP.Chemscore.Metal>
0.0000

> <Gold.Chemscore.Hbonds>
donor molecule, donor type, donor heavy atom, donor atom, acceptor molecule, acceptor atom, score
      L1  H    10    34       P1  7957  1.00
      L1  H    12    57       P1 10175  2.00
      L1  H    18    56       P1  7948  1.46
      P1  H  7989  7998       L1    10  0.08
      P1  H  8011  8017       L1    10  0.60

> <Gold.PLP.Chemscore.Internal.Correction>
0.3013

> <Gold.Rescore>
     Score         DG    S(hbond)    S(metal)    S(lipo)     H(rot)  DE(clash)    DE(int)     intcor
     22.67     -24.32       3.34        0.00     120.09       2.48       0.09       1.56       ----

> <Gold.Chemscore.Fitness>
22.6696

> <Gold.Chemscore.DG>
-24.3244

> <Gold.Chemscore.ZeroCoef>
-5.4800

> <Gold.Chemscore.Hbond>
3.3371

> <Gold.Chemscore.Metal>
0.0000

> <Gold.Chemscore.Lipo>
120.0926

> <Gold.Chemscore.Internal_Hbond>
0.0000

> <Gold.Chemscore.DEClash>
0.0931

> <Gold.Chemscore.DEInternal>
1.5617

> <Gold.Chemscore.Rot>
2.4814

> <Gold.Chemscore.Internal.Correction>
   9.000000E+99

> <Gold.Chemscore.Hbonds>
donor molecule, donor type, donor heavy atom, donor atom, acceptor molecule, acceptor atom, score
      L1  H    10    34       P1  7957  0.94
      L1  H    12    57       P1 10175  0.95
      L1  H    18    56       P1  7948  0.71
      P1  H  8011  8017       L1    10  0.04

> <Gold.Chemscore.Hbond.Weighted>
-11.1460

> <Gold.Chemscore.Metal.Weighted>
-0.0000

> <Gold.Chemscore.Lipo.Weighted>
-14.0508

> <Gold.Chemscore.Internal_Hbond.Weighted>
0.0000

> <Gold.Chemscore.DEClash.Weighted>
0.0931

> <Gold.Chemscore.DEInternal.Weighted>
1.5617

> <Gold.Chemscore.Rot.Weighted>
6.3524

> <Gold.Chemscore.Internal.Correction.Weighted>
   9.000000E+99

> <Gold.Protein.RotatedTorsions>
[ 6907 6896 6895 6894 ] final   96.28 input  -60.11 | X-H torsion
[ 7974 7965 7964 7962 ] final  -28.28 input  175.53 | X-H torsion
[ 8008 7997 7996 7995 ] final -156.63 input   59.86 | X-H torsion
[ 10167 10162 10161 10158 ] final  120.68 input  -65.29 | X-H torsion
[ 10718 10713 10712 10709 ] final -179.58 input   66.30 | X-H torsion
[ 10763 10752 10751 10750 ] final -117.81 input  -60.55 | X-H torsion
[ 11005 11000 10999 10996 ] final   58.12 input  -57.11 | X-H torsion

> <Gold.Protein.ActiveResidues>
 VAL166  LYS551  ARG553  GLY616  TRP617  ASP618  TYR619  PRO620  LYS621  CYS622 
 ASP623  PHE694  ASN695  SER759  ASP760  ASP761  ALA762  ILE779  LEU786  VAL792 
 PHE793  MET794  SER795  GLU796  ALA797  LYS798  CYS799  TRP800  GLU811  SER814 

> <Gold.Protein.RotatedAtoms>
  152.5436  134.0911  159.8276 H   0  0  0  0  0  0  0  0  0  0  0  0  # atno 6907 bound_to 6896
  151.1000  133.5243  159.2618 H   0  0  0  0  0  0  0  0  0  0  0  0  # atno 6908 bound_to 6896
  151.2002  135.0448  159.8923 H   0  0  0  0  0  0  0  0  0  0  0  0  # atno 6909 bound_to 6896
  146.1299  140.5263  142.8698 H   0  0  0  0  0  0  0  0  0  0  0  0  # atno 7974 bound_to 7965
  155.7201  140.0789  157.2334 H   0  0  0  0  0  0  0  0  0  0  0  0  # atno 8008 bound_to 7997
  154.4046  140.1614  156.2446 H   0  0  0  0  0  0  0  0  0  0  0  0  # atno 8009 bound_to 7997
  155.9204  140.3398  155.6171 H   0  0  0  0  0  0  0  0  0  0  0  0  # atno 8010 bound_to 7997
  139.5967  144.7044  151.3160 H   0  0  0  0  0  0  0  0  0  0  0  0  # atno 10167 bound_to 10162
  156.8613  130.9752  151.3083 H   0  0  0  0  0  0  0  0  0  0  0  0  # atno 10718 bound_to 10713
  154.8567  135.4296  154.2039 H   0  0  0  0  0  0  0  0  0  0  0  0  # atno 10763 bound_to 10752
  153.3080  135.6973  153.7148 H   0  0  0  0  0  0  0  0  0  0  0  0  # atno 10764 bound_to 10752
  153.6252  135.3495  155.2998 H   0  0  0  0  0  0  0  0  0  0  0  0  # atno 10765 bound_to 10752
  140.0401  134.5886  155.9393 H   0  0  0  0  0  0  0  0  0  0  0  0  # atno 11005 bound_to 11000
  144.7679  140.5573  143.6690 LP  0  0  0  0  0  0  0  0  0  0  0  0  # atno 17320 bound_to 7965
  145.5284  139.1475  143.3513 LP  0  0  0  0  0  0  0  0  0  0  0  0  # atno 17321 bound_to 7965
  140.7217  143.7117  150.7764 LP  0  0  0  0  0  0  0  0  0  0  0  0  # atno 17342 bound_to 10162
  140.0684  143.5085  152.2592 LP  0  0  0  0  0  0  0  0  0  0  0  0  # atno 17343 bound_to 10162
  157.6249  130.8683  149.9171 LP  0  0  0  0  0  0  0  0  0  0  0  0  # atno 17370 bound_to 10713
  156.0775  130.3677  150.0647 LP  0  0  0  0  0  0  0  0  0  0  0  0  # atno 17371 bound_to 10713
  141.1878  133.6561  156.5298 LP  0  0  0  0  0  0  0  0  0  0  0  0  # atno 17394 bound_to 11000
  140.4083  134.7295  157.4821 LP  0  0  0  0  0  0  0  0  0  0  0  0  # atno 17395 bound_to 11000

$$$$
