AV-unprocessed.smi:2047|AV-procd|sdf|8315|dock1
  -GOLD-   2272010583D 1   1.00000     0.00000
 Structure written by MMmdl.
 42 44  0  0  0  0  0  0  0  0  1 V2000
  148.0692  142.0471  154.2424 O   0  0  0  0  0  0  0  0  0  0  0  0
  148.3447  142.4004  155.3888 C   0  0  0  0  0  0  0  0  0  0  0  0
  149.4071  141.9851  156.0987 N   0  0  0  0  0  0  0  0  0  0  0  0
  150.4458  141.0916  155.7089 C   0  0  0  0  0  0  0  0  0  0  0  0
  150.3954  140.3706  154.4901 C   0  0  0  0  0  0  0  0  0  0  0  0
  151.4150  139.4514  154.1887 C   0  0  0  0  0  0  0  0  0  0  0  0
  152.4455  139.2708  155.1256 C   0  0  0  0  0  0  0  0  0  0  0  0
  152.5014  139.9375  156.2955 N   0  0  0  0  0  0  0  0  0  0  0  0
  151.5331  140.8383  156.5944 C   0  0  0  0  0  0  0  0  0  0  0  0
  151.6514  141.5151  157.8302 N   0  0  0  0  0  0  0  0  0  0  0  0
  152.5734  141.0324  158.8528 C   0  0  0  0  0  0  0  0  0  0  0  0
  152.7073  142.1882  159.8398 C   0  0  0  0  0  0  0  0  0  0  0  0
  152.6390  143.4065  158.9242 C   0  0  0  0  0  0  0  0  0  0  0  0
  151.6741  142.9749  157.8142 C   0  0  0  0  0  0  0  0  0  0  0  0
  147.6102  143.2751  156.0898 N   0  0  0  0  0  0  0  0  0  0  0  0
  146.3803  143.9048  155.6197 C   0  0  2  0  0  0  0  0  0  0  0  0
  146.5977  144.6037  154.2649 C   0  0  0  0  0  0  0  0  0  0  0  0
  145.4145  145.5422  154.0021 C   0  0  0  0  0  0  0  0  0  0  0  0
  144.8637  146.1349  155.6465 S   0  0  0  0  0  0  0  0  0  0  0  0
  145.3734  147.4957  155.8741 O   0  0  0  0  0  0  0  0  0  0  0  0
  143.4363  145.8231  155.8135 O   0  0  0  0  0  0  0  0  0  0  0  0
  145.8681  144.9522  156.6215 C   0  0  0  0  0  0  0  0  0  0  0  0
  149.5404  142.4292  156.9955 H   0  0  0  0  0  0  0  0  0  0  0  0
  149.5820  140.4858  153.7909 H   0  0  0  0  0  0  0  0  0  0  0  0
  151.3993  138.8889  153.2670 H   0  0  0  0  0  0  0  0  0  0  0  0
  153.2428  138.5678  154.9348 H   0  0  0  0  0  0  0  0  0  0  0  0
  152.1966  140.1292  159.3336 H   0  0  0  0  0  0  0  0  0  0  0  0
  153.5503  140.8105  158.4208 H   0  0  0  0  0  0  0  0  0  0  0  0
  151.8617  142.1917  160.5292 H   0  0  0  0  0  0  0  0  0  0  0  0
  153.6255  142.1433  160.4259 H   0  0  0  0  0  0  0  0  0  0  0  0
  152.3141  144.3102  159.4406 H   0  0  0  0  0  0  0  0  0  0  0  0
  153.6245  143.5990  158.4983 H   0  0  0  0  0  0  0  0  0  0  0  0
  151.9806  143.3702  156.8446 H   0  0  0  0  0  0  0  0  0  0  0  0
  150.6716  143.3450  158.0301 H   0  0  0  0  0  0  0  0  0  0  0  0
  147.9170  143.5143  157.0214 H   0  0  0  0  0  0  0  0  0  0  0  0
  145.6058  143.1480  155.4802 H   0  0  0  0  0  0  0  0  0  0  0  0
  147.5104  145.1998  154.3102 H   0  0  0  0  0  0  0  0  0  0  0  0
  146.7259  143.8860  153.4541 H   0  0  0  0  0  0  0  0  0  0  0  0
  145.6722  146.3866  153.3627 H   0  0  0  0  0  0  0  0  0  0  0  0
  144.5860  144.9999  153.5461 H   0  0  0  0  0  0  0  0  0  0  0  0
  145.2674  144.5175  157.4207 H   0  0  0  0  0  0  0  0  0  0  0  0
  146.6919  145.5088  157.0700 H   0  0  0  0  0  0  0  0  0  0  0  0
  1  2  2  0  0  0  0
  2  3  1  0  0  0  0
  2 15  1  0  0  0  0
  3  4  1  0  0  0  0
  3 23  1  0  0  0  0
  4  9  1  0  0  0  0
  4  5  2  0  0  0  0
  5  6  1  0  0  0  0
  5 24  1  0  0  0  0
  6  7  2  0  0  0  0
  6 25  1  0  0  0  0
  7  8  1  0  0  0  0
  7 26  1  0  0  0  0
  8  9  2  0  0  0  0
  9 10  1  0  0  0  0
 10 14  1  0  0  0  0
 10 11  1  0  0  0  0
 11 12  1  0  0  0  0
 11 27  1  0  0  0  0
 11 28  1  0  0  0  0
 12 13  1  0  0  0  0
 12 29  1  0  0  0  0
 12 30  1  0  0  0  0
 13 14  1  0  0  0  0
 13 31  1  0  0  0  0
 13 32  1  0  0  0  0
 14 33  1  0  0  0  0
 14 34  1  0  0  0  0
 15 16  1  0  0  0  0
 15 35  1  0  0  0  0
 16 22  1  0  0  0  0
 16 17  1  0  0  0  0
 16 36  1  0  0  0  0
 17 18  1  0  0  0  0
 17 37  1  0  0  0  0
 17 38  1  0  0  0  0
 18 19  1  0  0  0  0
 18 39  1  0  0  0  0
 18 40  1  0  0  0  0
 19 20  2  0  0  0  0
 19 21  2  0  0  0  0
 19 22  1  0  0  0  0
 22 41  1  0  0  0  0
 22 42  1  0  0  0  0
M  END
> <s_m_source_file>
AV-unprocessed.smi

> <i_m_source_file_index>
2047

> <i_lp_mmshare_version>
43012

> <i_f3d_flags>
0

> <s_epik_input>
Tz1TMSg9TylbQ0gyXVtDSDJdW0NASF0oW0NIMl0xKVtOSF1DKD1PKVtOSF1jMltjSF1bY0hdW2NIXW5jMk4zW0NIMl1bQ0gyXVtDSDJdW0NIMl0z

> <s_epik_cmdline>
J2VwaWtfcHl0aG9uJywgJy1waCcsICc3LjAnLCAnLXRuJywgJzgnLCAnLW1hJywgJzIwMCcsICctbWV0YWxfYmluZGluZycsICctaW1hZScsICc8aW5maWxlLm1hZT4nLCAnLW9tYWUnLCAnPG91dGZpbGUubWFlPic=

> <r_lp_tautomer_probability>
1

> <r_epik_Ionization_Penalty>
0.0840625

> <r_epik_Ionization_Penalty_Charging>
0

> <r_epik_Ionization_Penalty_Neutral>
0.0840625

> <r_epik_State_Penalty>
0.0741601

> <r_epik_Charging_Adjusted_Penalty>
0.0741601

> <i_epik_Tot_Q>
0

> <i_epik_Tot_abs_Q>
0

> <r_epik_Metal_State_Penalty>
0.0657339

> <b_epik_Metal_Only>
0

> <s_lp_Force_Field>
OPLS_2005

> <r_lp_Energy>
32.0686

> <b_lp_Chiralities_Consistent>
1

> <s_lp_Variant>
AV-unprocessed.smi:2047-1

> <Gold.Version>
5.8.1

> <Gold.Id.Protein>
6NUR|6NUR_protein|mol2

> <Gold.PLP.Fitness>
38.5867

> <Gold.PLP.PLP>
-35.7279

> <Gold.PLP.part.hbond>
-1.7825

> <Gold.PLP.part.metal>
0.0000

> <Gold.PLP.part.buried>
-4.2669

> <Gold.PLP.part.nonpolar>
-30.7294

> <Gold.PLP.part.repulsive>
0.2023

> <Gold.PLP.ligand.clash>
0.0000

> <Gold.PLP.ligand.torsion>
0.2304

> <Gold.PLP.Chemscore.Hbond>
1.0000

> <Gold.PLP.Chemscore.CHOScore>
0.0000

> <Gold.PLP.Chemscore.Metal>
0.0000

> <Gold.Chemscore.Hbonds>
donor molecule, donor type, donor heavy atom, donor atom, acceptor molecule, acceptor atom, score
      P1  H  7997  8010       L1     8  1.00

> <Gold.PLP.Chemscore.Internal.Correction>
0.3197

> <Gold.Rescore>
     Score         DG    S(hbond)    S(metal)    S(lipo)     H(rot)  DE(clash)    DE(int)     intcor
     12.30     -14.86       0.84        0.00      83.55       1.25       0.11       2.45       ----

> <Gold.Chemscore.Fitness>
12.3026

> <Gold.Chemscore.DG>
-14.8608

> <Gold.Chemscore.ZeroCoef>
-5.4800

> <Gold.Chemscore.Hbond>
0.8384

> <Gold.Chemscore.Metal>
0.0000

> <Gold.Chemscore.Lipo>
83.5504

> <Gold.Chemscore.Internal_Hbond>
0.0000

> <Gold.Chemscore.DEClash>
0.1105

> <Gold.Chemscore.DEInternal>
2.4477

> <Gold.Chemscore.Rot>
1.2480

> <Gold.Chemscore.Internal.Correction>
   9.000000E+99

> <Gold.Chemscore.Hbonds>
donor molecule, donor type, donor heavy atom, donor atom, acceptor molecule, acceptor atom, score
      P1  H  7997  8010       L1     8  0.30

> <Gold.Chemscore.Hbond.Weighted>
-2.8002

> <Gold.Chemscore.Metal.Weighted>
-0.0000

> <Gold.Chemscore.Lipo.Weighted>
-9.7754

> <Gold.Chemscore.Internal_Hbond.Weighted>
0.0000

> <Gold.Chemscore.DEClash.Weighted>
0.1105

> <Gold.Chemscore.DEInternal.Weighted>
2.4477

> <Gold.Chemscore.Rot.Weighted>
3.1948

> <Gold.Chemscore.Internal.Correction.Weighted>
   9.000000E+99

> <Gold.Protein.RotatedTorsions>
[ 6907 6896 6895 6894 ] final  -38.79 input  -60.11 | X-H torsion
[ 7974 7965 7964 7962 ] final   92.75 input  175.53 | X-H torsion
[ 8008 7997 7996 7995 ] final   66.98 input   59.86 | X-H torsion
[ 10167 10162 10161 10158 ] final  -64.88 input  -65.29 | X-H torsion
[ 10718 10713 10712 10709 ] final   90.71 input   66.30 | X-H torsion
[ 10763 10752 10751 10750 ] final  -29.43 input  -60.55 | X-H torsion
[ 11005 11000 10999 10996 ] final  171.56 input  -57.11 | X-H torsion

> <Gold.Protein.ActiveResidues>
 VAL166  LYS551  ARG553  GLY616  TRP617  ASP618  TYR619  PRO620  LYS621  CYS622 
 ASP623  PHE694  ASN695  SER759  ASP760  ASP761  ALA762  ILE779  LEU786  VAL792 
 PHE793  MET794  SER795  GLU796  ALA797  LYS798  CYS799  TRP800  GLU811  SER814 

> <Gold.Protein.RotatedAtoms>
  150.9981  134.9300  159.7937 H   0  0  0  0  0  0  0  0  0  0  0  0  # atno 6907 bound_to 6896
  152.5270  134.3191  159.9152 H   0  0  0  0  0  0  0  0  0  0  0  0  # atno 6908 bound_to 6896
  151.3197  133.4004  159.2688 H   0  0  0  0  0  0  0  0  0  0  0  0  # atno 6909 bound_to 6896
  145.4881  139.2277  143.2845 H   0  0  0  0  0  0  0  0  0  0  0  0  # atno 7974 bound_to 7965
  155.6858  140.3496  155.4873 H   0  0  0  0  0  0  0  0  0  0  0  0  # atno 8008 bound_to 7997
  155.9567  140.1129  157.0953 H   0  0  0  0  0  0  0  0  0  0  0  0  # atno 8009 bound_to 7997
  154.4134  140.1183  156.5111 H   0  0  0  0  0  0  0  0  0  0  0  0  # atno 8010 bound_to 7997
  140.5769  143.2323  151.6423 H   0  0  0  0  0  0  0  0  0  0  0  0  # atno 10167 bound_to 10162
  157.6959  131.0381  150.3620 H   0  0  0  0  0  0  0  0  0  0  0  0  # atno 10718 bound_to 10713
  153.7645  135.6917  153.4919 H   0  0  0  0  0  0  0  0  0  0  0  0  # atno 10763 bound_to 10752
  153.1916  135.4469  155.0155 H   0  0  0  0  0  0  0  0  0  0  0  0  # atno 10764 bound_to 10752
  154.8141  135.3390  154.7158 H   0  0  0  0  0  0  0  0  0  0  0  0  # atno 10765 bound_to 10752
  140.3203  134.7442  157.4059 H   0  0  0  0  0  0  0  0  0  0  0  0  # atno 11005 bound_to 11000
  146.2300  140.5673  142.8979 LP  0  0  0  0  0  0  0  0  0  0  0  0  # atno 17320 bound_to 7965
  144.7849  140.5917  143.6580 LP  0  0  0  0  0  0  0  0  0  0  0  0  # atno 17321 bound_to 7965
  139.5148  144.3400  152.0749 LP  0  0  0  0  0  0  0  0  0  0  0  0  # atno 17342 bound_to 10162
  140.2545  144.4134  150.6209 LP  0  0  0  0  0  0  0  0  0  0  0  0  # atno 17343 bound_to 10162
  156.4055  130.3924  149.6929 LP  0  0  0  0  0  0  0  0  0  0  0  0  # atno 17370 bound_to 10713
  156.4231  130.7778  151.2796 LP  0  0  0  0  0  0  0  0  0  0  0  0  # atno 17371 bound_to 10713
  140.0947  134.5553  155.8410 LP  0  0  0  0  0  0  0  0  0  0  0  0  # atno 17394 bound_to 11000
  141.2088  133.6677  156.6395 LP  0  0  0  0  0  0  0  0  0  0  0  0  # atno 17395 bound_to 11000

$$$$
