AV-unprocessed.smi:114|AV-procd|sdf|1107|dock2
  -GOLD-   2262018223D 1   1.00000     0.00000
 Structure written by MMmdl.
 32 34  0  0  0  0  0  0  0  0  1 V2000
  153.6674  137.4386  160.1560 N   0  0  0  0  0  0  0  0  0  0  0  0
  152.9990  138.4903  159.6623 C   0  0  0  0  0  0  0  0  0  0  0  0
  153.3885  139.7331  160.0310 N   0  0  0  0  0  0  0  0  0  0  0  0
  152.7485  140.8114  159.5602 C   0  0  0  0  0  0  0  0  0  0  0  0
  153.2067  142.0134  159.9815 F   0  0  0  0  0  0  0  0  0  0  0  0
  151.7070  140.8347  158.7208 N   0  0  0  0  0  0  0  0  0  0  0  0
  151.3134  139.5824  158.3496 C   0  0  0  0  0  0  0  0  0  0  0  0
  151.9048  138.3630  158.7724 C   0  0  0  0  0  0  0  0  0  0  0  0
  151.2449  137.2894  158.1882 N   0  0  0  0  0  0  0  0  0  0  0  0
  150.3156  137.8501  157.4603 C   0  0  0  0  0  0  0  0  0  0  0  0
  150.2879  139.2281  157.5028 N   0  0  0  0  0  0  0  0  0  0  0  0
  149.3730  140.1748  156.7961 C   0  0  2  0  0  0  0  0  0  0  0  0
  148.4778  139.4298  156.0413 O   0  0  0  0  0  0  0  0  0  0  0  0
  147.9818  140.2706  155.0127 C   0  0  2  0  0  0  0  0  0  0  0  0
  147.3373  139.4214  153.9071 C   0  0  0  0  0  0  0  0  0  0  0  0
  148.3320  138.7002  153.2122 O   0  0  0  0  0  0  0  0  0  0  0  0
  149.2393  141.0241  154.5552 C   0  0  1  0  0  0  0  0  0  0  0  0
  148.8907  142.3161  154.0999 O   0  0  0  0  0  0  0  0  0  0  0  0
  150.1049  141.1119  155.8136 C   0  0  2  0  0  0  0  0  0  0  0  0
  151.4403  140.7296  155.5338 O   0  0  0  0  0  0  0  0  0  0  0  0
  148.8411  140.7103  157.5844 H   0  0  0  0  0  0  0  0  0  0  0  0
  147.2616  140.9701  155.4438 H   0  0  0  0  0  0  0  0  0  0  0  0
  149.7502  140.4699  153.7658 H   0  0  0  0  0  0  0  0  0  0  0  0
  150.1081  142.1137  156.2458 H   0  0  0  0  0  0  0  0  0  0  0  0
  153.3954  136.5016  159.8947 H   0  0  0  0  0  0  0  0  0  0  0  0
  154.4406  137.5844  160.7888 H   0  0  0  0  0  0  0  0  0  0  0  0
  149.6236  137.2697  156.8676 H   0  0  0  0  0  0  0  0  0  0  0  0
  146.6515  138.6953  154.3443 H   0  0  0  0  0  0  0  0  0  0  0  0
  146.7607  140.0379  153.2169 H   0  0  0  0  0  0  0  0  0  0  0  0
  148.5747  139.1889  152.4407 H   0  0  0  0  0  0  0  0  0  0  0  0
  149.0801  142.9370  154.7871 H   0  0  0  0  0  0  0  0  0  0  0  0
  151.9969  141.0608  156.2218 H   0  0  0  0  0  0  0  0  0  0  0  0
  1  2  1  0  0  0  0
  1 25  1  0  0  0  0
  1 26  1  0  0  0  0
  2  8  1  0  0  0  0
  2  3  2  0  0  0  0
  3  4  1  0  0  0  0
  4  5  1  0  0  0  0
  4  6  2  0  0  0  0
  6  7  1  0  0  0  0
  7 11  1  0  0  0  0
  7  8  2  0  0  0  0
  8  9  1  0  0  0  0
  9 10  2  0  0  0  0
 10 11  1  0  0  0  0
 10 27  1  0  0  0  0
 11 12  1  0  0  0  0
 12 21  1  0  0  0  0
 12 19  1  0  0  0  0
 12 13  1  0  0  0  0
 13 14  1  0  0  0  0
 14 22  1  0  0  0  0
 14 15  1  0  0  0  0
 14 17  1  0  0  0  0
 15 16  1  0  0  0  0
 15 28  1  0  0  0  0
 15 29  1  0  0  0  0
 16 30  1  0  0  0  0
 17 23  1  0  0  0  0
 17 18  1  0  0  0  0
 17 19  1  0  0  0  0
 18 31  1  0  0  0  0
 19 24  1  0  0  0  0
 19 20  1  0  0  0  0
 20 32  1  0  0  0  0
M  END
> <s_m_source_file>
AV-unprocessed.smi

> <i_m_source_file_index>
114

> <i_lp_mmshare_version>
43012

> <i_f3d_flags>
0

> <s_epik_input>
RmMobjEpbmMoW05IMl0pYyhjMTIpbltjSF1uMltDQEBIXTNPW0NASF0oW0NIMl1bT0hdKVtDQEBIXShbT0hdKVtDQEBIXTNbT0hd

> <s_epik_cmdline>
J2VwaWtfcHl0aG9uJywgJy1waCcsICc3LjAnLCAnLXRuJywgJzgnLCAnLW1hJywgJzIwMCcsICctbWV0YWxfYmluZGluZycsICctaW1hZScsICc8aW5maWxlLm1hZT4nLCAnLW9tYWUnLCAnPG91dGZpbGUubWFlPic=

> <r_lp_tautomer_probability>
1

> <r_epik_Ionization_Penalty>
1.13199e-05

> <r_epik_Ionization_Penalty_Charging>
0

> <r_epik_Ionization_Penalty_Neutral>
1.13199e-05

> <r_epik_State_Penalty>
-0

> <r_epik_Charging_Adjusted_Penalty>
0

> <i_epik_Tot_Q>
0

> <i_epik_Tot_abs_Q>
0

> <r_epik_Metal_State_Penalty>
-0

> <b_epik_Metal_Only>
0

> <s_epik_Chemistry_Notes>
This compound contains an acetal/aminal-like group ( X-CH(R)-Y where X, Y are N, S, or O) that may be acid/base labile, releasing an aldehyde.

> <s_lp_Force_Field>
OPLS_2005

> <r_lp_Energy>
35.9839

> <b_lp_Chiralities_Consistent>
1

> <s_lp_Variant>
AV-unprocessed.smi:114-1

> <Gold.Version>
5.8.1

> <Gold.Id.Protein>
6NUR|6NUR_protein|mol2

> <Gold.PLP.Fitness>
36.2546

> <Gold.PLP.PLP>
-27.5028

> <Gold.PLP.part.hbond>
-4.9770

> <Gold.PLP.part.metal>
0.0000

> <Gold.PLP.part.buried>
-5.0859

> <Gold.PLP.part.nonpolar>
-16.8817

> <Gold.PLP.part.repulsive>
0.0606

> <Gold.PLP.ligand.clash>
0.0000

> <Gold.PLP.ligand.torsion>
0.0847

> <Gold.PLP.Chemscore.Hbond>
2.9696

> <Gold.PLP.Chemscore.CHOScore>
0.0000

> <Gold.PLP.Chemscore.Metal>
0.0000

> <Gold.Chemscore.Hbonds>
donor molecule, donor type, donor heavy atom, donor atom, acceptor molecule, acceptor atom, score
      L1  H    16    30       P1  7957  1.00
      L1  H    18    31       P1  8028  1.00
      P1  H  7989  7998       L1    20  0.73
      P1  H  8011  8017       L1    18  0.24

> <Gold.PLP.Chemscore.Internal.Correction>
0.0125

> <Gold.Rescore>
     Score         DG    S(hbond)    S(metal)    S(lipo)     H(rot)  DE(clash)    DE(int)     intcor
      7.43      -7.60       2.74        0.00      28.07       4.03       0.03       0.14       ----

> <Gold.Chemscore.Fitness>
7.4310

> <Gold.Chemscore.DG>
-7.6048

> <Gold.Chemscore.ZeroCoef>
-5.4800

> <Gold.Chemscore.Hbond>
2.7401

> <Gold.Chemscore.Metal>
0.0000

> <Gold.Chemscore.Lipo>
28.0661

> <Gold.Chemscore.Internal_Hbond>
0.0000

> <Gold.Chemscore.DEClash>
0.0341

> <Gold.Chemscore.DEInternal>
0.1397

> <Gold.Chemscore.Rot>
4.0277

> <Gold.Chemscore.Internal.Correction>
   9.000000E+99

> <Gold.Chemscore.Hbonds>
donor molecule, donor type, donor heavy atom, donor atom, acceptor molecule, acceptor atom, score
      L1  H    16    30       P1  7957  1.00
      L1  H    18    31       P1  8028  0.93
      P1  H  7989  7998       L1    20  0.37
      P1  H  8011  8017       L1    18  0.10

> <Gold.Chemscore.Hbond.Weighted>
-9.1520

> <Gold.Chemscore.Metal.Weighted>
-0.0000

> <Gold.Chemscore.Lipo.Weighted>
-3.2837

> <Gold.Chemscore.Internal_Hbond.Weighted>
0.0000

> <Gold.Chemscore.DEClash.Weighted>
0.0341

> <Gold.Chemscore.DEInternal.Weighted>
0.1397

> <Gold.Chemscore.Rot.Weighted>
10.3110

> <Gold.Chemscore.Internal.Correction.Weighted>
   9.000000E+99

> <Gold.Protein.RotatedTorsions>
[ 6907 6896 6895 6894 ] final  163.12 input  -60.11 | X-H torsion
[ 7974 7965 7964 7962 ] final -124.76 input  175.53 | X-H torsion
[ 8008 7997 7996 7995 ] final   19.57 input   59.86 | X-H torsion
[ 10167 10162 10161 10158 ] final   61.78 input  -65.29 | X-H torsion
[ 10718 10713 10712 10709 ] final   52.74 input   66.30 | X-H torsion
[ 10763 10752 10751 10750 ] final   95.76 input  -60.55 | X-H torsion
[ 11005 11000 10999 10996 ] final   78.41 input  -57.11 | X-H torsion

> <Gold.Protein.ActiveResidues>
 VAL166  LYS551  ARG553  GLY616  TRP617  ASP618  TYR619  PRO620  LYS621  CYS622 
 ASP623  PHE694  ASN695  SER759  ASP760  ASP761  ALA762  ILE779  LEU786  VAL792 
 PHE793  MET794  SER795  GLU796  ALA797  LYS798  CYS799  TRP800  GLU811  SER814 

> <Gold.Protein.RotatedAtoms>
  151.9301  133.3609  159.3927 H   0  0  0  0  0  0  0  0  0  0  0  0  # atno 6907 bound_to 6896
  150.7019  134.4546  159.5361 H   0  0  0  0  0  0  0  0  0  0  0  0  # atno 6908 bound_to 6896
  152.2185  134.8435  160.0539 H   0  0  0  0  0  0  0  0  0  0  0  0  # atno 6909 bound_to 6896
  145.0047  140.7852  143.4475 H   0  0  0  0  0  0  0  0  0  0  0  0  # atno 7974 bound_to 7965
  154.9227  140.3029  155.5208 H   0  0  0  0  0  0  0  0  0  0  0  0  # atno 8008 bound_to 7997
  156.3009  140.2368  156.4214 H   0  0  0  0  0  0  0  0  0  0  0  0  # atno 8009 bound_to 7997
  154.8315  140.0418  157.1469 H   0  0  0  0  0  0  0  0  0  0  0  0  # atno 8010 bound_to 7997
  140.1510  144.4462  150.6759 H   0  0  0  0  0  0  0  0  0  0  0  0  # atno 10167 bound_to 10162
  157.5102  130.8496  149.8426 H   0  0  0  0  0  0  0  0  0  0  0  0  # atno 10718 bound_to 10713
  153.2570  135.4242  155.0856 H   0  0  0  0  0  0  0  0  0  0  0  0  # atno 10763 bound_to 10752
  154.8405  135.3440  154.6431 H   0  0  0  0  0  0  0  0  0  0  0  0  # atno 10764 bound_to 10752
  153.6852  135.7036  153.5163 H   0  0  0  0  0  0  0  0  0  0  0  0  # atno 10765 bound_to 10752
  139.9214  134.7761  156.1646 H   0  0  0  0  0  0  0  0  0  0  0  0  # atno 11005 bound_to 11000
  145.2104  139.2207  143.5146 LP  0  0  0  0  0  0  0  0  0  0  0  0  # atno 17320 bound_to 7965
  146.3459  140.1941  142.8589 LP  0  0  0  0  0  0  0  0  0  0  0  0  # atno 17321 bound_to 7965
  140.6702  143.2283  151.5643 LP  0  0  0  0  0  0  0  0  0  0  0  0  # atno 17342 bound_to 10162
  139.5426  144.2607  152.1380 LP  0  0  0  0  0  0  0  0  0  0  0  0  # atno 17343 bound_to 10162
  156.0284  130.3772  150.1756 LP  0  0  0  0  0  0  0  0  0  0  0  0  # atno 17370 bound_to 10713
  156.9946  130.9904  151.3406 LP  0  0  0  0  0  0  0  0  0  0  0  0  # atno 17371 bound_to 10713
  141.0737  133.6785  156.2193 LP  0  0  0  0  0  0  0  0  0  0  0  0  # atno 17394 bound_to 11000
  140.6464  134.5113  157.5574 LP  0  0  0  0  0  0  0  0  0  0  0  0  # atno 17395 bound_to 11000

$$$$
