AV-unprocessed.smi:3231|AV-procd|sdf|12331|dock3
  -GOLD-   2272018183D 1   1.00000     0.00000
 Structure written by MMmdl.
 41 42  0  0  0  0  0  0  0  0  2 V2000
  148.4792  138.7469  153.3497 O   0  0  0  0  0  0  0  0  0  0  0  0
  147.1569  139.1755  153.0845 C   0  0  2  0  0  0  0  0  0  0  0  0
  146.8003  138.7252  151.6570 C   0  0  0  0  0  0  0  0  0  0  0  0
  145.4236  138.1955  151.5938 N   0  3  0  0  0  0  0  0  0  0  0  0
  145.2991  136.7819  152.0017 C   0  0  0  0  0  0  0  0  0  0  0  0
  144.6069  135.9417  150.9157 C   0  0  0  0  0  0  0  0  0  0  0  0
  144.9884  134.5414  150.9677 N   0  0  0  0  0  0  0  0  0  0  0  0
  144.1757  133.4280  150.9196 C   0  0  0  0  0  0  0  0  0  0  0  0
  144.9840  132.3311  151.0089 C   0  0  0  0  0  0  0  0  0  0  0  0
  146.2912  132.8820  151.1198 C   0  0  0  0  0  0  0  0  0  0  0  0
  146.2900  134.2052  151.0948 N   0  0  0  0  0  0  0  0  0  0  0  0
  147.0881  140.7099  153.2443 C   0  0  0  0  0  0  0  0  0  0  0  0
  146.4798  141.1804  154.4889 N   0  0  0  0  0  0  0  0  0  0  0  0
  146.0951  142.5847  154.3853 C   0  0  0  0  0  0  0  0  0  0  0  0
  145.4515  143.1042  155.6825 C   0  0  0  0  0  0  0  0  0  0  0  0
  146.3503  142.9088  156.7690 O   0  0  0  0  0  0  0  0  0  0  0  0
  146.7156  141.5434  156.9390 C   0  0  0  0  0  0  0  0  0  0  0  0
  147.3586  141.0140  155.6450 C   0  0  0  0  0  0  0  0  0  0  0  0
  148.6223  137.9188  152.9165 H   0  0  0  0  0  0  0  0  0  0  0  0
  146.4729  138.6990  153.7888 H   0  0  0  0  0  0  0  0  0  0  0  0
  146.8653  139.5735  150.9741 H   0  0  0  0  0  0  0  0  0  0  0  0
  147.5071  137.9737  151.3018 H   0  0  0  0  0  0  0  0  0  0  0  0
  144.8383  138.7586  152.1943 H   0  0  0  0  0  0  0  0  0  0  0  0
  146.2873  136.3759  152.2229 H   0  0  0  0  0  0  0  0  0  0  0  0
  144.7220  136.7305  152.9256 H   0  0  0  0  0  0  0  0  0  0  0  0
  143.5237  136.0033  151.0299 H   0  0  0  0  0  0  0  0  0  0  0  0
  144.8396  136.3339  149.9248 H   0  0  0  0  0  0  0  0  0  0  0  0
  143.1025  133.5063  150.8250 H   0  0  0  0  0  0  0  0  0  0  0  0
  144.6868  131.2928  151.0014 H   0  0  0  0  0  0  0  0  0  0  0  0
  147.2338  132.3637  151.2169 H   0  0  0  0  0  0  0  0  0  0  0  0
  148.0747  141.1560  153.1073 H   0  0  0  0  0  0  0  0  0  0  0  0
  146.4830  141.0960  152.4228 H   0  0  0  0  0  0  0  0  0  0  0  0
  146.9708  143.1922  154.1515 H   0  0  0  0  0  0  0  0  0  0  0  0
  145.3946  142.7172  153.5601 H   0  0  0  0  0  0  0  0  0  0  0  0
  145.2240  144.1667  155.5942 H   0  0  0  0  0  0  0  0  0  0  0  0
  144.5102  142.5892  155.8814 H   0  0  0  0  0  0  0  0  0  0  0  0
  147.4152  141.4619  157.7712 H   0  0  0  0  0  0  0  0  0  0  0  0
  145.8353  140.9546  157.2015 H   0  0  0  0  0  0  0  0  0  0  0  0
  147.6035  139.9614  155.7849 H   0  0  0  0  0  0  0  0  0  0  0  0
  148.3013  141.5355  155.4714 H   0  0  0  0  0  0  0  0  0  0  0  0
  145.0912  138.2850  150.6441 H   0  0  0  0  0  0  0  0  0  0  0  0
  1  2  1  0  0  0  0
  1 19  1  0  0  0  0
  2  3  1  0  0  0  0
  2 12  1  0  0  0  0
  2 20  1  0  0  0  0
  3  4  1  0  0  0  0
  3 21  1  0  0  0  0
  3 22  1  0  0  0  0
  4  5  1  0  0  0  0
  4 23  1  0  0  0  0
  4 41  1  0  0  0  0
  5  6  1  0  0  0  0
  5 24  1  0  0  0  0
  5 25  1  0  0  0  0
  6  7  1  0  0  0  0
  6 26  1  0  0  0  0
  6 27  1  0  0  0  0
  7 11  1  0  0  0  0
  7  8  1  0  0  0  0
  8  9  2  0  0  0  0
  8 28  1  0  0  0  0
  9 10  1  0  0  0  0
  9 29  1  0  0  0  0
 10 11  2  0  0  0  0
 10 30  1  0  0  0  0
 12 13  1  0  0  0  0
 12 31  1  0  0  0  0
 12 32  1  0  0  0  0
 13 18  1  0  0  0  0
 13 14  1  0  0  0  0
 14 15  1  0  0  0  0
 14 33  1  0  0  0  0
 14 34  1  0  0  0  0
 15 16  1  0  0  0  0
 15 35  1  0  0  0  0
 15 36  1  0  0  0  0
 16 17  1  0  0  0  0
 17 18  1  0  0  0  0
 17 37  1  0  0  0  0
 17 38  1  0  0  0  0
 18 39  1  0  0  0  0
 18 40  1  0  0  0  0
M  CHG  1   4   1
M  END
> <s_m_source_file>
AV-unprocessed.smi

> <i_m_source_file_index>
3231

> <i_lp_mmshare_version>
43012

> <i_f3d_flags>
0

> <s_epik_input>
W0NIMl0xW0NIMl1PW0NIMl1bQ0gyXU4xW0NIMl1bQ0BIXShbT0hdKVtDSDJdW05IXVtDSDJdW0NIMl1uMltjSF1bY0hdW2NIXW4y

> <s_epik_cmdline>
J2VwaWtfcHl0aG9uJywgJy1waCcsICc3LjAnLCAnLXRuJywgJzgnLCAnLW1hJywgJzIwMCcsICctbWV0YWxfYmluZGluZycsICctaW1hZScsICc8aW5maWxlLm1hZT4nLCAnLW9tYWUnLCAnPG91dGZpbGUubWFlPic=

> <r_lp_tautomer_probability>
1

> <r_epik_Ionization_Penalty>
0.1292

> <r_epik_Ionization_Penalty_Charging>
0.0387518

> <r_epik_Ionization_Penalty_Neutral>
0.0904484

> <r_epik_State_Penalty>
0.234133

> <r_epik_Charging_Adjusted_Penalty>
0.272885

> <i_epik_Tot_Q>
1

> <i_epik_Tot_abs_Q>
1

> <r_epik_Metal_State_Penalty>
0.234414

> <b_epik_Metal_Only>
0

> <s_lp_Force_Field>
OPLS_2005

> <r_lp_Energy>
29.315

> <b_lp_Chiralities_Consistent>
1

> <s_lp_Variant>
AV-unprocessed.smi:3231-1

> <Gold.Version>
5.8.1

> <Gold.Id.Protein>
6NUR|6NUR_protein|mol2

> <Gold.PLP.Fitness>
46.2830

> <Gold.PLP.PLP>
-33.2221

> <Gold.PLP.part.hbond>
-3.5020

> <Gold.PLP.part.metal>
0.0000

> <Gold.PLP.part.buried>
-1.4443

> <Gold.PLP.part.nonpolar>
-28.2889

> <Gold.PLP.part.repulsive>
0.5720

> <Gold.PLP.ligand.clash>
0.0000

> <Gold.PLP.ligand.torsion>
2.1083

> <Gold.PLP.Chemscore.Hbond>
3.6723

> <Gold.PLP.Chemscore.CHOScore>
1.9973

> <Gold.PLP.Chemscore.Metal>
0.0000

> <Gold.Chemscore.Hbonds>
donor molecule, donor type, donor heavy atom, donor atom, acceptor molecule, acceptor atom, score
      L1  H     1    19       P1  7948  1.00
      L1  H     4    23       P1 10175  1.78
      L1  H     4    41       P1 10171  0.82
      L1  C     8    28       P1 10186  0.79
      L1  C    10    30       P1 10747  1.00

> <Gold.PLP.Chemscore.Internal.Correction>
0.2688

> <Gold.Rescore>
     Score         DG    S(hbond)    S(metal)    S(lipo)     H(rot)  DE(clash)    DE(int)     intcor
     13.34     -15.55       2.70        0.00      70.82       2.83       0.13       2.08       ----

> <Gold.Chemscore.Fitness>
13.3393

> <Gold.Chemscore.DG>
-15.5496

> <Gold.Chemscore.ZeroCoef>
-5.4800

> <Gold.Chemscore.Hbond>
2.6993

> <Gold.Chemscore.Metal>
0.0000

> <Gold.Chemscore.Lipo>
70.8211

> <Gold.Chemscore.Internal_Hbond>
0.0000

> <Gold.Chemscore.DEClash>
0.1342

> <Gold.Chemscore.DEInternal>
2.0761

> <Gold.Chemscore.Rot>
2.8251

> <Gold.Chemscore.Internal.Correction>
   9.000000E+99

> <Gold.Chemscore.Hbonds>
donor molecule, donor type, donor heavy atom, donor atom, acceptor molecule, acceptor atom, score
      L1  H     1    19       P1  7948  0.97
      L1  H     4    23       P1 10175  0.80
      L1  H     4    41       P1 10171  0.77

> <Gold.Chemscore.Hbond.Weighted>
-9.0157

> <Gold.Chemscore.Metal.Weighted>
-0.0000

> <Gold.Chemscore.Lipo.Weighted>
-8.2861

> <Gold.Chemscore.Internal_Hbond.Weighted>
0.0000

> <Gold.Chemscore.DEClash.Weighted>
0.1342

> <Gold.Chemscore.DEInternal.Weighted>
2.0761

> <Gold.Chemscore.Rot.Weighted>
7.2322

> <Gold.Chemscore.Internal.Correction.Weighted>
   9.000000E+99

> <Gold.Protein.RotatedTorsions>
[ 6907 6896 6895 6894 ] final  -11.99 input  -60.11 | X-H torsion
[ 7974 7965 7964 7962 ] final  -71.12 input  175.53 | X-H torsion
[ 8008 7997 7996 7995 ] final -167.14 input   59.86 | X-H torsion
[ 10167 10162 10161 10158 ] final   -0.90 input  -65.29 | X-H torsion
[ 10718 10713 10712 10709 ] final  169.46 input   66.30 | X-H torsion
[ 10763 10752 10751 10750 ] final   56.59 input  -60.55 | X-H torsion
[ 11005 11000 10999 10996 ] final  170.90 input  -57.11 | X-H torsion

> <Gold.Protein.ActiveResidues>
 VAL166  LYS551  ARG553  GLY616  TRP617  ASP618  TYR619  PRO620  LYS621  CYS622 
 ASP623  PHE694  ASN695  SER759  ASP760  ASP761  ALA762  ILE779  LEU786  VAL792 
 PHE793  MET794  SER795  GLU796  ALA797  LYS798  CYS799  TRP800  GLU811  SER814 

> <Gold.Protein.RotatedAtoms>
  151.3776  135.0934  159.9485 H   0  0  0  0  0  0  0  0  0  0  0  0  # atno 6907 bound_to 6896
  152.5117  133.9104  159.7495 H   0  0  0  0  0  0  0  0  0  0  0  0  # atno 6908 bound_to 6896
  150.9530  133.6473  159.2797 H   0  0  0  0  0  0  0  0  0  0  0  0  # atno 6909 bound_to 6896
  145.6821  140.9184  143.0826 H   0  0  0  0  0  0  0  0  0  0  0  0  # atno 7974 bound_to 7965
  155.8736  140.0997  157.1534 H   0  0  0  0  0  0  0  0  0  0  0  0  # atno 8008 bound_to 7997
  154.3999  140.1342  156.4171 H   0  0  0  0  0  0  0  0  0  0  0  0  # atno 8009 bound_to 7997
  155.7723  140.3460  155.5256 H   0  0  0  0  0  0  0  0  0  0  0  0  # atno 8010 bound_to 7997
  140.6787  143.6839  150.8083 H   0  0  0  0  0  0  0  0  0  0  0  0  # atno 10167 bound_to 10162
  157.0222  131.0235  151.2771 H   0  0  0  0  0  0  0  0  0  0  0  0  # atno 10718 bound_to 10713
  152.9834  135.5671  154.5253 H   0  0  0  0  0  0  0  0  0  0  0  0  # atno 10763 bound_to 10752
  154.4734  135.2786  155.1628 H   0  0  0  0  0  0  0  0  0  0  0  0  # atno 10764 bound_to 10752
  154.3166  135.6277  153.5542 H   0  0  0  0  0  0  0  0  0  0  0  0  # atno 10765 bound_to 10752
  140.3133  134.7498  157.4008 H   0  0  0  0  0  0  0  0  0  0  0  0  # atno 11005 bound_to 11000
  144.7023  139.8711  143.7440 LP  0  0  0  0  0  0  0  0  0  0  0  0  # atno 17320 bound_to 7965
  146.0955  139.3947  143.0379 LP  0  0  0  0  0  0  0  0  0  0  0  0  # atno 17321 bound_to 7965
  140.0536  143.5225  152.2662 LP  0  0  0  0  0  0  0  0  0  0  0  0  # atno 17342 bound_to 10162
  139.6096  144.7605  151.2983 LP  0  0  0  0  0  0  0  0  0  0  0  0  # atno 17343 bound_to 10162
  157.5241  130.8016  149.7842 LP  0  0  0  0  0  0  0  0  0  0  0  0  # atno 17370 bound_to 10713
  156.0098  130.3838  150.2304 LP  0  0  0  0  0  0  0  0  0  0  0  0  # atno 17371 bound_to 10713
  140.1005  134.5478  155.8357 LP  0  0  0  0  0  0  0  0  0  0  0  0  # atno 17394 bound_to 11000
  141.2103  133.6693  156.6501 LP  0  0  0  0  0  0  0  0  0  0  0  0  # atno 17395 bound_to 11000

$$$$
