AV-unprocessed.smi:912|AV-procd|sdf|4141|dock3
  -GOLD-   22720 2 43D 1   1.00000     0.00000
 Structure written by MMmdl.
 26 26  0  0  0  0  0  0  0  0  1 V2000
  146.4678  137.9873  151.6013 C   0  0  0  0  0  0  0  0  0  0  0  0
  146.4792  136.5803  151.2086 N   0  0  0  0  0  0  0  0  0  0  0  0
  145.6048  135.6322  151.9215 C   0  0  2  0  0  0  0  0  0  0  0  0
  144.2712  136.3881  152.1543 C   0  0  0  0  0  0  0  0  0  0  0  0
  146.2365  135.1806  153.2672 C   0  0  0  0  0  0  0  0  0  0  0  0
  147.4989  135.5507  153.5107 N   0  0  0  0  0  0  0  0  0  0  0  0
  145.5979  134.5143  154.0809 O   0  0  0  0  0  0  0  0  0  0  0  0
  145.3270  134.3695  151.0795 C   0  0  0  0  0  0  0  0  0  0  0  0
  146.3427  133.4383  150.7450 C   0  0  0  0  0  0  0  0  0  0  0  0
  146.0084  132.3088  149.9716 C   0  0  0  0  0  0  0  0  0  0  0  0
  144.7611  132.0537  149.5269 N   0  0  0  0  0  0  0  0  0  0  0  0
  143.7909  132.9346  149.8451 C   0  0  0  0  0  0  0  0  0  0  0  0
  144.0195  134.0952  150.6098 C   0  0  0  0  0  0  0  0  0  0  0  0
  147.0296  138.5668  150.8691 H   0  0  0  0  0  0  0  0  0  0  0  0
  146.9445  138.1428  152.5693 H   0  0  0  0  0  0  0  0  0  0  0  0
  145.4582  138.3954  151.6389 H   0  0  0  0  0  0  0  0  0  0  0  0
  147.4196  136.2185  151.1429 H   0  0  0  0  0  0  0  0  0  0  0  0
  143.5387  135.7767  152.6818 H   0  0  0  0  0  0  0  0  0  0  0  0
  143.8179  136.6825  151.2068 H   0  0  0  0  0  0  0  0  0  0  0  0
  144.4013  137.2946  152.7457 H   0  0  0  0  0  0  0  0  0  0  0  0
  147.9434  135.2814  154.3763 H   0  0  0  0  0  0  0  0  0  0  0  0
  148.0001  136.1023  152.8295 H   0  0  0  0  0  0  0  0  0  0  0  0
  147.3669  133.5648  151.0613 H   0  0  0  0  0  0  0  0  0  0  0  0
  146.7668  131.5879  149.7042 H   0  0  0  0  0  0  0  0  0  0  0  0
  142.7998  132.7070  149.4816 H   0  0  0  0  0  0  0  0  0  0  0  0
  143.1962  134.7572  150.8345 H   0  0  0  0  0  0  0  0  0  0  0  0
  1  2  1  0  0  0  0
  1 14  1  0  0  0  0
  1 15  1  0  0  0  0
  1 16  1  0  0  0  0
  2  3  1  0  0  0  0
  2 17  1  0  0  0  0
  3  4  1  0  0  0  0
  3  5  1  0  0  0  0
  3  8  1  0  0  0  0
  4 18  1  0  0  0  0
  4 19  1  0  0  0  0
  4 20  1  0  0  0  0
  5  6  1  0  0  0  0
  5  7  2  0  0  0  0
  6 21  1  0  0  0  0
  6 22  1  0  0  0  0
  8 13  1  0  0  0  0
  8  9  2  0  0  0  0
  9 10  1  0  0  0  0
  9 23  1  0  0  0  0
 10 11  2  0  0  0  0
 10 24  1  0  0  0  0
 11 12  1  0  0  0  0
 12 13  2  0  0  0  0
 12 25  1  0  0  0  0
 13 26  1  0  0  0  0
M  END
> <s_m_source_file>
AV-unprocessed.smi

> <i_m_source_file_index>
912

> <i_lp_mmshare_version>
43012

> <i_f3d_flags>
0

> <s_epik_input>
W0NIM11bTkhdW0NAQF0oW0NIM10pKEMoPU8pW05IMl0pYzFbY0hdW2NIXW5bY0hdW2NIXTE=

> <s_epik_cmdline>
J2VwaWtfcHl0aG9uJywgJy1waCcsICc3LjAnLCAnLXRuJywgJzgnLCAnLW1hJywgJzIwMCcsICctbWV0YWxfYmluZGluZycsICctaW1hZScsICc8aW5maWxlLm1hZT4nLCAnLW9tYWUnLCAnPG91dGZpbGUubWFlPic=

> <r_epik_Ionization_Penalty>
0.458428

> <r_epik_Ionization_Penalty_Charging>
0

> <r_epik_Ionization_Penalty_Neutral>
0.458428

> <r_epik_State_Penalty>
0.443707

> <r_epik_Charging_Adjusted_Penalty>
0.443707

> <i_epik_Tot_Q>
0

> <i_epik_Tot_abs_Q>
0

> <r_epik_Metal_State_Penalty>
0.312856

> <b_epik_Metal_Only>
0

> <s_lp_Force_Field>
OPLS_2005

> <r_lp_Energy>
10.5143

> <b_lp_Chiralities_Consistent>
1

> <s_lp_Variant>
AV-unprocessed.smi:912-2

> <Gold.Version>
5.8.1

> <Gold.Id.Protein>
6NUR|6NUR_protein|mol2

> <Gold.PLP.Fitness>
33.0066

> <Gold.PLP.PLP>
-22.5163

> <Gold.PLP.part.hbond>
-1.9384

> <Gold.PLP.part.metal>
0.0000

> <Gold.PLP.part.buried>
-1.6254

> <Gold.PLP.part.nonpolar>
-19.9024

> <Gold.PLP.part.repulsive>
0.2468

> <Gold.PLP.ligand.clash>
0.0000

> <Gold.PLP.ligand.torsion>
0.4932

> <Gold.PLP.Chemscore.Hbond>
1.9920

> <Gold.PLP.Chemscore.CHOScore>
1.8246

> <Gold.PLP.Chemscore.Metal>
0.0000

> <Gold.Chemscore.Hbonds>
donor molecule, donor type, donor heavy atom, donor atom, acceptor molecule, acceptor atom, score
      L1  H     2    17       P1  7948  0.93
      L1  H     6    22       P1  7948  0.57
      L1  C    10    24       P1 10747  1.00
      L1  C    12    25       P1 10186  0.82

> <Gold.PLP.Chemscore.Internal.Correction>
0.0269

> <Gold.Rescore>
     Score         DG    S(hbond)    S(metal)    S(lipo)     H(rot)  DE(clash)    DE(int)     intcor
     13.75     -14.45       1.94        0.00      59.96       1.77       0.19       0.51       ----

> <Gold.Chemscore.Fitness>
13.7477

> <Gold.Chemscore.DG>
-14.4474

> <Gold.Chemscore.ZeroCoef>
-5.4800

> <Gold.Chemscore.Hbond>
1.9420

> <Gold.Chemscore.Metal>
0.0000

> <Gold.Chemscore.Lipo>
59.9617

> <Gold.Chemscore.Internal_Hbond>
0.0000

> <Gold.Chemscore.DEClash>
0.1938

> <Gold.Chemscore.DEInternal>
0.5059

> <Gold.Chemscore.Rot>
1.7712

> <Gold.Chemscore.Internal.Correction>
   9.000000E+99

> <Gold.Chemscore.Hbonds>
donor molecule, donor type, donor heavy atom, donor atom, acceptor molecule, acceptor atom, score
      L1  H     2    17       P1  7948  0.88
      L1  H     6    22       P1  7948  0.55

> <Gold.Chemscore.Hbond.Weighted>
-6.4862

> <Gold.Chemscore.Metal.Weighted>
-0.0000

> <Gold.Chemscore.Lipo.Weighted>
-7.0155

> <Gold.Chemscore.Internal_Hbond.Weighted>
0.0000

> <Gold.Chemscore.DEClash.Weighted>
0.1938

> <Gold.Chemscore.DEInternal.Weighted>
0.5059

> <Gold.Chemscore.Rot.Weighted>
4.5343

> <Gold.Chemscore.Internal.Correction.Weighted>
   9.000000E+99

> <Gold.Protein.RotatedTorsions>
[ 6907 6896 6895 6894 ] final  107.90 input  -60.11 | X-H torsion
[ 7974 7965 7964 7962 ] final -132.42 input  175.53 | X-H torsion
[ 8008 7997 7996 7995 ] final  -99.82 input   59.86 | X-H torsion
[ 10167 10162 10161 10158 ] final  115.40 input  -65.29 | X-H torsion
[ 10718 10713 10712 10709 ] final   37.24 input   66.30 | X-H torsion
[ 10763 10752 10751 10750 ] final -126.87 input  -60.55 | X-H torsion
[ 11005 11000 10999 10996 ] final -160.70 input  -57.11 | X-H torsion

> <Gold.Protein.ActiveResidues>
 VAL166  LYS551  ARG553  GLY616  TRP617  ASP618  TYR619  PRO620  LYS621  CYS622 
 ASP623  PHE694  ASN695  SER759  ASP760  ASP761  ALA762  ILE779  LEU786  VAL792 
 PHE793  MET794  SER795  GLU796  ALA797  LYS798  CYS799  TRP800  GLU811  SER814 

> <Gold.Protein.RotatedAtoms>
  152.5135  133.9168  159.7514 H   0  0  0  0  0  0  0  0  0  0  0  0  # atno 6907 bound_to 6896
  150.9548  133.6501  159.2772 H   0  0  0  0  0  0  0  0  0  0  0  0  # atno 6908 bound_to 6896
  151.3766  135.0937  159.9535 H   0  0  0  0  0  0  0  0  0  0  0  0  # atno 6909 bound_to 6896
  144.9287  140.7102  143.4919 H   0  0  0  0  0  0  0  0  0  0  0  0  # atno 7974 bound_to 7965
  154.8200  140.0445  157.1404 H   0  0  0  0  0  0  0  0  0  0  0  0  # atno 8008 bound_to 7997
  154.9270  140.3034  155.5167 H   0  0  0  0  0  0  0  0  0  0  0  0  # atno 8009 bound_to 7997
  156.2979  140.2330  156.4326 H   0  0  0  0  0  0  0  0  0  0  0  0  # atno 8010 bound_to 7997
  139.6320  144.7116  151.2412 H   0  0  0  0  0  0  0  0  0  0  0  0  # atno 10167 bound_to 10162
  157.3445  130.7565  149.6935 H   0  0  0  0  0  0  0  0  0  0  0  0  # atno 10718 bound_to 10713
  154.8749  135.3981  154.3501 H   0  0  0  0  0  0  0  0  0  0  0  0  # atno 10763 bound_to 10752
  153.4288  135.7024  153.6250 H   0  0  0  0  0  0  0  0  0  0  0  0  # atno 10764 bound_to 10752
  153.4880  135.3754  155.2447 H   0  0  0  0  0  0  0  0  0  0  0  0  # atno 10765 bound_to 10752
  140.6286  134.4675  157.5228 H   0  0  0  0  0  0  0  0  0  0  0  0  # atno 11005 bound_to 11000
  145.3177  139.1798  143.4605 LP  0  0  0  0  0  0  0  0  0  0  0  0  # atno 17320 bound_to 7965
  146.3237  140.3190  142.8632 LP  0  0  0  0  0  0  0  0  0  0  0  0  # atno 17321 bound_to 7965
  140.7444  143.6463  150.8289 LP  0  0  0  0  0  0  0  0  0  0  0  0  # atno 17342 bound_to 10162
  140.0089  143.5664  152.2846 LP  0  0  0  0  0  0  0  0  0  0  0  0  # atno 17343 bound_to 10162
  155.9712  130.4158  150.4200 LP  0  0  0  0  0  0  0  0  0  0  0  0  # atno 17370 bound_to 10713
  157.2253  131.0492  151.2523 LP  0  0  0  0  0  0  0  0  0  0  0  0  # atno 17371 bound_to 10713
  139.9125  134.8315  156.1479 LP  0  0  0  0  0  0  0  0  0  0  0  0  # atno 17394 bound_to 11000
  141.0692  133.6805  156.2105 LP  0  0  0  0  0  0  0  0  0  0  0  0  # atno 17395 bound_to 11000

$$$$
