#       Name:                AV-unprocessed.smi:2941
#       Creating user name   scv26
#       Creation time:       Fri Mar 27 16:15:35 2020


#       File generated by GOLD software.
#

@<TRIPOS>MOLECULE
AV-unprocessed.smi:2941
    45    46     1
SMALL
NO_CHARGES


@<TRIPOS>ATOM
      1 ****        -5.5260   2.5351  -1.7282 C.3            1 S1                 0.0000
      2 ****        -4.9958   1.3511  -1.1587 O.3            1 S1                 0.0000
      3 ****        -3.5895   1.2576  -1.3090 C.3            1 S1                 0.0000
      4 ****        -3.1132  -0.0637  -0.6872 C.3            1 S1                 0.0000
      5 ****        -1.6561  -0.2167  -0.7960 N.am           1 S1                 0.0000
      6 ****        -0.8877   0.2037   0.3069 C.2            1 S1                 0.0000
      7 ****         0.4544   0.1012   0.3264 C.2            1 S1                 0.0000
      8 ****         1.2268   0.5519   1.5088 C.2            1 S1                 0.0000
      9 ****         0.8166   1.4678   2.2231 O.2            1 S1                 0.0000
     10 ****         2.5283  -0.1142   1.8086 C.ar           1 S1                 0.0000
     11 ****         3.6376   0.7096   2.1064 C.ar           1 S1                 0.0000
     12 ****         4.8961   0.1463   2.3896 C.ar           1 S1                 0.0000
     13 ****         5.9505   0.9494   2.6659 F              1 S1                 0.0000
     14 ****         5.0585  -1.2505   2.3844 C.ar           1 S1                 0.0000
     15 ****         3.9594  -2.0828   2.1037 C.ar           1 S1                 0.0000
     16 ****         2.6953  -1.5262   1.8209 C.ar           1 S1                 0.0000
     17 ****         1.6525  -2.3813   1.5946 O.3            1 S1                 0.0000
     18 ****         1.1054  -0.4469  -0.8473 C.2            1 S1                 0.0000
     19 ****         0.3762  -0.8423  -1.9094 C.2            1 S1                 0.0000
     20 ****         0.9963  -1.3837  -3.0731 C.1            1 S1                 0.0000
     21 ****         1.5230  -1.8226  -4.0055 N.1            1 S1                 0.0000
     22 ****        -1.0895  -0.7358  -1.9275 C.2            1 S1                 0.0000
     23 ****        -1.7694  -1.0853  -2.8938 O.2            1 S1                 0.0000
     24 ****        -6.6050   2.5631  -1.5765 H              1 S1                 0.0000
     25 ****        -5.3365   2.5750  -2.8015 H              1 S1                 0.0000
     26 ****        -5.0975   3.4238  -1.2631 H              1 S1                 0.0000
     27 ****        -3.3252   1.2973  -2.3669 H              1 S1                 0.0000
     28 ****        -3.1054   2.1019  -0.8154 H              1 S1                 0.0000
     29 ****        -3.4184  -0.1035   0.3595 H              1 S1                 0.0000
     30 ****        -3.6246  -0.9031  -1.1614 H              1 S1                 0.0000
     31 ****        -1.4631   0.6066   1.1288 H              1 S1                 0.0000
     32 ****         3.5331   1.7853   2.1102 H              1 S1                 0.0000
     33 ****         6.0236  -1.6841   2.6018 H              1 S1                 0.0000
     34 ****         4.0889  -3.1553   2.1151 H              1 S1                 0.0000
     35 ****         1.8999  -3.2918   1.6508 H              1 S1                 0.0000
     36 ****         2.1815  -0.5385  -0.8840 H              1 S1                 0.0000
     37 ****        -5.4190   0.5631  -1.6058 LP             1 S1                 0.0000
     38 ****        -5.2154   1.3386  -0.1832 LP             1 S1                 0.0000
     39 ****        -0.0496   1.9194   2.0089 LP             1 S1                 0.0000
     40 ****         1.3498   1.7599   3.0171 LP             1 S1                 0.0000
     41 ****         1.2903  -2.2060   0.6791 LP             1 S1                 0.0000
     42 ****         0.9412  -2.2024   2.2743 LP             1 S1                 0.0000
     43 ****         1.9781  -2.2018  -4.8112 LP             1 S1                 0.0000
     44 ****        -2.7647  -0.9928  -2.8645 LP             1 S1                 0.0000
     45 ****        -1.3260  -1.4614  -3.7074 LP             1 S1                 0.0000
@<TRIPOS>BOND
    1    1    2 1     
    2    1   24 1     
    3    1   25 1     
    4    1   26 1     
    5    2    3 1     
    6    3    4 1     
    7    3   27 1     
    8    3   28 1     
    9    4    5 1     
   10    4   29 1     
   11    4   30 1     
   12    5   22 am    
   13    5    6 1     
   14    6    7 2     
   15    6   31 1     
   16    7    8 1     
   17    7   18 1     
   18    8    9 2     
   19    8   10 1     
   20   10   16 ar    
   21   10   11 ar    
   22   11   12 ar    
   23   11   32 1     
   24   12   13 1     
   25   12   14 ar    
   26   14   15 ar    
   27   14   33 1     
   28   15   16 ar    
   29   15   34 1     
   30   16   17 1     
   31   17   35 1     
   32   18   19 2     
   33   18   36 1     
   34   19   20 1     
   35   19   22 1     
   36   20   21 3     
   37   22   23 2     
   38    2   37 1     
   39    2   38 1     
   40    9   39 1     
   41    9   40 1     
   42   17   41 1     
   43   17   42 1     
   44   21   43 1     
   45   23   44 1     
   46   23   45 1     
@<TRIPOS>SUBSTRUCTURE
      1 S1             1
@<TRIPOS>SET
LONE_PAIRS      STATIC     ATOMS    <user>   **** ""
9 37 38 39 40 41 42 43 44 45
DONOR_HYDROGENS      STATIC     ATOMS    <user>   **** ""
1 35
ATOM$BLUE        STATIC     ATOMS    COLORGROUP SYSTEM
9 37 38 39 40 41 42 43 44 45
ATOM$RED        STATIC     ATOMS    COLORGROUP SYSTEM
1 35
