#       Name:                AV-unprocessed.smi:1278
#       Creating user name   scv26
#       Creation time:       Fri Mar 27 04:48:14 2020


#       File generated by GOLD software.
#

@<TRIPOS>MOLECULE
AV-unprocessed.smi:1278
    42    43     1
SMALL
NO_CHARGES


@<TRIPOS>ATOM
      1 ****        -0.9488   4.0224  -1.5151 C.3            1 S1                 0.0000
      2 ****        -1.9256   3.5137  -0.4402 C.3            1 S1                 0.0000
      3 ****        -3.2715   3.0494  -1.0272 C.3            1 S1                 0.0000
      4 ****        -3.1312   1.6991  -1.7438 C.3            1 S1                 0.0000
      5 ****        -2.4833   0.6507  -0.8256 C.3            1 S1                 0.0000
      6 ****        -1.1706   1.1236  -0.3154 N.4            1 S1                 1.0000
      7 ****        -0.4512   0.0718   0.4457 C.3            1 S1                 0.0000
      8 ****         1.0713   0.3080   0.4746 C.3            1 S1                 0.0000
      9 ****         1.7666  -0.7642   1.1774 N.am           1 S1                 0.0000
     10 ****         2.0478  -1.9655   0.6521 C.2            1 S1                 0.0000
     11 ****         1.7315  -2.2918  -0.4925 O.2            1 S1                 0.0000
     12 ****         2.7048  -2.7431   1.5303 N.am           1 S1                 0.0000
     13 ****         3.1677  -4.0728   1.3479 C.2            1 S1                 0.0000
     14 ****         2.9904  -4.7863   0.2296 N.2            1 S1                 0.0000
     15 ****         3.5489  -6.0633   0.3287 C.2            1 S1                 0.0000
     16 ****         4.1505  -6.3070   1.5383 C.2            1 S1                 0.0000
     17 ****         4.0383  -4.9349   2.6081 S.3            1 S1                 0.0000
     18 ****        -1.3036   2.4038   0.4321 C.3            1 S1                 0.0000
     19 ****        -0.6562   3.2332  -2.2077 H              1 S1                 0.0000
     20 ****        -0.0381   4.4138  -1.0609 H              1 S1                 0.0000
     21 ****        -1.3945   4.8279  -2.0993 H              1 S1                 0.0000
     22 ****        -2.1330   4.3635   0.2116 H              1 S1                 0.0000
     23 ****        -3.9992   2.9491  -0.2206 H              1 S1                 0.0000
     24 ****        -3.6737   3.8005  -1.7082 H              1 S1                 0.0000
     25 ****        -4.1114   1.3505  -2.0702 H              1 S1                 0.0000
     26 ****        -2.5333   1.8163  -2.6481 H              1 S1                 0.0000
     27 ****        -3.1417   0.4238   0.0145 H              1 S1                 0.0000
     28 ****        -2.3517  -0.2763  -1.3850 H              1 S1                 0.0000
     29 ****        -0.8543   0.0038   1.4574 H              1 S1                 0.0000
     30 ****        -0.6386  -0.8946  -0.0244 H              1 S1                 0.0000
     31 ****         1.4627   0.4017  -0.5401 H              1 S1                 0.0000
     32 ****         1.3117   1.2391   0.9862 H              1 S1                 0.0000
     33 ****         2.0622  -0.5756   2.1244 H              1 S1                 0.0000
     34 ****         2.9004  -2.3373   2.4336 H              1 S1                 0.0000
     35 ****         3.4717  -6.7364  -0.5123 H              1 S1                 0.0000
     36 ****         4.6506  -7.2072   1.8634 H              1 S1                 0.0000
     37 ****        -0.3340   2.7385   0.7992 H              1 S1                 0.0000
     38 ****        -1.9251   2.2365   1.3134 H              1 S1                 0.0000
     39 ****        -0.6083   1.3161  -1.1324 H              1 S1                 0.0000
     40 ****         1.2405  -1.6472  -1.0785 LP             1 S1                 0.0000
     41 ****         1.9657  -3.2013  -0.8359 LP             1 S1                 0.0000
     42 ****         2.5144  -4.4457  -0.5812 LP             1 S1                 0.0000
@<TRIPOS>BOND
    1    1    2 1     
    2    1   19 1     
    3    1   20 1     
    4    1   21 1     
    5    2   18 1     
    6    2    3 1     
    7    2   22 1     
    8    3    4 1     
    9    3   23 1     
   10    3   24 1     
   11    4    5 1     
   12    4   25 1     
   13    4   26 1     
   14    5    6 1     
   15    5   27 1     
   16    5   28 1     
   17    6    7 1     
   18    6   18 1     
   19    6   39 1     
   20    7    8 1     
   21    7   29 1     
   22    7   30 1     
   23    8    9 1     
   24    8   31 1     
   25    8   32 1     
   26    9   10 am    
   27    9   33 1     
   28   10   11 2     
   29   10   12 am    
   30   12   13 1     
   31   12   34 1     
   32   13   17 1     
   33   13   14 2     
   34   14   15 1     
   35   15   16 2     
   36   15   35 1     
   37   16   17 1     
   38   16   36 1     
   39   18   37 1     
   40   18   38 1     
   41   11   40 1     
   42   11   41 1     
   43   14   42 1     
@<TRIPOS>SUBSTRUCTURE
      1 S1             1
@<TRIPOS>SET
LONE_PAIRS      STATIC     ATOMS    <user>   **** ""
3 40 41 42
DONOR_HYDROGENS      STATIC     ATOMS    <user>   **** ""
3 39 33 34
ATOM$BLUE        STATIC     ATOMS    COLORGROUP SYSTEM
3 40 41 42
ATOM$RED        STATIC     ATOMS    COLORGROUP SYSTEM
3 39 33 34
