AV-unprocessed.smi:126|AV-procd|sdf|1152|dock3
  -GOLD-   2262018283D 1   1.00000     0.00000
 Structure written by MMmdl.
 40 42  0  0  0  0  0  0  0  0  1 V2000
  152.8392  139.2492  157.7007 O   0  0  0  0  0  0  0  0  0  0  0  0
  151.8155  139.7940  157.2852 C   0  0  0  0  0  0  0  0  0  0  0  0
  150.9803  139.1359  156.1757 C   0  0  0  0  0  0  0  0  0  0  0  0
  150.3095  137.8895  156.6062 N   0  0  0  0  0  0  0  0  0  0  0  0
  150.6889  136.6712  155.9900 C   0  0  0  0  0  0  0  0  0  0  0  0
  151.5628  136.6405  155.1220 O   0  0  0  0  0  0  0  0  0  0  0  0
  149.9767  135.4840  156.4490 C   0  0  0  0  0  0  0  0  0  0  0  0
  150.2776  134.2835  155.9251 F   0  0  0  0  0  0  0  0  0  0  0  0
  149.0189  135.5702  157.3949 C   0  0  0  0  0  0  0  0  0  0  0  0
  148.6511  136.7684  157.9805 N   0  0  0  0  0  0  0  0  0  0  0  0
  147.5718  136.8482  159.0391 C   0  0  1  0  0  0  0  0  0  0  0  0
  146.7803  135.5291  159.1063 C   0  0  0  0  0  0  0  0  0  0  0  0
  146.8028  135.2032  160.5862 C   0  0  0  0  0  0  0  0  0  0  0  0
  148.1224  135.8215  161.0228 C   0  0  0  0  0  0  0  0  0  0  0  0
  148.1527  137.0437  160.2973 O   0  0  0  0  0  0  0  0  0  0  0  0
  149.2964  137.9624  157.5915 C   0  0  0  0  0  0  0  0  0  0  0  0
  148.9763  139.0408  158.0964 O   0  0  0  0  0  0  0  0  0  0  0  0
  151.3634  140.9882  157.7091 N   0  0  0  0  0  0  0  0  0  0  0  0
  151.8886  141.8215  158.7335 C   0  0  0  0  0  0  0  0  0  0  0  0
  151.5322  143.1862  158.7046 C   0  0  0  0  0  0  0  0  0  0  0  0
  151.9973  144.0674  159.6999 C   0  0  0  0  0  0  0  0  0  0  0  0
  152.8138  143.5866  160.7407 C   0  0  0  0  0  0  0  0  0  0  0  0
  153.1601  142.2231  160.7878 C   0  0  0  0  0  0  0  0  0  0  0  0
  152.6973  141.3407  159.7923 C   0  0  0  0  0  0  0  0  0  0  0  0
  150.2447  139.8547  155.8099 H   0  0  0  0  0  0  0  0  0  0  0  0
  151.6309  138.9647  155.3168 H   0  0  0  0  0  0  0  0  0  0  0  0
  148.5321  134.6541  157.6918 H   0  0  0  0  0  0  0  0  0  0  0  0
  146.9677  137.7200  158.7829 H   0  0  0  0  0  0  0  0  0  0  0  0
  145.7739  135.6547  158.7062 H   0  0  0  0  0  0  0  0  0  0  0  0
  147.2939  134.7516  158.5381 H   0  0  0  0  0  0  0  0  0  0  0  0
  145.9726  135.6970  161.0928 H   0  0  0  0  0  0  0  0  0  0  0  0
  146.7434  134.1339  160.7900 H   0  0  0  0  0  0  0  0  0  0  0  0
  148.1749  135.9918  162.0982 H   0  0  0  0  0  0  0  0  0  0  0  0
  148.9622  135.1888  160.7319 H   0  0  0  0  0  0  0  0  0  0  0  0
  150.5761  141.3673  157.2033 H   0  0  0  0  0  0  0  0  0  0  0  0
  150.9029  143.5657  157.9128 H   0  0  0  0  0  0  0  0  0  0  0  0
  151.7257  145.1120  159.6657 H   0  0  0  0  0  0  0  0  0  0  0  0
  153.1688  144.2618  161.5054 H   0  0  0  0  0  0  0  0  0  0  0  0
  153.7774  141.8512  161.5923 H   0  0  0  0  0  0  0  0  0  0  0  0
  152.9616  140.2974  159.8698 H   0  0  0  0  0  0  0  0  0  0  0  0
  1  2  2  0  0  0  0
  2  3  1  0  0  0  0
  2 18  1  0  0  0  0
  3  4  1  0  0  0  0
  3 25  1  0  0  0  0
  3 26  1  0  0  0  0
  4 16  1  0  0  0  0
  4  5  1  0  0  0  0
  5  6  2  0  0  0  0
  5  7  1  0  0  0  0
  7  8  1  0  0  0  0
  7  9  2  0  0  0  0
  9 10  1  0  0  0  0
  9 27  1  0  0  0  0
 10 11  1  0  0  0  0
 10 16  1  0  0  0  0
 11 15  1  0  0  0  0
 11 12  1  0  0  0  0
 11 28  1  0  0  0  0
 12 13  1  0  0  0  0
 12 29  1  0  0  0  0
 12 30  1  0  0  0  0
 13 14  1  0  0  0  0
 13 31  1  0  0  0  0
 13 32  1  0  0  0  0
 14 15  1  0  0  0  0
 14 33  1  0  0  0  0
 14 34  1  0  0  0  0
 16 17  2  0  0  0  0
 18 19  1  0  0  0  0
 18 35  1  0  0  0  0
 19 24  1  0  0  0  0
 19 20  2  0  0  0  0
 20 21  1  0  0  0  0
 20 36  1  0  0  0  0
 21 22  2  0  0  0  0
 21 37  1  0  0  0  0
 22 23  1  0  0  0  0
 22 38  1  0  0  0  0
 23 24  2  0  0  0  0
 23 39  1  0  0  0  0
 24 40  1  0  0  0  0
M  END
> <s_m_source_file>
AV-unprocessed.smi

> <i_m_source_file_index>
126

> <i_lp_mmshare_version>
43012

> <i_f3d_flags>
0

> <s_epik_input>
W2NIXTFbY0hdW2NIXVtjSF1bY0hdYzFbTkhdQyg9TylbQ0gyXW4yYyg9TyljKEYpW2NIXW4oYzI9TylbQ0BASF0zW0NIMl1bQ0gyXVtDSDJdTzM=

> <s_epik_cmdline>
J2VwaWtfcHl0aG9uJywgJy1waCcsICc3LjAnLCAnLXRuJywgJzgnLCAnLW1hJywgJzIwMCcsICctbWV0YWxfYmluZGluZycsICctaW1hZScsICc8aW5maWxlLm1hZT4nLCAnLW9tYWUnLCAnPG91dGZpbGUubWFlPic=

> <r_lp_tautomer_probability>
1

> <r_epik_Ionization_Penalty>
1.86934e-06

> <r_epik_Ionization_Penalty_Charging>
3.88729e-08

> <r_epik_Ionization_Penalty_Neutral>
1.83046e-06

> <r_epik_State_Penalty>
-0

> <r_epik_Charging_Adjusted_Penalty>
3.88729e-08

> <i_epik_Tot_Q>
0

> <i_epik_Tot_abs_Q>
0

> <r_epik_Metal_State_Penalty>
-0

> <b_epik_Metal_Only>
0

> <s_epik_Chemistry_Notes>
This compound contains an acetal/aminal-like group ( X-CH(R)-Y where X, Y are N, S, or O) that may be acid/base labile, releasing an aldehyde.

> <s_lp_Force_Field>
OPLS_2005

> <r_lp_Energy>
33.9476

> <b_lp_Chiralities_Consistent>
1

> <s_lp_Variant>
AV-unprocessed.smi:126-2

> <Gold.Version>
5.8.1

> <Gold.Id.Protein>
6NUR|6NUR_protein|mol2

> <Gold.PLP.Fitness>
44.3465

> <Gold.PLP.PLP>
-36.2354

> <Gold.PLP.part.hbond>
-4.2148

> <Gold.PLP.part.metal>
0.0000

> <Gold.PLP.part.buried>
-6.2830

> <Gold.PLP.part.nonpolar>
-26.3526

> <Gold.PLP.part.repulsive>
0.1315

> <Gold.PLP.ligand.clash>
0.0000

> <Gold.PLP.ligand.torsion>
0.5055

> <Gold.PLP.Chemscore.Hbond>
3.0215

> <Gold.PLP.Chemscore.CHOScore>
0.0000

> <Gold.PLP.Chemscore.Metal>
0.0000

> <Gold.Chemscore.Hbonds>
donor molecule, donor type, donor heavy atom, donor atom, acceptor molecule, acceptor atom, score
      P1  H  6931  6943       L1    15  0.39
      P1  H  6934  6947       L1    15  0.27
      P1  H  7997  8009       L1     1  1.00
      P1  H 10752 10765       L1     6  1.00

> <Gold.PLP.Chemscore.Internal.Correction>
0.0576

> <Gold.Rescore>
     Score         DG    S(hbond)    S(metal)    S(lipo)     H(rot)  DE(clash)    DE(int)     intcor
     17.38     -19.19       2.16        0.00      92.05       1.66       0.06       1.75       ----

> <Gold.Chemscore.Fitness>
17.3764

> <Gold.Chemscore.DG>
-19.1935

> <Gold.Chemscore.ZeroCoef>
-5.4800

> <Gold.Chemscore.Hbond>
2.1552

> <Gold.Chemscore.Metal>
0.0000

> <Gold.Chemscore.Lipo>
92.0518

> <Gold.Chemscore.Internal_Hbond>
0.0000

> <Gold.Chemscore.DEClash>
0.0624

> <Gold.Chemscore.DEInternal>
1.7547

> <Gold.Chemscore.Rot>
1.6621

> <Gold.Chemscore.Internal.Correction>
   9.000000E+99

> <Gold.Chemscore.Hbonds>
donor molecule, donor type, donor heavy atom, donor atom, acceptor molecule, acceptor atom, score
      P1  H  6931  6943       L1    15  0.07
      P1  H  6934  6947       L1    15  0.08
      P1  H  7997  8009       L1     1  0.83
      P1  H 10752 10765       L1     6  1.00

> <Gold.Chemscore.Hbond.Weighted>
-7.1984

> <Gold.Chemscore.Metal.Weighted>
-0.0000

> <Gold.Chemscore.Lipo.Weighted>
-10.7701

> <Gold.Chemscore.Internal_Hbond.Weighted>
0.0000

> <Gold.Chemscore.DEClash.Weighted>
0.0624

> <Gold.Chemscore.DEInternal.Weighted>
1.7547

> <Gold.Chemscore.Rot.Weighted>
4.2550

> <Gold.Chemscore.Internal.Correction.Weighted>
   9.000000E+99

> <Gold.Protein.RotatedTorsions>
[ 6907 6896 6895 6894 ] final  133.83 input  -60.11 | X-H torsion
[ 7974 7965 7964 7962 ] final  -35.81 input  175.53 | X-H torsion
[ 8008 7997 7996 7995 ] final  158.41 input   59.86 | X-H torsion
[ 10167 10162 10161 10158 ] final -160.36 input  -65.29 | X-H torsion
[ 10718 10713 10712 10709 ] final   56.53 input   66.30 | X-H torsion
[ 10763 10752 10751 10750 ] final  174.03 input  -60.55 | X-H torsion
[ 11005 11000 10999 10996 ] final -115.81 input  -57.11 | X-H torsion

> <Gold.Protein.ActiveResidues>
 VAL166  LYS551  ARG553  GLY616  TRP617  ASP618  TYR619  PRO620  LYS621  CYS622 
 ASP623  PHE694  ASN695  SER759  ASP760  ASP761  ALA762  ILE779  LEU786  VAL792 
 PHE793  MET794  SER795  GLU796  ALA797  LYS798  CYS799  TRP800  GLU811  SER814 

> <Gold.Protein.RotatedAtoms>
  152.3178  133.5821  159.5723 H   0  0  0  0  0  0  0  0  0  0  0  0  # atno 6907 bound_to 6896
  150.7355  134.0056  159.3661 H   0  0  0  0  0  0  0  0  0  0  0  0  # atno 6908 bound_to 6896
  151.7943  135.0727  160.0442 H   0  0  0  0  0  0  0  0  0  0  0  0  # atno 6909 bound_to 6896
  146.0715  140.6203  142.8950 H   0  0  0  0  0  0  0  0  0  0  0  0  # atno 7974 bound_to 7965
  156.2304  140.1859  156.7256 H   0  0  0  0  0  0  0  0  0  0  0  0  # atno 8008 bound_to 7997
  154.6013  140.0635  156.9400 H   0  0  0  0  0  0  0  0  0  0  0  0  # atno 8009 bound_to 7997
  155.2169  140.3304  155.4323 H   0  0  0  0  0  0  0  0  0  0  0  0  # atno 8010 bound_to 7997
  139.6545  144.0024  152.2184 H   0  0  0  0  0  0  0  0  0  0  0  0  # atno 10167 bound_to 10162
  157.5439  130.8717  149.8862 H   0  0  0  0  0  0  0  0  0  0  0  0  # atno 10718 bound_to 10713
  154.4483  135.2764  155.1799 H   0  0  0  0  0  0  0  0  0  0  0  0  # atno 10763 bound_to 10752
  154.3637  135.6124  153.5707 H   0  0  0  0  0  0  0  0  0  0  0  0  # atno 10764 bound_to 10752
  152.9845  135.5840  154.4823 H   0  0  0  0  0  0  0  0  0  0  0  0  # atno 10765 bound_to 10752
  141.0463  133.9757  157.2911 H   0  0  0  0  0  0  0  0  0  0  0  0  # atno 11005 bound_to 11000
  144.7235  140.4449  143.6991 LP  0  0  0  0  0  0  0  0  0  0  0  0  # atno 17320 bound_to 7965
  145.6383  139.1546  143.2930 LP  0  0  0  0  0  0  0  0  0  0  0  0  # atno 17321 bound_to 7965
  139.9746  144.6470  150.7957 LP  0  0  0  0  0  0  0  0  0  0  0  0  # atno 17342 bound_to 10162
  140.7553  143.3043  151.3001 LP  0  0  0  0  0  0  0  0  0  0  0  0  # atno 17343 bound_to 10162
  156.0519  130.3716  150.1181 LP  0  0  0  0  0  0  0  0  0  0  0  0  # atno 17370 bound_to 10713
  156.9359  130.9729  151.3525 LP  0  0  0  0  0  0  0  0  0  0  0  0  # atno 17371 bound_to 10713
  139.9315  135.0199  156.8414 LP  0  0  0  0  0  0  0  0  0  0  0  0  # atno 17394 bound_to 11000
  140.6140  134.0056  155.7589 LP  0  0  0  0  0  0  0  0  0  0  0  0  # atno 17395 bound_to 11000

$$$$
