#       Name:                AV-unprocessed.smi:1072
#       Creating user name   scv26
#       Creation time:       Fri Mar 27 03:20:33 2020


#       File generated by GOLD software.
#

@<TRIPOS>MOLECULE
AV-unprocessed.smi:1072
    51    52     1
SMALL
NO_CHARGES


@<TRIPOS>ATOM
      1 ****        -4.5401   5.0775   0.6782 C.3            1 S1                 0.0000
      2 ****        -3.9978   3.6659   0.7312 C.2            1 S1                 0.0000
      3 ****        -3.5284   3.2038  -0.4873 N.pl3          1 S1                 0.0000
      4 ****        -3.0128   1.9209  -0.5379 C.2            1 S1                 0.0000
      5 ****        -2.5214   1.4918  -1.9096 C.3            1 S1                 0.0000
      6 ****        -2.9627   1.1396   0.5707 C.2            1 S1                 0.0000
      7 ****        -2.3974  -0.2800   0.5548 C.3            1 S1                 0.0000
      8 ****        -0.8710  -0.3891   0.5887 C.2            1 S1                 0.0000
      9 ****        -0.2049   0.4754   1.1575 O.2            1 S1                 0.0000
     10 ****        -0.3453  -1.4587  -0.0358 N.am           1 S1                 0.0000
     11 ****         1.0641  -1.8385  -0.2084 C.3            1 S1                 0.0000
     12 ****         1.0355  -3.1567  -1.0118 C.3            1 S1                 0.0000
     13 ****         1.8253  -0.7422  -1.0042 C.3            1 S1                 0.0000
     14 ****         3.3419  -0.9933  -1.0830 C.3            1 S1                 0.0000
     15 ****         3.9629  -1.1700   0.3141 C.3            1 S1                 0.0000
     16 ****         5.4773  -1.4080   0.2291 C.3            1 S1                 0.0000
     17 ****         3.2556  -2.3062   1.0744 C.3            1 S1                 0.0000
     18 ****         1.7382  -2.0670   1.1730 C.3            1 S1                 0.0000
     19 ****        -3.4718   1.6926   1.8480 C.2            1 S1                 0.0000
     20 ****        -3.4400   1.0406   2.8908 O.2            1 S1                 0.0000
     21 ****        -3.9928   2.9967   1.8439 N.2            1 S1                 0.0000
     22 ****        -3.5425   3.7532  -1.3346 H              1 S1                 0.0000
     23 ****        -5.0579   5.3312   1.6041 H              1 S1                 0.0000
     24 ****        -5.2459   5.1863  -0.1460 H              1 S1                 0.0000
     25 ****        -3.7262   5.7889   0.5354 H              1 S1                 0.0000
     26 ****        -3.0814   0.6252  -2.2613 H              1 S1                 0.0000
     27 ****        -1.4642   1.2278  -1.8707 H              1 S1                 0.0000
     28 ****        -2.6399   2.2875  -2.6461 H              1 S1                 0.0000
     29 ****        -2.7629  -0.7797  -0.3431 H              1 S1                 0.0000
     30 ****        -2.7992  -0.8669   1.3811 H              1 S1                 0.0000
     31 ****        -1.0094  -2.0911  -0.4583 H              1 S1                 0.0000
     32 ****         2.0320  -3.5497  -1.2084 H              1 S1                 0.0000
     33 ****         0.5495  -3.0189  -1.9786 H              1 S1                 0.0000
     34 ****         0.4850  -3.9327  -0.4785 H              1 S1                 0.0000
     35 ****         1.4148  -0.6540  -2.0107 H              1 S1                 0.0000
     36 ****         1.6839   0.2339  -0.5411 H              1 S1                 0.0000
     37 ****         3.5455  -1.8722  -1.6950 H              1 S1                 0.0000
     38 ****         3.8177  -0.1557  -1.5941 H              1 S1                 0.0000
     39 ****         3.8068  -0.2449   0.8711 H              1 S1                 0.0000
     40 ****         5.7046  -2.3229  -0.3191 H              1 S1                 0.0000
     41 ****         5.9176  -1.4966   1.2226 H              1 S1                 0.0000
     42 ****         5.9760  -0.5825  -0.2793 H              1 S1                 0.0000
     43 ****         3.4533  -3.2604   0.5858 H              1 S1                 0.0000
     44 ****         3.6709  -2.3919   2.0791 H              1 S1                 0.0000
     45 ****         1.5897  -1.2022   1.8186 H              1 S1                 0.0000
     46 ****         1.2666  -2.9046   1.6885 H              1 S1                 0.0000
     47 ****        -0.6608   1.2490   1.5975 LP             1 S1                 0.0000
     48 ****         0.7923   0.4042   1.1798 LP             1 S1                 0.0000
     49 ****        -3.0640   0.1139   2.8899 LP             1 S1                 0.0000
     50 ****        -3.7901   1.4372   3.7394 LP             1 S1                 0.0000
     51 ****        -4.3537   3.4029   2.6834 LP             1 S1                 0.0000
@<TRIPOS>BOND
    1    1   23 1     
    2    1   24 1     
    3    1   25 1     
    4    1    2 1     
    5    2    3 1     
    6    2   21 2     
    7    3    4 1     
    8    3   22 1     
    9    4    6 2     
   10    4    5 1     
   11    5   26 1     
   12    5   27 1     
   13    5   28 1     
   14    6   19 1     
   15    6    7 1     
   16    7    8 1     
   17    7   29 1     
   18    7   30 1     
   19    8    9 2     
   20    8   10 am    
   21   10   11 1     
   22   10   31 1     
   23   11   18 1     
   24   11   12 1     
   25   11   13 1     
   26   12   32 1     
   27   12   33 1     
   28   12   34 1     
   29   13   14 1     
   30   13   35 1     
   31   13   36 1     
   32   14   15 1     
   33   14   37 1     
   34   14   38 1     
   35   15   16 1     
   36   15   17 1     
   37   15   39 1     
   38   16   40 1     
   39   16   41 1     
   40   16   42 1     
   41   17   18 1     
   42   17   43 1     
   43   17   44 1     
   44   18   45 1     
   45   18   46 1     
   46   19   20 2     
   47   19   21 1     
   48    9   47 1     
   49    9   48 1     
   50   20   49 1     
   51   20   50 1     
   52   21   51 1     
@<TRIPOS>SUBSTRUCTURE
      1 S1             1
@<TRIPOS>SET
LONE_PAIRS      STATIC     ATOMS    <user>   **** ""
5 47 48 49 50 51
DONOR_HYDROGENS      STATIC     ATOMS    <user>   **** ""
2 22 31
ATOM$BLUE        STATIC     ATOMS    COLORGROUP SYSTEM
5 47 48 49 50 51
ATOM$RED        STATIC     ATOMS    COLORGROUP SYSTEM
2 22 31
