#       Name:                AV-unprocessed.smi:357
#       Creating user name   scv26
#       Creation time:       Thu Mar 26 22:35:13 2020


#       File generated by GOLD software.
#

@<TRIPOS>MOLECULE
AV-unprocessed.smi:357
    44    45     1
SMALL
NO_CHARGES


@<TRIPOS>ATOM
      1 ****        -0.4286   2.5558   1.5548 O.2            1 S1                 0.0000
      2 ****         0.3623   1.6140   1.6232 C.2            1 S1                 0.0000
      3 ****         1.8176   1.7847   1.7422 C.2            1 S1                 0.0000
      4 ****         2.4269   3.4055   1.7987 Cl             1 S1                 0.0000
      5 ****         2.6716   0.7275   1.8025 C.2            1 S1                 0.0000
      6 ****         4.0432   0.9272   1.9064 N.pl3          1 S1                 0.0000
      7 ****         4.7815   2.1804   1.9666 C.3            1 S1                 0.0000
      8 ****         5.0710   2.6108   3.4120 C.3            1 S1                 0.0000
      9 ****         4.0090   3.3953   3.9112 O.3            1 S1                 0.0000
     10 ****         2.0680  -0.5954   1.7419 C.2            1 S1                 0.0000
     11 ****         0.7969  -0.7793   1.6427 N.2            1 S1                 0.0000
     12 ****        -0.0466   0.3114   1.5869 N.am           1 S1                 0.0000
     13 ****        -1.4648  -0.0359   1.4491 C.3            1 S1                 0.0000
     14 ****        -1.9046  -0.0145  -0.0224 C.3            1 S1                 0.0000
     15 ****        -3.2788  -0.3688  -0.0936 O.3            1 S1                 0.0000
     16 ****        -3.8754  -0.4142  -1.3353 C.ar           1 S1                 0.0000
     17 ****        -5.2475  -0.7380  -1.3743 C.ar           1 S1                 0.0000
     18 ****        -5.9374  -0.8084  -2.5999 C.ar           1 S1                 0.0000
     19 ****        -5.2576  -0.5547  -3.8055 C.ar           1 S1                 0.0000
     20 ****        -6.0999  -0.6404  -5.3087 Cl             1 S1                 0.0000
     21 ****        -3.8882  -0.2311  -3.7818 C.ar           1 S1                 0.0000
     22 ****        -3.1987  -0.1600  -2.5557 C.ar           1 S1                 0.0000
     23 ****         4.6193   0.0975   1.9248 H              1 S1                 0.0000
     24 ****         5.7319   1.9948   1.4657 H              1 S1                 0.0000
     25 ****         4.2948   2.9717   1.3963 H              1 S1                 0.0000
     26 ****         5.2533   1.7535   4.0613 H              1 S1                 0.0000
     27 ****         5.9696   3.2276   3.4369 H              1 S1                 0.0000
     28 ****         4.2151   3.6514   4.7972 H              1 S1                 0.0000
     29 ****         2.7539  -1.4404   1.7825 H              1 S1                 0.0000
     30 ****        -1.6474  -1.0275   1.8673 H              1 S1                 0.0000
     31 ****        -2.0852   0.6438   2.0359 H              1 S1                 0.0000
     32 ****        -1.7539   0.9806  -0.4444 H              1 S1                 0.0000
     33 ****        -1.3023  -0.7227  -0.5939 H              1 S1                 0.0000
     34 ****        -5.7776  -0.9341  -0.4538 H              1 S1                 0.0000
     35 ****        -6.9884  -1.0573  -2.6124 H              1 S1                 0.0000
     36 ****        -3.3631  -0.0366  -4.7054 H              1 S1                 0.0000
     37 ****        -2.1493   0.0909  -2.5794 H              1 S1                 0.0000
     38 ****        -1.4093   2.3800   1.4693 LP             1 S1                 0.0000
     39 ****        -0.0900   3.4963   1.5848 LP             1 S1                 0.0000
     40 ****         3.1630   2.8621   3.9026 LP             1 S1                 0.0000
     41 ****         3.8953   4.2099   3.3425 LP             1 S1                 0.0000
     42 ****         0.4239  -1.7064   1.6064 LP             1 S1                 0.0000
     43 ****        -3.7854   0.2965   0.4548 LP             1 S1                 0.0000
     44 ****        -3.3724  -1.2771   0.3139 LP             1 S1                 0.0000
@<TRIPOS>BOND
    1    1    2 2     
    2    2   12 am    
    3    2    3 1     
    4    3    4 1     
    5    3    5 2     
    6    5    6 1     
    7    5   10 1     
    8    6    7 1     
    9    6   23 1     
   10    7    8 1     
   11    7   24 1     
   12    7   25 1     
   13    8    9 1     
   14    8   26 1     
   15    8   27 1     
   16    9   28 1     
   17   10   11 2     
   18   10   29 1     
   19   11   12 1     
   20   12   13 1     
   21   13   14 1     
   22   13   30 1     
   23   13   31 1     
   24   14   15 1     
   25   14   32 1     
   26   14   33 1     
   27   15   16 1     
   28   16   22 ar    
   29   16   17 ar    
   30   17   18 ar    
   31   17   34 1     
   32   18   19 ar    
   33   18   35 1     
   34   19   20 1     
   35   19   21 ar    
   36   21   22 ar    
   37   21   36 1     
   38   22   37 1     
   39    1   38 1     
   40    1   39 1     
   41    9   40 1     
   42    9   41 1     
   43   11   42 1     
   44   15   43 1     
   45   15   44 1     
@<TRIPOS>SUBSTRUCTURE
      1 S1             1
@<TRIPOS>SET
LONE_PAIRS      STATIC     ATOMS    <user>   **** ""
7 38 39 40 41 42 43 44
DONOR_HYDROGENS      STATIC     ATOMS    <user>   **** ""
2 23 28
ATOM$BLUE        STATIC     ATOMS    COLORGROUP SYSTEM
7 38 39 40 41 42 43 44
ATOM$RED        STATIC     ATOMS    COLORGROUP SYSTEM
2 23 28
