AV-unprocessed.smi:1139|AV-procd|sdf|4870|dock1
  -GOLD-   22720 3443D 1   1.00000     0.00000
 Structure written by MMmdl.
 43 44  0  0  0  0  0  0  0  0  2 V2000
  154.6930  140.5520  161.3844 C   0  0  0  0  0  0  0  0  0  0  0  0
  153.7435  141.7107  161.4906 C   0  0  0  0  0  0  0  0  0  0  0  0
  153.4388  142.1907  162.6842 N   0  0  0  0  0  0  0  0  0  0  0  0
  152.5403  143.2378  162.4587 O   0  0  0  0  0  0  0  0  0  0  0  0
  152.3342  143.3458  161.1215 C   0  0  0  0  0  0  0  0  0  0  0  0
  151.3923  144.4103  160.6704 C   0  0  0  0  0  0  0  0  0  0  0  0
  153.0671  142.4080  160.4477 C   0  0  0  0  0  0  0  0  0  0  0  0
  153.1370  142.1660  158.9621 C   0  0  0  0  0  0  0  0  0  0  0  0
  151.8674  141.4510  158.5010 C   0  0  0  0  0  0  0  0  0  0  0  0
  151.9241  140.2876  158.1033 O   0  0  0  0  0  0  0  0  0  0  0  0
  150.7301  142.1595  158.5446 N   0  0  0  0  0  0  0  0  0  0  0  0
  149.4351  141.6638  158.0954 C   0  0  0  0  0  0  0  0  0  0  0  0
  149.3949  141.4426  156.5633 C   0  0  1  0  0  0  0  0  0  0  0  0
  149.3425  139.9352  156.2257 C   0  0  0  0  0  0  0  0  0  0  0  0
  148.2451  142.1602  155.9394 N   0  3  0  0  0  0  0  0  0  0  0  0
  148.0885  141.9842  154.4787 C   0  0  0  0  0  0  0  0  0  0  0  0
  146.6440  142.3719  154.1863 C   0  0  0  0  0  0  0  0  0  0  0  0
  145.8933  141.8398  155.4012 C   0  0  0  0  0  0  0  0  0  0  0  0
  146.9179  141.8765  156.5436 C   0  0  0  0  0  0  0  0  0  0  0  0
  154.1544  139.6056  161.4317 H   0  0  0  0  0  0  0  0  0  0  0  0
  155.4250  140.5592  162.1929 H   0  0  0  0  0  0  0  0  0  0  0  0
  155.2428  140.5753  160.4436 H   0  0  0  0  0  0  0  0  0  0  0  0
  150.6484  144.0016  159.9865 H   0  0  0  0  0  0  0  0  0  0  0  0
  151.9289  145.2043  160.1512 H   0  0  0  0  0  0  0  0  0  0  0  0
  150.8653  144.8545  161.5152 H   0  0  0  0  0  0  0  0  0  0  0  0
  153.2269  143.1030  158.4110 H   0  0  0  0  0  0  0  0  0  0  0  0
  154.0144  141.5756  158.6953 H   0  0  0  0  0  0  0  0  0  0  0  0
  150.7712  143.1083  158.8876 H   0  0  0  0  0  0  0  0  0  0  0  0
  149.2111  140.7296  158.6135 H   0  0  0  0  0  0  0  0  0  0  0  0
  148.6818  142.3899  158.4034 H   0  0  0  0  0  0  0  0  0  0  0  0
  150.3117  141.8559  156.1387 H   0  0  0  0  0  0  0  0  0  0  0  0
  150.2058  139.4027  156.6240 H   0  0  0  0  0  0  0  0  0  0  0  0
  149.3427  139.7515  155.1517 H   0  0  0  0  0  0  0  0  0  0  0  0
  148.4477  139.4695  156.6404 H   0  0  0  0  0  0  0  0  0  0  0  0
  148.7943  142.5946  153.9145 H   0  0  0  0  0  0  0  0  0  0  0  0
  148.2500  140.9379  154.2130 H   0  0  0  0  0  0  0  0  0  0  0  0
  146.5535  143.4582  154.1402 H   0  0  0  0  0  0  0  0  0  0  0  0
  146.2758  141.9623  153.2454 H   0  0  0  0  0  0  0  0  0  0  0  0
  144.9969  142.4197  155.6227 H   0  0  0  0  0  0  0  0  0  0  0  0
  145.5839  140.8099  155.2187 H   0  0  0  0  0  0  0  0  0  0  0  0
  146.9099  140.9215  157.0712 H   0  0  0  0  0  0  0  0  0  0  0  0
  146.6787  142.6574  157.2662 H   0  0  0  0  0  0  0  0  0  0  0  0
  148.4060  143.1480  156.0768 H   0  0  0  0  0  0  0  0  0  0  0  0
  1  2  1  0  0  0  0
  1 20  1  0  0  0  0
  1 21  1  0  0  0  0
  1 22  1  0  0  0  0
  2  7  1  0  0  0  0
  2  3  2  0  0  0  0
  3  4  1  0  0  0  0
  4  5  1  0  0  0  0
  5  6  1  0  0  0  0
  5  7  2  0  0  0  0
  6 23  1  0  0  0  0
  6 24  1  0  0  0  0
  6 25  1  0  0  0  0
  7  8  1  0  0  0  0
  8  9  1  0  0  0  0
  8 26  1  0  0  0  0
  8 27  1  0  0  0  0
  9 10  2  0  0  0  0
  9 11  1  0  0  0  0
 11 12  1  0  0  0  0
 11 28  1  0  0  0  0
 12 13  1  0  0  0  0
 12 29  1  0  0  0  0
 12 30  1  0  0  0  0
 13 14  1  0  0  0  0
 13 15  1  0  0  0  0
 13 31  1  0  0  0  0
 14 32  1  0  0  0  0
 14 33  1  0  0  0  0
 14 34  1  0  0  0  0
 15 19  1  0  0  0  0
 15 16  1  0  0  0  0
 15 43  1  0  0  0  0
 16 17  1  0  0  0  0
 16 35  1  0  0  0  0
 16 36  1  0  0  0  0
 17 18  1  0  0  0  0
 17 37  1  0  0  0  0
 17 38  1  0  0  0  0
 18 19  1  0  0  0  0
 18 39  1  0  0  0  0
 18 40  1  0  0  0  0
 19 41  1  0  0  0  0
 19 42  1  0  0  0  0
M  CHG  1  15   1
M  END
> <s_m_source_file>
AV-unprocessed.smi

> <i_m_source_file_index>
1139

> <i_lp_mmshare_version>
43012

> <i_f3d_flags>
0

> <s_epik_input>
W0NIM11jMW5vYyhbQ0gzXSljMVtDSDJdQyg9TylbTkhdW0NIMl1bQ0BIXShbQ0gzXSlOMltDSDJdW0NIMl1bQ0gyXVtDSDJdMg==

> <s_epik_cmdline>
J2VwaWtfcHl0aG9uJywgJy1waCcsICc3LjAnLCAnLXRuJywgJzgnLCAnLW1hJywgJzIwMCcsICctbWV0YWxfYmluZGluZycsICctaW1hZScsICc8aW5maWxlLm1hZT4nLCAnLW9tYWUnLCAnPG91dGZpbGUubWFlPic=

> <r_epik_Ionization_Penalty>
0.0050436

> <r_epik_Ionization_Penalty_Charging>
0.0050435

> <r_epik_Ionization_Penalty_Neutral>
9.69799e-08

> <r_epik_State_Penalty>
0.00366867

> <r_epik_Charging_Adjusted_Penalty>
0.00871217

> <i_epik_Tot_Q>
1

> <i_epik_Tot_abs_Q>
1

> <r_epik_Metal_State_Penalty>
-0

> <b_epik_Metal_Only>
0

> <s_lp_Force_Field>
OPLS_2005

> <r_lp_Energy>
24.7849

> <b_lp_Chiralities_Consistent>
1

> <s_lp_Variant>
AV-unprocessed.smi:1139-2

> <Gold.Version>
5.8.1

> <Gold.Id.Protein>
6NUR|6NUR_protein|mol2

> <Gold.PLP.Fitness>
42.8039

> <Gold.PLP.PLP>
-38.8087

> <Gold.PLP.part.hbond>
-1.0000

> <Gold.PLP.part.metal>
0.0000

> <Gold.PLP.part.buried>
-6.7263

> <Gold.PLP.part.nonpolar>
-30.0602

> <Gold.PLP.part.repulsive>
0.4401

> <Gold.PLP.ligand.clash>
0.0000

> <Gold.PLP.ligand.torsion>
1.0594

> <Gold.PLP.Chemscore.Hbond>
2.0000

> <Gold.PLP.Chemscore.CHOScore>
0.0000

> <Gold.PLP.Chemscore.Metal>
0.0000

> <Gold.Chemscore.Hbonds>
donor molecule, donor type, donor heavy atom, donor atom, acceptor molecule, acceptor atom, score
      L1  H    15    43       P1  8028  2.00

> <Gold.PLP.Chemscore.Internal.Correction>
0.1140

> <Gold.Rescore>
     Score         DG    S(hbond)    S(metal)    S(lipo)     H(rot)  DE(clash)    DE(int)     intcor
     14.68     -15.92       1.00        0.00      98.35       1.72       0.04       1.20       ----

> <Gold.Chemscore.Fitness>
14.6836

> <Gold.Chemscore.DG>
-15.9220

> <Gold.Chemscore.ZeroCoef>
-5.4800

> <Gold.Chemscore.Hbond>
0.9991

> <Gold.Chemscore.Metal>
0.0000

> <Gold.Chemscore.Lipo>
98.3491

> <Gold.Chemscore.Internal_Hbond>
0.0000

> <Gold.Chemscore.DEClash>
0.0419

> <Gold.Chemscore.DEInternal>
1.1965

> <Gold.Chemscore.Rot>
1.7195

> <Gold.Chemscore.Internal.Correction>
   9.000000E+99

> <Gold.Chemscore.Hbonds>
donor molecule, donor type, donor heavy atom, donor atom, acceptor molecule, acceptor atom, score
      L1  H    15    43       P1  8028  0.87

> <Gold.Chemscore.Hbond.Weighted>
-3.3369

> <Gold.Chemscore.Metal.Weighted>
-0.0000

> <Gold.Chemscore.Lipo.Weighted>
-11.5068

> <Gold.Chemscore.Internal_Hbond.Weighted>
0.0000

> <Gold.Chemscore.DEClash.Weighted>
0.0419

> <Gold.Chemscore.DEInternal.Weighted>
1.1965

> <Gold.Chemscore.Rot.Weighted>
4.4018

> <Gold.Chemscore.Internal.Correction.Weighted>
   9.000000E+99

> <Gold.Protein.RotatedTorsions>
[ 6907 6896 6895 6894 ] final   91.16 input  -60.11 | X-H torsion
[ 7974 7965 7964 7962 ] final  167.96 input  175.53 | X-H torsion
[ 8008 7997 7996 7995 ] final  -14.43 input   59.86 | X-H torsion
[ 10167 10162 10161 10158 ] final -157.58 input  -65.29 | X-H torsion
[ 10718 10713 10712 10709 ] final    1.78 input   66.30 | X-H torsion
[ 10763 10752 10751 10750 ] final  120.22 input  -60.55 | X-H torsion
[ 11005 11000 10999 10996 ] final -157.34 input  -57.11 | X-H torsion

> <Gold.Protein.ActiveResidues>
 VAL166  LYS551  ARG553  GLY616  TRP617  ASP618  TYR619  PRO620  LYS621  CYS622 
 ASP623  PHE694  ASN695  SER759  ASP760  ASP761  ALA762  ILE779  LEU786  VAL792 
 PHE793  MET794  SER795  GLU796  ALA797  LYS798  CYS799  TRP800  GLU811  SER814 

> <Gold.Protein.RotatedAtoms>
  152.5448  134.1700  159.8592 H   0  0  0  0  0  0  0  0  0  0  0  0  # atno 6907 bound_to 6896
  151.1711  133.4777  159.2601 H   0  0  0  0  0  0  0  0  0  0  0  0  # atno 6908 bound_to 6896
  151.1274  135.0123  159.8622 H   0  0  0  0  0  0  0  0  0  0  0  0  # atno 6909 bound_to 6896
  144.7405  139.8837  143.6398 H   0  0  0  0  0  0  0  0  0  0  0  0  # atno 7974 bound_to 7965
  154.5211  140.2223  155.8974 H   0  0  0  0  0  0  0  0  0  0  0  0  # atno 8008 bound_to 7997
  156.1663  140.3131  155.8859 H   0  0  0  0  0  0  0  0  0  0  0  0  # atno 8009 bound_to 7997
  155.3650  140.0463  157.3037 H   0  0  0  0  0  0  0  0  0  0  0  0  # atno 8010 bound_to 7997
  139.6759  143.9664  152.2310 H   0  0  0  0  0  0  0  0  0  0  0  0  # atno 10167 bound_to 10162
  156.8533  130.5561  149.5668 H   0  0  0  0  0  0  0  0  0  0  0  0  # atno 10718 bound_to 10713
  153.5951  135.3458  155.2925 H   0  0  0  0  0  0  0  0  0  0  0  0  # atno 10763 bound_to 10752
  154.8646  135.4214  154.2473 H   0  0  0  0  0  0  0  0  0  0  0  0  # atno 10764 bound_to 10752
  153.3289  135.7043  153.7036 H   0  0  0  0  0  0  0  0  0  0  0  0  # atno 10765 bound_to 10752
  140.6657  134.4301  157.5233 H   0  0  0  0  0  0  0  0  0  0  0  0  # atno 11005 bound_to 11000
  146.1192  139.4208  143.0239 LP  0  0  0  0  0  0  0  0  0  0  0  0  # atno 17320 bound_to 7965
  145.7329  141.0036  143.1342 LP  0  0  0  0  0  0  0  0  0  0  0  0  # atno 17321 bound_to 7965
  139.9441  144.6662  150.8236 LP  0  0  0  0  0  0  0  0  0  0  0  0  # atno 17342 bound_to 10162
  140.7635  143.3225  151.2590 LP  0  0  0  0  0  0  0  0  0  0  0  0  # atno 17343 bound_to 10162
  156.0816  130.5825  150.9573 LP  0  0  0  0  0  0  0  0  0  0  0  0  # atno 17370 bound_to 10713
  157.6291  131.0923  150.8476 LP  0  0  0  0  0  0  0  0  0  0  0  0  # atno 17371 bound_to 10713
  139.8998  134.8583  156.1945 LP  0  0  0  0  0  0  0  0  0  0  0  0  # atno 17394 bound_to 11000
  141.0431  133.6927  156.1633 LP  0  0  0  0  0  0  0  0  0  0  0  0  # atno 17395 bound_to 11000

$$$$
