#       Name:                AV-unprocessed.smi:3116
#       Creating user name   scv26
#       Creation time:       Fri Mar 27 17:24:42 2020


#       File generated by GOLD software.
#

@<TRIPOS>MOLECULE
AV-unprocessed.smi:3116
    37    37     1
SMALL
NO_CHARGES


@<TRIPOS>ATOM
      1 ****        -2.4187   1.4422  -0.6048 C.3            1 S1                 0.0000
      2 ****        -1.2946   1.4404   0.4426 C.3            1 S1                 0.0000
      3 ****        -0.6802   0.0934   0.4985 N.4            1 S1                 1.0000
      4 ****         0.8008   0.0351   0.5874 C.3            1 S1                 0.0000
      5 ****         1.2681   0.4054   2.0085 C.3            1 S1                 0.0000
      6 ****         1.2909  -1.3683   0.1424 C.3            1 S1                 0.0000
      7 ****         2.8226  -1.5301   0.1792 C.3            1 S1                 0.0000
      8 ****         0.7928  -1.6877  -1.1918 N.pl3          1 S1                 0.0000
      9 ****         1.2079  -1.1952  -2.4139 C.2            1 S1                 0.0000
     10 ****         0.4106  -1.7526  -3.3717 C.2            1 S1                 0.0000
     11 ****        -0.4808  -2.5778  -2.6316 C.2            1 S1                 0.0000
     12 ****        -0.2562  -2.5288  -1.3288 N.2            1 S1                 0.0000
     13 ****        -1.8500   1.8602   1.8105 C.2            1 S1                 0.0000
     14 ****        -1.9225   3.1698   2.0613 N.am           1 S1                 0.0000
     15 ****        -2.2152   1.0174   2.6285 O.2            1 S1                 0.0000
     16 ****        -2.8727   2.4293  -0.7015 H              1 S1                 0.0000
     17 ****        -3.2091   0.7359  -0.3469 H              1 S1                 0.0000
     18 ****        -2.0356   1.1631  -1.5870 H              1 S1                 0.0000
     19 ****        -0.5443   2.1683   0.1292 H              1 S1                 0.0000
     20 ****        -1.0904  -0.4276   1.2610 H              1 S1                 0.0000
     21 ****         1.2132   0.7638  -0.1123 H              1 S1                 0.0000
     22 ****         2.3545   0.4166   2.0880 H              1 S1                 0.0000
     23 ****         0.8848  -0.2982   2.7483 H              1 S1                 0.0000
     24 ****         0.9325   1.4022   2.2933 H              1 S1                 0.0000
     25 ****         0.8766  -2.1071   0.8316 H              1 S1                 0.0000
     26 ****         3.2076  -1.4916   1.1978 H              1 S1                 0.0000
     27 ****         3.3238  -0.7515  -0.3968 H              1 S1                 0.0000
     28 ****         3.1228  -2.4938  -0.2338 H              1 S1                 0.0000
     29 ****         2.0257  -0.4950  -2.5013 H              1 S1                 0.0000
     30 ****         0.4548  -1.5932  -4.4390 H              1 S1                 0.0000
     31 ****        -1.2827  -3.2011  -2.9990 H              1 S1                 0.0000
     32 ****        -2.2748   3.4997   2.9482 H              1 S1                 0.0000
     33 ****        -1.6172   3.8304   1.3606 H              1 S1                 0.0000
     34 ****        -0.9284  -0.3706  -0.3640 H              1 S1                 0.0000
     35 ****        -0.7529  -3.0082  -0.6052 LP             1 S1                 0.0000
     36 ****        -2.1522   0.0445   2.4060 LP             1 S1                 0.0000
     37 ****        -2.5751   1.3051   3.5161 LP             1 S1                 0.0000
@<TRIPOS>BOND
    1    1    2 1     
    2    1   16 1     
    3    1   17 1     
    4    1   18 1     
    5    2    3 1     
    6    2   13 1     
    7    2   19 1     
    8    3    4 1     
    9    3   20 1     
   10    3   34 1     
   11    4    5 1     
   12    4    6 1     
   13    4   21 1     
   14    5   22 1     
   15    5   23 1     
   16    5   24 1     
   17    6    7 1     
   18    6    8 1     
   19    6   25 1     
   20    7   26 1     
   21    7   27 1     
   22    7   28 1     
   23    8   12 1     
   24    8    9 1     
   25    9   10 2     
   26    9   29 1     
   27   10   11 1     
   28   10   30 1     
   29   11   12 2     
   30   11   31 1     
   31   13   14 am    
   32   13   15 2     
   33   14   32 1     
   34   14   33 1     
   35   12   35 1     
   36   15   36 1     
   37   15   37 1     
@<TRIPOS>SUBSTRUCTURE
      1 S1             1
@<TRIPOS>SET
LONE_PAIRS      STATIC     ATOMS    <user>   **** ""
3 35 36 37
DONOR_HYDROGENS      STATIC     ATOMS    <user>   **** ""
4 20 34 32 33
ATOM$BLUE        STATIC     ATOMS    COLORGROUP SYSTEM
3 35 36 37
ATOM$RED        STATIC     ATOMS    COLORGROUP SYSTEM
4 20 34 32 33
