AV-unprocessed.smi:1535|AV-procd|sdf|6174|dock1
  -GOLD-   22720 6323D 1   1.00000     0.00000
 Structure written by MMmdl.
 47 48  0  0  0  0  0  0  0  0  2 V2000
  151.9633  145.5364  160.4798 C   0  0  0  0  0  0  0  0  0  0  0  0
  151.7989  144.1938  159.7881 C   0  0  0  0  0  0  0  0  0  0  0  0
  151.1126  144.1502  158.5542 C   0  0  0  0  0  0  0  0  0  0  0  0
  150.9790  142.9080  157.9457 C   0  0  0  0  0  0  0  0  0  0  0  0
  150.3727  142.5460  156.7421 N   0  3  0  0  0  0  0  0  0  0  0  0
  150.4993  141.2041  156.5557 C   0  0  0  0  0  0  0  0  0  0  0  0
  151.1615  140.6970  157.6324 N   0  0  0  0  0  0  0  0  0  0  0  0
  151.5812  139.3110  157.9053 C   0  0  0  0  0  0  0  0  0  0  0  0
  153.0829  139.1919  158.2309 C   0  0  2  0  0  0  0  0  0  0  0  0
  153.6877  138.3414  157.2750 O   0  0  0  0  0  0  0  0  0  0  0  0
  153.3075  138.6129  159.6411 C   0  0  0  0  0  0  0  0  0  0  0  0
  154.5767  138.9333  160.3077 N   0  0  0  0  0  0  0  0  0  0  0  0
  155.6716  138.3295  159.5576 C   0  0  0  0  0  0  0  0  0  0  0  0
  154.6240  138.5038  161.7098 C   0  0  0  0  0  0  0  0  0  0  0  0
  153.7869  137.2501  162.0330 C   0  0  2  0  0  0  0  0  0  0  0  0
  153.9398  136.8280  163.5007 C   0  0  0  0  0  0  0  0  0  0  0  0
  154.1490  136.1412  161.1368 C   0  0  0  0  0  0  0  0  0  0  0  0
  154.4323  135.2684  160.4321 N   0  0  0  0  0  0  0  0  0  0  0  0
  151.4967  141.7293  158.5203 C   0  0  0  0  0  0  0  0  0  0  0  0
  152.1792  141.7586  159.7361 C   0  0  0  0  0  0  0  0  0  0  0  0
  152.3254  143.0127  160.3712 C   0  0  0  0  0  0  0  0  0  0  0  0
  153.0590  143.0704  161.7005 C   0  0  0  0  0  0  0  0  0  0  0  0
  151.4994  146.3398  159.9072 H   0  0  0  0  0  0  0  0  0  0  0  0
  153.0196  145.7792  160.5985 H   0  0  0  0  0  0  0  0  0  0  0  0
  151.4984  145.5184  161.4658 H   0  0  0  0  0  0  0  0  0  0  0  0
  150.7104  145.0453  158.1024 H   0  0  0  0  0  0  0  0  0  0  0  0
  150.1359  140.6434  155.7066 H   0  0  0  0  0  0  0  0  0  0  0  0
  150.9823  138.9534  158.7439 H   0  0  0  0  0  0  0  0  0  0  0  0
  151.3441  138.6761  157.0532 H   0  0  0  0  0  0  0  0  0  0  0  0
  153.5228  140.1856  158.1623 H   0  0  0  0  0  0  0  0  0  0  0  0
  154.5357  138.6943  157.0523 H   0  0  0  0  0  0  0  0  0  0  0  0
  152.4830  138.9337  160.2801 H   0  0  0  0  0  0  0  0  0  0  0  0
  153.2144  137.5280  159.5710 H   0  0  0  0  0  0  0  0  0  0  0  0
  156.6351  138.6057  159.9874 H   0  0  0  0  0  0  0  0  0  0  0  0
  155.6686  138.6709  158.5219 H   0  0  0  0  0  0  0  0  0  0  0  0
  155.5980  137.2409  159.5575 H   0  0  0  0  0  0  0  0  0  0  0  0
  155.6618  138.3451  162.0073 H   0  0  0  0  0  0  0  0  0  0  0  0
  154.2650  139.3034  162.3600 H   0  0  0  0  0  0  0  0  0  0  0  0
  152.7312  137.4314  161.8497 H   0  0  0  0  0  0  0  0  0  0  0  0
  153.3456  135.9391  163.7144 H   0  0  0  0  0  0  0  0  0  0  0  0
  153.6054  137.6175  164.1744 H   0  0  0  0  0  0  0  0  0  0  0  0
  154.9784  136.5997  163.7419 H   0  0  0  0  0  0  0  0  0  0  0  0
  152.5841  140.8668  160.1900 H   0  0  0  0  0  0  0  0  0  0  0  0
  153.4213  142.0863  162.0002 H   0  0  0  0  0  0  0  0  0  0  0  0
  152.3970  143.4347  162.4863 H   0  0  0  0  0  0  0  0  0  0  0  0
  153.9202  143.7359  161.6359 H   0  0  0  0  0  0  0  0  0  0  0  0
  149.9109  143.1676  156.0908 H   0  0  0  0  0  0  0  0  0  0  0  0
  1  2  1  0  0  0  0
  1 23  1  0  0  0  0
  1 24  1  0  0  0  0
  1 25  1  0  0  0  0
  2 21  1  0  0  0  0
  2  3  2  0  0  0  0
  3  4  1  0  0  0  0
  3 26  1  0  0  0  0
  4 19  2  0  0  0  0
  4  5  1  0  0  0  0
  5  6  2  0  0  0  0
  5 47  1  0  0  0  0
  6  7  1  0  0  0  0
  6 27  1  0  0  0  0
  7  8  1  0  0  0  0
  7 19  1  0  0  0  0
  8  9  1  0  0  0  0
  8 28  1  0  0  0  0
  8 29  1  0  0  0  0
  9 10  1  0  0  0  0
  9 11  1  0  0  0  0
  9 30  1  0  0  0  0
 10 31  1  0  0  0  0
 11 12  1  0  0  0  0
 11 32  1  0  0  0  0
 11 33  1  0  0  0  0
 12 13  1  0  0  0  0
 12 14  1  0  0  0  0
 13 34  1  0  0  0  0
 13 35  1  0  0  0  0
 13 36  1  0  0  0  0
 14 15  1  0  0  0  0
 14 37  1  0  0  0  0
 14 38  1  0  0  0  0
 15 16  1  0  0  0  0
 15 17  1  0  0  0  0
 15 39  1  0  0  0  0
 16 40  1  0  0  0  0
 16 41  1  0  0  0  0
 16 42  1  0  0  0  0
 17 18  3  0  0  0  0
 19 20  1  0  0  0  0
 20 21  2  0  0  0  0
 20 43  1  0  0  0  0
 21 22  1  0  0  0  0
 22 44  1  0  0  0  0
 22 45  1  0  0  0  0
 22 46  1  0  0  0  0
M  CHG  1   5   1
M  END
> <s_m_source_file>
AV-unprocessed.smi

> <i_m_source_file_index>
1535

> <i_lp_mmshare_version>
43012

> <i_f3d_flags>
0

> <s_epik_input>
W0NIM11jKFtjSF0xKWMoW0NIM10pW2NIXWMoYzEyKW4oW2NIXW4yKVtDSDJdW0NASF0oW09IXSlbQ0gyXU4oW0NIM10pW0NIMl1bQ0BIXShbQ0gzXSlDI04=

> <s_epik_cmdline>
J2VwaWtfcHl0aG9uJywgJy1waCcsICc3LjAnLCAnLXRuJywgJzgnLCAnLW1hJywgJzIwMCcsICctbWV0YWxfYmluZGluZycsICctaW1hZScsICc8aW5maWxlLm1hZT4nLCAnLW9tYWUnLCAnPG91dGZpbGUubWFlPic=

> <r_epik_Ionization_Penalty>
1.22846

> <r_epik_Ionization_Penalty_Charging>
1.21333

> <r_epik_Ionization_Penalty_Neutral>
0.0151341

> <r_epik_State_Penalty>
1.27012

> <r_epik_Charging_Adjusted_Penalty>
2.48344

> <i_epik_Tot_Q>
1

> <i_epik_Tot_abs_Q>
1

> <r_epik_Metal_State_Penalty>
5.28751

> <b_epik_Metal_Only>
0

> <s_lp_Force_Field>
OPLS_2005

> <r_lp_Energy>
32.9236

> <b_lp_Chiralities_Consistent>
1

> <s_lp_Variant>
AV-unprocessed.smi:1535-5

> <Gold.Version>
5.8.1

> <Gold.Id.Protein>
6NUR|6NUR_protein|mol2

> <Gold.PLP.Fitness>
51.4199

> <Gold.PLP.PLP>
-45.3548

> <Gold.PLP.part.hbond>
-2.8924

> <Gold.PLP.part.metal>
0.0000

> <Gold.PLP.part.buried>
-5.4908

> <Gold.PLP.part.nonpolar>
-37.8151

> <Gold.PLP.part.repulsive>
0.0526

> <Gold.PLP.ligand.clash>
0.0000

> <Gold.PLP.ligand.torsion>
1.5106

> <Gold.PLP.Chemscore.Hbond>
2.8778

> <Gold.PLP.Chemscore.CHOScore>
0.0000

> <Gold.PLP.Chemscore.Metal>
0.0000

> <Gold.Chemscore.Hbonds>
donor molecule, donor type, donor heavy atom, donor atom, acceptor molecule, acceptor atom, score
      L1  H     5    47       P1  8028  2.00
      P1  H  6896  6907       L1    18  0.82

> <Gold.PLP.Chemscore.Internal.Correction>
0.4531

> <Gold.Rescore>
     Score         DG    S(hbond)    S(metal)    S(lipo)     H(rot)  DE(clash)    DE(int)     intcor
     16.75     -19.76       1.92        0.00     123.93       2.59       0.10       2.90       ----

> <Gold.Chemscore.Fitness>
16.7476

> <Gold.Chemscore.DG>
-19.7556

> <Gold.Chemscore.ZeroCoef>
-5.4800

> <Gold.Chemscore.Hbond>
1.9196

> <Gold.Chemscore.Metal>
0.0000

> <Gold.Chemscore.Lipo>
123.9262

> <Gold.Chemscore.Internal_Hbond>
0.0000

> <Gold.Chemscore.DEClash>
0.1039

> <Gold.Chemscore.DEInternal>
2.9041

> <Gold.Chemscore.Rot>
2.5918

> <Gold.Chemscore.Internal.Correction>
   9.000000E+99

> <Gold.Chemscore.Hbonds>
donor molecule, donor type, donor heavy atom, donor atom, acceptor molecule, acceptor atom, score
      L1  H     5    47       P1  8028  0.97
      P1  H  6896  6907       L1    18  0.18

> <Gold.Chemscore.Hbond.Weighted>
-6.4113

> <Gold.Chemscore.Metal.Weighted>
-0.0000

> <Gold.Chemscore.Lipo.Weighted>
-14.4994

> <Gold.Chemscore.Internal_Hbond.Weighted>
0.0000

> <Gold.Chemscore.DEClash.Weighted>
0.1039

> <Gold.Chemscore.DEInternal.Weighted>
2.9041

> <Gold.Chemscore.Rot.Weighted>
6.6351

> <Gold.Chemscore.Internal.Correction.Weighted>
   9.000000E+99

> <Gold.Protein.RotatedTorsions>
[ 6907 6896 6895 6894 ] final   67.62 input  -60.11 | X-H torsion
[ 7974 7965 7964 7962 ] final  168.12 input  175.53 | X-H torsion
[ 8008 7997 7996 7995 ] final   92.53 input   59.86 | X-H torsion
[ 10167 10162 10161 10158 ] final -102.90 input  -65.29 | X-H torsion
[ 10718 10713 10712 10709 ] final -132.45 input   66.30 | X-H torsion
[ 10763 10752 10751 10750 ] final   -5.40 input  -60.55 | X-H torsion
[ 11005 11000 10999 10996 ] final   67.26 input  -57.11 | X-H torsion

> <Gold.Protein.ActiveResidues>
 VAL166  LYS551  ARG553  GLY616  TRP617  ASP618  TYR619  PRO620  LYS621  CYS622 
 ASP623  PHE694  ASN695  SER759  ASP760  ASP761  ALA762  ILE779  LEU786  VAL792 
 PHE793  MET794  SER795  GLU796  ALA797  LYS798  CYS799  TRP800  GLU811  SER814 

> <Gold.Protein.RotatedAtoms>
  152.4564  134.5282  159.9802 H   0  0  0  0  0  0  0  0  0  0  0  0  # atno 6907 bound_to 6896
  151.5341  133.3438  159.2931 H   0  0  0  0  0  0  0  0  0  0  0  0  # atno 6908 bound_to 6896
  150.8510  134.7865  159.7071 H   0  0  0  0  0  0  0  0  0  0  0  0  # atno 6909 bound_to 6896
  144.7400  139.8860  143.6400 H   0  0  0  0  0  0  0  0  0  0  0  0  # atno 7974 bound_to 7965
  156.0364  140.3324  155.7196 H   0  0  0  0  0  0  0  0  0  0  0  0  # atno 8008 bound_to 7997
  155.5809  140.0637  157.2801 H   0  0  0  0  0  0  0  0  0  0  0  0  # atno 8009 bound_to 7997
  154.4374  140.1844  156.0963 H   0  0  0  0  0  0  0  0  0  0  0  0  # atno 8010 bound_to 7997
  140.2258  143.3643  152.0930 H   0  0  0  0  0  0  0  0  0  0  0  0  # atno 10167 bound_to 10162
  156.2347  130.7059  151.0895 H   0  0  0  0  0  0  0  0  0  0  0  0  # atno 10718 bound_to 10713
  153.3980  135.7004  153.6446 H   0  0  0  0  0  0  0  0  0  0  0  0  # atno 10763 bound_to 10752
  153.4991  135.3656  155.2531 H   0  0  0  0  0  0  0  0  0  0  0  0  # atno 10764 bound_to 10752
  154.8708  135.4107  154.3310 H   0  0  0  0  0  0  0  0  0  0  0  0  # atno 10765 bound_to 10752
  139.9781  134.6788  156.0314 H   0  0  0  0  0  0  0  0  0  0  0  0  # atno 11005 bound_to 11000
  146.1176  139.4190  143.0248 LP  0  0  0  0  0  0  0  0  0  0  0  0  # atno 17320 bound_to 7965
  145.7351  141.0028  143.1331 LP  0  0  0  0  0  0  0  0  0  0  0  0  # atno 17321 bound_to 7965
  139.5128  144.6922  151.5729 LP  0  0  0  0  0  0  0  0  0  0  0  0  # atno 17342 bound_to 10162
  140.6222  143.9237  150.6535 LP  0  0  0  0  0  0  0  0  0  0  0  0  # atno 17343 bound_to 10162
  157.7149  131.0715  150.6365 LP  0  0  0  0  0  0  0  0  0  0  0  0  # atno 17370 bound_to 10713
  156.6435  130.4465  149.5744 LP  0  0  0  0  0  0  0  0  0  0  0  0  # atno 17371 bound_to 10713
  141.1456  133.6556  156.3859 LP  0  0  0  0  0  0  0  0  0  0  0  0  # atno 17394 bound_to 11000
  140.5152  134.6357  157.5298 LP  0  0  0  0  0  0  0  0  0  0  0  0  # atno 17395 bound_to 11000

$$$$
