AV-unprocessed.smi:2962|AV-procd|sdf|11316|dock7
  -GOLD-   2272016223D 1   1.00000     0.00000
 Structure written by MMmdl.
 36 37  0  0  0  0  0  0  0  0  1 V2000
  153.8907  136.9506  161.6645 C   0  0  0  0  0  0  0  0  0  0  0  0
  153.2622  136.6125  160.4412 O   0  0  0  0  0  0  0  0  0  0  0  0
  152.3899  137.6300  159.9776 C   0  0  0  0  0  0  0  0  0  0  0  0
  153.2062  138.7638  159.3426 C   0  0  0  0  0  0  0  0  0  0  0  0
  152.3613  139.8681  158.9104 N   0  0  0  0  0  0  0  0  0  0  0  0
  151.3631  139.8584  157.9916 C   0  0  0  0  0  0  0  0  0  0  0  0
  150.8928  138.4010  157.1204 S   0  0  0  0  0  0  0  0  0  0  0  0
  151.2804  138.9574  155.4325 C   0  0  1  0  0  0  0  0  0  0  0  0
  152.7411  139.4305  155.3184 C   0  0  0  0  0  0  0  0  0  0  0  0
  150.9372  137.8697  154.4075 C   0  0  0  0  0  0  0  0  0  0  0  0
  150.0294  138.1829  153.4789 N   0  0  0  0  0  0  0  0  0  0  0  0
  151.4753  136.7642  154.4448 O   0  0  0  0  0  0  0  0  0  0  0  0
  150.7621  141.0287  157.7783 N   0  0  0  0  0  0  0  0  0  0  0  0
  151.4269  141.8756  158.6427 C   0  0  0  0  0  0  0  0  0  0  0  0
  151.2537  143.2560  158.8912 C   0  0  0  0  0  0  0  0  0  0  0  0
  152.0673  143.9190  159.8333 C   0  0  0  0  0  0  0  0  0  0  0  0
  153.0639  143.2132  160.5381 C   0  0  0  0  0  0  0  0  0  0  0  0
  153.2527  141.8372  160.3058 C   0  0  0  0  0  0  0  0  0  0  0  0
  152.4362  141.1800  159.3660 C   0  0  0  0  0  0  0  0  0  0  0  0
  154.5519  136.1405  161.9723 H   0  0  0  0  0  0  0  0  0  0  0  0
  153.1558  137.1049  162.4556 H   0  0  0  0  0  0  0  0  0  0  0  0
  154.4916  137.8552  161.5628 H   0  0  0  0  0  0  0  0  0  0  0  0
  151.6958  137.2201  159.2427 H   0  0  0  0  0  0  0  0  0  0  0  0
  151.7955  138.0180  160.8064 H   0  0  0  0  0  0  0  0  0  0  0  0
  153.9574  139.1245  160.0439 H   0  0  0  0  0  0  0  0  0  0  0  0
  153.7539  138.3893  158.4773 H   0  0  0  0  0  0  0  0  0  0  0  0
  150.6398  139.8114  155.2091 H   0  0  0  0  0  0  0  0  0  0  0  0
  152.9935  139.6998  154.2919 H   0  0  0  0  0  0  0  0  0  0  0  0
  153.4379  138.6561  155.6416 H   0  0  0  0  0  0  0  0  0  0  0  0
  152.9192  140.3121  155.9336 H   0  0  0  0  0  0  0  0  0  0  0  0
  149.7740  137.5066  152.7743 H   0  0  0  0  0  0  0  0  0  0  0  0
  149.6088  139.1008  153.4807 H   0  0  0  0  0  0  0  0  0  0  0  0
  150.4940  143.8054  158.3552 H   0  0  0  0  0  0  0  0  0  0  0  0
  151.9271  144.9746  160.0150 H   0  0  0  0  0  0  0  0  0  0  0  0
  153.6837  143.7290  161.2568 H   0  0  0  0  0  0  0  0  0  0  0  0
  154.0154  141.2936  160.8429 H   0  0  0  0  0  0  0  0  0  0  0  0
  1  2  1  0  0  0  0
  1 20  1  0  0  0  0
  1 21  1  0  0  0  0
  1 22  1  0  0  0  0
  2  3  1  0  0  0  0
  3  4  1  0  0  0  0
  3 23  1  0  0  0  0
  3 24  1  0  0  0  0
  4  5  1  0  0  0  0
  4 25  1  0  0  0  0
  4 26  1  0  0  0  0
  5 19  1  0  0  0  0
  5  6  1  0  0  0  0
  6  7  1  0  0  0  0
  6 13  2  0  0  0  0
  7  8  1  0  0  0  0
  8  9  1  0  0  0  0
  8 10  1  0  0  0  0
  8 27  1  0  0  0  0
  9 28  1  0  0  0  0
  9 29  1  0  0  0  0
  9 30  1  0  0  0  0
 10 11  1  0  0  0  0
 10 12  2  0  0  0  0
 11 31  1  0  0  0  0
 11 32  1  0  0  0  0
 13 14  1  0  0  0  0
 14 19  2  0  0  0  0
 14 15  1  0  0  0  0
 15 16  2  0  0  0  0
 15 33  1  0  0  0  0
 16 17  1  0  0  0  0
 16 34  1  0  0  0  0
 17 18  2  0  0  0  0
 17 35  1  0  0  0  0
 18 19  1  0  0  0  0
 18 36  1  0  0  0  0
M  END
> <s_m_source_file>
AV-unprocessed.smi

> <i_m_source_file_index>
2962

> <i_lp_mmshare_version>
43012

> <i_f3d_flags>
0

> <s_epik_input>
W2NIXTFbY0hdW2NIXVtjSF1jKGMxMiluKFtDSDJdW0NIMl1PW0NIM10pYyhuMilTW0NASF0oW0NIM10pQyg9TylbTkgyXQ==

> <s_epik_cmdline>
J2VwaWtfcHl0aG9uJywgJy1waCcsICc3LjAnLCAnLXRuJywgJzgnLCAnLW1hJywgJzIwMCcsICctbWV0YWxfYmluZGluZycsICctaW1hZScsICc8aW5maWxlLm1hZT4nLCAnLW9tYWUnLCAnPG91dGZpbGUubWFlPic=

> <r_epik_Ionization_Penalty>
0.0199986

> <r_epik_Ionization_Penalty_Charging>
0

> <r_epik_Ionization_Penalty_Neutral>
0.0199986

> <r_epik_State_Penalty>
0.0160044

> <r_epik_Charging_Adjusted_Penalty>
0.0160044

> <i_epik_Tot_Q>
0

> <i_epik_Tot_abs_Q>
0

> <r_epik_Metal_State_Penalty>
0.015472

> <b_epik_Metal_Only>
0

> <s_lp_Force_Field>
OPLS_2005

> <r_lp_Energy>
4.7896

> <b_lp_Chiralities_Consistent>
1

> <s_lp_Variant>
AV-unprocessed.smi:2962-2

> <Gold.Version>
5.8.1

> <Gold.Id.Protein>
6NUR|6NUR_protein|mol2

> <Gold.PLP.Fitness>
47.2754

> <Gold.PLP.PLP>
-38.4271

> <Gold.PLP.part.hbond>
-4.2087

> <Gold.PLP.part.metal>
0.0000

> <Gold.PLP.part.buried>
-4.0084

> <Gold.PLP.part.nonpolar>
-30.6480

> <Gold.PLP.part.repulsive>
0.8385

> <Gold.PLP.ligand.clash>
0.0000

> <Gold.PLP.ligand.torsion>
0.1125

> <Gold.PLP.Chemscore.Hbond>
3.0000

> <Gold.PLP.Chemscore.CHOScore>
0.0000

> <Gold.PLP.Chemscore.Metal>
0.0000

> <Gold.Chemscore.Hbonds>
donor molecule, donor type, donor heavy atom, donor atom, acceptor molecule, acceptor atom, score
      L1  H    11    31       P1  7948  1.00
      P1  H  6896  6907       L1     2  1.00
      P1  H 10752 10765       L1    12  1.00

> <Gold.PLP.Chemscore.Internal.Correction>
0.0732

> <Gold.Rescore>
     Score         DG    S(hbond)    S(metal)    S(lipo)     H(rot)  DE(clash)    DE(int)     intcor
     20.23     -20.42       2.90        0.00      99.76       2.50       0.07       0.12       ----

> <Gold.Chemscore.Fitness>
20.2311

> <Gold.Chemscore.DG>
-20.4171

> <Gold.Chemscore.ZeroCoef>
-5.4800

> <Gold.Chemscore.Hbond>
2.8959

> <Gold.Chemscore.Metal>
0.0000

> <Gold.Chemscore.Lipo>
99.7606

> <Gold.Chemscore.Internal_Hbond>
0.0000

> <Gold.Chemscore.DEClash>
0.0679

> <Gold.Chemscore.DEInternal>
0.1182

> <Gold.Chemscore.Rot>
2.5027

> <Gold.Chemscore.Internal.Correction>
   9.000000E+99

> <Gold.Chemscore.Hbonds>
donor molecule, donor type, donor heavy atom, donor atom, acceptor molecule, acceptor atom, score
      L1  H    11    31       P1  7948  0.35
      P1  H  6896  6907       L1     2  0.33
      P1  H 10752 10765       L1    12  1.00

> <Gold.Chemscore.Hbond.Weighted>
-9.6722

> <Gold.Chemscore.Metal.Weighted>
-0.0000

> <Gold.Chemscore.Lipo.Weighted>
-11.6720

> <Gold.Chemscore.Internal_Hbond.Weighted>
0.0000

> <Gold.Chemscore.DEClash.Weighted>
0.0679

> <Gold.Chemscore.DEInternal.Weighted>
0.1182

> <Gold.Chemscore.Rot.Weighted>
6.4070

> <Gold.Chemscore.Internal.Correction.Weighted>
   9.000000E+99

> <Gold.Protein.RotatedTorsions>
[ 6907 6896 6895 6894 ] final   38.99 input  -60.11 | X-H torsion
[ 7974 7965 7964 7962 ] final   89.28 input  175.53 | X-H torsion
[ 8008 7997 7996 7995 ] final   71.34 input   59.86 | X-H torsion
[ 10167 10162 10161 10158 ] final  136.10 input  -65.29 | X-H torsion
[ 10718 10713 10712 10709 ] final  -88.29 input   66.30 | X-H torsion
[ 10763 10752 10751 10750 ] final  178.27 input  -60.55 | X-H torsion
[ 11005 11000 10999 10996 ] final -110.88 input  -57.11 | X-H torsion

> <Gold.Protein.ActiveResidues>
 VAL166  LYS551  ARG553  GLY616  TRP617  ASP618  TYR619  PRO620  LYS621  CYS622 
 ASP623  PHE694  ASN695  SER759  ASP760  ASP761  ALA762  ILE779  LEU786  VAL792 
 PHE793  MET794  SER795  GLU796  ALA797  LYS798  CYS799  TRP800  GLU811  SER814 

> <Gold.Protein.RotatedAtoms>
  152.1637  134.8891  160.0539 H   0  0  0  0  0  0  0  0  0  0  0  0  # atno 6907 bound_to 6896
  151.9877  133.3775  159.4140 H   0  0  0  0  0  0  0  0  0  0  0  0  # atno 6908 bound_to 6896
  150.6891  134.3893  159.5113 H   0  0  0  0  0  0  0  0  0  0  0  0  # atno 6909 bound_to 6896
  145.5344  139.2285  143.2600 H   0  0  0  0  0  0  0  0  0  0  0  0  # atno 7974 bound_to 7965
  155.7525  140.3488  155.5157 H   0  0  0  0  0  0  0  0  0  0  0  0  # atno 8008 bound_to 7997
  155.8991  140.1031  157.1384 H   0  0  0  0  0  0  0  0  0  0  0  0  # atno 8009 bound_to 7997
  154.4042  140.1289  156.4400 H   0  0  0  0  0  0  0  0  0  0  0  0  # atno 8010 bound_to 7997
  139.5192  144.6482  151.5378 H   0  0  0  0  0  0  0  0  0  0  0  0  # atno 10167 bound_to 10162
  155.9984  130.4830  150.4996 H   0  0  0  0  0  0  0  0  0  0  0  0  # atno 10718 bound_to 10713
  154.5055  135.2786  155.1386 H   0  0  0  0  0  0  0  0  0  0  0  0  # atno 10763 bound_to 10752
  154.3002  135.6249  153.5425 H   0  0  0  0  0  0  0  0  0  0  0  0  # atno 10764 bound_to 10752
  152.9909  135.5695  154.5508 H   0  0  0  0  0  0  0  0  0  0  0  0  # atno 10765 bound_to 10752
  141.0766  133.9290  157.2376 H   0  0  0  0  0  0  0  0  0  0  0  0  # atno 11005 bound_to 11000
  146.2022  140.6162  142.9097 LP  0  0  0  0  0  0  0  0  0  0  0  0  # atno 17320 bound_to 7965
  144.7609  140.5419  143.6736 LP  0  0  0  0  0  0  0  0  0  0  0  0  # atno 17321 bound_to 7965
  140.6276  143.9138  150.6578 LP  0  0  0  0  0  0  0  0  0  0  0  0  # atno 17342 bound_to 10162
  140.2432  143.3648  152.1469 LP  0  0  0  0  0  0  0  0  0  0  0  0  # atno 17343 bound_to 10162
  157.2982  131.0640  151.2087 LP  0  0  0  0  0  0  0  0  0  0  0  0  # atno 17370 bound_to 10713
  157.3075  130.6873  149.6197 LP  0  0  0  0  0  0  0  0  0  0  0  0  # atno 17371 bound_to 10713
  139.9579  135.0161  156.9178 LP  0  0  0  0  0  0  0  0  0  0  0  0  # atno 17394 bound_to 11000
  140.5559  134.0581  155.7383 LP  0  0  0  0  0  0  0  0  0  0  0  0  # atno 17395 bound_to 11000

$$$$
