AV-unprocessed.smi:102|AV-procd|sdf|958|dock6
  -GOLD-   2262017493D 1   1.00000     0.00000
 Structure written by MMmdl.
 44 45  0  0  0  0  0  0  0  0  1 V2000
  143.4261  139.7048  157.9027 C   0  0  0  0  0  0  0  0  0  0  0  0
  144.6939  139.4375  158.7028 C   0  0  0  0  0  0  0  0  0  0  0  0
  144.9903  140.1196  159.6842 O   0  0  0  0  0  0  0  0  0  0  0  0
  145.4026  138.4053  158.2096 O   0  0  0  0  0  0  0  0  0  0  0  0
  146.5958  137.9808  158.8537 C   0  0  0  0  0  0  0  0  0  0  0  0
  147.1928  136.7491  158.1556 C   0  0  1  0  0  0  0  0  0  0  0  0
  147.6007  137.0709  156.8292 O   0  0  0  0  0  0  0  0  0  0  0  0
  148.7068  136.3047  156.4574 C   0  0  1  0  0  0  0  0  0  0  0  0
  149.8041  137.2306  155.9887 N   0  0  0  0  0  0  0  0  0  0  0  0
  149.6237  138.6076  155.9596 C   0  0  0  0  0  0  0  0  0  0  0  0
  150.5883  139.4684  155.5576 C   0  0  0  0  0  0  0  0  0  0  0  0
  150.3409  140.7895  155.5567 F   0  0  0  0  0  0  0  0  0  0  0  0
  151.8953  138.9760  155.1326 C   0  0  0  0  0  0  0  0  0  0  0  0
  152.8302  139.6758  154.7488 O   0  0  0  0  0  0  0  0  0  0  0  0
  152.0362  137.5864  155.1933 N   0  0  0  0  0  0  0  0  0  0  0  0
  151.0517  136.6881  155.6086 C   0  0  0  0  0  0  0  0  0  0  0  0
  151.2933  135.4823  155.6364 O   0  0  0  0  0  0  0  0  0  0  0  0
  149.1772  135.5176  157.6877 C   0  0  2  0  0  0  0  0  0  0  0  0
  148.7258  134.1699  157.5894 O   0  0  0  0  0  0  0  0  0  0  0  0
  149.6088  133.1643  157.4684 C   0  0  0  0  0  0  0  0  0  0  0  0
  148.9277  131.8142  157.2900 C   0  0  0  0  0  0  0  0  0  0  0  0
  150.8351  133.2673  157.4903 O   0  0  0  0  0  0  0  0  0  0  0  0
  148.4762  136.2566  158.8195 C   0  0  2  0  0  0  0  0  0  0  0  0
  148.2134  135.4233  159.9426 O   0  0  0  0  0  0  0  0  0  0  0  0
  147.7900  135.9632  161.0984 C   0  0  0  0  0  0  0  0  0  0  0  0
  147.6243  134.9238  162.1989 C   0  0  0  0  0  0  0  0  0  0  0  0
  147.5582  137.1555  161.2990 O   0  0  0  0  0  0  0  0  0  0  0  0
  152.9277  137.2008  154.9174 H   0  0  0  0  0  0  0  0  0  0  0  0
  142.7625  138.8411  157.9467 H   0  0  0  0  0  0  0  0  0  0  0  0
  143.6706  139.9027  156.8589 H   0  0  0  0  0  0  0  0  0  0  0  0
  142.8957  140.5690  158.3034 H   0  0  0  0  0  0  0  0  0  0  0  0
  147.3262  138.7881  158.9257 H   0  0  0  0  0  0  0  0  0  0  0  0
  146.3297  137.7153  159.8769 H   0  0  0  0  0  0  0  0  0  0  0  0
  146.4662  135.9359  158.1095 H   0  0  0  0  0  0  0  0  0  0  0  0
  148.4301  135.6828  155.6040 H   0  0  0  0  0  0  0  0  0  0  0  0
  148.6793  139.0284  156.2718 H   0  0  0  0  0  0  0  0  0  0  0  0
  150.2616  135.5705  157.7993 H   0  0  0  0  0  0  0  0  0  0  0  0
  148.0864  131.7172  157.9765 H   0  0  0  0  0  0  0  0  0  0  0  0
  149.6288  131.0031  157.4876 H   0  0  0  0  0  0  0  0  0  0  0  0
  148.5573  131.7102  156.2702 H   0  0  0  0  0  0  0  0  0  0  0  0
  149.0732  137.1226  159.1098 H   0  0  0  0  0  0  0  0  0  0  0  0
  147.1230  134.0357  161.8135 H   0  0  0  0  0  0  0  0  0  0  0  0
  147.0298  135.3266  163.0192 H   0  0  0  0  0  0  0  0  0  0  0  0
  148.5991  134.6313  162.5895 H   0  0  0  0  0  0  0  0  0  0  0  0
  1  2  1  0  0  0  0
  1 29  1  0  0  0  0
  1 30  1  0  0  0  0
  1 31  1  0  0  0  0
  2  3  2  0  0  0  0
  2  4  1  0  0  0  0
  4  5  1  0  0  0  0
  5  6  1  0  0  0  0
  5 32  1  0  0  0  0
  5 33  1  0  0  0  0
  6 23  1  0  0  0  0
  6  7  1  0  0  0  0
  6 34  1  0  0  0  0
  7  8  1  0  0  0  0
  8  9  1  0  0  0  0
  8 18  1  0  0  0  0
  8 35  1  0  0  0  0
  9 16  1  0  0  0  0
  9 10  1  0  0  0  0
 10 11  2  0  0  0  0
 10 36  1  0  0  0  0
 11 12  1  0  0  0  0
 11 13  1  0  0  0  0
 13 14  2  0  0  0  0
 13 15  1  0  0  0  0
 15 28  1  0  0  0  0
 15 16  1  0  0  0  0
 16 17  2  0  0  0  0
 18 19  1  0  0  0  0
 18 23  1  0  0  0  0
 18 37  1  0  0  0  0
 19 20  1  0  0  0  0
 20 21  1  0  0  0  0
 20 22  2  0  0  0  0
 21 38  1  0  0  0  0
 21 39  1  0  0  0  0
 21 40  1  0  0  0  0
 23 24  1  0  0  0  0
 23 41  1  0  0  0  0
 24 25  1  0  0  0  0
 25 26  1  0  0  0  0
 25 27  2  0  0  0  0
 26 42  1  0  0  0  0
 26 43  1  0  0  0  0
 26 44  1  0  0  0  0
M  END
> <s_m_source_file>
AV-unprocessed.smi

> <i_m_source_file_index>
102

> <i_lp_mmshare_version>
43012

> <i_f3d_flags>
0

> <s_epik_input>
W0NIM11DKD1PKU9bQ0gyXVtDQEBIXTFPW0NASF0oW0NAQEhdKE9DKD1PKVtDSDNdKVtDQEhdMU9DKD1PKVtDSDNdKW4yW2NIXWMoRiljKD1PKVtuSF1jMj1P

> <s_epik_cmdline>
J2VwaWtfcHl0aG9uJywgJy1waCcsICc3LjAnLCAnLXRuJywgJzgnLCAnLW1hJywgJzIwMCcsICctbWV0YWxfYmluZGluZycsICctaW1hZScsICc8aW5maWxlLm1hZT4nLCAnLW9tYWUnLCAnPG91dGZpbGUubWFlPic=

> <r_lp_tautomer_probability>
0.999537

> <r_epik_Ionization_Penalty>
0.058267

> <r_epik_Ionization_Penalty_Charging>
0.058267

> <r_epik_Ionization_Penalty_Neutral>
6.57791e-16

> <r_epik_State_Penalty>
0.0503774

> <r_epik_Charging_Adjusted_Penalty>
0.108644

> <i_epik_Tot_Q>
0

> <i_epik_Tot_abs_Q>
0

> <r_epik_Metal_State_Penalty>
2.6644

> <b_epik_Metal_Only>
0

> <s_epik_Chemistry_Notes>
This compound has an ester and may undergo hydrolysis at high or low pH. This compound contains an acetal/aminal-like group ( X-CH(R)-Y where X, Y are N, S, or O) that may be acid/base labile, releasing an aldehyde.

> <s_lp_Force_Field>
OPLS_2005

> <r_lp_Energy>
14.1022

> <b_lp_Chiralities_Consistent>
1

> <s_lp_Variant>
AV-unprocessed.smi:102-14

> <Gold.Version>
5.8.1

> <Gold.Id.Protein>
6NUR|6NUR_protein|mol2

> <Gold.PLP.Fitness>
41.1977

> <Gold.PLP.PLP>
-26.7801

> <Gold.PLP.part.hbond>
-6.9765

> <Gold.PLP.part.metal>
0.0000

> <Gold.PLP.part.buried>
-3.6759

> <Gold.PLP.part.nonpolar>
-17.3152

> <Gold.PLP.part.repulsive>
0.2496

> <Gold.PLP.ligand.clash>
0.0000

> <Gold.PLP.ligand.torsion>
0.8154

> <Gold.PLP.Chemscore.Hbond>
5.3074

> <Gold.PLP.Chemscore.CHOScore>
0.0000

> <Gold.PLP.Chemscore.Metal>
0.0000

> <Gold.Chemscore.Hbonds>
donor molecule, donor type, donor heavy atom, donor atom, acceptor molecule, acceptor atom, score
      P1  H  6896  6908       L1    22  0.87
      P1  H  6931  6943       L1    27  0.94
      P1  H  6934  6946       L1     3  0.12
      P1  H  6934  6947       L1    27  0.90
      P1  H  7989  7998       L1    14  0.33
      P1  H  7997  8008       L1    14  0.96
      P1  H 10752 10765       L1    17  1.00

> <Gold.PLP.Chemscore.Internal.Correction>
0.1263

> <Gold.Rescore>
     Score         DG    S(hbond)    S(metal)    S(lipo)     H(rot)  DE(clash)    DE(int)     intcor
      9.96     -12.24       4.26        0.00      24.87       4.05       0.01       2.26       ----

> <Gold.Chemscore.Fitness>
9.9600

> <Gold.Chemscore.DG>
-12.2356

> <Gold.Chemscore.ZeroCoef>
-5.4800

> <Gold.Chemscore.Hbond>
4.2571

> <Gold.Chemscore.Metal>
0.0000

> <Gold.Chemscore.Lipo>
24.8734

> <Gold.Chemscore.Internal_Hbond>
0.0000

> <Gold.Chemscore.DEClash>
0.0126

> <Gold.Chemscore.DEInternal>
2.2630

> <Gold.Chemscore.Rot>
4.0520

> <Gold.Chemscore.Internal.Correction>
   9.000000E+99

> <Gold.Chemscore.Hbonds>
donor molecule, donor type, donor heavy atom, donor atom, acceptor molecule, acceptor atom, score
      P1  H  6896  6908       L1    22  0.19
      P1  H  6931  6943       L1    27  0.87
      P1  H  6934  6946       L1     3  0.12
      P1  H  6934  6947       L1    27  0.88
      P1  H  7989  7998       L1    14  0.05
      P1  H  7997  8008       L1    14  0.91
      P1  H 10752 10765       L1    17  0.25

> <Gold.Chemscore.Hbond.Weighted>
-14.2186

> <Gold.Chemscore.Metal.Weighted>
-0.0000

> <Gold.Chemscore.Lipo.Weighted>
-2.9102

> <Gold.Chemscore.Internal_Hbond.Weighted>
0.0000

> <Gold.Chemscore.DEClash.Weighted>
0.0126

> <Gold.Chemscore.DEInternal.Weighted>
2.2630

> <Gold.Chemscore.Rot.Weighted>
10.3732

> <Gold.Chemscore.Internal.Correction.Weighted>
   9.000000E+99

> <Gold.Protein.RotatedTorsions>
[ 6907 6896 6895 6894 ] final   98.95 input  -60.11 | X-H torsion
[ 7974 7965 7964 7962 ] final  -30.46 input  175.53 | X-H torsion
[ 8008 7997 7996 7995 ] final  -13.92 input   59.86 | X-H torsion
[ 10167 10162 10161 10158 ] final  -14.36 input  -65.29 | X-H torsion
[ 10718 10713 10712 10709 ] final   95.07 input   66.30 | X-H torsion
[ 10763 10752 10751 10750 ] final -160.59 input  -60.55 | X-H torsion
[ 11005 11000 10999 10996 ] final -134.41 input  -57.11 | X-H torsion

> <Gold.Protein.ActiveResidues>
 VAL166  LYS551  ARG553  GLY616  TRP617  ASP618  TYR619  PRO620  LYS621  CYS622 
 ASP623  PHE694  ASN695  SER759  ASP760  ASP761  ALA762  ILE779  LEU786  VAL792 
 PHE793  MET794  SER795  GLU796  ALA797  LYS798  CYS799  TRP800  GLU811  SER814 

> <Gold.Protein.RotatedAtoms>
  152.5400  134.0503  159.8106 H   0  0  0  0  0  0  0  0  0  0  0  0  # atno 6907 bound_to 6896
  151.0645  133.5509  159.2639 H   0  0  0  0  0  0  0  0  0  0  0  0  # atno 6908 bound_to 6896
  151.2395  135.0592  159.9073 H   0  0  0  0  0  0  0  0  0  0  0  0  # atno 6909 bound_to 6896
  146.1141  140.5543  142.8765 H   0  0  0  0  0  0  0  0  0  0  0  0  # atno 7974 bound_to 7965
  154.5252  140.2236  155.8903 H   0  0  0  0  0  0  0  0  0  0  0  0  # atno 8008 bound_to 7997
  156.1705  140.3123  155.8930 H   0  0  0  0  0  0  0  0  0  0  0  0  # atno 8009 bound_to 7997
  155.3567  140.0459  157.3037 H   0  0  0  0  0  0  0  0  0  0  0  0  # atno 8010 bound_to 7997
  140.7200  143.5330  150.9498 H   0  0  0  0  0  0  0  0  0  0  0  0  # atno 10167 bound_to 10162
  157.6942  131.0533  150.4283 H   0  0  0  0  0  0  0  0  0  0  0  0  # atno 10718 bound_to 10713
  154.7377  135.3061  154.8783 H   0  0  0  0  0  0  0  0  0  0  0  0  # atno 10763 bound_to 10752
  153.9607  135.6753  153.4749 H   0  0  0  0  0  0  0  0  0  0  0  0  # atno 10764 bound_to 10752
  153.0978  135.4927  154.8734 H   0  0  0  0  0  0  0  0  0  0  0  0  # atno 10765 bound_to 10752
  140.8993  134.1711  157.4472 H   0  0  0  0  0  0  0  0  0  0  0  0  # atno 11005 bound_to 11000
  144.7537  140.5255  143.6784 LP  0  0  0  0  0  0  0  0  0  0  0  0  # atno 17320 bound_to 7965
  145.5603  139.1479  143.3345 LP  0  0  0  0  0  0  0  0  0  0  0  0  # atno 17321 bound_to 7965
  139.9051  143.6789  152.3125 LP  0  0  0  0  0  0  0  0  0  0  0  0  # atno 17342 bound_to 10162
  139.7152  144.7613  151.1046 LP  0  0  0  0  0  0  0  0  0  0  0  0  # atno 17343 bound_to 10162
  156.4651  130.4040  149.6552 LP  0  0  0  0  0  0  0  0  0  0  0  0  # atno 17370 bound_to 10713
  156.3653  130.7502  151.2479 LP  0  0  0  0  0  0  0  0  0  0  0  0  # atno 17371 bound_to 10713
  139.8740  134.9891  156.5442 LP  0  0  0  0  0  0  0  0  0  0  0  0  # atno 17394 bound_to 11000
  140.8250  133.8323  155.8931 LP  0  0  0  0  0  0  0  0  0  0  0  0  # atno 17395 bound_to 11000

$$$$
