#       Name:                AV-unprocessed.smi:136
#       Creating user name   scv26
#       Creation time:       Thu Mar 26 18:31:53 2020


#       File generated by GOLD software.
#

@<TRIPOS>MOLECULE
AV-unprocessed.smi:136
    65    69     1
SMALL
NO_CHARGES


@<TRIPOS>ATOM
      1 ****        -1.0667   1.0919   0.0437 O.2            1 S1                 0.0000
      2 ****        -0.4388   0.0692   0.3245 C.2            1 S1                 0.0000
      3 ****         1.0764   0.1511   0.6097 C.3            1 S1                 0.0000
      4 ****         1.6257   1.5200   0.4986 N.am           1 S1                 0.0000
      5 ****         1.6333   2.3453   1.6502 C.2            1 S1                 0.0000
      6 ****         1.1991   1.9403   2.7294 O.2            1 S1                 0.0000
      7 ****         2.1785   3.6847   1.4609 C.2            1 S1                 0.0000
      8 ****         2.2447   4.5295   2.5040 F              1 S1                 0.0000
      9 ****         2.6221   4.0909   0.2535 C.2            1 S1                 0.0000
     10 ****         2.5865   3.2823  -0.8690 N.am           1 S1                 0.0000
     11 ****         3.0888   3.7531  -2.2189 C.3            1 S1                 0.0000
     12 ****         1.9141   3.9647  -3.1950 C.3            1 S1                 0.0000
     13 ****         2.1301   5.3839  -3.6830 C.3            1 S1                 0.0000
     14 ****         2.8457   6.0201  -2.5013 C.3            1 S1                 0.0000
     15 ****         3.7305   4.9893  -2.0838 O.3            1 S1                 0.0000
     16 ****         2.0918   1.9642  -0.7616 C.2            1 S1                 0.0000
     17 ****         2.0617   1.2238  -1.7473 O.2            1 S1                 0.0000
     18 ****        -1.0364  -1.1417   0.3861 N.am           1 S1                 0.0000
     19 ****        -0.3545  -2.2969   0.5888 N.2            1 S1                 0.0000
     20 ****        -1.1489  -3.2953   0.4710 C.2            1 S1                 0.0000
     21 ****        -0.7449  -4.7097   0.6302 C.ar           1 S1                 0.0000
     22 ****         0.5782  -5.0136   1.0237 C.ar           1 S1                 0.0000
     23 ****         0.9641  -6.3598   1.1748 C.ar           1 S1                 0.0000
     24 ****         0.0369  -7.3937   0.9343 C.ar           1 S1                 0.0000
     25 ****         0.5163  -9.0407   1.1203 Cl             1 S1                 0.0000
     26 ****        -1.2809  -7.0848   0.5416 C.ar           1 S1                 0.0000
     27 ****        -1.6785  -5.7422   0.3868 C.ar           1 S1                 0.0000
     28 ****        -2.5561  -2.9114   0.1589 C.3            1 S1                 0.0000
     29 ****        -2.4647  -1.3832   0.1453 C.3            1 S1                 0.0000
     30 ****        -3.3550  -0.7346   1.1640 C.2            1 S1                 0.0000
     31 ****        -4.5067  -0.0030   1.0727 C.2            1 S1                 0.0000
     32 ****        -4.8838   0.3209   2.4053 C.2            1 S1                 0.0000
     33 ****        -3.9370  -0.2427   3.2122 C.2            1 S1                 0.0000
     34 ****        -3.0001  -0.8940   2.4717 O.3            1 S1                 0.0000
     35 ****         1.2664  -0.2622   1.6016 H              1 S1                 0.0000
     36 ****         1.6009  -0.5270  -0.0655 H              1 S1                 0.0000
     37 ****         3.0176   5.0926   0.1841 H              1 S1                 0.0000
     38 ****         3.8092   2.9992  -2.5410 H              1 S1                 0.0000
     39 ****         1.9373   3.2282  -3.9986 H              1 S1                 0.0000
     40 ****         0.9622   3.8839  -2.6676 H              1 S1                 0.0000
     41 ****         2.7812   5.3855  -4.5581 H              1 S1                 0.0000
     42 ****         1.2017   5.8922  -3.9449 H              1 S1                 0.0000
     43 ****         3.3850   6.9278  -2.7717 H              1 S1                 0.0000
     44 ****         2.1416   6.2602  -1.7036 H              1 S1                 0.0000
     45 ****         1.3033  -4.2355   1.2142 H              1 S1                 0.0000
     46 ****         1.9736  -6.5979   1.4760 H              1 S1                 0.0000
     47 ****        -1.9897  -7.8790   0.3578 H              1 S1                 0.0000
     48 ****        -2.6932  -5.5319   0.0832 H              1 S1                 0.0000
     49 ****        -2.8668  -3.3019  -0.8109 H              1 S1                 0.0000
     50 ****        -3.2431  -3.2797   0.9223 H              1 S1                 0.0000
     51 ****        -2.7197  -1.0128  -0.8492 H              1 S1                 0.0000
     52 ****        -5.0135   0.2679   0.1584 H              1 S1                 0.0000
     53 ****        -5.7397   0.8924   2.7327 H              1 S1                 0.0000
     54 ****        -3.7855  -0.2775   4.2810 H              1 S1                 0.0000
     55 ****        -0.5948   1.9724   0.0009 LP             1 S1                 0.0000
     56 ****        -2.0481   1.0411  -0.1414 LP             1 S1                 0.0000
     57 ****         0.8322   1.0130   2.8044 LP             1 S1                 0.0000
     58 ****         1.2135   2.5387   3.5304 LP             1 S1                 0.0000
     59 ****         4.5532   5.0035  -2.6521 LP             1 S1                 0.0000
     60 ****         3.9838   5.1324  -1.1271 LP             1 S1                 0.0000
     61 ****         1.7040   0.2937  -1.6634 LP             1 S1                 0.0000
     62 ****         2.3950   1.5534  -2.6307 LP             1 S1                 0.0000
     63 ****         0.6212  -2.3598   0.7985 LP             1 S1                 0.0000
     64 ****        -2.0961  -0.4986   2.6343 LP             1 S1                 0.0000
     65 ****        -2.9868  -1.8653   2.7094 LP             1 S1                 0.0000
@<TRIPOS>BOND
    1    1    2 2     
    2    2    3 1     
    3    2   18 am    
    4    3    4 1     
    5    3   35 1     
    6    3   36 1     
    7    4   16 am    
    8    4    5 am    
    9    5    6 2     
   10    5    7 1     
   11    7    8 1     
   12    7    9 2     
   13    9   10 1     
   14    9   37 1     
   15   10   11 1     
   16   10   16 am    
   17   11   15 1     
   18   11   12 1     
   19   11   38 1     
   20   12   13 1     
   21   12   39 1     
   22   12   40 1     
   23   13   14 1     
   24   13   41 1     
   25   13   42 1     
   26   14   15 1     
   27   14   43 1     
   28   14   44 1     
   29   16   17 2     
   30   18   29 1     
   31   18   19 1     
   32   19   20 2     
   33   20   21 1     
   34   20   28 1     
   35   21   27 ar    
   36   21   22 ar    
   37   22   23 ar    
   38   22   45 1     
   39   23   24 ar    
   40   23   46 1     
   41   24   25 1     
   42   24   26 ar    
   43   26   27 ar    
   44   26   47 1     
   45   27   48 1     
   46   28   29 1     
   47   28   49 1     
   48   28   50 1     
   49   29   30 1     
   50   29   51 1     
   51   30   34 1     
   52   30   31 2     
   53   31   32 1     
   54   31   52 1     
   55   32   33 2     
   56   32   53 1     
   57   33   34 1     
   58   33   54 1     
   59    1   55 1     
   60    1   56 1     
   61    6   57 1     
   62    6   58 1     
   63   15   59 1     
   64   15   60 1     
   65   17   61 1     
   66   17   62 1     
   67   19   63 1     
   68   34   64 1     
   69   34   65 1     
@<TRIPOS>SUBSTRUCTURE
      1 S1             1
@<TRIPOS>SET
LONE_PAIRS      STATIC     ATOMS    <user>   **** ""
11 55 56 57 58 59 60 61 62 63 64 65
ATOM$BLUE        STATIC     ATOMS    COLORGROUP SYSTEM
11 55 56 57 58 59 60 61 62 63 64 65
