#       Name:                AV-unprocessed.smi:1787
#       Creating user name   scv26
#       Creation time:       Fri Mar 27 08:44:50 2020


#       File generated by GOLD software.
#

@<TRIPOS>MOLECULE
AV-unprocessed.smi:1787
    50    52     1
SMALL
NO_CHARGES


@<TRIPOS>ATOM
      1 ****        -0.3450   3.0531   0.3079 O.2            1 S1                 0.0000
      2 ****        -0.8164   1.9215   0.2015 C.2            1 S1                 0.0000
      3 ****        -0.0659   0.8219   0.0621 N.am           1 S1                 0.0000
      4 ****         1.3936   0.8062   0.0250 C.3            1 S1                 0.0000
      5 ****         1.9494  -0.5361  -0.5506 C.3            1 S1                 0.0000
      6 ****         1.3808  -1.6986   0.1992 N.3            1 S1                 0.0000
      7 ****         1.6797  -3.0302  -0.3482 C.3            1 S1                 0.0000
      8 ****         0.9892  -4.1570   0.4393 C.3            1 S1                 0.0000
      9 ****         1.3653  -4.0882   1.8079 O.3            1 S1                 0.0000
     10 ****         1.0194  -2.8418   2.3958 C.3            1 S1                 0.0000
     11 ****         1.7091  -1.6993   1.6317 C.3            1 S1                 0.0000
     12 ****         1.6239  -0.5632  -2.0725 C.3            1 S1                 0.0000
     13 ****         2.5091   0.4554  -2.7997 C.3            1 S1                 0.0000
     14 ****         4.0781   0.5447  -1.9054 S.3            1 S1                 0.0000
     15 ****         3.4978  -0.4736  -0.5207 C.3            1 S1                 0.0000
     16 ****        -2.1252   1.6155   0.1936 N.am           1 S1                 0.0000
     17 ****        -3.2482   2.4800   0.3104 C.ar           1 S1                 0.0000
     18 ****        -4.5129   1.9596  -0.0344 C.ar           1 S1                 0.0000
     19 ****        -5.6501   2.7812   0.0818 C.ar           1 S1                 0.0000
     20 ****        -5.4786   4.0987   0.5473 C.ar           1 S1                 0.0000
     21 ****        -4.2789   4.6107   0.8927 N.ar           1 S1                 0.0000
     22 ****        -3.1918   3.8171   0.7786 C.ar           1 S1                 0.0000
     23 ****        -0.5303  -0.0709  -0.0200 H              1 S1                 0.0000
     24 ****         1.7410   1.6601  -0.5563 H              1 S1                 0.0000
     25 ****         1.7701   0.9976   1.0294 H              1 S1                 0.0000
     26 ****         1.3358  -3.1184  -1.3758 H              1 S1                 0.0000
     27 ****         2.7535  -3.2137  -0.3505 H              1 S1                 0.0000
     28 ****        -0.0957  -4.0838   0.3474 H              1 S1                 0.0000
     29 ****         1.2785  -5.1292   0.0399 H              1 S1                 0.0000
     30 ****        -0.0642  -2.7138   2.3872 H              1 S1                 0.0000
     31 ****         1.3336  -2.8417   3.4397 H              1 S1                 0.0000
     32 ****         2.7881  -1.7835   1.7670 H              1 S1                 0.0000
     33 ****         1.4051  -0.7681   2.1047 H              1 S1                 0.0000
     34 ****         1.8778  -1.5239  -2.5142 H              1 S1                 0.0000
     35 ****         0.5667  -0.3980  -2.2825 H              1 S1                 0.0000
     36 ****         2.6751   0.1763  -3.8404 H              1 S1                 0.0000
     37 ****         2.0464   1.4423  -2.8000 H              1 S1                 0.0000
     38 ****         3.8829  -0.0830   0.4218 H              1 S1                 0.0000
     39 ****         3.9412  -1.4580  -0.6597 H              1 S1                 0.0000
     40 ****        -2.3475   0.6426   0.0407 H              1 S1                 0.0000
     41 ****        -4.6134   0.9431  -0.3861 H              1 S1                 0.0000
     42 ****        -6.6303   2.4101  -0.1783 H              1 S1                 0.0000
     43 ****        -6.3284   4.7572   0.6501 H              1 S1                 0.0000
     44 ****        -2.2699   4.2800   1.0924 H              1 S1                 0.0000
     45 ****         0.6461   3.1854   0.2925 LP             1 S1                 0.0000
     46 ****        -0.9530   3.8405   0.4098 LP             1 S1                 0.0000
     47 ****         0.4008  -1.5422   0.0764 LP             1 S1                 0.0000
     48 ****         2.3550  -4.2136   1.8769 LP             1 S1                 0.0000
     49 ****         0.9011  -4.8199   2.3070 LP             1 S1                 0.0000
     50 ****        -4.1969   5.5508   1.2237 LP             1 S1                 0.0000
@<TRIPOS>BOND
    1    1    2 2     
    2    2    3 am    
    3    2   16 am    
    4    3    4 1     
    5    3   23 1     
    6    4    5 1     
    7    4   24 1     
    8    4   25 1     
    9    5   15 1     
   10    5    6 1     
   11    5   12 1     
   12    6   11 1     
   13    6    7 1     
   14    7    8 1     
   15    7   26 1     
   16    7   27 1     
   17    8    9 1     
   18    8   28 1     
   19    8   29 1     
   20    9   10 1     
   21   10   11 1     
   22   10   30 1     
   23   10   31 1     
   24   11   32 1     
   25   11   33 1     
   26   12   13 1     
   27   12   34 1     
   28   12   35 1     
   29   13   14 1     
   30   13   36 1     
   31   13   37 1     
   32   14   15 1     
   33   15   38 1     
   34   15   39 1     
   35   16   17 1     
   36   16   40 1     
   37   17   22 ar    
   38   17   18 ar    
   39   18   19 ar    
   40   18   41 1     
   41   19   20 ar    
   42   19   42 1     
   43   20   21 ar    
   44   20   43 1     
   45   21   22 ar    
   46   22   44 1     
   47    1   45 1     
   48    1   46 1     
   49    6   47 1     
   50    9   48 1     
   51    9   49 1     
   52   21   50 1     
@<TRIPOS>SUBSTRUCTURE
      1 S1             1
@<TRIPOS>SET
LONE_PAIRS      STATIC     ATOMS    <user>   **** ""
6 45 46 47 48 49 50
DONOR_HYDROGENS      STATIC     ATOMS    <user>   **** ""
2 23 40
ATOM$BLUE        STATIC     ATOMS    COLORGROUP SYSTEM
6 45 46 47 48 49 50
ATOM$RED        STATIC     ATOMS    COLORGROUP SYSTEM
2 23 40
