AV-unprocessed.smi:2439|AV-procd|sdf|9604|dock4
  -GOLD-   2272013233D 1   1.00000     0.00000
 Structure written by MMmdl.
 41 43  0  0  0  0  0  0  0  0  2 V2000
  150.0877  136.7318  159.2383 N   0  0  0  0  0  0  0  0  0  0  0  0
  150.5045  137.0634  158.2113 C   0  0  0  0  0  0  0  0  0  0  0  0
  151.0284  137.4801  156.9162 C   0  0  0  0  0  0  0  0  0  0  0  0
  151.5958  138.7655  156.7894 C   0  0  0  0  0  0  0  0  0  0  0  0
  152.1055  139.1698  155.5420 C   0  0  0  0  0  0  0  0  0  0  0  0
  152.0260  138.2681  154.4655 C   0  0  0  0  0  0  0  0  0  0  0  0
  151.4861  137.0357  154.5725 N   0  0  0  0  0  0  0  0  0  0  0  0
  150.9938  136.6387  155.7717 C   0  0  0  0  0  0  0  0  0  0  0  0
  150.4397  135.3488  155.8512 N   0  0  0  0  0  0  0  0  0  0  0  0
  149.8068  134.7294  154.6954 C   0  0  0  0  0  0  0  0  0  0  0  0
  148.5095  133.9947  155.0860 C   0  0  1  0  0  0  0  0  0  0  0  0
  147.2391  134.8013  154.7572 C   0  0  0  0  0  0  0  0  0  0  0  0
  146.9974  134.8551  153.2961 N   0  3  2  0  0  0  0  0  0  0  0  0
  145.7992  135.6642  152.9560 C   0  0  0  0  0  0  0  0  0  0  0  0
  145.6188  135.7784  151.4343 C   0  0  0  0  0  0  0  0  0  0  0  0
  145.5428  134.3890  150.7897 C   0  0  0  0  0  0  0  0  0  0  0  0
  146.7789  133.5655  151.1739 C   0  0  0  0  0  0  0  0  0  0  0  0
  146.9524  133.4903  152.7046 C   0  0  1  0  0  0  0  0  0  0  0  0
  148.2275  132.7103  153.0780 C   0  0  0  0  0  0  0  0  0  0  0  0
  148.4116  132.7008  154.4898 O   0  0  0  0  0  0  0  0  0  0  0  0
  151.6437  139.4373  157.6346 H   0  0  0  0  0  0  0  0  0  0  0  0
  152.5467  140.1473  155.4143 H   0  0  0  0  0  0  0  0  0  0  0  0
  152.4068  138.5421  153.4927 H   0  0  0  0  0  0  0  0  0  0  0  0
  150.5873  134.7926  156.6817 H   0  0  0  0  0  0  0  0  0  0  0  0
  149.5747  135.5134  153.9738 H   0  0  0  0  0  0  0  0  0  0  0  0
  150.5066  134.0536  154.2041 H   0  0  0  0  0  0  0  0  0  0  0  0
  148.5317  133.8409  156.1657 H   0  0  0  0  0  0  0  0  0  0  0  0
  146.3782  134.3393  155.2436 H   0  0  0  0  0  0  0  0  0  0  0  0
  147.3224  135.8122  155.1582 H   0  0  0  0  0  0  0  0  0  0  0  0
  144.9131  135.2116  153.4040 H   0  0  0  0  0  0  0  0  0  0  0  0
  145.8980  136.6613  153.3869 H   0  0  0  0  0  0  0  0  0  0  0  0
  144.7147  136.3443  151.2073 H   0  0  0  0  0  0  0  0  0  0  0  0
  146.4511  136.3384  151.0058 H   0  0  0  0  0  0  0  0  0  0  0  0
  144.6389  133.8762  151.1212 H   0  0  0  0  0  0  0  0  0  0  0  0
  145.4721  134.4797  149.7053 H   0  0  0  0  0  0  0  0  0  0  0  0
  146.6951  132.5613  150.7567 H   0  0  0  0  0  0  0  0  0  0  0  0
  147.6655  134.0136  150.7225 H   0  0  0  0  0  0  0  0  0  0  0  0
  146.0930  132.9674  153.1287 H   0  0  0  0  0  0  0  0  0  0  0  0
  148.1439  131.6777  152.7386 H   0  0  0  0  0  0  0  0  0  0  0  0
  149.1048  133.1241  152.5801 H   0  0  0  0  0  0  0  0  0  0  0  0
  147.7920  135.3246  152.8853 H   0  0  0  0  0  0  0  0  0  0  0  0
  1  2  3  0  0  0  0
  2  3  1  0  0  0  0
  3  8  1  0  0  0  0
  3  4  2  0  0  0  0
  4  5  1  0  0  0  0
  4 21  1  0  0  0  0
  5  6  2  0  0  0  0
  5 22  1  0  0  0  0
  6  7  1  0  0  0  0
  6 23  1  0  0  0  0
  7  8  2  0  0  0  0
  8  9  1  0  0  0  0
  9 10  1  0  0  0  0
  9 24  1  0  0  0  0
 10 11  1  0  0  0  0
 10 25  1  0  0  0  0
 10 26  1  0  0  0  0
 11 20  1  0  0  0  0
 11 12  1  0  0  0  0
 11 27  1  0  0  0  0
 12 13  1  0  0  0  0
 12 28  1  0  0  0  0
 12 29  1  0  0  0  0
 13 18  1  0  0  0  0
 13 14  1  0  0  0  0
 13 41  1  0  0  0  0
 14 15  1  0  0  0  0
 14 30  1  0  0  0  0
 14 31  1  0  0  0  0
 15 16  1  0  0  0  0
 15 32  1  0  0  0  0
 15 33  1  0  0  0  0
 16 17  1  0  0  0  0
 16 34  1  0  0  0  0
 16 35  1  0  0  0  0
 17 18  1  0  0  0  0
 17 36  1  0  0  0  0
 17 37  1  0  0  0  0
 18 19  1  0  0  0  0
 18 38  1  0  0  0  0
 19 20  1  0  0  0  0
 19 39  1  0  0  0  0
 19 40  1  0  0  0  0
M  CHG  1  13   1
M  END
> <s_m_source_file>
AV-unprocessed.smi

> <i_m_source_file_index>
2439

> <i_lp_mmshare_version>
43012

> <i_f3d_flags>
0

> <s_epik_input>
TiNDYzFbY0hdW2NIXVtjSF1uYzFbTkhdW0NIMl1bQ0BIXShbQ0gyXTIpT1tDSDJdW0NAQEhdKE4yMylbQ0gyXVtDSDJdW0NIMl1bQ0gyXTM=

> <s_epik_cmdline>
J2VwaWtfcHl0aG9uJywgJy1waCcsICc3LjAnLCAnLXRuJywgJzgnLCAnLW1hJywgJzIwMCcsICctbWV0YWxfYmluZGluZycsICctaW1hZScsICc8aW5maWxlLm1hZT4nLCAnLW9tYWUnLCAnPG91dGZpbGUubWFlPic=

> <r_epik_Ionization_Penalty>
0.0803594

> <r_epik_Ionization_Penalty_Charging>
0.0803403

> <r_epik_Ionization_Penalty_Neutral>
1.90988e-05

> <r_epik_State_Penalty>
0.0711481

> <r_epik_Charging_Adjusted_Penalty>
0.151488

> <i_epik_Tot_Q>
1

> <i_epik_Tot_abs_Q>
1

> <r_epik_Metal_State_Penalty>
0.0711482

> <b_epik_Metal_Only>
0

> <s_lp_Force_Field>
OPLS_2005

> <r_lp_Energy>
31.556

> <b_lp_Chiralities_Consistent>
1

> <s_lp_Variant>
AV-unprocessed.smi:2439-2

> <Gold.Version>
5.8.1

> <Gold.Id.Protein>
6NUR|6NUR_protein|mol2

> <Gold.PLP.Fitness>
41.5359

> <Gold.PLP.PLP>
-31.3689

> <Gold.PLP.part.hbond>
-3.0000

> <Gold.PLP.part.metal>
0.0000

> <Gold.PLP.part.buried>
-5.6160

> <Gold.PLP.part.nonpolar>
-23.3375

> <Gold.PLP.part.repulsive>
0.3146

> <Gold.PLP.ligand.clash>
0.0000

> <Gold.PLP.ligand.torsion>
0.9200

> <Gold.PLP.Chemscore.Hbond>
4.0000

> <Gold.PLP.Chemscore.CHOScore>
0.0000

> <Gold.PLP.Chemscore.Metal>
0.0000

> <Gold.Chemscore.Hbonds>
donor molecule, donor type, donor heavy atom, donor atom, acceptor molecule, acceptor atom, score
      L1  H    13    41       P1  7948  2.00
      P1  H  6896  6909       L1     1  0.99
      P1  H 10752 10763       L1     7  0.94

> <Gold.PLP.Chemscore.Internal.Correction>
0.0068

> <Gold.Rescore>
     Score         DG    S(hbond)    S(metal)    S(lipo)     H(rot)  DE(clash)    DE(int)     intcor
     17.02     -17.99       2.25        0.00      70.30       1.27       0.01       0.96       ----

> <Gold.Chemscore.Fitness>
17.0245

> <Gold.Chemscore.DG>
-17.9937

> <Gold.Chemscore.ZeroCoef>
-5.4800

> <Gold.Chemscore.Hbond>
2.2544

> <Gold.Chemscore.Metal>
0.0000

> <Gold.Chemscore.Lipo>
70.2957

> <Gold.Chemscore.Internal_Hbond>
0.0000

> <Gold.Chemscore.DEClash>
0.0068

> <Gold.Chemscore.DEInternal>
0.9623

> <Gold.Chemscore.Rot>
1.2659

> <Gold.Chemscore.Internal.Correction>
   9.000000E+99

> <Gold.Chemscore.Hbonds>
donor molecule, donor type, donor heavy atom, donor atom, acceptor molecule, acceptor atom, score
      L1  H    13    41       P1  7948  1.00
      P1  H  6896  6909       L1     1  0.65
      P1  H 10752 10763       L1     7  0.26

> <Gold.Chemscore.Hbond.Weighted>
-7.5298

> <Gold.Chemscore.Metal.Weighted>
-0.0000

> <Gold.Chemscore.Lipo.Weighted>
-8.2246

> <Gold.Chemscore.Internal_Hbond.Weighted>
0.0000

> <Gold.Chemscore.DEClash.Weighted>
0.0068

> <Gold.Chemscore.DEInternal.Weighted>
0.9623

> <Gold.Chemscore.Rot.Weighted>
3.2408

> <Gold.Chemscore.Internal.Correction.Weighted>
   9.000000E+99

> <Gold.Protein.RotatedTorsions>
[ 6907 6896 6895 6894 ] final   90.52 input  -60.11 | X-H torsion
[ 7974 7965 7964 7962 ] final   75.52 input  175.53 | X-H torsion
[ 8008 7997 7996 7995 ] final   -9.56 input   59.86 | X-H torsion
[ 10167 10162 10161 10158 ] final  100.80 input  -65.29 | X-H torsion
[ 10718 10713 10712 10709 ] final  -96.39 input   66.30 | X-H torsion
[ 10763 10752 10751 10750 ] final   32.78 input  -60.55 | X-H torsion
[ 11005 11000 10999 10996 ] final   33.81 input  -57.11 | X-H torsion

> <Gold.Protein.ActiveResidues>
 VAL166  LYS551  ARG553  GLY616  TRP617  ASP618  TYR619  PRO620  LYS621  CYS622 
 ASP623  PHE694  ASN695  SER759  ASP760  ASP761  ALA762  ILE779  LEU786  VAL792 
 PHE793  MET794  SER795  GLU796  ALA797  LYS798  CYS799  TRP800  GLU811  SER814 

> <Gold.Protein.RotatedAtoms>
  152.5445  134.1798  159.8630 H   0  0  0  0  0  0  0  0  0  0  0  0  # atno 6907 bound_to 6896
  151.1802  133.4723  159.2601 H   0  0  0  0  0  0  0  0  0  0  0  0  # atno 6908 bound_to 6896
  151.1186  135.0078  159.8583 H   0  0  0  0  0  0  0  0  0  0  0  0  # atno 6909 bound_to 6896
  145.7145  139.2626  143.1631 H   0  0  0  0  0  0  0  0  0  0  0  0  # atno 7974 bound_to 7965
  154.5635  140.2352  155.8299 H   0  0  0  0  0  0  0  0  0  0  0  0  # atno 8008 bound_to 7997
  156.2049  140.3042  155.9564 H   0  0  0  0  0  0  0  0  0  0  0  0  # atno 8009 bound_to 7997
  155.2845  140.0424  157.3008 H   0  0  0  0  0  0  0  0  0  0  0  0  # atno 8010 bound_to 7997
  139.7494  144.6988  151.0454 H   0  0  0  0  0  0  0  0  0  0  0  0  # atno 10167 bound_to 10162
  156.0061  130.5149  150.6219 H   0  0  0  0  0  0  0  0  0  0  0  0  # atno 10718 bound_to 10713
  153.0245  135.6404  154.1408 H   0  0  0  0  0  0  0  0  0  0  0  0  # atno 10763 bound_to 10752
  154.1139  135.2851  155.3226 H   0  0  0  0  0  0  0  0  0  0  0  0  # atno 10764 bound_to 10752
  154.6312  135.5492  153.7745 H   0  0  0  0  0  0  0  0  0  0  0  0  # atno 10765 bound_to 10752
  140.2592  134.3212  155.7863 H   0  0  0  0  0  0  0  0  0  0  0  0  # atno 11005 bound_to 11000
  146.0682  140.7897  142.9701 LP  0  0  0  0  0  0  0  0  0  0  0  0  # atno 17320 bound_to 7965
  144.6933  140.3301  143.7217 LP  0  0  0  0  0  0  0  0  0  0  0  0  # atno 17321 bound_to 7965
  140.7796  143.4827  150.9997 LP  0  0  0  0  0  0  0  0  0  0  0  0  # atno 17342 bound_to 10162
  139.8515  143.7433  152.3178 LP  0  0  0  0  0  0  0  0  0  0  0  0  # atno 17343 bound_to 10162
  157.4033  131.0813  151.1289 LP  0  0  0  0  0  0  0  0  0  0  0  0  # atno 17370 bound_to 10713
  157.1943  130.6366  149.5715 LP  0  0  0  0  0  0  0  0  0  0  0  0  # atno 17371 bound_to 10713
  141.2192  133.7399  156.9160 LP  0  0  0  0  0  0  0  0  0  0  0  0  # atno 17394 bound_to 11000
  140.1481  134.9249  157.2556 LP  0  0  0  0  0  0  0  0  0  0  0  0  # atno 17395 bound_to 11000

$$$$
