#       Name:                AV-unprocessed.smi:1933
#       Creating user name   scv26
#       Creation time:       Fri Mar 27 09:55:59 2020


#       File generated by GOLD software.
#

@<TRIPOS>MOLECULE
AV-unprocessed.smi:1933
    55    57     1
SMALL
NO_CHARGES


@<TRIPOS>ATOM
      1 ****        -2.7698   0.2627   0.3371 O.2            1 S1                 0.0000
      2 ****        -2.0447   1.0607  -0.2575 C.2            1 S1                 0.0000
      3 ****        -0.9100   0.7103  -0.8796 N.am           1 S1                 0.0000
      4 ****        -0.3539  -0.6389  -0.9343 C.3            1 S1                 0.0000
      5 ****         1.1812  -0.6342  -0.7041 C.3            1 S1                 0.0000
      6 ****         1.5804   0.0799   0.6259 C.3            1 S1                 0.0000
      7 ****         3.0431  -0.0428   1.0648 C.3            1 S1                 0.0000
      8 ****         2.9536  -0.4879   2.5236 C.3            1 S1                 0.0000
      9 ****         1.6859  -0.0186   2.9507 O.3            1 S1                 0.0000
     10 ****         0.7757  -0.2639   1.8910 C.3            1 S1                 0.0000
     11 ****         1.8508  -1.9279  -0.9515 N.3            1 S1                 0.0000
     12 ****         1.7822  -2.3584  -2.3466 C.3            1 S1                 0.0000
     13 ****         2.6132  -3.6277  -2.5935 C.3            1 S1                 0.0000
     14 ****         2.1621  -4.6614  -1.7253 O.3            1 S1                 0.0000
     15 ****         2.2639  -4.3045  -0.3509 C.3            1 S1                 0.0000
     16 ****         1.4511  -3.0269  -0.0748 C.3            1 S1                 0.0000
     17 ****        -2.2705   2.3816  -0.3700 N.am           1 S1                 0.0000
     18 ****        -3.3454   3.1381   0.1682 C.ar           1 S1                 0.0000
     19 ****        -3.3079   4.5210  -0.1215 C.ar           1 S1                 0.0000
     20 ****        -4.3281   5.3596   0.3680 C.ar           1 S1                 0.0000
     21 ****        -5.3609   4.7931   1.1362 C.ar           1 S1                 0.0000
     22 ****        -5.3233   3.4076   1.3787 C.ar           1 S1                 0.0000
     23 ****        -4.3467   2.6021   0.9103 N.ar           1 S1                 0.0000
     24 ****        -0.3815   1.4348  -1.3432 H              1 S1                 0.0000
     25 ****        -0.8401  -1.2928  -0.2093 H              1 S1                 0.0000
     26 ****        -0.6027  -1.0357  -1.9174 H              1 S1                 0.0000
     27 ****         1.5769   0.0336  -1.4709 H              1 S1                 0.0000
     28 ****         1.4152   1.1465   0.4642 H              1 S1                 0.0000
     29 ****         3.6417  -0.7372   0.4762 H              1 S1                 0.0000
     30 ****         3.5288   0.9316   0.9997 H              1 S1                 0.0000
     31 ****         2.9795  -1.5758   2.5984 H              1 S1                 0.0000
     32 ****         3.7597  -0.0847   3.1366 H              1 S1                 0.0000
     33 ****        -0.1139   0.3566   1.9987 H              1 S1                 0.0000
     34 ****         0.4532  -1.3024   1.9243 H              1 S1                 0.0000
     35 ****         0.7503  -2.5639  -2.6304 H              1 S1                 0.0000
     36 ****         2.1376  -1.5619  -3.0010 H              1 S1                 0.0000
     37 ****         2.5048  -3.9574  -3.6267 H              1 S1                 0.0000
     38 ****         3.6743  -3.4357  -2.4266 H              1 S1                 0.0000
     39 ****         1.8940  -5.1278   0.2601 H              1 S1                 0.0000
     40 ****         3.3121  -4.1562  -0.0861 H              1 S1                 0.0000
     41 ****         1.6086  -2.7581   0.9661 H              1 S1                 0.0000
     42 ****         0.3893  -3.2415  -0.1985 H              1 S1                 0.0000
     43 ****        -1.5891   2.9098  -0.8943 H              1 S1                 0.0000
     44 ****        -2.5068   4.9399  -0.7130 H              1 S1                 0.0000
     45 ****        -4.3175   6.4188   0.1573 H              1 S1                 0.0000
     46 ****        -6.1605   5.4036   1.5289 H              1 S1                 0.0000
     47 ****        -6.0973   2.9329   1.9634 H              1 S1                 0.0000
     48 ****        -2.5230  -0.7057   0.3738 LP             1 S1                 0.0000
     49 ****        -3.6054   0.5830   0.7832 LP             1 S1                 0.0000
     50 ****         1.7301   0.9612   3.1458 LP             1 S1                 0.0000
     51 ****         1.3968  -0.5095   3.7725 LP             1 S1                 0.0000
     52 ****         2.8011  -1.7180  -0.7216 LP             1 S1                 0.0000
     53 ****         2.7153  -5.4788  -1.8859 LP             1 S1                 0.0000
     54 ****         1.2047  -4.8605  -1.9346 LP             1 S1                 0.0000
     55 ****        -4.3610   1.6219   1.1079 LP             1 S1                 0.0000
@<TRIPOS>BOND
    1    1    2 2     
    2    2    3 am    
    3    2   17 am    
    4    3    4 1     
    5    3   24 1     
    6    4    5 1     
    7    4   25 1     
    8    4   26 1     
    9    5    6 1     
   10    5   11 1     
   11    5   27 1     
   12    6   10 1     
   13    6    7 1     
   14    6   28 1     
   15    7    8 1     
   16    7   29 1     
   17    7   30 1     
   18    8    9 1     
   19    8   31 1     
   20    8   32 1     
   21    9   10 1     
   22   10   33 1     
   23   10   34 1     
   24   11   16 1     
   25   11   12 1     
   26   12   13 1     
   27   12   35 1     
   28   12   36 1     
   29   13   14 1     
   30   13   37 1     
   31   13   38 1     
   32   14   15 1     
   33   15   16 1     
   34   15   39 1     
   35   15   40 1     
   36   16   41 1     
   37   16   42 1     
   38   17   18 1     
   39   17   43 1     
   40   18   23 ar    
   41   18   19 ar    
   42   19   20 ar    
   43   19   44 1     
   44   20   21 ar    
   45   20   45 1     
   46   21   22 ar    
   47   21   46 1     
   48   22   23 ar    
   49   22   47 1     
   50    1   48 1     
   51    1   49 1     
   52    9   50 1     
   53    9   51 1     
   54   11   52 1     
   55   14   53 1     
   56   14   54 1     
   57   23   55 1     
@<TRIPOS>SUBSTRUCTURE
      1 S1             1
@<TRIPOS>SET
LONE_PAIRS      STATIC     ATOMS    <user>   **** ""
8 48 49 50 51 52 53 54 55
DONOR_HYDROGENS      STATIC     ATOMS    <user>   **** ""
2 24 43
ATOM$BLUE        STATIC     ATOMS    COLORGROUP SYSTEM
8 48 49 50 51 52 53 54 55
ATOM$RED        STATIC     ATOMS    COLORGROUP SYSTEM
2 24 43
