AV-unprocessed.smi:1291|AV-procd|sdf|5392|dock5
  -GOLD-   22720 4543D 1   1.00000     0.00000
 Structure written by MMmdl.
 43 45  0  0  0  0  0  0  0  0  1 V2000
  154.5683  138.5021  158.2024 O   0  0  0  0  0  0  0  0  0  0  0  0
  153.6579  138.7882  159.2452 C   0  0  0  0  0  0  0  0  0  0  0  0
  153.2490  140.2323  159.3212 C   0  0  0  0  0  0  0  0  0  0  0  0
  152.6653  140.8784  158.3088 N   0  0  0  0  0  0  0  0  0  0  0  0
  152.4670  142.1433  158.8253 C   0  0  0  0  0  0  0  0  0  0  0  0
  151.8888  143.2934  158.2418 C   0  0  0  0  0  0  0  0  0  0  0  0
  151.7916  144.4941  158.9755 C   0  0  0  0  0  0  0  0  0  0  0  0
  152.2689  144.5612  160.3004 C   0  0  0  0  0  0  0  0  0  0  0  0
  152.8468  143.4262  160.9010 C   0  0  0  0  0  0  0  0  0  0  0  0
  152.9428  142.2305  160.1637 C   0  0  0  0  0  0  0  0  0  0  0  0
  153.4459  140.9639  160.4469 N   0  0  0  0  0  0  0  0  0  0  0  0
  154.0483  140.5354  161.7034 C   0  0  0  0  0  0  0  0  0  0  0  0
  155.4551  139.9271  161.5248 C   0  0  1  0  0  0  0  0  0  0  0  0
  156.2145  140.7476  160.6583 O   0  0  0  0  0  0  0  0  0  0  0  0
  156.1999  139.8165  162.8648 C   0  0  0  0  0  0  0  0  0  0  0  0
  156.1998  141.0822  163.5041 O   0  0  0  0  0  0  0  0  0  0  0  0
  155.3866  141.1135  164.6670 C   0  0  0  0  0  0  0  0  0  0  0  0
  155.4344  142.4513  165.3866 C   0  0  0  0  0  0  0  0  0  0  0  0
  155.1991  143.6588  164.6914 C   0  0  0  0  0  0  0  0  0  0  0  0
  155.2561  144.8916  165.3700 C   0  0  0  0  0  0  0  0  0  0  0  0
  155.5536  144.9265  166.7454 C   0  0  0  0  0  0  0  0  0  0  0  0
  155.7973  143.7274  167.4415 C   0  0  0  0  0  0  0  0  0  0  0  0
  155.7407  142.4933  166.7647 C   0  0  0  0  0  0  0  0  0  0  0  0
  155.9826  141.3471  167.4452 F   0  0  0  0  0  0  0  0  0  0  0  0
  155.3872  138.2264  158.5845 H   0  0  0  0  0  0  0  0  0  0  0  0
  152.7681  138.1741  159.1052 H   0  0  0  0  0  0  0  0  0  0  0  0
  154.1158  138.4919  160.1884 H   0  0  0  0  0  0  0  0  0  0  0  0
  151.5203  143.2514  157.2277 H   0  0  0  0  0  0  0  0  0  0  0  0
  151.3491  145.3673  158.5194 H   0  0  0  0  0  0  0  0  0  0  0  0
  152.1919  145.4849  160.8552 H   0  0  0  0  0  0  0  0  0  0  0  0
  153.2142  143.4757  161.9151 H   0  0  0  0  0  0  0  0  0  0  0  0
  154.0930  141.3944  162.3742 H   0  0  0  0  0  0  0  0  0  0  0  0
  153.3840  139.8165  162.1834 H   0  0  0  0  0  0  0  0  0  0  0  0
  155.3639  138.9378  161.0758 H   0  0  0  0  0  0  0  0  0  0  0  0
  156.9520  140.2496  160.3409 H   0  0  0  0  0  0  0  0  0  0  0  0
  155.7555  139.0480  163.5000 H   0  0  0  0  0  0  0  0  0  0  0  0
  157.2365  139.5265  162.6855 H   0  0  0  0  0  0  0  0  0  0  0  0
  154.3527  140.9005  164.3903 H   0  0  0  0  0  0  0  0  0  0  0  0
  155.7050  140.3373  165.3645 H   0  0  0  0  0  0  0  0  0  0  0  0
  154.9731  143.6512  163.6353 H   0  0  0  0  0  0  0  0  0  0  0  0
  155.0718  145.8110  164.8340 H   0  0  0  0  0  0  0  0  0  0  0  0
  155.5970  145.8720  167.2655 H   0  0  0  0  0  0  0  0  0  0  0  0
  156.0288  143.7540  168.4961 H   0  0  0  0  0  0  0  0  0  0  0  0
  1  2  1  0  0  0  0
  1 25  1  0  0  0  0
  2  3  1  0  0  0  0
  2 26  1  0  0  0  0
  2 27  1  0  0  0  0
  3 11  1  0  0  0  0
  3  4  2  0  0  0  0
  4  5  1  0  0  0  0
  5 10  2  0  0  0  0
  5  6  1  0  0  0  0
  6  7  2  0  0  0  0
  6 28  1  0  0  0  0
  7  8  1  0  0  0  0
  7 29  1  0  0  0  0
  8  9  2  0  0  0  0
  8 30  1  0  0  0  0
  9 10  1  0  0  0  0
  9 31  1  0  0  0  0
 10 11  1  0  0  0  0
 11 12  1  0  0  0  0
 12 13  1  0  0  0  0
 12 32  1  0  0  0  0
 12 33  1  0  0  0  0
 13 14  1  0  0  0  0
 13 15  1  0  0  0  0
 13 34  1  0  0  0  0
 14 35  1  0  0  0  0
 15 16  1  0  0  0  0
 15 36  1  0  0  0  0
 15 37  1  0  0  0  0
 16 17  1  0  0  0  0
 17 18  1  0  0  0  0
 17 38  1  0  0  0  0
 17 39  1  0  0  0  0
 18 23  1  0  0  0  0
 18 19  2  0  0  0  0
 19 20  1  0  0  0  0
 19 40  1  0  0  0  0
 20 21  2  0  0  0  0
 20 41  1  0  0  0  0
 21 22  1  0  0  0  0
 21 42  1  0  0  0  0
 22 23  2  0  0  0  0
 22 43  1  0  0  0  0
 23 24  1  0  0  0  0
M  END
> <s_m_source_file>
AV-unprocessed.smi

> <i_m_source_file_index>
1291

> <i_lp_mmshare_version>
43012

> <i_f3d_flags>
0

> <s_epik_input>
W2NIXTFbY0hdW2NIXVtjSF1jKGMxMiluKGMobjIpW0NIMl1bT0hdKVtDSDJdW0NASF0oW09IXSlbQ0gyXU9bQ0gyXWMzW2NIXVtjSF1bY0hdW2NIXWMzRg==

> <s_epik_cmdline>
J2VwaWtfcHl0aG9uJywgJy1waCcsICc3LjAnLCAnLXRuJywgJzgnLCAnLW1hJywgJzIwMCcsICctbWV0YWxfYmluZGluZycsICctaW1hZScsICc8aW5maWxlLm1hZT4nLCAnLW9tYWUnLCAnPG91dGZpbGUubWFlPic=

> <r_epik_Ionization_Penalty>
0.0649918

> <r_epik_Ionization_Penalty_Charging>
0

> <r_epik_Ionization_Penalty_Neutral>
0.0649918

> <r_epik_State_Penalty>
0.0565791

> <r_epik_Charging_Adjusted_Penalty>
0.0565791

> <i_epik_Tot_Q>
0

> <i_epik_Tot_abs_Q>
0

> <r_epik_Metal_State_Penalty>
5.93658e-05

> <b_epik_Metal_Only>
0

> <s_lp_Force_Field>
OPLS_2005

> <r_lp_Energy>
17.1818

> <b_lp_Chiralities_Consistent>
1

> <s_lp_Variant>
AV-unprocessed.smi:1291-2

> <Gold.Version>
5.8.1

> <Gold.Id.Protein>
6NUR|6NUR_protein|mol2

> <Gold.PLP.Fitness>
58.3882

> <Gold.PLP.PLP>
-56.3330

> <Gold.PLP.part.hbond>
-3.5713

> <Gold.PLP.part.metal>
0.0000

> <Gold.PLP.part.buried>
-3.1665

> <Gold.PLP.part.nonpolar>
-48.3638

> <Gold.PLP.part.repulsive>
0.0000

> <Gold.PLP.ligand.clash>
0.0000

> <Gold.PLP.ligand.torsion>
0.5721

> <Gold.PLP.Chemscore.Hbond>
1.0000

> <Gold.PLP.Chemscore.CHOScore>
0.0000

> <Gold.PLP.Chemscore.Metal>
0.0000

> <Gold.Chemscore.Hbonds>
donor molecule, donor type, donor heavy atom, donor atom, acceptor molecule, acceptor atom, score
      P1  H  7997  8008       L1     1  1.00

> <Gold.PLP.Chemscore.Internal.Correction>
0.1993

> <Gold.Rescore>
     Score         DG    S(hbond)    S(metal)    S(lipo)     H(rot)  DE(clash)    DE(int)     intcor
     14.81     -18.52       0.85        0.00     159.99       3.33       3.14       0.57       ----

> <Gold.Chemscore.Fitness>
14.8085

> <Gold.Chemscore.DG>
-18.5168

> <Gold.Chemscore.ZeroCoef>
-5.4800

> <Gold.Chemscore.Hbond>
0.8525

> <Gold.Chemscore.Metal>
0.0000

> <Gold.Chemscore.Lipo>
159.9857

> <Gold.Chemscore.Internal_Hbond>
0.0000

> <Gold.Chemscore.DEClash>
3.1427

> <Gold.Chemscore.DEInternal>
0.5656

> <Gold.Chemscore.Rot>
3.3316

> <Gold.Chemscore.Internal.Correction>
   9.000000E+99

> <Gold.Chemscore.Hbonds>
donor molecule, donor type, donor heavy atom, donor atom, acceptor molecule, acceptor atom, score
      P1  H  7997  8008       L1     1  0.44

> <Gold.Chemscore.Hbond.Weighted>
-2.8473

> <Gold.Chemscore.Metal.Weighted>
-0.0000

> <Gold.Chemscore.Lipo.Weighted>
-18.7183

> <Gold.Chemscore.Internal_Hbond.Weighted>
0.0000

> <Gold.Chemscore.DEClash.Weighted>
3.1427

> <Gold.Chemscore.DEInternal.Weighted>
0.5656

> <Gold.Chemscore.Rot.Weighted>
8.5288

> <Gold.Chemscore.Internal.Correction.Weighted>
   9.000000E+99

> <Gold.Protein.RotatedTorsions>
[ 6907 6896 6895 6894 ] final  123.62 input  -60.11 | X-H torsion
[ 7974 7965 7964 7962 ] final  137.68 input  175.53 | X-H torsion
[ 8008 7997 7996 7995 ] final -106.58 input   59.86 | X-H torsion
[ 10167 10162 10161 10158 ] final   30.24 input  -65.29 | X-H torsion
[ 10718 10713 10712 10709 ] final  -47.91 input   66.30 | X-H torsion
[ 10763 10752 10751 10750 ] final   98.25 input  -60.55 | X-H torsion
[ 11005 11000 10999 10996 ] final -131.36 input  -57.11 | X-H torsion

> <Gold.Protein.ActiveResidues>
 VAL166  LYS551  ARG553  GLY616  TRP617  ASP618  TYR619  PRO620  LYS621  CYS622 
 ASP623  PHE694  ASN695  SER759  ASP760  ASP761  ALA762  ILE779  LEU786  VAL792 
 PHE793  MET794  SER795  GLU796  ALA797  LYS798  CYS799  TRP800  GLU811  SER814 

> <Gold.Protein.RotatedAtoms>
  152.4146  133.7018  159.6427 H   0  0  0  0  0  0  0  0  0  0  0  0  # atno 6907 bound_to 6896
  150.8024  133.8562  159.3228 H   0  0  0  0  0  0  0  0  0  0  0  0  # atno 6908 bound_to 6896
  151.6295  135.1026  160.0170 H   0  0  0  0  0  0  0  0  0  0  0  0  # atno 6909 bound_to 6896
  144.9444  139.4892  143.5556 H   0  0  0  0  0  0  0  0  0  0  0  0  # atno 7974 bound_to 7965
  154.9166  140.0408  157.1975 H   0  0  0  0  0  0  0  0  0  0  0  0  # atno 8008 bound_to 7997
  154.8295  140.2897  155.5710 H   0  0  0  0  0  0  0  0  0  0  0  0  # atno 8009 bound_to 7997
  156.2986  140.2503  156.3218 H   0  0  0  0  0  0  0  0  0  0  0  0  # atno 8010 bound_to 7997
  140.4695  144.0784  150.6233 H   0  0  0  0  0  0  0  0  0  0  0  0  # atno 10167 bound_to 10162
  156.2039  130.4157  149.9204 H   0  0  0  0  0  0  0  0  0  0  0  0  # atno 10718 bound_to 10713
  153.2868  135.4155  155.1130 H   0  0  0  0  0  0  0  0  0  0  0  0  # atno 10763 bound_to 10752
  154.8507  135.3508  154.6036 H   0  0  0  0  0  0  0  0  0  0  0  0  # atno 10764 bound_to 10752
  153.6458  135.7055  153.5284 H   0  0  0  0  0  0  0  0  0  0  0  0  # atno 10765 bound_to 10752
  140.9266  134.1375  157.4270 H   0  0  0  0  0  0  0  0  0  0  0  0  # atno 11005 bound_to 11000
  146.3298  139.8486  142.8877 LP  0  0  0  0  0  0  0  0  0  0  0  0  # atno 17320 bound_to 7965
  145.2940  141.0175  143.3646 LP  0  0  0  0  0  0  0  0  0  0  0  0  # atno 17321 bound_to 7965
  140.3994  143.2711  151.9965 LP  0  0  0  0  0  0  0  0  0  0  0  0  # atno 17342 bound_to 10162
  139.4816  144.6010  151.7606 LP  0  0  0  0  0  0  0  0  0  0  0  0  # atno 17343 bound_to 10162
  156.6904  130.8893  151.3587 LP  0  0  0  0  0  0  0  0  0  0  0  0  # atno 17370 bound_to 10713
  157.7001  130.9324  150.0760 LP  0  0  0  0  0  0  0  0  0  0  0  0  # atno 17371 bound_to 10713
  139.8787  134.9990  156.5932 LP  0  0  0  0  0  0  0  0  0  0  0  0  # atno 17394 bound_to 11000
  140.7918  133.8576  155.8653 LP  0  0  0  0  0  0  0  0  0  0  0  0  # atno 17395 bound_to 11000

$$$$
