AV-unprocessed.smi:491|AV-procd|sdf|2707|dock8
  -GOLD-   2262023153D 1   1.00000     0.00000
 Structure written by MMmdl.
 45 46  0  0  0  0  0  0  0  0  1 V2000
  146.3895  133.1594  162.2288 C   0  0  0  0  0  0  0  0  0  0  0  0
  147.0327  134.5518  162.1473 C   0  0  0  0  0  0  0  0  0  0  0  0
  147.6289  134.8217  160.8648 N   0  0  0  0  0  0  0  0  0  0  0  0
  147.8254  133.8248  159.9322 C   0  0  0  0  0  0  0  0  0  0  0  0
  148.3820  134.0583  158.7261 C   0  0  0  0  0  0  0  0  0  0  0  0
  148.5809  133.0142  157.7761 C   0  0  0  0  0  0  0  0  0  0  0  0
  148.7670  132.1690  157.0078 N   0  0  0  0  0  0  0  0  0  0  0  0
  148.8112  135.4004  158.3414 C   0  0  0  0  0  0  0  0  0  0  0  0
  149.3466  135.6587  157.2623 O   0  0  0  0  0  0  0  0  0  0  0  0
  148.5864  136.4151  159.3068 N   0  0  0  0  0  0  0  0  0  0  0  0
  149.0224  137.7974  158.9950 C   0  0  0  0  0  0  0  0  0  0  0  0
  150.5455  138.0181  159.0464 C   0  0  0  0  0  0  0  0  0  0  0  0
  151.2895  137.0507  159.2010 O   0  0  0  0  0  0  0  0  0  0  0  0
  151.0023  139.2741  158.9262 N   0  0  0  0  0  0  0  0  0  0  0  0
  152.4002  139.6749  158.9771 C   0  0  0  0  0  0  0  0  0  0  0  0
  152.5360  141.2093  158.9378 C   0  0  0  0  0  0  0  0  0  0  0  0
  152.6396  141.7901  160.3627 C   0  0  0  0  0  0  0  0  0  0  0  0
  152.7928  143.3197  160.3448 C   0  0  0  0  0  0  0  0  0  0  0  0
  151.6418  143.9847  159.5751 C   0  0  0  0  0  0  0  0  0  0  0  0
  151.5317  143.4194  158.1511 C   0  0  0  0  0  0  0  0  0  0  0  0
  151.3812  141.8897  158.1663 C   0  0  0  0  0  0  0  0  0  0  0  0
  148.0016  136.1536  160.5700 C   0  0  0  0  0  0  0  0  0  0  0  0
  147.8344  137.0608  161.3890 O   0  0  0  0  0  0  0  0  0  0  0  0
  145.9804  132.9820  163.2233 H   0  0  0  0  0  0  0  0  0  0  0  0
  147.1209  132.3763  162.0268 H   0  0  0  0  0  0  0  0  0  0  0  0
  145.5746  133.0497  161.5129 H   0  0  0  0  0  0  0  0  0  0  0  0
  146.3243  135.3552  162.3580 H   0  0  0  0  0  0  0  0  0  0  0  0
  147.8376  134.6464  162.8775 H   0  0  0  0  0  0  0  0  0  0  0  0
  147.5225  132.8165  160.1765 H   0  0  0  0  0  0  0  0  0  0  0  0
  148.6682  138.1023  158.0092 H   0  0  0  0  0  0  0  0  0  0  0  0
  148.5549  138.5155  159.6702 H   0  0  0  0  0  0  0  0  0  0  0  0
  150.3244  140.0115  158.8010 H   0  0  0  0  0  0  0  0  0  0  0  0
  152.8526  139.2763  159.8866 H   0  0  0  0  0  0  0  0  0  0  0  0
  152.9324  139.2326  158.1333 H   0  0  0  0  0  0  0  0  0  0  0  0
  153.4668  141.4434  158.4180 H   0  0  0  0  0  0  0  0  0  0  0  0
  151.7504  141.5220  160.9354 H   0  0  0  0  0  0  0  0  0  0  0  0
  153.4877  141.3467  160.8860 H   0  0  0  0  0  0  0  0  0  0  0  0
  152.8259  143.7014  161.3656 H   0  0  0  0  0  0  0  0  0  0  0  0
  153.7447  143.5869  159.8837 H   0  0  0  0  0  0  0  0  0  0  0  0
  150.7035  143.8223  160.1071 H   0  0  0  0  0  0  0  0  0  0  0  0
  151.7936  145.0638  159.5370 H   0  0  0  0  0  0  0  0  0  0  0  0
  150.6825  143.8703  157.6369 H   0  0  0  0  0  0  0  0  0  0  0  0
  152.4197  143.6928  157.5796 H   0  0  0  0  0  0  0  0  0  0  0  0
  151.3408  141.5301  157.1377 H   0  0  0  0  0  0  0  0  0  0  0  0
  150.4268  141.6228  158.6222 H   0  0  0  0  0  0  0  0  0  0  0  0
  1  2  1  0  0  0  0
  1 24  1  0  0  0  0
  1 25  1  0  0  0  0
  1 26  1  0  0  0  0
  2  3  1  0  0  0  0
  2 27  1  0  0  0  0
  2 28  1  0  0  0  0
  3 22  1  0  0  0  0
  3  4  1  0  0  0  0
  4  5  2  0  0  0  0
  4 29  1  0  0  0  0
  5  6  1  0  0  0  0
  5  8  1  0  0  0  0
  6  7  3  0  0  0  0
  8  9  2  0  0  0  0
  8 10  1  0  0  0  0
 10 11  1  0  0  0  0
 10 22  1  0  0  0  0
 11 12  1  0  0  0  0
 11 30  1  0  0  0  0
 11 31  1  0  0  0  0
 12 13  2  0  0  0  0
 12 14  1  0  0  0  0
 14 15  1  0  0  0  0
 14 32  1  0  0  0  0
 15 16  1  0  0  0  0
 15 33  1  0  0  0  0
 15 34  1  0  0  0  0
 16 21  1  0  0  0  0
 16 17  1  0  0  0  0
 16 35  1  0  0  0  0
 17 18  1  0  0  0  0
 17 36  1  0  0  0  0
 17 37  1  0  0  0  0
 18 19  1  0  0  0  0
 18 38  1  0  0  0  0
 18 39  1  0  0  0  0
 19 20  1  0  0  0  0
 19 40  1  0  0  0  0
 19 41  1  0  0  0  0
 20 21  1  0  0  0  0
 20 42  1  0  0  0  0
 20 43  1  0  0  0  0
 21 44  1  0  0  0  0
 21 45  1  0  0  0  0
 22 23  2  0  0  0  0
M  END
> <s_m_source_file>
AV-unprocessed.smi

> <i_m_source_file_index>
491

> <i_lp_mmshare_version>
43012

> <i_f3d_flags>
0

> <s_epik_input>
W0NIM11bQ0gyXW4xW2NIXWMoQyNOKWMoPU8pbihjMT1PKVtDSDJdQyg9TylbTkhdW0NIMl1bQ0hdMltDSDJdW0NIMl1bQ0gyXVtDSDJdW0NIMl0y

> <s_epik_cmdline>
J2VwaWtfcHl0aG9uJywgJy1waCcsICc3LjAnLCAnLXRuJywgJzgnLCAnLW1hJywgJzIwMCcsICctbWV0YWxfYmluZGluZycsICctaW1hZScsICc8aW5maWxlLm1hZT4nLCAnLW9tYWUnLCAnPG91dGZpbGUubWFlPic=

> <r_lp_tautomer_probability>
1

> <r_epik_Ionization_Penalty>
1.98356e-08

> <r_epik_Ionization_Penalty_Charging>
3.77777e-11

> <r_epik_Ionization_Penalty_Neutral>
1.97978e-08

> <r_epik_State_Penalty>
-0

> <r_epik_Charging_Adjusted_Penalty>
3.77777e-11

> <i_epik_Tot_Q>
0

> <i_epik_Tot_abs_Q>
0

> <r_epik_Metal_State_Penalty>
-0

> <b_epik_Metal_Only>
0

> <s_lp_Force_Field>
OPLS_2005

> <r_lp_Energy>
13.3995

> <b_lp_Chiralities_Consistent>
1

> <s_lp_Variant>
AV-unprocessed.smi:491-1

> <Gold.Version>
5.8.1

> <Gold.Id.Protein>
6NUR|6NUR_protein|mol2

> <Gold.PLP.Fitness>
48.2546

> <Gold.PLP.PLP>
-41.4644

> <Gold.PLP.part.hbond>
-3.0000

> <Gold.PLP.part.metal>
0.0000

> <Gold.PLP.part.buried>
-4.6949

> <Gold.PLP.part.nonpolar>
-34.4675

> <Gold.PLP.part.repulsive>
0.1610

> <Gold.PLP.ligand.clash>
0.0029

> <Gold.PLP.ligand.torsion>
0.8043

> <Gold.PLP.Chemscore.Hbond>
2.7920

> <Gold.PLP.Chemscore.CHOScore>
0.0000

> <Gold.PLP.Chemscore.Metal>
0.0000

> <Gold.Chemscore.Hbonds>
donor molecule, donor type, donor heavy atom, donor atom, acceptor molecule, acceptor atom, score
      P1  H  6896  6908       L1    13  1.00
      P1  H  6931  6943       L1    23  1.00
      P1  H  6934  6947       L1    23  0.61

> <Gold.PLP.Chemscore.Internal.Correction>
0.0258

> <Gold.Rescore>
     Score         DG    S(hbond)    S(metal)    S(lipo)     H(rot)  DE(clash)    DE(int)     intcor
     19.39     -20.38       2.66        0.00      94.07       1.95       0.06       0.92       ----

> <Gold.Chemscore.Fitness>
19.3942

> <Gold.Chemscore.DG>
-20.3755

> <Gold.Chemscore.ZeroCoef>
-5.4800

> <Gold.Chemscore.Hbond>
2.6558

> <Gold.Chemscore.Metal>
0.0000

> <Gold.Chemscore.Lipo>
94.0731

> <Gold.Chemscore.Internal_Hbond>
0.0000

> <Gold.Chemscore.DEClash>
0.0580

> <Gold.Chemscore.DEInternal>
0.9233

> <Gold.Chemscore.Rot>
1.9458

> <Gold.Chemscore.Internal.Correction>
   9.000000E+99

> <Gold.Chemscore.Hbonds>
donor molecule, donor type, donor heavy atom, donor atom, acceptor molecule, acceptor atom, score
      P1  H  6896  6908       L1    13  0.93
      P1  H  6931  6943       L1    23  0.98
      P1  H  6934  6947       L1    23  0.59

> <Gold.Chemscore.Hbond.Weighted>
-8.8703

> <Gold.Chemscore.Metal.Weighted>
-0.0000

> <Gold.Chemscore.Lipo.Weighted>
-11.0066

> <Gold.Chemscore.Internal_Hbond.Weighted>
0.0000

> <Gold.Chemscore.DEClash.Weighted>
0.0580

> <Gold.Chemscore.DEInternal.Weighted>
0.9233

> <Gold.Chemscore.Rot.Weighted>
4.9813

> <Gold.Chemscore.Internal.Correction.Weighted>
   9.000000E+99

> <Gold.Protein.RotatedTorsions>
[ 6907 6896 6895 6894 ] final -130.97 input  -60.11 | X-H torsion
[ 7974 7965 7964 7962 ] final  -51.61 input  175.53 | X-H torsion
[ 8008 7997 7996 7995 ] final -119.68 input   59.86 | X-H torsion
[ 10167 10162 10161 10158 ] final   -6.42 input  -65.29 | X-H torsion
[ 10718 10713 10712 10709 ] final   67.77 input   66.30 | X-H torsion
[ 10763 10752 10751 10750 ] final   84.07 input  -60.55 | X-H torsion
[ 11005 11000 10999 10996 ] final  -37.04 input  -57.11 | X-H torsion

> <Gold.Protein.ActiveResidues>
 VAL166  LYS551  ARG553  GLY616  TRP617  ASP618  TYR619  PRO620  LYS621  CYS622 
 ASP623  PHE694  ASN695  SER759  ASP760  ASP761  ALA762  ILE779  LEU786  VAL792 
 PHE793  MET794  SER795  GLU796  ALA797  LYS798  CYS799  TRP800  GLU811  SER814 

> <Gold.Protein.RotatedAtoms>
  150.9457  133.6605  159.2781 H   0  0  0  0  0  0  0  0  0  0  0  0  # atno 6907 bound_to 6896
  151.3979  135.0965  159.9556 H   0  0  0  0  0  0  0  0  0  0  0  0  # atno 6908 bound_to 6896
  152.5089  133.8958  159.7471 H   0  0  0  0  0  0  0  0  0  0  0  0  # atno 6909 bound_to 6896
  145.9170  140.7866  142.9666 H   0  0  0  0  0  0  0  0  0  0  0  0  # atno 7974 bound_to 7965
  155.1197  140.0398  157.2746 H   0  0  0  0  0  0  0  0  0  0  0  0  # atno 8008 bound_to 7997
  154.6623  140.2593  155.7070 H   0  0  0  0  0  0  0  0  0  0  0  0  # atno 8009 bound_to 7997
  156.2624  140.2814  156.1100 H   0  0  0  0  0  0  0  0  0  0  0  0  # atno 8010 bound_to 7997
  140.6996  143.6196  150.8625 H   0  0  0  0  0  0  0  0  0  0  0  0  # atno 10167 bound_to 10162
  157.6250  130.9338  150.0287 H   0  0  0  0  0  0  0  0  0  0  0  0  # atno 10718 bound_to 10713
  153.1348  135.4668  154.9405 H   0  0  0  0  0  0  0  0  0  0  0  0  # atno 10763 bound_to 10752
  154.7696  135.3155  154.8219 H   0  0  0  0  0  0  0  0  0  0  0  0  # atno 10764 bound_to 10752
  153.8754  135.6899  153.4825 H   0  0  0  0  0  0  0  0  0  0  0  0  # atno 10765 bound_to 10752
  140.9922  133.6999  156.1869 H   0  0  0  0  0  0  0  0  0  0  0  0  # atno 11005 bound_to 11000
  144.6749  140.1916  143.7396 LP  0  0  0  0  0  0  0  0  0  0  0  0  # atno 17320 bound_to 7965
  145.8598  139.2217  143.1723 LP  0  0  0  0  0  0  0  0  0  0  0  0  # atno 17321 bound_to 7965
  139.9917  143.5840  152.2908 LP  0  0  0  0  0  0  0  0  0  0  0  0  # atno 17342 bound_to 10162
  139.6498  144.7660  151.2172 LP  0  0  0  0  0  0  0  0  0  0  0  0  # atno 17343 bound_to 10162
  156.1416  130.3642  149.9573 LP  0  0  0  0  0  0  0  0  0  0  0  0  # atno 17370 bound_to 10713
  156.7612  130.9152  151.3641 LP  0  0  0  0  0  0  0  0  0  0  0  0  # atno 17371 bound_to 10713
  140.7023  134.4551  157.5585 LP  0  0  0  0  0  0  0  0  0  0  0  0  # atno 17394 bound_to 11000
  139.8997  134.8584  156.1948 LP  0  0  0  0  0  0  0  0  0  0  0  0  # atno 17395 bound_to 11000

$$$$
