AV-unprocessed.smi:3175|AV-procd|sdf|12123|dock5
  -GOLD-   2272017563D 1   1.00000     0.00000
 Structure written by MMmdl.
 38 39  0  0  0  0  0  0  0  0  2 V2000
  151.8679  140.5673  158.5611 O   0  0  0  0  0  0  0  0  0  0  0  0
  151.5607  141.7529  158.4390 C   0  0  0  0  0  0  0  0  0  0  0  0
  152.3071  142.8307  159.2313 C   0  0  0  0  0  0  0  0  0  0  0  0
  152.4776  142.4802  160.7238 C   0  0  0  0  0  0  0  0  0  0  0  0
  152.5308  143.7081  161.6347 C   0  0  0  0  0  0  0  0  0  0  0  0
  153.1413  143.1952  162.9417 C   0  0  0  0  0  0  0  0  0  0  0  0
  154.0108  141.9875  162.5606 C   0  0  0  0  0  0  0  0  0  0  0  0
  153.7765  141.7387  161.0651 C   0  0  0  0  0  0  0  0  0  0  0  0
  150.5708  142.1771  157.6388 N   0  0  0  0  0  0  0  0  0  0  0  0
  149.7406  141.3160  156.8013 C   0  0  0  0  0  0  0  0  0  0  0  0
  149.9279  141.5780  155.2937 C   0  0  0  0  0  0  0  0  0  0  0  0
  149.0418  140.7146  154.4125 C   0  0  0  0  0  0  0  0  0  0  0  0
  147.8273  141.2215  153.9004 C   0  0  0  0  0  0  0  0  0  0  0  0
  147.0207  140.3961  153.0893 C   0  0  0  0  0  0  0  0  0  0  0  0
  147.4473  139.0819  152.8084 C   0  0  0  0  0  0  0  0  0  0  0  0
  148.6159  138.6314  153.3157 N   0  3  0  0  0  0  0  0  0  0  0  0
  149.4168  139.3906  154.0950 C   0  0  0  0  0  0  0  0  0  0  0  0
  153.2836  143.0118  158.7792 H   0  0  0  0  0  0  0  0  0  0  0  0
  151.7480  143.7621  159.1368 H   0  0  0  0  0  0  0  0  0  0  0  0
  151.6367  141.8646  161.0490 H   0  0  0  0  0  0  0  0  0  0  0  0
  153.1844  144.4668  161.2017 H   0  0  0  0  0  0  0  0  0  0  0  0
  151.5505  144.1619  161.7837 H   0  0  0  0  0  0  0  0  0  0  0  0
  153.7132  143.9705  163.4525 H   0  0  0  0  0  0  0  0  0  0  0  0
  152.3483  142.8747  163.6188 H   0  0  0  0  0  0  0  0  0  0  0  0
  155.0662  142.1724  162.7631 H   0  0  0  0  0  0  0  0  0  0  0  0
  153.7156  141.1156  163.1454 H   0  0  0  0  0  0  0  0  0  0  0  0
  153.7249  140.6756  160.8273 H   0  0  0  0  0  0  0  0  0  0  0  0
  154.6056  142.1618  160.4958 H   0  0  0  0  0  0  0  0  0  0  0  0
  150.3880  143.1693  157.5961 H   0  0  0  0  0  0  0  0  0  0  0  0
  150.0119  140.2844  157.0268 H   0  0  0  0  0  0  0  0  0  0  0  0
  148.6905  141.4240  157.0775 H   0  0  0  0  0  0  0  0  0  0  0  0
  149.7248  142.6276  155.0772 H   0  0  0  0  0  0  0  0  0  0  0  0
  150.9699  141.4131  155.0164 H   0  0  0  0  0  0  0  0  0  0  0  0
  147.5154  142.2307  154.1275 H   0  0  0  0  0  0  0  0  0  0  0  0
  146.0884  140.7663  152.6887 H   0  0  0  0  0  0  0  0  0  0  0  0
  146.8936  138.3833  152.1983 H   0  0  0  0  0  0  0  0  0  0  0  0
  150.3237  138.9174  154.4432 H   0  0  0  0  0  0  0  0  0  0  0  0
  148.9063  137.6771  153.1008 H   0  0  0  0  0  0  0  0  0  0  0  0
  1  2  2  0  0  0  0
  2  3  1  0  0  0  0
  2  9  1  0  0  0  0
  3  4  1  0  0  0  0
  3 18  1  0  0  0  0
  3 19  1  0  0  0  0
  4  8  1  0  0  0  0
  4  5  1  0  0  0  0
  4 20  1  0  0  0  0
  5  6  1  0  0  0  0
  5 21  1  0  0  0  0
  5 22  1  0  0  0  0
  6  7  1  0  0  0  0
  6 23  1  0  0  0  0
  6 24  1  0  0  0  0
  7  8  1  0  0  0  0
  7 25  1  0  0  0  0
  7 26  1  0  0  0  0
  8 27  1  0  0  0  0
  8 28  1  0  0  0  0
  9 10  1  0  0  0  0
  9 29  1  0  0  0  0
 10 11  1  0  0  0  0
 10 30  1  0  0  0  0
 10 31  1  0  0  0  0
 11 12  1  0  0  0  0
 11 32  1  0  0  0  0
 11 33  1  0  0  0  0
 12 17  1  0  0  0  0
 12 13  2  0  0  0  0
 13 14  1  0  0  0  0
 13 34  1  0  0  0  0
 14 15  2  0  0  0  0
 14 35  1  0  0  0  0
 15 16  1  0  0  0  0
 15 36  1  0  0  0  0
 16 17  2  0  0  0  0
 16 38  1  0  0  0  0
 17 37  1  0  0  0  0
M  CHG  1  16   1
M  END
> <s_m_source_file>
AV-unprocessed.smi

> <i_m_source_file_index>
3175

> <i_lp_mmshare_version>
43012

> <i_f3d_flags>
0

> <s_epik_input>
W0NIMl0xW0NIMl1bQ0gyXVtDSDJdW0NIXTFbQ0gyXUMoPU8pW05IXVtDSDJdW0NIMl1jMltjSF1bY0hdW2NIXW5bY0hdMg==

> <s_epik_cmdline>
J2VwaWtfcHl0aG9uJywgJy1waCcsICc3LjAnLCAnLXRuJywgJzgnLCAnLW1hJywgJzIwMCcsICctbWV0YWxfYmluZGluZycsICctaW1hZScsICc8aW5maWxlLm1hZT4nLCAnLW9tYWUnLCAnPG91dGZpbGUubWFlPic=

> <r_epik_Ionization_Penalty>
2.25127

> <r_epik_Ionization_Penalty_Charging>
2.25127

> <r_epik_Ionization_Penalty_Neutral>
2.03742e-08

> <r_epik_State_Penalty>
2.39841

> <r_epik_Charging_Adjusted_Penalty>
4.64968

> <i_epik_Tot_Q>
1

> <i_epik_Tot_abs_Q>
1

> <r_epik_Metal_State_Penalty>
2.41158

> <b_epik_Metal_Only>
0

> <s_lp_Force_Field>
OPLS_2005

> <r_lp_Energy>
27.035

> <b_lp_Chiralities_Consistent>
1

> <s_lp_Variant>
AV-unprocessed.smi:3175-2

> <Gold.Version>
5.8.1

> <Gold.Id.Protein>
6NUR|6NUR_protein|mol2

> <Gold.PLP.Fitness>
46.1866

> <Gold.PLP.PLP>
-41.8829

> <Gold.PLP.part.hbond>
-2.0000

> <Gold.PLP.part.metal>
0.0000

> <Gold.PLP.part.buried>
-0.3416

> <Gold.PLP.part.nonpolar>
-38.8227

> <Gold.PLP.part.repulsive>
0.0831

> <Gold.PLP.ligand.clash>
0.0000

> <Gold.PLP.ligand.torsion>
0.8540

> <Gold.PLP.Chemscore.Hbond>
2.0000

> <Gold.PLP.Chemscore.CHOScore>
0.0000

> <Gold.PLP.Chemscore.Metal>
0.0000

> <Gold.Chemscore.Hbonds>
donor molecule, donor type, donor heavy atom, donor atom, acceptor molecule, acceptor atom, score
      L1  H    16    38       P1  7948  1.95

> <Gold.PLP.Chemscore.Internal.Correction>
0.0117

> <Gold.Rescore>
     Score         DG    S(hbond)    S(metal)    S(lipo)     H(rot)  DE(clash)    DE(int)     intcor
     16.98     -18.33       0.91        0.00     118.74       1.59       0.51       0.84       ----

> <Gold.Chemscore.Fitness>
16.9792

> <Gold.Chemscore.DG>
-18.3293

> <Gold.Chemscore.ZeroCoef>
-5.4800

> <Gold.Chemscore.Hbond>
0.9089

> <Gold.Chemscore.Metal>
0.0000

> <Gold.Chemscore.Lipo>
118.7398

> <Gold.Chemscore.Internal_Hbond>
0.0000

> <Gold.Chemscore.DEClash>
0.5064

> <Gold.Chemscore.DEInternal>
0.8437

> <Gold.Chemscore.Rot>
1.5933

> <Gold.Chemscore.Internal.Correction>
   9.000000E+99

> <Gold.Chemscore.Hbonds>
donor molecule, donor type, donor heavy atom, donor atom, acceptor molecule, acceptor atom, score
      L1  H    16    38       P1  7948  0.92

> <Gold.Chemscore.Hbond.Weighted>
-3.0357

> <Gold.Chemscore.Metal.Weighted>
-0.0000

> <Gold.Chemscore.Lipo.Weighted>
-13.8926

> <Gold.Chemscore.Internal_Hbond.Weighted>
0.0000

> <Gold.Chemscore.DEClash.Weighted>
0.5064

> <Gold.Chemscore.DEInternal.Weighted>
0.8437

> <Gold.Chemscore.Rot.Weighted>
4.0789

> <Gold.Chemscore.Internal.Correction.Weighted>
   9.000000E+99

> <Gold.Protein.RotatedTorsions>
[ 6907 6896 6895 6894 ] final  -59.32 input  -60.11 | X-H torsion
[ 7974 7965 7964 7962 ] final -119.54 input  175.53 | X-H torsion
[ 8008 7997 7996 7995 ] final   96.93 input   59.86 | X-H torsion
[ 10167 10162 10161 10158 ] final -144.87 input  -65.29 | X-H torsion
[ 10718 10713 10712 10709 ] final  -26.13 input   66.30 | X-H torsion
[ 10763 10752 10751 10750 ] final  -49.48 input  -60.55 | X-H torsion
[ 11005 11000 10999 10996 ] final  127.37 input  -57.11 | X-H torsion

> <Gold.Protein.ActiveResidues>
 VAL166  LYS551  ARG553  GLY616  TRP617  ASP618  TYR619  PRO620  LYS621  CYS622 
 ASP623  PHE694  ASN695  SER759  ASP760  ASP761  ALA762  ILE779  LEU786  VAL792 
 PHE793  MET794  SER795  GLU796  ALA797  LYS798  CYS799  TRP800  GLU811  SER814 

> <Gold.Protein.RotatedAtoms>
  150.7939  134.6984  159.6535 H   0  0  0  0  0  0  0  0  0  0  0  0  # atno 6907 bound_to 6896
  152.4049  134.6220  160.0063 H   0  0  0  0  0  0  0  0  0  0  0  0  # atno 6908 bound_to 6896
  151.6481  133.3285  159.3181 H   0  0  0  0  0  0  0  0  0  0  0  0  # atno 6909 bound_to 6896
  145.0614  140.8293  143.4150 H   0  0  0  0  0  0  0  0  0  0  0  0  # atno 7974 bound_to 7965
  156.0848  140.3265  155.7739 H   0  0  0  0  0  0  0  0  0  0  0  0  # atno 8008 bound_to 7997
  155.5094  140.0576  157.2943 H   0  0  0  0  0  0  0  0  0  0  0  0  # atno 8009 bound_to 7997
  154.4603  140.1963  156.0281 H   0  0  0  0  0  0  0  0  0  0  0  0  # atno 8010 bound_to 7997
  139.7859  143.8035  152.2644 H   0  0  0  0  0  0  0  0  0  0  0  0  # atno 10167 bound_to 10162
  156.4553  130.4492  149.6963 H   0  0  0  0  0  0  0  0  0  0  0  0  # atno 10718 bound_to 10713
  154.0948  135.6572  153.4858 H   0  0  0  0  0  0  0  0  0  0  0  0  # atno 10763 bound_to 10752
  153.0309  135.5211  154.7344 H   0  0  0  0  0  0  0  0  0  0  0  0  # atno 10764 bound_to 10752
  154.6479  135.2997  154.9992 H   0  0  0  0  0  0  0  0  0  0  0  0  # atno 10765 bound_to 10752
  139.9504  134.9623  156.8845 H   0  0  0  0  0  0  0  0  0  0  0  0  # atno 11005 bound_to 11000
  145.1404  139.2576  143.5493 LP  0  0  0  0  0  0  0  0  0  0  0  0  # atno 17320 bound_to 7965
  146.3524  140.1079  142.8605 LP  0  0  0  0  0  0  0  0  0  0  0  0  # atno 17321 bound_to 7965
  139.8112  144.7335  150.9695 LP  0  0  0  0  0  0  0  0  0  0  0  0  # atno 17342 bound_to 10162
  140.7819  143.4249  151.0784 LP  0  0  0  0  0  0  0  0  0  0  0  0  # atno 17343 bound_to 10162
  156.3773  130.7561  151.2551 LP  0  0  0  0  0  0  0  0  0  0  0  0  # atno 17370 bound_to 10713
  157.7501  131.0305  150.4142 LP  0  0  0  0  0  0  0  0  0  0  0  0  # atno 17371 bound_to 10713
  140.5733  134.0422  155.7438 LP  0  0  0  0  0  0  0  0  0  0  0  0  # atno 17394 bound_to 11000
  141.1165  133.9531  157.2812 LP  0  0  0  0  0  0  0  0  0  0  0  0  # atno 17395 bound_to 11000

$$$$
