AV-unprocessed.smi:3156|AV-procd|sdf|12034|dock5
  -GOLD-   2272017453D 1   1.00000     0.00000
 Structure written by MMmdl.
 41 42  0  0  0  0  0  0  0  0  2 V2000
  147.5661  141.8690  154.6624 C   0  0  0  0  0  0  0  0  0  0  0  0
  148.9782  141.3965  155.0557 C   0  0  1  0  0  0  0  0  0  0  0  0
  149.5999  142.3722  155.9812 N   0  3  0  0  0  0  0  0  0  0  0  0
  151.0021  142.0969  156.3600 C   0  0  0  0  0  0  0  0  0  0  0  0
  151.4679  143.0308  157.4882 C   0  0  2  0  0  0  0  0  0  0  0  0
  151.8405  144.4438  156.9899 C   0  0  0  0  0  0  0  0  0  0  0  0
  152.3524  145.3039  158.1503 C   0  0  0  0  0  0  0  0  0  0  0  0
  153.4799  144.5658  158.8800 C   0  0  0  0  0  0  0  0  0  0  0  0
  153.0206  143.1576  159.2917 C   0  0  0  0  0  0  0  0  0  0  0  0
  152.5811  142.4308  158.1476 O   0  0  0  0  0  0  0  0  0  0  0  0
  148.9769  139.9858  155.7069 C   0  0  1  0  0  0  0  0  0  0  0  0
  148.0897  138.9733  154.9593 C   0  0  0  0  0  0  0  0  0  0  0  0
  150.3277  139.4470  155.8357 N   0  0  0  0  0  0  0  0  0  0  0  0
  150.9987  139.0978  156.9900 C   0  0  0  0  0  0  0  0  0  0  0  0
  152.2310  138.6376  156.6241 C   0  0  0  0  0  0  0  0  0  0  0  0
  152.2181  138.7280  155.2046 C   0  0  0  0  0  0  0  0  0  0  0  0
  151.0782  139.2083  154.7359 N   0  0  0  0  0  0  0  0  0  0  0  0
  147.1128  141.2102  153.9225 H   0  0  0  0  0  0  0  0  0  0  0  0
  147.5856  142.8649  154.2200 H   0  0  0  0  0  0  0  0  0  0  0  0
  146.9037  141.9044  155.5279 H   0  0  0  0  0  0  0  0  0  0  0  0
  149.5879  141.3493  154.1519 H   0  0  0  0  0  0  0  0  0  0  0  0
  149.5301  143.3019  155.5926 H   0  0  0  0  0  0  0  0  0  0  0  0
  151.0970  141.0616  156.6900 H   0  0  0  0  0  0  0  0  0  0  0  0
  151.6462  142.2153  155.4886 H   0  0  0  0  0  0  0  0  0  0  0  0
  150.6502  143.1167  158.2061 H   0  0  0  0  0  0  0  0  0  0  0  0
  152.6145  144.3835  156.2238 H   0  0  0  0  0  0  0  0  0  0  0  0
  150.9781  144.9210  156.5232 H   0  0  0  0  0  0  0  0  0  0  0  0
  152.7029  146.2691  157.7834 H   0  0  0  0  0  0  0  0  0  0  0  0
  151.5368  145.5087  158.8450 H   0  0  0  0  0  0  0  0  0  0  0  0
  154.3507  144.4892  158.2278 H   0  0  0  0  0  0  0  0  0  0  0  0
  153.7950  145.1318  159.7571 H   0  0  0  0  0  0  0  0  0  0  0  0
  153.8449  142.6163  159.7563 H   0  0  0  0  0  0  0  0  0  0  0  0
  152.2195  143.2110  160.0306 H   0  0  0  0  0  0  0  0  0  0  0  0
  148.5822  140.0834  156.7196 H   0  0  0  0  0  0  0  0  0  0  0  0
  147.0389  139.2601  154.9826 H   0  0  0  0  0  0  0  0  0  0  0  0
  148.1582  137.9847  155.4144 H   0  0  0  0  0  0  0  0  0  0  0  0
  148.3876  138.8769  153.9147 H   0  0  0  0  0  0  0  0  0  0  0  0
  150.5501  139.2078  157.9666 H   0  0  0  0  0  0  0  0  0  0  0  0
  153.0195  138.2836  157.2716 H   0  0  0  0  0  0  0  0  0  0  0  0
  152.9970  138.4597  154.5059 H   0  0  0  0  0  0  0  0  0  0  0  0
  149.0611  142.3438  156.8353 H   0  0  0  0  0  0  0  0  0  0  0  0
  1  2  1  0  0  0  0
  1 18  1  0  0  0  0
  1 19  1  0  0  0  0
  1 20  1  0  0  0  0
  2  3  1  0  0  0  0
  2 11  1  0  0  0  0
  2 21  1  0  0  0  0
  3  4  1  0  0  0  0
  3 22  1  0  0  0  0
  3 41  1  0  0  0  0
  4  5  1  0  0  0  0
  4 23  1  0  0  0  0
  4 24  1  0  0  0  0
  5 10  1  0  0  0  0
  5  6  1  0  0  0  0
  5 25  1  0  0  0  0
  6  7  1  0  0  0  0
  6 26  1  0  0  0  0
  6 27  1  0  0  0  0
  7  8  1  0  0  0  0
  7 28  1  0  0  0  0
  7 29  1  0  0  0  0
  8  9  1  0  0  0  0
  8 30  1  0  0  0  0
  8 31  1  0  0  0  0
  9 10  1  0  0  0  0
  9 32  1  0  0  0  0
  9 33  1  0  0  0  0
 11 12  1  0  0  0  0
 11 13  1  0  0  0  0
 11 34  1  0  0  0  0
 12 35  1  0  0  0  0
 12 36  1  0  0  0  0
 12 37  1  0  0  0  0
 13 17  1  0  0  0  0
 13 14  1  0  0  0  0
 14 15  2  0  0  0  0
 14 38  1  0  0  0  0
 15 16  1  0  0  0  0
 15 39  1  0  0  0  0
 16 17  2  0  0  0  0
 16 40  1  0  0  0  0
M  CHG  1   3   1
M  END
> <s_m_source_file>
AV-unprocessed.smi

> <i_m_source_file_index>
3156

> <i_lp_mmshare_version>
43012

> <i_f3d_flags>
0

> <s_epik_input>
bjFbY0hdW2NIXVtjSF1uMVtDQEBIXShbQ0gzXSlbQ0BIXShbQ0gzXSlbTkhdW0NIMl1bQ0BASF0yW0NIMl1bQ0gyXVtDSDJdW0NIMl1PMg==

> <s_epik_cmdline>
J2VwaWtfcHl0aG9uJywgJy1waCcsICc3LjAnLCAnLXRuJywgJzgnLCAnLW1hJywgJzIwMCcsICctbWV0YWxfYmluZGluZycsICctaW1hZScsICc8aW5maWxlLm1hZT4nLCAnLW9tYWUnLCAnPG91dGZpbGUubWFlPic=

> <r_lp_tautomer_probability>
1

> <r_epik_Ionization_Penalty>
0.00658015

> <r_epik_Ionization_Penalty_Charging>
0.00656881

> <r_epik_Ionization_Penalty_Neutral>
1.13431e-05

> <r_epik_State_Penalty>
0.0048654

> <r_epik_Charging_Adjusted_Penalty>
0.0114342

> <i_epik_Tot_Q>
1

> <i_epik_Tot_abs_Q>
1

> <r_epik_Metal_State_Penalty>
-0

> <b_epik_Metal_Only>
0

> <s_lp_Force_Field>
OPLS_2005

> <r_lp_Energy>
18.8572

> <b_lp_Chiralities_Consistent>
1

> <s_lp_Variant>
AV-unprocessed.smi:3156-6

> <Gold.Version>
5.8.1

> <Gold.Id.Protein>
6NUR|6NUR_protein|mol2

> <Gold.PLP.Fitness>
48.3247

> <Gold.PLP.PLP>
-40.0027

> <Gold.PLP.part.hbond>
-2.0000

> <Gold.PLP.part.metal>
0.0000

> <Gold.PLP.part.buried>
-2.6088

> <Gold.PLP.part.nonpolar>
-35.6488

> <Gold.PLP.part.repulsive>
0.2457

> <Gold.PLP.ligand.clash>
0.0000

> <Gold.PLP.ligand.torsion>
0.3838

> <Gold.PLP.Chemscore.Hbond>
3.0000

> <Gold.PLP.Chemscore.CHOScore>
0.0000

> <Gold.PLP.Chemscore.Metal>
0.0000

> <Gold.Chemscore.Hbonds>
donor molecule, donor type, donor heavy atom, donor atom, acceptor molecule, acceptor atom, score
      L1  H     3    22       P1  8028  1.95
      P1  H  7989  7998       L1    17  0.73

> <Gold.PLP.Chemscore.Internal.Correction>
0.0896

> <Gold.Rescore>
     Score         DG    S(hbond)    S(metal)    S(lipo)     H(rot)  DE(clash)    DE(int)     intcor
     18.82     -20.82       1.99        0.00     109.29       1.59       0.02       1.98       ----

> <Gold.Chemscore.Fitness>
18.8208

> <Gold.Chemscore.DG>
-20.8178

> <Gold.Chemscore.ZeroCoef>
-5.4800

> <Gold.Chemscore.Hbond>
1.9853

> <Gold.Chemscore.Metal>
0.0000

> <Gold.Chemscore.Lipo>
109.2931

> <Gold.Chemscore.Internal_Hbond>
0.0000

> <Gold.Chemscore.DEClash>
0.0164

> <Gold.Chemscore.DEInternal>
1.9806

> <Gold.Chemscore.Rot>
1.5938

> <Gold.Chemscore.Internal.Correction>
   9.000000E+99

> <Gold.Chemscore.Hbonds>
donor molecule, donor type, donor heavy atom, donor atom, acceptor molecule, acceptor atom, score
      L1  H     3    22       P1  8028  0.90
      P1  H  7989  7998       L1    17  0.35

> <Gold.Chemscore.Hbond.Weighted>
-6.6308

> <Gold.Chemscore.Metal.Weighted>
-0.0000

> <Gold.Chemscore.Lipo.Weighted>
-12.7873

> <Gold.Chemscore.Internal_Hbond.Weighted>
0.0000

> <Gold.Chemscore.DEClash.Weighted>
0.0164

> <Gold.Chemscore.DEInternal.Weighted>
1.9806

> <Gold.Chemscore.Rot.Weighted>
4.0802

> <Gold.Chemscore.Internal.Correction.Weighted>
   9.000000E+99

> <Gold.Protein.RotatedTorsions>
[ 6907 6896 6895 6894 ] final  -37.62 input  -60.11 | X-H torsion
[ 7974 7965 7964 7962 ] final -164.31 input  175.53 | X-H torsion
[ 8008 7997 7996 7995 ] final  -80.79 input   59.86 | X-H torsion
[ 10167 10162 10161 10158 ] final  124.55 input  -65.29 | X-H torsion
[ 10718 10713 10712 10709 ] final  -52.72 input   66.30 | X-H torsion
[ 10763 10752 10751 10750 ] final  133.63 input  -60.55 | X-H torsion
[ 11005 11000 10999 10996 ] final   22.70 input  -57.11 | X-H torsion

> <Gold.Protein.ActiveResidues>
 VAL166  LYS551  ARG553  GLY616  TRP617  ASP618  TYR619  PRO620  LYS621  CYS622 
 ASP623  PHE694  ASN695  SER759  ASP760  ASP761  ALA762  ILE779  LEU786  VAL792 
 PHE793  MET794  SER795  GLU796  ALA797  LYS798  CYS799  TRP800  GLU811  SER814 

> <Gold.Protein.RotatedAtoms>
  151.0125  134.9408  159.8014 H   0  0  0  0  0  0  0  0  0  0  0  0  # atno 6907 bound_to 6896
  152.5306  134.3009  159.9088 H   0  0  0  0  0  0  0  0  0  0  0  0  # atno 6908 bound_to 6896
  151.3015  133.4078  159.2674 H   0  0  0  0  0  0  0  0  0  0  0  0  # atno 6909 bound_to 6896
  144.7300  140.2979  143.6209 H   0  0  0  0  0  0  0  0  0  0  0  0  # atno 7974 bound_to 7965
  154.5918  140.0657  156.9249 H   0  0  0  0  0  0  0  0  0  0  0  0  # atno 8008 bound_to 7997
  155.2282  140.3335  155.4288 H   0  0  0  0  0  0  0  0  0  0  0  0  # atno 8009 bound_to 7997
  156.2261  140.1820  156.7344 H   0  0  0  0  0  0  0  0  0  0  0  0  # atno 8010 bound_to 7997
  139.5735  144.6951  151.3714 H   0  0  0  0  0  0  0  0  0  0  0  0  # atno 10167 bound_to 10162
  156.1597  130.4150  149.9813 H   0  0  0  0  0  0  0  0  0  0  0  0  # atno 10718 bound_to 10713
  153.8103  135.3130  155.3400 H   0  0  0  0  0  0  0  0  0  0  0  0  # atno 10763 bound_to 10752
  154.8054  135.4701  154.0382 H   0  0  0  0  0  0  0  0  0  0  0  0  # atno 10764 bound_to 10752
  153.1758  135.6885  153.8633 H   0  0  0  0  0  0  0  0  0  0  0  0  # atno 10765 bound_to 10752
  140.3777  134.1954  155.7664 H   0  0  0  0  0  0  0  0  0  0  0  0  # atno 11005 bound_to 11000
  145.7789  139.1884  143.2169 LP  0  0  0  0  0  0  0  0  0  0  0  0  # atno 17320 bound_to 7965
  146.0850  140.7721  142.9623 LP  0  0  0  0  0  0  0  0  0  0  0  0  # atno 17321 bound_to 7965
  140.7019  143.7610  150.7417 LP  0  0  0  0  0  0  0  0  0  0  0  0  # atno 17342 bound_to 10162
  140.1123  143.4687  152.2362 LP  0  0  0  0  0  0  0  0  0  0  0  0  # atno 17343 bound_to 10162
  156.7646  130.9164  151.3642 LP  0  0  0  0  0  0  0  0  0  0  0  0  # atno 17370 bound_to 10713
  157.6722  130.9062  150.0067 LP  0  0  0  0  0  0  0  0  0  0  0  0  # atno 17371 bound_to 10713
  141.1934  133.8152  157.0801 LP  0  0  0  0  0  0  0  0  0  0  0  0  # atno 17394 bound_to 11000
  140.0502  134.9809  157.1123 LP  0  0  0  0  0  0  0  0  0  0  0  0  # atno 17395 bound_to 11000

$$$$
