AV-unprocessed.smi:189|AV-procd|sdf|1480|dock8
  -GOLD-   2262019303D 1   1.00000     0.00000
 Structure written by MMmdl.
 53 57  0  0  0  0  0  0  0  0  1 V2000
  149.4905  141.4559  156.4271 C   0  0  0  0  0  0  0  0  0  0  0  0
  150.8654  142.0595  156.7823 C   0  0  1  0  0  0  0  0  0  0  0  0
  150.7471  143.0302  157.9831 C   0  0  0  0  0  0  0  0  0  0  0  0
  151.9441  142.6679  158.8571 C   0  0  1  0  0  0  0  0  0  0  0  0
  151.8788  142.9676  160.3594 C   0  0  0  0  0  0  0  0  0  0  0  0
  153.1626  142.4388  161.0334 C   0  0  0  0  0  0  0  0  0  0  0  0
  153.4290  140.9512  160.7083 C   0  0  0  0  0  0  0  0  0  0  0  0
  153.3966  140.6614  159.1925 C   0  0  0  0  0  0  0  0  0  0  0  0
  152.0642  141.1711  158.6131 C   0  0  2  0  0  0  0  0  0  0  0  0
  151.8794  141.0691  157.1738 N   0  0  0  0  0  0  0  0  0  0  0  0
  151.9337  139.8831  156.5172 C   0  0  0  0  0  0  0  0  0  0  0  0
  152.5611  139.7999  155.3148 N   0  0  0  0  0  0  0  0  0  0  0  0
  152.6376  138.6294  154.6749 C   0  0  0  0  0  0  0  0  0  0  0  0
  152.1666  137.4393  155.0530 N   0  0  0  0  0  0  0  0  0  0  0  0
  151.5332  137.5177  156.2582 C   0  0  0  0  0  0  0  0  0  0  0  0
  151.3739  138.6893  157.0505 C   0  0  0  0  0  0  0  0  0  0  0  0
  150.6765  138.3848  158.2131 N   0  0  0  0  0  0  0  0  0  0  0  0
  150.4418  137.1050  158.1166 C   0  0  0  0  0  0  0  0  0  0  0  0
  150.9154  136.5048  156.9716 N   0  0  0  0  0  0  0  0  0  0  0  0
  150.7929  135.0996  156.6151 C   0  0  0  0  0  0  0  0  0  0  0  0
  149.8726  134.8497  155.3978 C   0  0  1  0  0  0  0  0  0  0  0  0
  150.3686  135.5759  154.2859 O   0  0  0  0  0  0  0  0  0  0  0  0
  149.7450  133.3819  155.0003 C   0  0  0  0  0  0  0  0  0  0  0  0
  148.3293  133.3036  154.4467 C   0  0  0  0  0  0  0  0  0  0  0  0
  147.6065  134.1361  155.3371 O   0  0  0  0  0  0  0  0  0  0  0  0
  148.4096  135.2718  155.6424 C   0  0  0  0  0  0  0  0  0  0  0  0
  148.7640  142.2436  156.2263 H   0  0  0  0  0  0  0  0  0  0  0  0
  149.1010  140.8458  157.2430 H   0  0  0  0  0  0  0  0  0  0  0  0
  149.5369  140.8308  155.5356 H   0  0  0  0  0  0  0  0  0  0  0  0
  151.2548  142.6078  155.9240 H   0  0  0  0  0  0  0  0  0  0  0  0
  150.7545  144.0769  157.6776 H   0  0  0  0  0  0  0  0  0  0  0  0
  149.8237  142.8533  158.5372 H   0  0  0  0  0  0  0  0  0  0  0  0
  152.8207  143.1690  158.4405 H   0  0  0  0  0  0  0  0  0  0  0  0
  151.7770  144.0397  160.5291 H   0  0  0  0  0  0  0  0  0  0  0  0
  151.0023  142.4917  160.8007 H   0  0  0  0  0  0  0  0  0  0  0  0
  154.0133  143.0339  160.6985 H   0  0  0  0  0  0  0  0  0  0  0  0
  153.0997  142.5779  162.1130 H   0  0  0  0  0  0  0  0  0  0  0  0
  154.3909  140.6480  161.1226 H   0  0  0  0  0  0  0  0  0  0  0  0
  152.6757  140.3377  161.2045 H   0  0  0  0  0  0  0  0  0  0  0  0
  154.2353  141.1548  158.6999 H   0  0  0  0  0  0  0  0  0  0  0  0
  153.5203  139.5922  159.0240 H   0  0  0  0  0  0  0  0  0  0  0  0
  151.2363  140.6502  159.0987 H   0  0  0  0  0  0  0  0  0  0  0  0
  153.1517  138.6490  153.7253 H   0  0  0  0  0  0  0  0  0  0  0  0
  149.9083  136.5595  158.8817 H   0  0  0  0  0  0  0  0  0  0  0  0
  151.7917  134.7071  156.4199 H   0  0  0  0  0  0  0  0  0  0  0  0
  150.4184  134.5589  157.4854 H   0  0  0  0  0  0  0  0  0  0  0  0
  149.6330  135.8956  153.7859 H   0  0  0  0  0  0  0  0  0  0  0  0
  150.5055  133.0461  154.2939 H   0  0  0  0  0  0  0  0  0  0  0  0
  149.8063  132.7443  155.8826 H   0  0  0  0  0  0  0  0  0  0  0  0
  148.2792  133.7102  153.4355 H   0  0  0  0  0  0  0  0  0  0  0  0
  147.9346  132.2878  154.4334 H   0  0  0  0  0  0  0  0  0  0  0  0
  148.2294  135.5660  156.6768 H   0  0  0  0  0  0  0  0  0  0  0  0
  148.1121  136.1097  155.0092 H   0  0  0  0  0  0  0  0  0  0  0  0
  1  2  1  0  0  0  0
  1 27  1  0  0  0  0
  1 28  1  0  0  0  0
  1 29  1  0  0  0  0
  2 10  1  0  0  0  0
  2  3  1  0  0  0  0
  2 30  1  0  0  0  0
  3  4  1  0  0  0  0
  3 31  1  0  0  0  0
  3 32  1  0  0  0  0
  4  9  1  0  0  0  0
  4  5  1  0  0  0  0
  4 33  1  0  0  0  0
  5  6  1  0  0  0  0
  5 34  1  0  0  0  0
  5 35  1  0  0  0  0
  6  7  1  0  0  0  0
  6 36  1  0  0  0  0
  6 37  1  0  0  0  0
  7  8  1  0  0  0  0
  7 38  1  0  0  0  0
  7 39  1  0  0  0  0
  8  9  1  0  0  0  0
  8 40  1  0  0  0  0
  8 41  1  0  0  0  0
  9 10  1  0  0  0  0
  9 42  1  0  0  0  0
 10 11  1  0  0  0  0
 11 16  1  0  0  0  0
 11 12  2  0  0  0  0
 12 13  1  0  0  0  0
 13 14  2  0  0  0  0
 13 43  1  0  0  0  0
 14 15  1  0  0  0  0
 15 19  1  0  0  0  0
 15 16  2  0  0  0  0
 16 17  1  0  0  0  0
 17 18  2  0  0  0  0
 18 19  1  0  0  0  0
 18 44  1  0  0  0  0
 19 20  1  0  0  0  0
 20 21  1  0  0  0  0
 20 45  1  0  0  0  0
 20 46  1  0  0  0  0
 21 26  1  0  0  0  0
 21 22  1  0  0  0  0
 21 23  1  0  0  0  0
 22 47  1  0  0  0  0
 23 24  1  0  0  0  0
 23 48  1  0  0  0  0
 23 49  1  0  0  0  0
 24 25  1  0  0  0  0
 24 50  1  0  0  0  0
 24 51  1  0  0  0  0
 25 26  1  0  0  0  0
 26 52  1  0  0  0  0
 26 53  1  0  0  0  0
M  END
> <s_m_source_file>
AV-unprocessed.smi

> <i_m_source_file_index>
189

> <i_lp_mmshare_version>
43012

> <i_f3d_flags>
0

> <s_epik_input>
W0NIMl0xW0NIMl1bQ0gyXVtDSDJdW0NASF0oW0NASF0xMilOKFtDQEhdKFtDSDNdKVtDSDJdMiljKG5bY0hdbjMpYyhjMzQpbltjSF1uNFtDSDJdW0NAQF01KFtPSF0pW0NIMl1bQ0gyXU9bQ0gyXTU=

> <s_epik_cmdline>
J2VwaWtfcHl0aG9uJywgJy1waCcsICc3LjAnLCAnLXRuJywgJzgnLCAnLW1hJywgJzIwMCcsICctbWV0YWxfYmluZGluZycsICctaW1hZScsICc8aW5maWxlLm1hZT4nLCAnLW9tYWUnLCAnPG91dGZpbGUubWFlPic=

> <r_lp_tautomer_probability>
1

> <r_epik_Ionization_Penalty>
0.00594261

> <r_epik_Ionization_Penalty_Charging>
0

> <r_epik_Ionization_Penalty_Neutral>
0.00594261

> <r_epik_State_Penalty>
0.00429776

> <r_epik_Charging_Adjusted_Penalty>
0.00429776

> <i_epik_Tot_Q>
0

> <i_epik_Tot_abs_Q>
0

> <r_epik_Metal_State_Penalty>
-0

> <b_epik_Metal_Only>
0

> <s_lp_Force_Field>
OPLS_2005

> <r_lp_Energy>
58.915

> <b_lp_Chiralities_Consistent>
1

> <s_lp_Variant>
AV-unprocessed.smi:189-6

> <Gold.Version>
5.8.1

> <Gold.Id.Protein>
6NUR|6NUR_protein|mol2

> <Gold.PLP.Fitness>
48.8040

> <Gold.PLP.PLP>
-41.6316

> <Gold.PLP.part.hbond>
-5.0000

> <Gold.PLP.part.metal>
0.0000

> <Gold.PLP.part.buried>
-3.3885

> <Gold.PLP.part.nonpolar>
-34.9835

> <Gold.PLP.part.repulsive>
0.1116

> <Gold.PLP.ligand.clash>
0.0000

> <Gold.PLP.ligand.torsion>
0.6267

> <Gold.PLP.Chemscore.Hbond>
2.6828

> <Gold.PLP.Chemscore.CHOScore>
0.0000

> <Gold.PLP.Chemscore.Metal>
0.0000

> <Gold.Chemscore.Hbonds>
donor molecule, donor type, donor heavy atom, donor atom, acceptor molecule, acceptor atom, score
      L1  H    22    47       P1  7948  0.82
      P1  H  7989  7998       L1    12  0.15
      P1  H  7997  8010       L1    12  0.95
      P1  H 10752 10765       L1    14  0.75

> <Gold.PLP.Chemscore.Internal.Correction>
0.3774

> <Gold.Rescore>
     Score         DG    S(hbond)    S(metal)    S(lipo)     H(rot)  DE(clash)    DE(int)     intcor
     15.83     -17.55       1.59        0.00     102.31       2.03       0.09       1.64       ----

> <Gold.Chemscore.Fitness>
15.8270

> <Gold.Chemscore.DG>
-17.5494

> <Gold.Chemscore.ZeroCoef>
-5.4800

> <Gold.Chemscore.Hbond>
1.5855

> <Gold.Chemscore.Metal>
0.0000

> <Gold.Chemscore.Lipo>
102.3072

> <Gold.Chemscore.Internal_Hbond>
0.0000

> <Gold.Chemscore.DEClash>
0.0853

> <Gold.Chemscore.DEInternal>
1.6371

> <Gold.Chemscore.Rot>
2.0297

> <Gold.Chemscore.Internal.Correction>
   9.000000E+99

> <Gold.Chemscore.Hbonds>
donor molecule, donor type, donor heavy atom, donor atom, acceptor molecule, acceptor atom, score
      L1  H    22    47       P1  7948  0.23
      P1  H  7989  7998       L1    12  0.01
      P1  H  7997  8010       L1    12  0.10
      P1  H 10752 10765       L1    14  0.67

> <Gold.Chemscore.Hbond.Weighted>
-5.2955

> <Gold.Chemscore.Metal.Weighted>
-0.0000

> <Gold.Chemscore.Lipo.Weighted>
-11.9699

> <Gold.Chemscore.Internal_Hbond.Weighted>
0.0000

> <Gold.Chemscore.DEClash.Weighted>
0.0853

> <Gold.Chemscore.DEInternal.Weighted>
1.6371

> <Gold.Chemscore.Rot.Weighted>
5.1960

> <Gold.Chemscore.Internal.Correction.Weighted>
   9.000000E+99

> <Gold.Protein.RotatedTorsions>
[ 6907 6896 6895 6894 ] final -153.98 input  -60.11 | X-H torsion
[ 7974 7965 7964 7962 ] final  127.57 input  175.53 | X-H torsion
[ 8008 7997 7996 7995 ] final  103.33 input   59.86 | X-H torsion
[ 10167 10162 10161 10158 ] final   45.38 input  -65.29 | X-H torsion
[ 10718 10713 10712 10709 ] final   23.50 input   66.30 | X-H torsion
[ 10763 10752 10751 10750 ] final  171.85 input  -60.55 | X-H torsion
[ 11005 11000 10999 10996 ] final -136.39 input  -57.11 | X-H torsion

> <Gold.Protein.ActiveResidues>
 VAL166  LYS551  ARG553  GLY616  TRP617  ASP618  TYR619  PRO620  LYS621  CYS622 
 ASP623  PHE694  ASN695  SER759  ASP760  ASP761  ALA762  ILE779  LEU786  VAL792 
 PHE793  MET794  SER795  GLU796  ALA797  LYS798  CYS799  TRP800  GLU811  SER814 

> <Gold.Protein.RotatedAtoms>
  151.2507  133.4352  159.2611 H   0  0  0  0  0  0  0  0  0  0  0  0  # atno 6907 bound_to 6896
  151.0620  134.9743  159.8275 H   0  0  0  0  0  0  0  0  0  0  0  0  # atno 6908 bound_to 6896
  152.5400  134.2456  159.8932 H   0  0  0  0  0  0  0  0  0  0  0  0  # atno 6909 bound_to 6896
  145.0491  139.3898  143.5063 H   0  0  0  0  0  0  0  0  0  0  0  0  # atno 7974 bound_to 7965
  156.1474  140.3166  155.8592 H   0  0  0  0  0  0  0  0  0  0  0  0  # atno 8008 bound_to 7997
  155.4038  140.0501  157.3052 H   0  0  0  0  0  0  0  0  0  0  0  0  # atno 8009 bound_to 7997
  154.5028  140.2136  155.9323 H   0  0  0  0  0  0  0  0  0  0  0  0  # atno 8010 bound_to 7997
  140.3247  144.2662  150.6177 H   0  0  0  0  0  0  0  0  0  0  0  0  # atno 10167 bound_to 10162
  157.1670  130.6742  149.6064 H   0  0  0  0  0  0  0  0  0  0  0  0  # atno 10718 bound_to 10713
  154.4178  135.2757  155.1995 H   0  0  0  0  0  0  0  0  0  0  0  0  # atno 10763 bound_to 10752
  154.3954  135.6056  153.5870 H   0  0  0  0  0  0  0  0  0  0  0  0  # atno 10764 bound_to 10752
  152.9832  135.5913  154.4469 H   0  0  0  0  0  0  0  0  0  0  0  0  # atno 10765 bound_to 10752
  140.8810  134.1932  157.4591 H   0  0  0  0  0  0  0  0  0  0  0  0  # atno 11005 bound_to 11000
  146.3516  140.0132  142.8665 LP  0  0  0  0  0  0  0  0  0  0  0  0  # atno 17320 bound_to 7965
  145.1550  140.9643  143.4411 LP  0  0  0  0  0  0  0  0  0  0  0  0  # atno 17321 bound_to 7965
  140.5452  143.2216  151.8019 LP  0  0  0  0  0  0  0  0  0  0  0  0  # atno 17342 bound_to 10162
  139.4867  144.4549  151.9610 LP  0  0  0  0  0  0  0  0  0  0  0  0  # atno 17343 bound_to 10162
  155.9744  130.4692  150.6387 LP  0  0  0  0  0  0  0  0  0  0  0  0  # atno 17370 bound_to 10713
  157.4079  131.0819  151.1248 LP  0  0  0  0  0  0  0  0  0  0  0  0  # atno 17371 bound_to 10713
  139.8719  134.9817  156.5126 LP  0  0  0  0  0  0  0  0  0  0  0  0  # atno 17394 bound_to 11000
  140.8462  133.8167  155.9123 LP  0  0  0  0  0  0  0  0  0  0  0  0  # atno 17395 bound_to 11000

$$$$
