AV-unprocessed.smi:1363|AV-procd|sdf|5564|dock7
  -GOLD-   22720 5153D 1   1.00000     0.00000
 Structure written by MMmdl.
 44 45  0  0  0  0  0  0  0  0  1 V2000
  161.0347  144.5139  161.3603 C   0  0  0  0  0  0  0  0  0  0  0  0
  160.3114  143.2844  160.8532 C   0  0  0  0  0  0  0  0  0  0  0  0
  159.8498  143.1640  159.6519 N   0  0  0  0  0  0  0  0  0  0  0  0
  159.1921  141.9774  159.2990 C   0  0  0  0  0  0  0  0  0  0  0  0
  158.6712  141.9149  157.8732 C   0  0  0  0  0  0  0  0  0  0  0  0
  159.0339  140.9543  160.1894 C   0  0  0  0  0  0  0  0  0  0  0  0
  158.3158  139.6526  159.8354 C   0  0  0  0  0  0  0  0  0  0  0  0
  156.8563  139.7968  159.3971 C   0  0  0  0  0  0  0  0  0  0  0  0
  156.4104  139.1061  158.4804 O   0  0  0  0  0  0  0  0  0  0  0  0
  156.1193  140.6939  160.0691 N   0  0  0  0  0  0  0  0  0  0  0  0
  154.7061  140.9618  159.8314 C   0  0  0  0  0  0  0  0  0  0  0  0
  154.0630  141.6856  161.0310 C   0  0  0  0  0  0  0  0  0  0  0  0
  153.0888  142.8074  160.6855 C   0  0  0  0  0  0  0  0  0  0  0  0
  152.3109  143.4451  161.5867 C   0  0  0  0  0  0  0  0  0  0  0  0
  151.3668  144.5852  161.2458 C   0  0  0  0  0  0  0  0  0  0  0  0
  151.6421  145.1798  159.8555 C   0  0  0  0  0  0  0  0  0  0  0  0
  151.8754  144.0730  158.8214 C   0  0  0  0  0  0  0  0  0  0  0  0
  153.0724  143.1870  159.2092 C   0  0  0  0  0  0  0  0  0  0  0  0
  159.5661  141.1023  161.5579 C   0  0  0  0  0  0  0  0  0  0  0  0
  159.4740  140.2489  162.4389 O   0  0  0  0  0  0  0  0  0  0  0  0
  160.1835  142.2783  161.8095 N   0  0  0  0  0  0  0  0  0  0  0  0
  160.5627  142.4291  162.7331 H   0  0  0  0  0  0  0  0  0  0  0  0
  160.3884  145.3883  161.2807 H   0  0  0  0  0  0  0  0  0  0  0  0
  161.9306  144.6939  160.7659 H   0  0  0  0  0  0  0  0  0  0  0  0
  161.3331  144.4047  162.4039 H   0  0  0  0  0  0  0  0  0  0  0  0
  159.1673  141.1185  157.3186 H   0  0  0  0  0  0  0  0  0  0  0  0
  158.8515  142.8517  157.3446 H   0  0  0  0  0  0  0  0  0  0  0  0
  157.5971  141.7293  157.8625 H   0  0  0  0  0  0  0  0  0  0  0  0
  158.8738  139.1585  159.0391 H   0  0  0  0  0  0  0  0  0  0  0  0
  158.3512  138.9546  160.6723 H   0  0  0  0  0  0  0  0  0  0  0  0
  156.5664  141.2199  160.8062 H   0  0  0  0  0  0  0  0  0  0  0  0
  154.6332  141.5803  158.9363 H   0  0  0  0  0  0  0  0  0  0  0  0
  154.1847  140.0276  159.6155 H   0  0  0  0  0  0  0  0  0  0  0  0
  153.5271  140.9622  161.6468 H   0  0  0  0  0  0  0  0  0  0  0  0
  154.8491  142.1038  161.6606 H   0  0  0  0  0  0  0  0  0  0  0  0
  152.3209  143.1597  162.6274 H   0  0  0  0  0  0  0  0  0  0  0  0
  150.3462  144.2049  161.2988 H   0  0  0  0  0  0  0  0  0  0  0  0
  151.4552  145.3635  162.0044 H   0  0  0  0  0  0  0  0  0  0  0  0
  150.8118  145.8174  159.5508 H   0  0  0  0  0  0  0  0  0  0  0  0
  152.5242  145.8201  159.9000 H   0  0  0  0  0  0  0  0  0  0  0  0
  150.9770  143.4588  158.7466 H   0  0  0  0  0  0  0  0  0  0  0  0
  152.0367  144.5045  157.8332 H   0  0  0  0  0  0  0  0  0  0  0  0
  154.0055  143.7058  158.9869 H   0  0  0  0  0  0  0  0  0  0  0  0
  153.0631  142.2829  158.5994 H   0  0  0  0  0  0  0  0  0  0  0  0
  1  2  1  0  0  0  0
  1 23  1  0  0  0  0
  1 24  1  0  0  0  0
  1 25  1  0  0  0  0
  2 21  1  0  0  0  0
  2  3  2  0  0  0  0
  3  4  1  0  0  0  0
  4  5  1  0  0  0  0
  4  6  2  0  0  0  0
  5 26  1  0  0  0  0
  5 27  1  0  0  0  0
  5 28  1  0  0  0  0
  6  7  1  0  0  0  0
  6 19  1  0  0  0  0
  7  8  1  0  0  0  0
  7 29  1  0  0  0  0
  7 30  1  0  0  0  0
  8  9  2  0  0  0  0
  8 10  1  0  0  0  0
 10 11  1  0  0  0  0
 10 31  1  0  0  0  0
 11 12  1  0  0  0  0
 11 32  1  0  0  0  0
 11 33  1  0  0  0  0
 12 13  1  0  0  0  0
 12 34  1  0  0  0  0
 12 35  1  0  0  0  0
 13 18  1  0  0  0  0
 13 14  2  0  0  0  0
 14 15  1  0  0  0  0
 14 36  1  0  0  0  0
 15 16  1  0  0  0  0
 15 37  1  0  0  0  0
 15 38  1  0  0  0  0
 16 17  1  0  0  0  0
 16 39  1  0  0  0  0
 16 40  1  0  0  0  0
 17 18  1  0  0  0  0
 17 41  1  0  0  0  0
 17 42  1  0  0  0  0
 18 43  1  0  0  0  0
 18 44  1  0  0  0  0
 19 20  2  0  0  0  0
 19 21  1  0  0  0  0
 21 22  1  0  0  0  0
M  END
> <s_m_source_file>
AV-unprocessed.smi

> <i_m_source_file_index>
1363

> <i_lp_mmshare_version>
43012

> <i_f3d_flags>
0

> <s_epik_input>
W0NIM11jMW5jKFtDSDNdKWMoYyg9TylbbkhdMSlbQ0gyXUMoPU8pW05IXVtDSDJdW0NIMl1DMj1bQ0hdW0NIMl1bQ0gyXVtDSDJdW0NIMl0y

> <s_epik_cmdline>
J2VwaWtfcHl0aG9uJywgJy1waCcsICc3LjAnLCAnLXRuJywgJzgnLCAnLW1hJywgJzIwMCcsICctbWV0YWxfYmluZGluZycsICctaW1hZScsICc8aW5maWxlLm1hZT4nLCAnLW9tYWUnLCAnPG91dGZpbGUubWFlPic=

> <r_lp_tautomer_probability>
0.839158

> <r_epik_Ionization_Penalty>
0.000390001

> <r_epik_Ionization_Penalty_Charging>
0.000357609

> <r_epik_Ionization_Penalty_Neutral>
3.23917e-05

> <r_epik_State_Penalty>
0.0470088

> <r_epik_Charging_Adjusted_Penalty>
0.0473664

> <i_epik_Tot_Q>
0

> <i_epik_Tot_abs_Q>
0

> <r_epik_Metal_State_Penalty>
0.223611

> <b_epik_Metal_Only>
0

> <s_lp_Force_Field>
OPLS_2005

> <r_lp_Energy>
9.33337

> <b_lp_Chiralities_Consistent>
1

> <s_lp_Variant>
AV-unprocessed.smi:1363-1

> <Gold.Version>
5.8.1

> <Gold.Id.Protein>
6NUR|6NUR_protein|mol2

> <Gold.PLP.Fitness>
46.3200

> <Gold.PLP.PLP>
-44.8706

> <Gold.PLP.part.hbond>
-2.6228

> <Gold.PLP.part.metal>
0.0000

> <Gold.PLP.part.buried>
-3.8676

> <Gold.PLP.part.nonpolar>
-39.8358

> <Gold.PLP.part.repulsive>
0.1324

> <Gold.PLP.ligand.clash>
0.0000

> <Gold.PLP.ligand.torsion>
0.7796

> <Gold.PLP.Chemscore.Hbond>
1.0000

> <Gold.PLP.Chemscore.CHOScore>
0.0000

> <Gold.PLP.Chemscore.Metal>
0.0000

> <Gold.Chemscore.Hbonds>
donor molecule, donor type, donor heavy atom, donor atom, acceptor molecule, acceptor atom, score
      P1  H  7997  8009       L1     9  1.00

> <Gold.PLP.Chemscore.Internal.Correction>
0.0085

> <Gold.Rescore>
     Score         DG    S(hbond)    S(metal)    S(lipo)     H(rot)  DE(clash)    DE(int)     intcor
     17.60     -18.54       0.78        0.00     130.13       1.86       0.15       0.79       ----

> <Gold.Chemscore.Fitness>
17.6004

> <Gold.Chemscore.DG>
-18.5395

> <Gold.Chemscore.ZeroCoef>
-5.4800

> <Gold.Chemscore.Hbond>
0.7797

> <Gold.Chemscore.Metal>
0.0000

> <Gold.Chemscore.Lipo>
130.1270

> <Gold.Chemscore.Internal_Hbond>
0.0000

> <Gold.Chemscore.DEClash>
0.1483

> <Gold.Chemscore.DEInternal>
0.7908

> <Gold.Chemscore.Rot>
1.8631

> <Gold.Chemscore.Internal.Correction>
   9.000000E+99

> <Gold.Chemscore.Hbonds>
donor molecule, donor type, donor heavy atom, donor atom, acceptor molecule, acceptor atom, score
      P1  H  7997  8009       L1     9  0.78

> <Gold.Chemscore.Hbond.Weighted>
-2.6043

> <Gold.Chemscore.Metal.Weighted>
-0.0000

> <Gold.Chemscore.Lipo.Weighted>
-15.2249

> <Gold.Chemscore.Internal_Hbond.Weighted>
0.0000

> <Gold.Chemscore.DEClash.Weighted>
0.1483

> <Gold.Chemscore.DEInternal.Weighted>
0.7908

> <Gold.Chemscore.Rot.Weighted>
4.7697

> <Gold.Chemscore.Internal.Correction.Weighted>
   9.000000E+99

> <Gold.Protein.RotatedTorsions>
[ 6907 6896 6895 6894 ] final   78.08 input  -60.11 | X-H torsion
[ 7974 7965 7964 7962 ] final  -48.54 input  175.53 | X-H torsion
[ 8008 7997 7996 7995 ] final   81.84 input   59.86 | X-H torsion
[ 10167 10162 10161 10158 ] final -132.13 input  -65.29 | X-H torsion
[ 10718 10713 10712 10709 ] final -120.84 input   66.30 | X-H torsion
[ 10763 10752 10751 10750 ] final -170.77 input  -60.55 | X-H torsion
[ 11005 11000 10999 10996 ] final  -24.92 input  -57.11 | X-H torsion

> <Gold.Protein.ActiveResidues>
 VAL166  LYS551  ARG553  GLY616  TRP617  ASP618  TYR619  PRO620  LYS621  CYS622 
 ASP623  PHE694  ASN695  SER759  ASP760  ASP761  ALA762  ILE779  LEU786  VAL792 
 PHE793  MET794  SER795  GLU796  ALA797  LYS798  CYS799  TRP800  GLU811  SER814 

> <Gold.Protein.RotatedAtoms>
  152.5144  134.3719  159.9320 H   0  0  0  0  0  0  0  0  0  0  0  0  # atno 6907 bound_to 6896
  151.3674  133.3861  159.2704 H   0  0  0  0  0  0  0  0  0  0  0  0  # atno 6908 bound_to 6896
  150.9604  134.9012  159.7785 H   0  0  0  0  0  0  0  0  0  0  0  0  # atno 6909 bound_to 6896
  145.9501  140.7580  142.9509 H   0  0  0  0  0  0  0  0  0  0  0  0  # atno 7974 bound_to 7965
  155.9025  140.3432  155.6037 H   0  0  0  0  0  0  0  0  0  0  0  0  # atno 8008 bound_to 7997
  155.7483  140.0816  157.2232 H   0  0  0  0  0  0  0  0  0  0  0  0  # atno 8009 bound_to 7997
  154.4045  140.1558  156.2682 H   0  0  0  0  0  0  0  0  0  0  0  0  # atno 8010 bound_to 7997
  139.9117  143.6486  152.2574 H   0  0  0  0  0  0  0  0  0  0  0  0  # atno 10167 bound_to 10162
  156.1289  130.6381  150.9589 H   0  0  0  0  0  0  0  0  0  0  0  0  # atno 10718 bound_to 10713
  154.6378  135.2895  155.0139 H   0  0  0  0  0  0  0  0  0  0  0  0  # atno 10763 bound_to 10752
  154.1277  135.6538  153.4919 H   0  0  0  0  0  0  0  0  0  0  0  0  # atno 10764 bound_to 10752
  153.0311  135.5303  154.7233 H   0  0  0  0  0  0  0  0  0  0  0  0  # atno 10765 bound_to 10752
  140.8890  133.7601  156.0397 H   0  0  0  0  0  0  0  0  0  0  0  0  # atno 11005 bound_to 11000
  144.6794  140.2420  143.7342 LP  0  0  0  0  0  0  0  0  0  0  0  0  # atno 17320 bound_to 7965
  145.8183  139.2032  143.1953 LP  0  0  0  0  0  0  0  0  0  0  0  0  # atno 17321 bound_to 7965
  139.6937  144.7644  151.1394 LP  0  0  0  0  0  0  0  0  0  0  0  0  # atno 17342 bound_to 10162
  140.7684  143.5554  150.9158 LP  0  0  0  0  0  0  0  0  0  0  0  0  # atno 17343 bound_to 10162
  157.6469  131.0902  150.8134 LP  0  0  0  0  0  0  0  0  0  0  0  0  # atno 17370 bound_to 10713
  156.8221  130.4987  149.5342 LP  0  0  0  0  0  0  0  0  0  0  0  0  # atno 17371 bound_to 10713
  140.8370  134.3111  157.5328 LP  0  0  0  0  0  0  0  0  0  0  0  0  # atno 17394 bound_to 11000
  139.8727  134.9395  156.3743 LP  0  0  0  0  0  0  0  0  0  0  0  0  # atno 17395 bound_to 11000

$$$$
