#       Name:                AV-unprocessed.smi:510
#       Creating user name   scv26
#       Creation time:       Thu Mar 26 23:22:56 2020


#       File generated by GOLD software.
#

@<TRIPOS>MOLECULE
AV-unprocessed.smi:510
    37    38     1
SMALL
NO_CHARGES


@<TRIPOS>ATOM
      1 ****        -3.3747   3.3307  -0.3592 C.3            1 S1                 0.0000
      2 ****        -1.9658   3.1999  -0.4264 O.3            1 S1                 0.0000
      3 ****        -1.5440   1.8481  -0.3633 C.3            1 S1                 0.0000
      4 ****        -0.0131   1.8032  -0.4365 C.3            1 S1                 0.0000
      5 ****         0.4860   0.4323  -0.4287 N.pl3          1 S1                 0.0000
      6 ****         0.7890  -0.3415  -1.5005 C.2            1 S1                 0.0000
      7 ****         0.6277   0.1392  -2.7921 N.pl3          1 S1                 0.0000
      8 ****         1.2346  -1.5637  -1.2096 N.2            1 S1                 0.0000
      9 ****         1.2030  -1.5707   0.1784 C.2            1 S1                 0.0000
     10 ****         0.7488  -0.3874   0.6713 C.2            1 S1                 0.0000
     11 ****         0.5870  -0.1031   2.1122 C.2            1 S1                 0.0000
     12 ****         0.1546   0.9805   2.4997 O.2            1 S1                 0.0000
     13 ****         0.9630  -1.1663   2.8917 N.pl3          1 S1                -1.0000
     14 ****         1.4345  -2.3803   2.4373 C.2            1 S1                 0.0000
     15 ****         1.7491  -3.2809   3.2158 O.2            1 S1                 0.0000
     16 ****         1.5597  -2.6004   1.0886 N.am           1 S1                 0.0000
     17 ****         2.0524  -3.8607   0.5247 C.3            1 S1                 0.0000
     18 ****        -3.6480   4.3845  -0.4118 H              1 S1                 0.0000
     19 ****        -3.7633   2.9279   0.5770 H              1 S1                 0.0000
     20 ****        -3.8586   2.8154  -1.1899 H              1 S1                 0.0000
     21 ****        -1.8923   1.3889   0.5633 H              1 S1                 0.0000
     22 ****        -1.9752   1.2853  -1.1928 H              1 S1                 0.0000
     23 ****         0.3320   2.3078  -1.3392 H              1 S1                 0.0000
     24 ****         0.4306   2.3534   0.3926 H              1 S1                 0.0000
     25 ****         0.2825   1.0721  -2.9658 H              1 S1                 0.0000
     26 ****         0.8502  -0.4275  -3.5974 H              1 S1                 0.0000
     27 ****         2.3320  -4.6093   1.2663 H              1 S1                 0.0000
     28 ****         2.9321  -3.6706  -0.0909 H              1 S1                 0.0000
     29 ****         1.2870  -4.3042  -0.1128 H              1 S1                 0.0000
     30 ****        -1.5603   3.6988   0.3395 LP             1 S1                 0.0000
     31 ****        -1.6475   3.5956  -1.2879 LP             1 S1                 0.0000
     32 ****         1.5195  -2.2915  -1.8334 LP             1 S1                 0.0000
     33 ****        -0.0939   1.6860   1.8359 LP             1 S1                 0.0000
     34 ****         0.0513   1.1565   3.4786 LP             1 S1                 0.0000
     35 ****         0.8884  -1.0509   3.8822 LP             1 S1                 0.0000
     36 ****         1.6652  -3.1409   4.2024 LP             1 S1                 0.0000
     37 ****         2.0884  -4.1523   2.8614 LP             1 S1                 0.0000
@<TRIPOS>BOND
    1    1    2 1     
    2    1   18 1     
    3    1   19 1     
    4    1   20 1     
    5    2    3 1     
    6    3    4 1     
    7    3   21 1     
    8    3   22 1     
    9    4    5 1     
   10    4   23 1     
   11    4   24 1     
   12    5   10 1     
   13    5    6 1     
   14    6    7 1     
   15    6    8 2     
   16    7   25 1     
   17    7   26 1     
   18    8    9 1     
   19    9   16 1     
   20    9   10 2     
   21   10   11 1     
   22   11   12 2     
   23   11   13 1     
   24   13   14 1     
   25   14   15 2     
   26   14   16 am    
   27   16   17 1     
   28   17   27 1     
   29   17   28 1     
   30   17   29 1     
   31    2   30 1     
   32    2   31 1     
   33    8   32 1     
   34   12   33 1     
   35   12   34 1     
   36   13   35 1     
   37   15   36 1     
   38   15   37 1     
@<TRIPOS>SUBSTRUCTURE
      1 S1             1
@<TRIPOS>SET
LONE_PAIRS      STATIC     ATOMS    <user>   **** ""
8 30 31 32 33 34 35 36 37
DONOR_HYDROGENS      STATIC     ATOMS    <user>   **** ""
2 25 26
ATOM$BLUE        STATIC     ATOMS    COLORGROUP SYSTEM
8 30 31 32 33 34 35 36 37
ATOM$RED        STATIC     ATOMS    COLORGROUP SYSTEM
2 25 26
