AV-unprocessed.smi:2096|AV-procd|sdf|8562|dock10
  -GOLD-   2272011293D 1   1.00000     0.00000
 Structure written by MMmdl.
 35 36  0  0  0  0  0  0  0  0  1 V2000
  151.0279  141.8424  156.4561 C   0  0  0  0  0  0  0  0  0  0  0  0
  150.6677  140.6940  155.6508 N   0  0  0  0  0  0  0  0  0  0  0  0
  151.5521  139.5898  155.5844 C   0  0  0  0  0  0  0  0  0  0  0  0
  152.6229  139.5573  156.1914 O   0  0  0  0  0  0  0  0  0  0  0  0
  151.0872  138.4962  154.7393 C   0  0  0  0  0  0  0  0  0  0  0  0
  149.9024  138.5714  154.0944 C   0  0  0  0  0  0  0  0  0  0  0  0
  149.0559  139.6617  154.1796 N   0  0  0  0  0  0  0  0  0  0  0  0
  147.7909  139.6626  153.4341 C   0  0  0  0  0  0  0  0  0  0  0  0
  146.8429  138.5362  153.8665 C   0  0  0  0  0  0  0  0  0  0  0  0
  145.9585  138.7431  154.6987 O   0  0  0  0  0  0  0  0  0  0  0  0
  147.0264  137.3491  153.2722 N   0  0  0  0  0  0  0  0  0  0  0  0
  146.2306  136.1608  153.5450 C   0  0  0  0  0  0  0  0  0  0  0  0
  145.1744  135.9668  152.4641 C   0  0  0  0  0  0  0  0  0  0  0  0
  144.4977  134.5975  152.3034 C   0  0  0  0  0  0  0  0  0  0  0  0
  144.4551  134.8456  150.7931 C   0  0  0  0  0  0  0  0  0  0  0  0
  145.5991  135.8431  150.9924 C   0  0  0  0  0  0  0  0  0  0  0  0
  149.4308  140.7664  154.9738 C   0  0  0  0  0  0  0  0  0  0  0  0
  148.6974  141.7544  155.0659 O   0  0  0  0  0  0  0  0  0  0  0  0
  151.9988  141.7071  156.9314 H   0  0  0  0  0  0  0  0  0  0  0  0
  150.2551  141.9572  157.2184 H   0  0  0  0  0  0  0  0  0  0  0  0
  151.0612  142.7064  155.7898 H   0  0  0  0  0  0  0  0  0  0  0  0
  151.7005  137.6141  154.6278 H   0  0  0  0  0  0  0  0  0  0  0  0
  149.6051  137.7360  153.4773 H   0  0  0  0  0  0  0  0  0  0  0  0
  147.2760  140.6134  153.5773 H   0  0  0  0  0  0  0  0  0  0  0  0
  147.9870  139.5933  152.3622 H   0  0  0  0  0  0  0  0  0  0  0  0
  147.7713  137.2600  152.5966 H   0  0  0  0  0  0  0  0  0  0  0  0
  146.8856  135.2895  153.5978 H   0  0  0  0  0  0  0  0  0  0  0  0
  145.7590  136.2629  154.5233 H   0  0  0  0  0  0  0  0  0  0  0  0
  144.3963  136.7295  152.5415 H   0  0  0  0  0  0  0  0  0  0  0  0
  145.1515  133.7666  152.5742 H   0  0  0  0  0  0  0  0  0  0  0  0
  143.5211  134.5126  152.7811 H   0  0  0  0  0  0  0  0  0  0  0  0
  144.7049  133.9796  150.1796 H   0  0  0  0  0  0  0  0  0  0  0  0
  143.5289  135.3219  150.4679 H   0  0  0  0  0  0  0  0  0  0  0  0
  145.5101  136.7625  150.4131 H   0  0  0  0  0  0  0  0  0  0  0  0
  146.5825  135.3854  150.8716 H   0  0  0  0  0  0  0  0  0  0  0  0
  1  2  1  0  0  0  0
  1 19  1  0  0  0  0
  1 20  1  0  0  0  0
  1 21  1  0  0  0  0
  2 17  1  0  0  0  0
  2  3  1  0  0  0  0
  3  4  2  0  0  0  0
  3  5  1  0  0  0  0
  5  6  2  0  0  0  0
  5 22  1  0  0  0  0
  6  7  1  0  0  0  0
  6 23  1  0  0  0  0
  7  8  1  0  0  0  0
  7 17  1  0  0  0  0
  8  9  1  0  0  0  0
  8 24  1  0  0  0  0
  8 25  1  0  0  0  0
  9 10  2  0  0  0  0
  9 11  1  0  0  0  0
 11 12  1  0  0  0  0
 11 26  1  0  0  0  0
 12 13  1  0  0  0  0
 12 27  1  0  0  0  0
 12 28  1  0  0  0  0
 13 16  1  0  0  0  0
 13 14  1  0  0  0  0
 13 29  1  0  0  0  0
 14 15  1  0  0  0  0
 14 30  1  0  0  0  0
 14 31  1  0  0  0  0
 15 16  1  0  0  0  0
 15 32  1  0  0  0  0
 15 33  1  0  0  0  0
 16 34  1  0  0  0  0
 16 35  1  0  0  0  0
 17 18  2  0  0  0  0
M  END
> <s_m_source_file>
AV-unprocessed.smi

> <i_m_source_file_index>
2096

> <i_lp_mmshare_version>
43012

> <i_f3d_flags>
0

> <s_epik_input>
W0NIM11uMWMoPU8pW2NIXVtjSF1uKGMxPU8pW0NIMl1DKD1PKVtOSF1bQ0gyXVtDSF0yW0NIMl1bQ0gyXVtDSDJdMg==

> <s_epik_cmdline>
J2VwaWtfcHl0aG9uJywgJy1waCcsICc3LjAnLCAnLXRuJywgJzgnLCAnLW1hJywgJzIwMCcsICctbWV0YWxfYmluZGluZycsICctaW1hZScsICc8aW5maWxlLm1hZT4nLCAnLW9tYWUnLCAnPG91dGZpbGUubWFlPic=

> <r_lp_tautomer_probability>
1

> <r_epik_Ionization_Penalty>
3.11585e-08

> <r_epik_Ionization_Penalty_Charging>
1.18568e-08

> <r_epik_Ionization_Penalty_Neutral>
1.93017e-08

> <r_epik_State_Penalty>
-0

> <r_epik_Charging_Adjusted_Penalty>
1.18568e-08

> <i_epik_Tot_Q>
0

> <i_epik_Tot_abs_Q>
0

> <r_epik_Metal_State_Penalty>
-0

> <b_epik_Metal_Only>
0

> <s_lp_Force_Field>
OPLS_2005

> <r_lp_Energy>
20.363

> <b_lp_Chiralities_Consistent>
1

> <s_lp_Variant>
AV-unprocessed.smi:2096-1

> <Gold.Version>
5.8.1

> <Gold.Id.Protein>
6NUR|6NUR_protein|mol2

> <Gold.PLP.Fitness>
39.3294

> <Gold.PLP.PLP>
-31.6184

> <Gold.PLP.part.hbond>
-2.0000

> <Gold.PLP.part.metal>
0.0000

> <Gold.PLP.part.buried>
-1.3363

> <Gold.PLP.part.nonpolar>
-29.0048

> <Gold.PLP.part.repulsive>
0.8176

> <Gold.PLP.ligand.clash>
0.0000

> <Gold.PLP.ligand.torsion>
0.5700

> <Gold.PLP.Chemscore.Hbond>
1.9280

> <Gold.PLP.Chemscore.CHOScore>
1.0000

> <Gold.PLP.Chemscore.Metal>
0.0000

> <Gold.Chemscore.Hbonds>
donor molecule, donor type, donor heavy atom, donor atom, acceptor molecule, acceptor atom, score
      L1  H    11    26       P1  7948  0.96
      P1  H  7997  8010       L1     4  1.00
      L1  C     6    23       P1  7948  1.00

> <Gold.PLP.Chemscore.Internal.Correction>
0.0670

> <Gold.Rescore>
     Score         DG    S(hbond)    S(metal)    S(lipo)     H(rot)  DE(clash)    DE(int)     intcor
     12.57     -13.50       1.90        0.00      53.48       1.78       0.49       0.44       ----

> <Gold.Chemscore.Fitness>
12.5667

> <Gold.Chemscore.DG>
-13.5045

> <Gold.Chemscore.ZeroCoef>
-5.4800

> <Gold.Chemscore.Hbond>
1.8954

> <Gold.Chemscore.Metal>
0.0000

> <Gold.Chemscore.Lipo>
53.4839

> <Gold.Chemscore.Internal_Hbond>
0.0000

> <Gold.Chemscore.DEClash>
0.4940

> <Gold.Chemscore.DEInternal>
0.4439

> <Gold.Chemscore.Rot>
1.7827

> <Gold.Chemscore.Internal.Correction>
   9.000000E+99

> <Gold.Chemscore.Hbonds>
donor molecule, donor type, donor heavy atom, donor atom, acceptor molecule, acceptor atom, score
      L1  H    11    26       P1  7948  0.92
      P1  H  7997  8010       L1     4  1.00

> <Gold.Chemscore.Hbond.Weighted>
-6.3305

> <Gold.Chemscore.Metal.Weighted>
-0.0000

> <Gold.Chemscore.Lipo.Weighted>
-6.2576

> <Gold.Chemscore.Internal_Hbond.Weighted>
0.0000

> <Gold.Chemscore.DEClash.Weighted>
0.4940

> <Gold.Chemscore.DEInternal.Weighted>
0.4439

> <Gold.Chemscore.Rot.Weighted>
4.5636

> <Gold.Chemscore.Internal.Correction.Weighted>
   9.000000E+99

> <Gold.Protein.RotatedTorsions>
[ 6907 6896 6895 6894 ] final -161.61 input  -60.11 | X-H torsion
[ 7974 7965 7964 7962 ] final  133.61 input  175.53 | X-H torsion
[ 8008 7997 7996 7995 ] final   88.81 input   59.86 | X-H torsion
[ 10167 10162 10161 10158 ] final -160.23 input  -65.29 | X-H torsion
[ 10718 10713 10712 10709 ] final  165.73 input   66.30 | X-H torsion
[ 10763 10752 10751 10750 ] final  -68.02 input  -60.55 | X-H torsion
[ 11005 11000 10999 10996 ] final  154.29 input  -57.11 | X-H torsion

> <Gold.Protein.ActiveResidues>
 VAL166  LYS551  ARG553  GLY616  TRP617  ASP618  TYR619  PRO620  LYS621  CYS622 
 ASP623  PHE694  ASN695  SER759  ASP760  ASP761  ALA762  ILE779  LEU786  VAL792 
 PHE793  MET794  SER795  GLU796  ALA797  LYS798  CYS799  TRP800  GLU811  SER814 

> <Gold.Protein.RotatedAtoms>
  151.3674  133.3867  159.2695 H   0  0  0  0  0  0  0  0  0  0  0  0  # atno 6907 bound_to 6896
  150.9678  134.9056  159.7780 H   0  0  0  0  0  0  0  0  0  0  0  0  # atno 6908 bound_to 6896
  152.5173  134.3635  159.9345 H   0  0  0  0  0  0  0  0  0  0  0  0  # atno 6909 bound_to 6896
  144.9848  139.4467  143.5368 H   0  0  0  0  0  0  0  0  0  0  0  0  # atno 7974 bound_to 7965
  155.9923  140.3367  155.6765 H   0  0  0  0  0  0  0  0  0  0  0  0  # atno 8008 bound_to 7997
  155.6404  140.0694  157.2638 H   0  0  0  0  0  0  0  0  0  0  0  0  # atno 8009 bound_to 7997
  154.4223  140.1744  156.1554 H   0  0  0  0  0  0  0  0  0  0  0  0  # atno 8010 bound_to 7997
  139.6555  144.0006  152.2191 H   0  0  0  0  0  0  0  0  0  0  0  0  # atno 10167 bound_to 10162
  157.0760  131.0379  151.2593 H   0  0  0  0  0  0  0  0  0  0  0  0  # atno 10718 bound_to 10713
  154.3830  135.6070  153.5801 H   0  0  0  0  0  0  0  0  0  0  0  0  # atno 10763 bound_to 10752
  152.9788  135.5865  154.4388 H   0  0  0  0  0  0  0  0  0  0  0  0  # atno 10764 bound_to 10752
  154.4160  135.2845  155.1984 H   0  0  0  0  0  0  0  0  0  0  0  0  # atno 10765 bound_to 10752
  140.1475  134.8697  157.2412 H   0  0  0  0  0  0  0  0  0  0  0  0  # atno 11005 bound_to 11000
  146.3417  139.9143  142.8776 LP  0  0  0  0  0  0  0  0  0  0  0  0  # atno 17320 bound_to 7965
  145.2370  140.9995  143.3958 LP  0  0  0  0  0  0  0  0  0  0  0  0  # atno 17321 bound_to 7965
  139.9732  144.6479  150.7970 LP  0  0  0  0  0  0  0  0  0  0  0  0  # atno 17342 bound_to 10162
  140.7557  143.3051  151.2981 LP  0  0  0  0  0  0  0  0  0  0  0  0  # atno 17343 bound_to 10162
  157.4839  130.7782  149.7441 LP  0  0  0  0  0  0  0  0  0  0  0  0  # atno 17370 bound_to 10713
  155.9937  130.3923  150.2890 LP  0  0  0  0  0  0  0  0  0  0  0  0  # atno 17371 bound_to 10713
  140.2645  134.3532  155.7395 LP  0  0  0  0  0  0  0  0  0  0  0  0  # atno 17394 bound_to 11000
  141.2194  133.7388  156.9130 LP  0  0  0  0  0  0  0  0  0  0  0  0  # atno 17395 bound_to 11000

$$$$
