AV-unprocessed.smi:3198|AV-procd|sdf|12227|dock10
  -GOLD-   2272018 63D 1   1.00000     0.00000
 Structure written by MMmdl.
 38 39  0  0  0  0  0  0  0  0  2 V2000
  139.2434  140.6022  153.7004 C   0  0  0  0  0  0  0  0  0  0  0  0
  139.8155  139.2007  153.6838 C   0  0  0  0  0  0  0  0  0  0  0  0
  139.0455  138.0674  154.0175 C   0  0  0  0  0  0  0  0  0  0  0  0
  139.6488  136.7942  153.9803 C   0  0  0  0  0  0  0  0  0  0  0  0
  141.0059  136.6811  153.6137 C   0  0  0  0  0  0  0  0  0  0  0  0
  141.7367  137.8494  153.2887 C   0  0  0  0  0  0  0  0  0  0  0  0
  143.0866  137.8566  152.9157 N   0  0  0  0  0  0  0  0  0  0  0  0
  143.8299  136.6083  152.8428 C   0  0  0  0  0  0  0  0  0  0  0  0
  145.3332  136.8602  152.6891 C   0  0  0  0  0  0  0  0  0  0  0  0
  145.9476  135.6804  152.1987 O   0  0  0  0  0  0  0  0  0  0  0  0
  145.3987  135.2458  150.9659 C   0  0  0  0  0  0  0  0  0  0  0  0
  144.7520  133.8698  151.1686 C   0  0  2  0  0  0  0  0  0  0  0  0
  145.7581  132.7391  151.3784 C   0  0  0  0  0  0  0  0  0  0  0  0
  145.0142  131.5021  150.8972 C   0  0  0  0  0  0  0  0  0  0  0  0
  143.8179  132.0628  150.1229 C   0  0  0  0  0  0  0  0  0  0  0  0
  144.0819  133.4523  149.9903 O   0  0  0  0  0  0  0  0  0  0  0  0
  141.1132  139.0480  153.3366 N   0  3  0  0  0  0  0  0  0  0  0  0
  138.1819  140.5910  153.9502 H   0  0  0  0  0  0  0  0  0  0  0  0
  139.3572  141.0718  152.7230 H   0  0  0  0  0  0  0  0  0  0  0  0
  139.7609  141.2144  154.4395 H   0  0  0  0  0  0  0  0  0  0  0  0
  138.0071  138.1690  154.2983 H   0  0  0  0  0  0  0  0  0  0  0  0
  139.0768  135.9131  154.2308 H   0  0  0  0  0  0  0  0  0  0  0  0
  141.4647  135.7040  153.5851 H   0  0  0  0  0  0  0  0  0  0  0  0
  143.6062  138.7222  152.9447 H   0  0  0  0  0  0  0  0  0  0  0  0
  143.6407  136.0071  153.7329 H   0  0  0  0  0  0  0  0  0  0  0  0
  143.4705  136.0404  151.9842 H   0  0  0  0  0  0  0  0  0  0  0  0
  145.4933  137.6741  151.9803 H   0  0  0  0  0  0  0  0  0  0  0  0
  145.7740  137.1635  153.6403 H   0  0  0  0  0  0  0  0  0  0  0  0
  144.6664  135.9624  150.5902 H   0  0  0  0  0  0  0  0  0  0  0  0
  146.1972  135.1708  150.2260 H   0  0  0  0  0  0  0  0  0  0  0  0
  144.0464  133.8952  152.0015 H   0  0  0  0  0  0  0  0  0  0  0  0
  146.6392  132.8984  150.7549 H   0  0  0  0  0  0  0  0  0  0  0  0
  146.0902  132.6588  152.4138 H   0  0  0  0  0  0  0  0  0  0  0  0
  145.6533  130.8883  150.2614 H   0  0  0  0  0  0  0  0  0  0  0  0
  144.6777  130.8850  151.7312 H   0  0  0  0  0  0  0  0  0  0  0  0
  143.6910  131.5915  149.1480 H   0  0  0  0  0  0  0  0  0  0  0  0
  142.8957  131.9260  150.6898 H   0  0  0  0  0  0  0  0  0  0  0  0
  141.6492  139.8833  153.1007 H   0  0  0  0  0  0  0  0  0  0  0  0
  1  2  1  0  0  0  0
  1 18  1  0  0  0  0
  1 19  1  0  0  0  0
  1 20  1  0  0  0  0
  2 17  1  0  0  0  0
  2  3  2  0  0  0  0
  3  4  1  0  0  0  0
  3 21  1  0  0  0  0
  4  5  2  0  0  0  0
  4 22  1  0  0  0  0
  5  6  1  0  0  0  0
  5 23  1  0  0  0  0
  6  7  1  0  0  0  0
  6 17  2  0  0  0  0
  7  8  1  0  0  0  0
  7 24  1  0  0  0  0
  8  9  1  0  0  0  0
  8 25  1  0  0  0  0
  8 26  1  0  0  0  0
  9 10  1  0  0  0  0
  9 27  1  0  0  0  0
  9 28  1  0  0  0  0
 10 11  1  0  0  0  0
 11 12  1  0  0  0  0
 11 29  1  0  0  0  0
 11 30  1  0  0  0  0
 12 16  1  0  0  0  0
 12 13  1  0  0  0  0
 12 31  1  0  0  0  0
 13 14  1  0  0  0  0
 13 32  1  0  0  0  0
 13 33  1  0  0  0  0
 14 15  1  0  0  0  0
 14 34  1  0  0  0  0
 14 35  1  0  0  0  0
 15 16  1  0  0  0  0
 15 36  1  0  0  0  0
 15 37  1  0  0  0  0
 17 38  1  0  0  0  0
M  CHG  1  17   1
M  END
> <s_m_source_file>
AV-unprocessed.smi

> <i_m_source_file_index>
3198

> <i_lp_mmshare_version>
43012

> <i_f3d_flags>
0

> <s_epik_input>
W0NIM11jMVtjSF1bY0hdW2NIXWMobjEpW05IXVtDSDJdW0NIMl1PW0NIMl1bQ0BASF0yW0NIMl1bQ0gyXVtDSDJdTzI=

> <s_epik_cmdline>
J2VwaWtfcHl0aG9uJywgJy1waCcsICc3LjAnLCAnLXRuJywgJzgnLCAnLW1hJywgJzIwMCcsICctbWV0YWxfYmluZGluZycsICctaW1hZScsICc8aW5maWxlLm1hZT4nLCAnLW9tYWUnLCAnPG91dGZpbGUubWFlPic=

> <r_lp_tautomer_probability>
0.999994

> <r_epik_Ionization_Penalty>
0.0710016

> <r_epik_Ionization_Penalty_Charging>
0.0710012

> <r_epik_Ionization_Penalty_Neutral>
3.47026e-07

> <r_epik_State_Penalty>
0.0622974

> <r_epik_Charging_Adjusted_Penalty>
0.133299

> <i_epik_Tot_Q>
1

> <i_epik_Tot_abs_Q>
1

> <r_epik_Metal_State_Penalty>
2.79497

> <b_epik_Metal_Only>
0

> <s_lp_Force_Field>
OPLS_2005

> <r_lp_Energy>
24.6681

> <b_lp_Chiralities_Consistent>
1

> <s_lp_Variant>
AV-unprocessed.smi:3198-1

> <Gold.Version>
5.8.1

> <Gold.Id.Protein>
6NUR|6NUR_protein|mol2

> <Gold.PLP.Fitness>
44.4427

> <Gold.PLP.PLP>
-35.4446

> <Gold.PLP.part.hbond>
-3.6055

> <Gold.PLP.part.metal>
0.0000

> <Gold.PLP.part.buried>
-4.5070

> <Gold.PLP.part.nonpolar>
-28.1089

> <Gold.PLP.part.repulsive>
1.3430

> <Gold.PLP.ligand.clash>
0.0000

> <Gold.PLP.ligand.torsion>
0.5533

> <Gold.PLP.Chemscore.Hbond>
3.3622

> <Gold.PLP.Chemscore.CHOScore>
0.0000

> <Gold.PLP.Chemscore.Metal>
0.0000

> <Gold.Chemscore.Hbonds>
donor molecule, donor type, donor heavy atom, donor atom, acceptor molecule, acceptor atom, score
      L1  H     7    24       P1 10175  1.82
      L1  H    17    38       P1 10175  1.35

> <Gold.PLP.Chemscore.Internal.Correction>
0.0182

> <Gold.Rescore>
     Score         DG    S(hbond)    S(metal)    S(lipo)     H(rot)  DE(clash)    DE(int)     intcor
     14.16     -14.91       1.14        0.00      85.42       1.71       0.22       0.53       ----

> <Gold.Chemscore.Fitness>
14.1606

> <Gold.Chemscore.DG>
-14.9103

> <Gold.Chemscore.ZeroCoef>
-5.4800

> <Gold.Chemscore.Hbond>
1.1389

> <Gold.Chemscore.Metal>
0.0000

> <Gold.Chemscore.Lipo>
85.4235

> <Gold.Chemscore.Internal_Hbond>
0.0000

> <Gold.Chemscore.DEClash>
0.2199

> <Gold.Chemscore.DEInternal>
0.5298

> <Gold.Chemscore.Rot>
1.7063

> <Gold.Chemscore.Internal.Correction>
   9.000000E+99

> <Gold.Chemscore.Hbonds>
donor molecule, donor type, donor heavy atom, donor atom, acceptor molecule, acceptor atom, score
      L1  H     7    24       P1 10175  0.88
      L1  H    17    38       P1 10175  0.17

> <Gold.Chemscore.Hbond.Weighted>
-3.8039

> <Gold.Chemscore.Metal.Weighted>
-0.0000

> <Gold.Chemscore.Lipo.Weighted>
-9.9945

> <Gold.Chemscore.Internal_Hbond.Weighted>
0.0000

> <Gold.Chemscore.DEClash.Weighted>
0.2199

> <Gold.Chemscore.DEInternal.Weighted>
0.5298

> <Gold.Chemscore.Rot.Weighted>
4.3681

> <Gold.Chemscore.Internal.Correction.Weighted>
   9.000000E+99

> <Gold.Protein.RotatedTorsions>
[ 6907 6896 6895 6894 ] final  157.26 input  -60.11 | X-H torsion
[ 7974 7965 7964 7962 ] final  119.69 input  175.53 | X-H torsion
[ 8008 7997 7996 7995 ] final   14.39 input   59.86 | X-H torsion
[ 10167 10162 10161 10158 ] final  -71.61 input  -65.29 | X-H torsion
[ 10718 10713 10712 10709 ] final  163.06 input   66.30 | X-H torsion
[ 10763 10752 10751 10750 ] final   53.78 input  -60.55 | X-H torsion
[ 11005 11000 10999 10996 ] final  146.12 input  -57.11 | X-H torsion

> <Gold.Protein.ActiveResidues>
 VAL166  LYS551  ARG553  GLY616  TRP617  ASP618  TYR619  PRO620  LYS621  CYS622 
 ASP623  PHE694  ASN695  SER759  ASP760  ASP761  ALA762  ILE779  LEU786  VAL792 
 PHE793  MET794  SER795  GLU796  ALA797  LYS798  CYS799  TRP800  GLU811  SER814 

> <Gold.Protein.RotatedAtoms>
  152.0176  133.3886  159.4244 H   0  0  0  0  0  0  0  0  0  0  0  0  # atno 6907 bound_to 6896
  150.6893  134.3661  159.4981 H   0  0  0  0  0  0  0  0  0  0  0  0  # atno 6908 bound_to 6896
  152.1430  134.9047  160.0603 H   0  0  0  0  0  0  0  0  0  0  0  0  # atno 6909 bound_to 6896
  145.1401  139.3273  143.4620 H   0  0  0  0  0  0  0  0  0  0  0  0  # atno 7974 bound_to 7965
  154.8478  140.2925  155.5618 H   0  0  0  0  0  0  0  0  0  0  0  0  # atno 8008 bound_to 7997
  156.3015  140.2502  156.3363 H   0  0  0  0  0  0  0  0  0  0  0  0  # atno 8009 bound_to 7997
  154.9054  140.0390  157.1906 H   0  0  0  0  0  0  0  0  0  0  0  0  # atno 8010 bound_to 7997
  140.5259  143.2326  151.7348 H   0  0  0  0  0  0  0  0  0  0  0  0  # atno 10167 bound_to 10162
  157.1139  131.0475  151.2445 H   0  0  0  0  0  0  0  0  0  0  0  0  # atno 10718 bound_to 10713
  152.9798  135.5767  154.4797 H   0  0  0  0  0  0  0  0  0  0  0  0  # atno 10763 bound_to 10752
  154.4348  135.2774  155.1890 H   0  0  0  0  0  0  0  0  0  0  0  0  # atno 10764 bound_to 10752
  154.3583  135.6194  153.5731 H   0  0  0  0  0  0  0  0  0  0  0  0  # atno 10765 bound_to 10752
  140.0767  134.9121  157.1434 H   0  0  0  0  0  0  0  0  0  0  0  0  # atno 11005 bound_to 11000
  146.3506  140.1434  142.8594 LP  0  0  0  0  0  0  0  0  0  0  0  0  # atno 17320 bound_to 7965
  145.0542  140.9040  143.4977 LP  0  0  0  0  0  0  0  0  0  0  0  0  # atno 17321 bound_to 7965
  139.4938  144.4186  152.0002 LP  0  0  0  0  0  0  0  0  0  0  0  0  # atno 17342 bound_to 10162
  140.3285  144.3344  150.5993 LP  0  0  0  0  0  0  0  0  0  0  0  0  # atno 17343 bound_to 10162
  157.4535  130.7612  149.7172 LP  0  0  0  0  0  0  0  0  0  0  0  0  # atno 17370 bound_to 10713
  155.9844  130.3992  150.3314 LP  0  0  0  0  0  0  0  0  0  0  0  0  # atno 17371 bound_to 10713
  140.3547  134.2560  155.7194 LP  0  0  0  0  0  0  0  0  0  0  0  0  # atno 17394 bound_to 11000
  141.2032  133.7918  157.0352 LP  0  0  0  0  0  0  0  0  0  0  0  0  # atno 17395 bound_to 11000

$$$$
