AV-unprocessed.smi:1017|AV-procd|sdf|4439|dock10
  -GOLD-   22720 2403D 1   1.00000     0.00000
 Structure written by MMmdl.
 43 44  0  0  0  0  0  0  0  0  2 V2000
  152.1370  143.2496  159.7239 C   0  0  0  0  0  0  0  0  0  0  0  0
  152.7883  141.9909  159.6579 O   0  0  0  0  0  0  0  0  0  0  0  0
  151.9515  140.9282  159.2225 C   0  0  0  0  0  0  0  0  0  0  0  0
  151.7563  140.9404  157.6939 C   0  0  0  0  0  0  0  0  0  0  0  0
  150.9299  139.8133  157.2506 N   0  0  0  0  0  0  0  0  0  0  0  0
  150.5453  138.9590  158.2699 N   0  0  0  0  0  0  0  0  0  0  0  0
  149.8070  137.9266  158.0169 C   0  0  0  0  0  0  0  0  0  0  0  0
  149.3917  137.0007  159.1183 C   0  0  0  0  0  0  0  0  0  0  0  0
  150.1846  136.9177  160.0639 O   0  0  0  0  0  0  0  0  0  0  0  0
  148.2035  136.3308  159.0091 N   0  5  0  0  0  0  0  0  0  0  0  0
  147.3781  135.7096  160.0700 C   0  0  0  0  0  0  0  0  0  0  0  0
  145.8922  135.9690  159.6651 C   0  0  0  0  0  0  0  0  0  0  0  0
  145.0240  135.4618  160.5379 F   0  0  0  0  0  0  0  0  0  0  0  0
  145.6548  137.2800  159.5778 F   0  0  0  0  0  0  0  0  0  0  0  0
  145.6305  135.4239  158.4748 F   0  0  0  0  0  0  0  0  0  0  0  0
  147.6846  134.1776  160.1561 C   0  0  0  0  0  0  0  0  0  0  0  0
  147.0939  133.4545  161.3932 C   0  0  0  0  0  0  0  0  0  0  0  0
  147.4933  134.1284  162.7203 C   0  0  0  0  0  0  0  0  0  0  0  0
  147.1194  135.6229  162.6862 C   0  0  0  0  0  0  0  0  0  0  0  0
  147.7091  136.3576  161.4554 C   0  0  0  0  0  0  0  0  0  0  0  0
  149.3694  137.6498  156.6536 C   0  0  0  0  0  0  0  0  0  0  0  0
  149.7522  138.4932  155.6705 C   0  0  0  0  0  0  0  0  0  0  0  0
  150.5850  139.6659  155.9367 C   0  0  0  0  0  0  0  0  0  0  0  0
  150.9415  140.4519  155.0589 O   0  0  0  0  0  0  0  0  0  0  0  0
  152.8302  143.9950  160.1137 H   0  0  0  0  0  0  0  0  0  0  0  0
  151.2750  143.2151  160.3915 H   0  0  0  0  0  0  0  0  0  0  0  0
  151.8068  143.5888  158.7422 H   0  0  0  0  0  0  0  0  0  0  0  0
  152.4377  139.9953  159.5098 H   0  0  0  0  0  0  0  0  0  0  0  0
  150.9964  140.9519  159.7496 H   0  0  0  0  0  0  0  0  0  0  0  0
  151.3071  141.8776  157.3635 H   0  0  0  0  0  0  0  0  0  0  0  0
  152.7322  140.8993  157.2066 H   0  0  0  0  0  0  0  0  0  0  0  0
  147.3460  133.6770  159.2485 H   0  0  0  0  0  0  0  0  0  0  0  0
  148.7604  134.0102  160.1916 H   0  0  0  0  0  0  0  0  0  0  0  0
  146.0079  133.3897  161.3237 H   0  0  0  0  0  0  0  0  0  0  0  0
  147.4421  132.4212  161.3997 H   0  0  0  0  0  0  0  0  0  0  0  0
  147.0072  133.6329  163.5610 H   0  0  0  0  0  0  0  0  0  0  0  0
  148.5684  134.0249  162.8725 H   0  0  0  0  0  0  0  0  0  0  0  0
  146.0356  135.7337  162.7227 H   0  0  0  0  0  0  0  0  0  0  0  0
  147.4861  136.1018  163.5946 H   0  0  0  0  0  0  0  0  0  0  0  0
  148.7869  136.3892  161.6093 H   0  0  0  0  0  0  0  0  0  0  0  0
  147.3871  137.3991  161.4673 H   0  0  0  0  0  0  0  0  0  0  0  0
  148.7538  136.7948  156.4162 H   0  0  0  0  0  0  0  0  0  0  0  0
  149.4338  138.2973  154.6573 H   0  0  0  0  0  0  0  0  0  0  0  0
  1  2  1  0  0  0  0
  1 25  1  0  0  0  0
  1 26  1  0  0  0  0
  1 27  1  0  0  0  0
  2  3  1  0  0  0  0
  3  4  1  0  0  0  0
  3 28  1  0  0  0  0
  3 29  1  0  0  0  0
  4  5  1  0  0  0  0
  4 30  1  0  0  0  0
  4 31  1  0  0  0  0
  5 23  1  0  0  0  0
  5  6  1  0  0  0  0
  6  7  2  0  0  0  0
  7  8  1  0  0  0  0
  7 21  1  0  0  0  0
  8  9  2  0  0  0  0
  8 10  1  0  0  0  0
 10 11  1  0  0  0  0
 11 20  1  0  0  0  0
 11 12  1  0  0  0  0
 11 16  1  0  0  0  0
 12 13  1  0  0  0  0
 12 14  1  0  0  0  0
 12 15  1  0  0  0  0
 16 17  1  0  0  0  0
 16 32  1  0  0  0  0
 16 33  1  0  0  0  0
 17 18  1  0  0  0  0
 17 34  1  0  0  0  0
 17 35  1  0  0  0  0
 18 19  1  0  0  0  0
 18 36  1  0  0  0  0
 18 37  1  0  0  0  0
 19 20  1  0  0  0  0
 19 38  1  0  0  0  0
 19 39  1  0  0  0  0
 20 40  1  0  0  0  0
 20 41  1  0  0  0  0
 21 22  2  0  0  0  0
 21 42  1  0  0  0  0
 22 23  1  0  0  0  0
 22 43  1  0  0  0  0
 23 24  2  0  0  0  0
M  CHG  1  10  -1
M  END
> <s_m_source_file>
AV-unprocessed.smi

> <i_m_source_file_index>
1017

> <i_lp_mmshare_version>
43012

> <i_f3d_flags>
0

> <s_epik_input>
W0NIM11PW0NIMl1bQ0gyXW4xbmMoW2NIXVtjSF1jMT1PKUMoPU8pW05IXUMyKEMoRikoRilGKVtDSDJdW0NIMl1bQ0gyXVtDSDJdW0NIMl0y

> <s_epik_cmdline>
J2VwaWtfcHl0aG9uJywgJy1waCcsICc3LjAnLCAnLXRuJywgJzgnLCAnLW1hJywgJzIwMCcsICctbWV0YWxfYmluZGluZycsICctaW1hZScsICc8aW5maWxlLm1hZT4nLCAnLW9tYWUnLCAnPG91dGZpbGUubWFlPic=

> <r_lp_tautomer_probability>
1

> <r_epik_Ionization_Penalty>
6.5547

> <r_epik_Ionization_Penalty_Charging>
6.5547

> <r_epik_Ionization_Penalty_Neutral>
1.08437e-11

> <r_epik_State_Penalty>
6.55469

> <r_epik_Charging_Adjusted_Penalty>
13.1094

> <i_epik_Tot_Q>
-1

> <i_epik_Tot_abs_Q>
1

> <r_epik_Metal_State_Penalty>
2.48023

> <b_epik_Metal_Only>
1

> <s_lp_Force_Field>
OPLS_2005

> <r_lp_Energy>
56.1946

> <b_lp_Chiralities_Consistent>
1

> <s_lp_Variant>
AV-unprocessed.smi:1017-2

> <Gold.Version>
5.8.1

> <Gold.Id.Protein>
6NUR|6NUR_protein|mol2

> <Gold.PLP.Fitness>
38.3713

> <Gold.PLP.PLP>
-34.3117

> <Gold.PLP.part.hbond>
-2.8908

> <Gold.PLP.part.metal>
0.0000

> <Gold.PLP.part.buried>
-4.2398

> <Gold.PLP.part.nonpolar>
-27.5188

> <Gold.PLP.part.repulsive>
0.0499

> <Gold.PLP.ligand.clash>
0.0000

> <Gold.PLP.ligand.torsion>
1.0275

> <Gold.PLP.Chemscore.Hbond>
2.0000

> <Gold.PLP.Chemscore.CHOScore>
0.0000

> <Gold.PLP.Chemscore.Metal>
0.0000

> <Gold.Chemscore.Hbonds>
donor molecule, donor type, donor heavy atom, donor atom, acceptor molecule, acceptor atom, score
      P1  H  6896  6907       L1     9  0.91
      P1  H  7989  7998       L1    24  1.00

> <Gold.PLP.Chemscore.Internal.Correction>
0.1146

> <Gold.Rescore>
     Score         DG    S(hbond)    S(metal)    S(lipo)     H(rot)  DE(clash)    DE(int)     intcor
     12.67     -16.90       1.93        0.00      78.93       1.67       0.02       4.22       ----

> <Gold.Chemscore.Fitness>
12.6691

> <Gold.Chemscore.DG>
-16.9044

> <Gold.Chemscore.ZeroCoef>
-5.4800

> <Gold.Chemscore.Hbond>
1.9323

> <Gold.Chemscore.Metal>
0.0000

> <Gold.Chemscore.Lipo>
78.9275

> <Gold.Chemscore.Internal_Hbond>
0.0000

> <Gold.Chemscore.DEClash>
0.0199

> <Gold.Chemscore.DEInternal>
4.2153

> <Gold.Chemscore.Rot>
1.6657

> <Gold.Chemscore.Internal.Correction>
   9.000000E+99

> <Gold.Chemscore.Hbonds>
donor molecule, donor type, donor heavy atom, donor atom, acceptor molecule, acceptor atom, score
      P1  H  6896  6907       L1     9  0.48
      P1  H  7989  7998       L1    24  0.96

> <Gold.Chemscore.Hbond.Weighted>
-6.4540

> <Gold.Chemscore.Metal.Weighted>
-0.0000

> <Gold.Chemscore.Lipo.Weighted>
-9.2345

> <Gold.Chemscore.Internal_Hbond.Weighted>
0.0000

> <Gold.Chemscore.DEClash.Weighted>
0.0199

> <Gold.Chemscore.DEInternal.Weighted>
4.2153

> <Gold.Chemscore.Rot.Weighted>
4.2641

> <Gold.Chemscore.Internal.Correction.Weighted>
   9.000000E+99

> <Gold.Protein.RotatedTorsions>
[ 6907 6896 6895 6894 ] final  -27.53 input  -60.11 | X-H torsion
[ 7974 7965 7964 7962 ] final  160.59 input  175.53 | X-H torsion
[ 8008 7997 7996 7995 ] final    0.55 input   59.86 | X-H torsion
[ 10167 10162 10161 10158 ] final   44.56 input  -65.29 | X-H torsion
[ 10718 10713 10712 10709 ] final  -90.54 input   66.30 | X-H torsion
[ 10763 10752 10751 10750 ] final  101.71 input  -60.55 | X-H torsion
[ 11005 11000 10999 10996 ] final -147.33 input  -57.11 | X-H torsion

> <Gold.Protein.ActiveResidues>
 VAL166  LYS551  ARG553  GLY616  TRP617  ASP618  TYR619  PRO620  LYS621  CYS622 
 ASP623  PHE694  ASN695  SER759  ASP760  ASP761  ALA762  ILE779  LEU786  VAL792 
 PHE793  MET794  SER795  GLU796  ALA797  LYS798  CYS799  TRP800  GLU811  SER814 

> <Gold.Protein.RotatedAtoms>
  151.1456  135.0201  159.8644 H   0  0  0  0  0  0  0  0  0  0  0  0  # atno 6907 bound_to 6896
  152.5453  134.1448  159.8504 H   0  0  0  0  0  0  0  0  0  0  0  0  # atno 6908 bound_to 6896
  151.1528  133.4850  159.2628 H   0  0  0  0  0  0  0  0  0  0  0  0  # atno 6909 bound_to 6896
  144.7729  139.7778  143.6290 H   0  0  0  0  0  0  0  0  0  0  0  0  # atno 7974 bound_to 7965
  154.6694  140.2608  155.7023 H   0  0  0  0  0  0  0  0  0  0  0  0  # atno 8008 bound_to 7997
  156.2652  140.2832  156.1119 H   0  0  0  0  0  0  0  0  0  0  0  0  # atno 8009 bound_to 7997
  155.1191  140.0377  157.2735 H   0  0  0  0  0  0  0  0  0  0  0  0  # atno 8010 bound_to 7997
  140.3331  144.2564  150.6165 H   0  0  0  0  0  0  0  0  0  0  0  0  # atno 10167 bound_to 10162
  155.9988  130.4914  150.5339 H   0  0  0  0  0  0  0  0  0  0  0  0  # atno 10718 bound_to 10713
  153.3301  135.4035  155.1488 H   0  0  0  0  0  0  0  0  0  0  0  0  # atno 10763 bound_to 10752
  154.8621  135.3608  154.5481 H   0  0  0  0  0  0  0  0  0  0  0  0  # atno 10764 bound_to 10752
  153.5919  135.7073  153.5479 H   0  0  0  0  0  0  0  0  0  0  0  0  # atno 10765 bound_to 10752
  140.7728  134.3169  157.5070 H   0  0  0  0  0  0  0  0  0  0  0  0  # atno 11005 bound_to 11000
  146.1889  139.5118  142.9818 LP  0  0  0  0  0  0  0  0  0  0  0  0  # atno 17320 bound_to 7965
  145.6270  141.0311  143.1884 LP  0  0  0  0  0  0  0  0  0  0  0  0  # atno 17321 bound_to 7965
  140.5379  143.2229  151.8133 LP  0  0  0  0  0  0  0  0  0  0  0  0  # atno 17342 bound_to 10162
  139.4853  144.4638  151.9509 LP  0  0  0  0  0  0  0  0  0  0  0  0  # atno 17343 bound_to 10162
  157.3284  131.0695  151.1879 LP  0  0  0  0  0  0  0  0  0  0  0  0  # atno 17370 bound_to 10713
  157.2768  130.6731  149.6046 LP  0  0  0  0  0  0  0  0  0  0  0  0  # atno 17371 bound_to 10713
  139.8753  134.9271  156.3417 LP  0  0  0  0  0  0  0  0  0  0  0  0  # atno 17394 bound_to 11000
  140.9557  133.7421  156.0333 LP  0  0  0  0  0  0  0  0  0  0  0  0  # atno 17395 bound_to 11000

$$$$
