AV-unprocessed.smi:32|AV-procd|sdf|198|dock5
  -GOLD-   2262015463D 1   1.00000     0.00000
 Structure written by MMmdl.
 49 51  0  0  0  0  0  0  0  0  1 V2000
  149.0777  140.8269  157.2613 O   0  0  0  0  0  0  0  0  0  0  0  0
  149.9409  140.0817  157.7266 C   0  0  0  0  0  0  0  0  0  0  0  0
  149.8636  138.5626  157.5124 C   0  0  0  0  0  0  0  0  0  0  0  0
  148.7894  137.9173  158.2980 N   0  0  0  0  0  0  0  0  0  0  0  0
  147.4439  138.2344  157.9855 C   0  0  0  0  0  0  0  0  0  0  0  0
  147.1677  139.0179  157.0757 O   0  0  0  0  0  0  0  0  0  0  0  0
  146.4344  137.5825  158.8117 C   0  0  0  0  0  0  0  0  0  0  0  0
  145.1319  137.8264  158.5877 F   0  0  0  0  0  0  0  0  0  0  0  0
  146.7874  136.7391  159.8031 C   0  0  0  0  0  0  0  0  0  0  0  0
  148.1052  136.4397  160.0988 N   0  0  0  0  0  0  0  0  0  0  0  0
  148.4691  135.5049  161.2324 C   0  0  1  0  0  0  0  0  0  0  0  0
  147.9053  136.0321  162.5559 C   0  0  0  0  0  0  0  0  0  0  0  0
  146.5573  135.3469  162.6107 C   0  0  0  0  0  0  0  0  0  0  0  0
  146.8685  133.9984  161.9694 C   0  0  0  0  0  0  0  0  0  0  0  0
  147.8871  134.2536  161.0033 O   0  0  0  0  0  0  0  0  0  0  0  0
  149.1419  137.0379  159.3496 C   0  0  0  0  0  0  0  0  0  0  0  0
  150.3234  136.8064  159.6153 O   0  0  0  0  0  0  0  0  0  0  0  0
  150.9861  140.5160  158.4518 N   0  0  0  0  0  0  0  0  0  0  0  0
  151.3090  141.8979  158.8198 C   0  0  0  0  0  0  0  0  0  0  0  0
  151.3819  142.7843  157.5538 C   0  0  0  0  0  0  0  0  0  0  0  0
  151.3200  144.2974  157.8091 C   0  0  0  0  0  0  0  0  0  0  0  0
  152.4121  144.8449  158.7425 C   0  0  0  0  0  0  0  0  0  0  0  0
  152.1633  144.4890  160.2160 C   0  0  0  0  0  0  0  0  0  0  0  0
  152.7023  143.1209  160.6685 C   0  0  0  0  0  0  0  0  0  0  0  0
  152.6044  141.9581  159.6635 C   0  0  0  0  0  0  0  0  0  0  0  0
  149.7340  138.3548  156.4486 H   0  0  0  0  0  0  0  0  0  0  0  0
  150.8408  138.1381  157.7457 H   0  0  0  0  0  0  0  0  0  0  0  0
  145.9956  136.2922  160.3850 H   0  0  0  0  0  0  0  0  0  0  0  0
  149.5567  135.4165  161.2139 H   0  0  0  0  0  0  0  0  0  0  0  0
  148.5437  135.6853  163.3694 H   0  0  0  0  0  0  0  0  0  0  0  0
  147.8538  137.1210  162.5848 H   0  0  0  0  0  0  0  0  0  0  0  0
  146.1618  135.2570  163.6228 H   0  0  0  0  0  0  0  0  0  0  0  0
  145.8318  135.8948  162.0085 H   0  0  0  0  0  0  0  0  0  0  0  0
  147.2621  133.3063  162.7149 H   0  0  0  0  0  0  0  0  0  0  0  0
  145.9910  133.5410  161.5122 H   0  0  0  0  0  0  0  0  0  0  0  0
  151.6314  139.8137  158.7832 H   0  0  0  0  0  0  0  0  0  0  0  0
  150.4709  142.2268  159.4351 H   0  0  0  0  0  0  0  0  0  0  0  0
  152.2873  142.5571  156.9899 H   0  0  0  0  0  0  0  0  0  0  0  0
  150.5528  142.5288  156.8923 H   0  0  0  0  0  0  0  0  0  0  0  0
  151.4018  144.8042  156.8471 H   0  0  0  0  0  0  0  0  0  0  0  0
  150.3357  144.5634  158.1965 H   0  0  0  0  0  0  0  0  0  0  0  0
  153.4047  144.5268  158.4213 H   0  0  0  0  0  0  0  0  0  0  0  0
  152.4042  145.9319  158.6550 H   0  0  0  0  0  0  0  0  0  0  0  0
  152.6209  145.2526  160.8458 H   0  0  0  0  0  0  0  0  0  0  0  0
  151.0950  144.5486  160.4279 H   0  0  0  0  0  0  0  0  0  0  0  0
  153.7493  143.2294  160.9533 H   0  0  0  0  0  0  0  0  0  0  0  0
  152.1813  142.8413  161.5848 H   0  0  0  0  0  0  0  0  0  0  0  0
  152.7204  141.0334  160.2308 H   0  0  0  0  0  0  0  0  0  0  0  0
  153.4664  141.9920  158.9962 H   0  0  0  0  0  0  0  0  0  0  0  0
  1  2  2  0  0  0  0
  2  3  1  0  0  0  0
  2 18  1  0  0  0  0
  3  4  1  0  0  0  0
  3 26  1  0  0  0  0
  3 27  1  0  0  0  0
  4 16  1  0  0  0  0
  4  5  1  0  0  0  0
  5  6  2  0  0  0  0
  5  7  1  0  0  0  0
  7  8  1  0  0  0  0
  7  9  2  0  0  0  0
  9 10  1  0  0  0  0
  9 28  1  0  0  0  0
 10 11  1  0  0  0  0
 10 16  1  0  0  0  0
 11 15  1  0  0  0  0
 11 12  1  0  0  0  0
 11 29  1  0  0  0  0
 12 13  1  0  0  0  0
 12 30  1  0  0  0  0
 12 31  1  0  0  0  0
 13 14  1  0  0  0  0
 13 32  1  0  0  0  0
 13 33  1  0  0  0  0
 14 15  1  0  0  0  0
 14 34  1  0  0  0  0
 14 35  1  0  0  0  0
 16 17  2  0  0  0  0
 18 19  1  0  0  0  0
 18 36  1  0  0  0  0
 19 25  1  0  0  0  0
 19 20  1  0  0  0  0
 19 37  1  0  0  0  0
 20 21  1  0  0  0  0
 20 38  1  0  0  0  0
 20 39  1  0  0  0  0
 21 22  1  0  0  0  0
 21 40  1  0  0  0  0
 21 41  1  0  0  0  0
 22 23  1  0  0  0  0
 22 42  1  0  0  0  0
 22 43  1  0  0  0  0
 23 24  1  0  0  0  0
 23 44  1  0  0  0  0
 23 45  1  0  0  0  0
 24 25  1  0  0  0  0
 24 46  1  0  0  0  0
 24 47  1  0  0  0  0
 25 48  1  0  0  0  0
 25 49  1  0  0  0  0
M  END
> <s_m_source_file>
AV-unprocessed.smi

> <i_m_source_file_index>
32

> <i_lp_mmshare_version>
43012

> <i_f3d_flags>
0

> <s_epik_input>
W0NIMl0xW0NIMl1bQ0gyXVtDSDJdW0NIMl1bQ0gyXVtDSF0xW05IXUMoPU8pW0NIMl1uMmMoPU8pYyhGKVtjSF1uKGMyPU8pW0NAQEhdM1tDSDJdW0NIMl1bQ0gyXU8z

> <s_epik_cmdline>
J2VwaWtfcHl0aG9uJywgJy1waCcsICc3LjAnLCAnLXRuJywgJzgnLCAnLW1hJywgJzIwMCcsICctbWV0YWxfYmluZGluZycsICctaW1hZScsICc8aW5maWxlLm1hZT4nLCAnLW9tYWUnLCAnPG91dGZpbGUubWFlPic=

> <r_lp_tautomer_probability>
1

> <r_epik_Ionization_Penalty>
2.43741e-08

> <r_epik_Ionization_Penalty_Charging>
4.15308e-09

> <r_epik_Ionization_Penalty_Neutral>
2.0221e-08

> <r_epik_State_Penalty>
-0

> <r_epik_Charging_Adjusted_Penalty>
4.15308e-09

> <i_epik_Tot_Q>
0

> <i_epik_Tot_abs_Q>
0

> <r_epik_Metal_State_Penalty>
-0

> <b_epik_Metal_Only>
0

> <s_epik_Chemistry_Notes>
This compound contains an acetal/aminal-like group ( X-CH(R)-Y where X, Y are N, S, or O) that may be acid/base labile, releasing an aldehyde.

> <s_lp_Force_Field>
OPLS_2005

> <r_lp_Energy>
36.3437

> <b_lp_Chiralities_Consistent>
1

> <s_lp_Variant>
AV-unprocessed.smi:32-2

> <Gold.Version>
5.8.1

> <Gold.Id.Protein>
6NUR|6NUR_protein|mol2

> <Gold.PLP.Fitness>
47.7189

> <Gold.PLP.PLP>
-45.0730

> <Gold.PLP.part.hbond>
-1.0000

> <Gold.PLP.part.metal>
0.0000

> <Gold.PLP.part.buried>
-6.9619

> <Gold.PLP.part.nonpolar>
-37.5464

> <Gold.PLP.part.repulsive>
0.1928

> <Gold.PLP.ligand.clash>
0.0000

> <Gold.PLP.ligand.torsion>
0.1963

> <Gold.PLP.Chemscore.Hbond>
1.0000

> <Gold.PLP.Chemscore.CHOScore>
0.0000

> <Gold.PLP.Chemscore.Metal>
0.0000

> <Gold.Chemscore.Hbonds>
donor molecule, donor type, donor heavy atom, donor atom, acceptor molecule, acceptor atom, score
      P1  H  6896  6908       L1    17  1.00

> <Gold.PLP.Chemscore.Internal.Correction>
0.0385

> <Gold.Rescore>
     Score         DG    S(hbond)    S(metal)    S(lipo)     H(rot)  DE(clash)    DE(int)     intcor
     14.65     -16.52       0.80        0.00     111.35       1.82       0.12       1.74       ----

> <Gold.Chemscore.Fitness>
14.6502

> <Gold.Chemscore.DG>
-16.5152

> <Gold.Chemscore.ZeroCoef>
-5.4800

> <Gold.Chemscore.Hbond>
0.8022

> <Gold.Chemscore.Metal>
0.0000

> <Gold.Chemscore.Lipo>
111.3452

> <Gold.Chemscore.Internal_Hbond>
0.0000

> <Gold.Chemscore.DEClash>
0.1210

> <Gold.Chemscore.DEInternal>
1.7440

> <Gold.Chemscore.Rot>
1.8248

> <Gold.Chemscore.Internal.Correction>
   9.000000E+99

> <Gold.Chemscore.Hbonds>
donor molecule, donor type, donor heavy atom, donor atom, acceptor molecule, acceptor atom, score
      P1  H  6896  6908       L1    17  1.00

> <Gold.Chemscore.Hbond.Weighted>
-2.6793

> <Gold.Chemscore.Metal.Weighted>
-0.0000

> <Gold.Chemscore.Lipo.Weighted>
-13.0274

> <Gold.Chemscore.Internal_Hbond.Weighted>
0.0000

> <Gold.Chemscore.DEClash.Weighted>
0.1210

> <Gold.Chemscore.DEInternal.Weighted>
1.7440

> <Gold.Chemscore.Rot.Weighted>
4.6714

> <Gold.Chemscore.Internal.Correction.Weighted>
   9.000000E+99

> <Gold.Protein.RotatedTorsions>
[ 6907 6896 6895 6894 ] final -146.87 input  -60.11 | X-H torsion
[ 7974 7965 7964 7962 ] final  -25.14 input  175.53 | X-H torsion
[ 8008 7997 7996 7995 ] final  -40.15 input   59.86 | X-H torsion
[ 10167 10162 10161 10158 ] final -136.29 input  -65.29 | X-H torsion
[ 10718 10713 10712 10709 ] final -165.56 input   66.30 | X-H torsion
[ 10763 10752 10751 10750 ] final -108.66 input  -60.55 | X-H torsion
[ 11005 11000 10999 10996 ] final  101.55 input  -57.11 | X-H torsion

> <Gold.Protein.ActiveResidues>
 VAL166  LYS551  ARG553  GLY616  TRP617  ASP618  TYR619  PRO620  LYS621  CYS622 
 ASP623  PHE694  ASN695  SER759  ASP760  ASP761  ALA762  ILE779  LEU786  VAL792 
 PHE793  MET794  SER795  GLU796  ALA797  LYS798  CYS799  TRP800  GLU811  SER814 

> <Gold.Protein.RotatedAtoms>
  151.1477  133.4928  159.2595 H   0  0  0  0  0  0  0  0  0  0  0  0  # atno 6907 bound_to 6896
  151.1587  135.0262  159.8711 H   0  0  0  0  0  0  0  0  0  0  0  0  # atno 6908 bound_to 6896
  152.5463  134.1353  159.8509 H   0  0  0  0  0  0  0  0  0  0  0  0  # atno 6909 bound_to 6896
  146.1510  140.4846  142.8611 H   0  0  0  0  0  0  0  0  0  0  0  0  # atno 7974 bound_to 7965
  154.4015  140.1533  156.2979 H   0  0  0  0  0  0  0  0  0  0  0  0  # atno 8008 bound_to 7997
  155.8727  140.3448  155.5810 H   0  0  0  0  0  0  0  0  0  0  0  0  # atno 8009 bound_to 7997
  155.7756  140.0836  157.2076 H   0  0  0  0  0  0  0  0  0  0  0  0  # atno 8010 bound_to 7997
  139.8692  143.6978  152.2642 H   0  0  0  0  0  0  0  0  0  0  0  0  # atno 10167 bound_to 10162
  156.6552  130.9023  151.3020 H   0  0  0  0  0  0  0  0  0  0  0  0  # atno 10718 bound_to 10713
  154.8148  135.4629  154.0614 H   0  0  0  0  0  0  0  0  0  0  0  0  # atno 10763 bound_to 10752
  153.2016  135.6869  153.8231 H   0  0  0  0  0  0  0  0  0  0  0  0  # atno 10764 bound_to 10752
  153.7714  135.3269  155.3329 H   0  0  0  0  0  0  0  0  0  0  0  0  # atno 10765 bound_to 10752
  139.8774  134.9188  156.4924 H   0  0  0  0  0  0  0  0  0  0  0  0  # atno 11005 bound_to 11000
  144.7904  140.6021  143.6545 LP  0  0  0  0  0  0  0  0  0  0  0  0  # atno 17320 bound_to 7965
  145.4823  139.1494  143.3755 LP  0  0  0  0  0  0  0  0  0  0  0  0  # atno 17321 bound_to 7965
  139.7300  144.7584  151.0818 LP  0  0  0  0  0  0  0  0  0  0  0  0  # atno 17342 bound_to 10162
  140.7763  143.5100  150.9664 LP  0  0  0  0  0  0  0  0  0  0  0  0  # atno 17343 bound_to 10162
  157.7128  130.9460  150.1148 LP  0  0  0  0  0  0  0  0  0  0  0  0  # atno 17370 bound_to 10713
  156.2053  130.3663  149.8737 LP  0  0  0  0  0  0  0  0  0  0  0  0  # atno 17371 bound_to 10713
  140.8649  133.8032  155.9303 LP  0  0  0  0  0  0  0  0  0  0  0  0  # atno 17394 bound_to 11000
  140.9012  134.2376  157.5040 LP  0  0  0  0  0  0  0  0  0  0  0  0  # atno 17395 bound_to 11000

$$$$
