AV-unprocessed.smi:1707|AV-procd|sdf|6888|dock6
  -GOLD-   22720 8 93D 1   1.00000     0.00000
 Structure written by MMmdl.
 40 41  0  0  0  0  0  0  0  0  2 V2000
  150.8929  136.6788  159.0504 O   0  0  0  0  0  0  0  0  0  0  0  0
  149.9316  137.4477  159.0459 C   0  0  0  0  0  0  0  0  0  0  0  0
  150.0085  138.7135  158.6106 N   0  0  0  0  0  0  0  0  0  0  0  0
  151.2141  139.3473  158.0897 C   0  0  0  0  0  0  0  0  0  0  0  0
  151.0117  140.8583  157.8813 C   0  0  0  0  0  0  0  0  0  0  0  0
  151.6912  141.6967  158.9509 C   0  0  0  0  0  0  0  0  0  0  0  0
  152.5345  141.1569  159.8524 C   0  0  0  0  0  0  0  0  0  0  0  0
  153.2317  141.9449  160.9476 C   0  0  0  0  0  0  0  0  0  0  0  0
  152.6222  143.3433  161.1421 C   0  0  0  0  0  0  0  0  0  0  0  0
  152.3428  144.0180  159.7933 C   0  0  0  0  0  0  0  0  0  0  0  0
  151.3659  143.1866  158.9429 C   0  0  0  0  0  0  0  0  0  0  0  0
  148.6880  137.1659  159.4755 N   0  0  0  0  0  0  0  0  0  0  0  0
  148.1647  135.9671  159.9906 C   0  0  0  0  0  0  0  0  0  0  0  0
  148.1543  134.7726  159.3358 C   0  0  0  0  0  0  0  0  0  0  0  0
  147.5833  133.5662  159.9214 C   0  0  0  0  0  0  0  0  0  0  0  0
  147.6421  132.2001  159.2609 C   0  0  0  0  0  0  0  0  0  0  0  0
  148.2613  132.2630  158.0818 F   0  0  0  0  0  0  0  0  0  0  0  0
  148.3123  131.3498  160.0372 F   0  0  0  0  0  0  0  0  0  0  0  0
  146.4179  131.7097  159.0674 F   0  0  0  0  0  0  0  0  0  0  0  0
  147.0818  133.7859  161.1894 C   0  0  0  0  0  0  0  0  0  0  0  0
  147.0290  134.9361  161.8959 N   0  5  0  0  0  0  0  0  0  0  0  0
  147.5643  136.0585  161.3380 C   0  0  0  0  0  0  0  0  0  0  0  0
  147.5552  137.1383  161.9301 O   0  0  0  0  0  0  0  0  0  0  0  0
  149.1725  139.2786  158.6419 H   0  0  0  0  0  0  0  0  0  0  0  0
  152.0509  139.1528  158.7624 H   0  0  0  0  0  0  0  0  0  0  0  0
  151.4617  138.8724  157.1400 H   0  0  0  0  0  0  0  0  0  0  0  0
  151.3940  141.1432  156.8999 H   0  0  0  0  0  0  0  0  0  0  0  0
  149.9487  141.1026  157.8777 H   0  0  0  0  0  0  0  0  0  0  0  0
  152.7576  140.1007  159.8147 H   0  0  0  0  0  0  0  0  0  0  0  0
  153.1814  141.3854  161.8820 H   0  0  0  0  0  0  0  0  0  0  0  0
  154.2863  142.0266  160.6832 H   0  0  0  0  0  0  0  0  0  0  0  0
  151.6882  143.2593  161.6994 H   0  0  0  0  0  0  0  0  0  0  0  0
  153.2881  143.9602  161.7461 H   0  0  0  0  0  0  0  0  0  0  0  0
  151.9420  145.0204  159.9460 H   0  0  0  0  0  0  0  0  0  0  0  0
  153.2822  144.1406  159.2528 H   0  0  0  0  0  0  0  0  0  0  0  0
  151.3715  143.5565  157.9171 H   0  0  0  0  0  0  0  0  0  0  0  0
  150.3510  143.3164  159.3197 H   0  0  0  0  0  0  0  0  0  0  0  0
  148.0259  137.9278  159.4556 H   0  0  0  0  0  0  0  0  0  0  0  0
  148.5571  134.6799  158.3415 H   0  0  0  0  0  0  0  0  0  0  0  0
  146.6639  132.9028  161.7182 H   0  0  0  0  0  0  0  0  0  0  0  0
  1  2  2  0  0  0  0
  2  3  1  0  0  0  0
  2 12  1  0  0  0  0
  3  4  1  0  0  0  0
  3 24  1  0  0  0  0
  4  5  1  0  0  0  0
  4 25  1  0  0  0  0
  4 26  1  0  0  0  0
  5  6  1  0  0  0  0
  5 27  1  0  0  0  0
  5 28  1  0  0  0  0
  6 11  1  0  0  0  0
  6  7  2  0  0  0  0
  7  8  1  0  0  0  0
  7 29  1  0  0  0  0
  8  9  1  0  0  0  0
  8 30  1  0  0  0  0
  8 31  1  0  0  0  0
  9 10  1  0  0  0  0
  9 32  1  0  0  0  0
  9 33  1  0  0  0  0
 10 11  1  0  0  0  0
 10 34  1  0  0  0  0
 10 35  1  0  0  0  0
 11 36  1  0  0  0  0
 11 37  1  0  0  0  0
 12 13  1  0  0  0  0
 12 38  1  0  0  0  0
 13 22  1  0  0  0  0
 13 14  2  0  0  0  0
 14 15  1  0  0  0  0
 14 39  1  0  0  0  0
 15 16  1  0  0  0  0
 15 20  2  0  0  0  0
 16 17  1  0  0  0  0
 16 18  1  0  0  0  0
 16 19  1  0  0  0  0
 20 21  1  0  0  0  0
 20 40  1  0  0  0  0
 21 22  1  0  0  0  0
 22 23  2  0  0  0  0
M  CHG  1  21  -1
M  END
> <s_m_source_file>
AV-unprocessed.smi

> <i_m_source_file_index>
1707

> <i_lp_mmshare_version>
43012

> <i_f3d_flags>
0

> <s_epik_input>
Tz1jMVtuSF1bY0hdYyhDKEYpKEYpRilbY0hdYzFbTkhdQyg9TylbTkhdW0NIMl1bQ0gyXUMyPVtDSF1bQ0gyXVtDSDJdW0NIMl1bQ0gyXTI=

> <s_epik_cmdline>
J2VwaWtfcHl0aG9uJywgJy1waCcsICc3LjAnLCAnLXRuJywgJzgnLCAnLW1hJywgJzIwMCcsICctbWV0YWxfYmluZGluZycsICctaW1hZScsICc8aW5maWxlLm1hZT4nLCAnLW9tYWUnLCAnPG91dGZpbGUubWFlPic=

> <r_lp_tautomer_probability>
1

> <r_epik_Ionization_Penalty>
3.1649

> <r_epik_Ionization_Penalty_Charging>
0.171543

> <r_epik_Ionization_Penalty_Neutral>
2.99336

> <r_epik_State_Penalty>
2.98952

> <r_epik_Charging_Adjusted_Penalty>
3.16106

> <i_epik_Tot_Q>
-1

> <i_epik_Tot_abs_Q>
1

> <r_epik_Metal_State_Penalty>
0.452963

> <b_epik_Metal_Only>
1

> <s_lp_Force_Field>
OPLS_2005

> <r_lp_Energy>
21.1574

> <b_lp_Chiralities_Consistent>
1

> <s_lp_Variant>
AV-unprocessed.smi:1707-2

> <Gold.Version>
5.8.1

> <Gold.Id.Protein>
6NUR|6NUR_protein|mol2

> <Gold.PLP.Fitness>
46.0243

> <Gold.PLP.PLP>
-40.0617

> <Gold.PLP.part.hbond>
-3.0000

> <Gold.PLP.part.metal>
0.0000

> <Gold.PLP.part.buried>
-5.4449

> <Gold.PLP.part.nonpolar>
-31.6132

> <Gold.PLP.part.repulsive>
0.3928

> <Gold.PLP.ligand.clash>
0.0000

> <Gold.PLP.ligand.torsion>
0.9977

> <Gold.PLP.Chemscore.Hbond>
2.6308

> <Gold.PLP.Chemscore.CHOScore>
0.0000

> <Gold.PLP.Chemscore.Metal>
0.0000

> <Gold.Chemscore.Hbonds>
donor molecule, donor type, donor heavy atom, donor atom, acceptor molecule, acceptor atom, score
      P1  H  6896  6909       L1     1  1.00
      P1  H  6931  6943       L1    23  0.98
      P1  H  6934  6947       L1    23  0.48

> <Gold.PLP.Chemscore.Internal.Correction>
0.0656

> <Gold.Rescore>
     Score         DG    S(hbond)    S(metal)    S(lipo)     H(rot)  DE(clash)    DE(int)     intcor
     20.31     -21.24       2.68        0.00      92.29       1.55       0.00       0.93       ----

> <Gold.Chemscore.Fitness>
20.3083

> <Gold.Chemscore.DG>
-21.2401

> <Gold.Chemscore.ZeroCoef>
-5.4800

> <Gold.Chemscore.Hbond>
2.6754

> <Gold.Chemscore.Metal>
0.0000

> <Gold.Chemscore.Lipo>
92.2943

> <Gold.Chemscore.Internal_Hbond>
0.0000

> <Gold.Chemscore.DEClash>
0.0000

> <Gold.Chemscore.DEInternal>
0.9319

> <Gold.Chemscore.Rot>
1.5523

> <Gold.Chemscore.Internal.Correction>
   9.000000E+99

> <Gold.Chemscore.Hbonds>
donor molecule, donor type, donor heavy atom, donor atom, acceptor molecule, acceptor atom, score
      P1  H  6896  6909       L1     1  0.98
      P1  H  6931  6943       L1    23  0.92
      P1  H  6934  6947       L1    23  0.48

> <Gold.Chemscore.Hbond.Weighted>
-8.9357

> <Gold.Chemscore.Metal.Weighted>
-0.0000

> <Gold.Chemscore.Lipo.Weighted>
-10.7984

> <Gold.Chemscore.Internal_Hbond.Weighted>
0.0000

> <Gold.Chemscore.DEClash.Weighted>
0.0000

> <Gold.Chemscore.DEInternal.Weighted>
0.9319

> <Gold.Chemscore.Rot.Weighted>
3.9740

> <Gold.Chemscore.Internal.Correction.Weighted>
   9.000000E+99

> <Gold.Protein.RotatedTorsions>
[ 6907 6896 6895 6894 ] final   91.71 input  -60.11 | X-H torsion
[ 7974 7965 7964 7962 ] final -147.17 input  175.53 | X-H torsion
[ 8008 7997 7996 7995 ] final  156.63 input   59.86 | X-H torsion
[ 10167 10162 10161 10158 ] final -130.63 input  -65.29 | X-H torsion
[ 10718 10713 10712 10709 ] final  157.66 input   66.30 | X-H torsion
[ 10763 10752 10751 10750 ] final   85.79 input  -60.55 | X-H torsion
[ 11005 11000 10999 10996 ] final  -68.00 input  -57.11 | X-H torsion

> <Gold.Protein.ActiveResidues>
 VAL166  LYS551  ARG553  GLY616  TRP617  ASP618  TYR619  PRO620  LYS621  CYS622 
 ASP623  PHE694  ASN695  SER759  ASP760  ASP761  ALA762  ILE779  LEU786  VAL792 
 PHE793  MET794  SER795  GLU796  ALA797  LYS798  CYS799  TRP800  GLU811  SER814 

> <Gold.Protein.RotatedAtoms>
  152.5451  134.1614  159.8559 H   0  0  0  0  0  0  0  0  0  0  0  0  # atno 6907 bound_to 6896
  151.1632  133.4824  159.2601 H   0  0  0  0  0  0  0  0  0  0  0  0  # atno 6908 bound_to 6896
  151.1351  135.0161  159.8655 H   0  0  0  0  0  0  0  0  0  0  0  0  # atno 6909 bound_to 6896
  144.8111  140.5361  143.5642 H   0  0  0  0  0  0  0  0  0  0  0  0  # atno 7974 bound_to 7965
  156.2411  140.1907  156.6984 H   0  0  0  0  0  0  0  0  0  0  0  0  # atno 8008 bound_to 7997
  154.6200  140.0610  156.9629 H   0  0  0  0  0  0  0  0  0  0  0  0  # atno 8009 bound_to 7997
  155.1878  140.3282  155.4366 H   0  0  0  0  0  0  0  0  0  0  0  0  # atno 8010 bound_to 7997
  139.9273  143.6313  152.2539 H   0  0  0  0  0  0  0  0  0  0  0  0  # atno 10167 bound_to 10162
  157.1885  131.0649  151.2092 H   0  0  0  0  0  0  0  0  0  0  0  0  # atno 10718 bound_to 10713
  153.1508  135.4604  154.9633 H   0  0  0  0  0  0  0  0  0  0  0  0  # atno 10763 bound_to 10752
  154.7823  135.3192  154.7965 H   0  0  0  0  0  0  0  0  0  0  0  0  # atno 10764 bound_to 10752
  153.8471  135.6925  153.4850 H   0  0  0  0  0  0  0  0  0  0  0  0  # atno 10765 bound_to 10752
  141.1521  133.6731  156.6378 H   0  0  0  0  0  0  0  0  0  0  0  0  # atno 11005 bound_to 11000
  145.5322  139.1475  143.3493 LP  0  0  0  0  0  0  0  0  0  0  0  0  # atno 17320 bound_to 7965
  146.2409  140.5463  142.8934 LP  0  0  0  0  0  0  0  0  0  0  0  0  # atno 17321 bound_to 7965
  139.6811  144.7655  151.1606 LP  0  0  0  0  0  0  0  0  0  0  0  0  # atno 17342 bound_to 10162
  140.7647  143.5723  150.8983 LP  0  0  0  0  0  0  0  0  0  0  0  0  # atno 17343 bound_to 10162
  157.3883  130.7268  149.6679 LP  0  0  0  0  0  0  0  0  0  0  0  0  # atno 17370 bound_to 10713
  155.9715  130.4153  150.4176 LP  0  0  0  0  0  0  0  0  0  0  0  0  # atno 17371 bound_to 10713
  140.3417  134.7844  157.4402 LP  0  0  0  0  0  0  0  0  0  0  0  0  # atno 17394 bound_to 11000
  140.0933  134.5572  155.8423 LP  0  0  0  0  0  0  0  0  0  0  0  0  # atno 17395 bound_to 11000

$$$$
