#       Name:                AV-unprocessed.smi:2061
#       Creating user name   scv26
#       Creation time:       Fri Mar 27 11:05:52 2020


#       File generated by GOLD software.
#

@<TRIPOS>MOLECULE
AV-unprocessed.smi:2061
    53    54     1
SMALL
NO_CHARGES


@<TRIPOS>ATOM
      1 ****        -2.8355   6.4451   2.9892 C.3            1 S1                 0.0000
      2 ****        -3.0983   5.3210   2.0461 C.2            1 S1                 0.0000
      3 ****        -2.3341   4.7146   1.0899 C.2            1 S1                 0.0000
      4 ****        -3.1977   3.7109   0.5724 C.2            1 S1                 0.0000
      5 ****        -2.8986   2.8446  -0.4082 N.pl3          1 S1                -1.0000
      6 ****        -2.2741   1.6802  -0.1198 C.2            1 S1                 0.0000
      7 ****        -1.9363   1.2875   0.9995 O.2            1 S1                 0.0000
      8 ****        -2.0159   0.9256  -1.1974 N.am           1 S1                 0.0000
      9 ****        -1.3284  -0.3626  -1.1894 C.3            1 S1                 0.0000
     10 ****         0.2012  -0.2348  -0.9516 C.3            1 S1                 0.0000
     11 ****         0.8280   0.6913  -2.0230 C.3            1 S1                 0.0000
     12 ****         0.8426  -1.5896  -0.8912 N.4            1 S1                 1.0000
     13 ****         2.3169  -1.6029  -1.1028 C.3            1 S1                 0.0000
     14 ****         2.8793  -3.0366  -1.0521 C.3            1 S1                 0.0000
     15 ****         4.4071  -3.0609  -1.1749 C.3            1 S1                 0.0000
     16 ****         2.5290  -3.6394   0.1859 O.3            1 S1                 0.0000
     17 ****         1.1217  -3.7398   0.3527 C.3            1 S1                 0.0000
     18 ****         0.8507  -4.4947   1.6591 C.3            1 S1                 0.0000
     19 ****         0.5197  -2.3227   0.3638 C.3            1 S1                 0.0000
     20 ****        -4.3879   3.7207   1.1492 N.2            1 S1                 0.0000
     21 ****        -4.3300   4.7460   2.1008 O.3            1 S1                 0.0000
     22 ****        -2.8890   7.4025   2.4712 H              1 S1                 0.0000
     23 ****        -1.8435   6.3538   3.4316 H              1 S1                 0.0000
     24 ****        -3.5653   6.4570   3.7991 H              1 S1                 0.0000
     25 ****        -1.3179   4.9472   0.8086 H              1 S1                 0.0000
     26 ****        -2.3143   1.2814  -2.0940 H              1 S1                 0.0000
     27 ****        -1.8142  -0.9880  -0.4421 H              1 S1                 0.0000
     28 ****        -1.5126  -0.8439  -2.1502 H              1 S1                 0.0000
     29 ****         0.3697   0.2446   0.0139 H              1 S1                 0.0000
     30 ****         0.3188   1.6533  -2.0759 H              1 S1                 0.0000
     31 ****         0.7798   0.2424  -3.0157 H              1 S1                 0.0000
     32 ****         1.8689   0.9270  -1.8023 H              1 S1                 0.0000
     33 ****         2.5710  -1.1906  -2.0786 H              1 S1                 0.0000
     34 ****         2.7971  -0.9791  -0.3468 H              1 S1                 0.0000
     35 ****         2.4580  -3.6250  -1.8694 H              1 S1                 0.0000
     36 ****         4.7329  -2.6212  -2.1179 H              1 S1                 0.0000
     37 ****         4.7847  -4.0831  -1.1372 H              1 S1                 0.0000
     38 ****         4.8778  -2.5025  -0.3650 H              1 S1                 0.0000
     39 ****         0.6984  -4.3149  -0.4728 H              1 S1                 0.0000
     40 ****        -0.2196  -4.6111   1.8314 H              1 S1                 0.0000
     41 ****         1.2723  -3.9670   2.5151 H              1 S1                 0.0000
     42 ****         1.2921  -5.4912   1.6322 H              1 S1                 0.0000
     43 ****         0.9017  -1.7617   1.2185 H              1 S1                 0.0000
     44 ****        -0.5556  -2.4114   0.5029 H              1 S1                 0.0000
     45 ****         0.4483  -2.1218  -1.6535 H              1 S1                 0.0000
     46 ****        -3.1382   3.0608  -1.3547 LP             1 S1                 0.0000
     47 ****        -2.1213   1.8516   1.8042 LP             1 S1                 0.0000
     48 ****        -1.4774   0.4050   1.1023 LP             1 S1                 0.0000
     49 ****         2.9033  -3.0870   0.9307 LP             1 S1                 0.0000
     50 ****         2.9241  -4.5574   0.2206 LP             1 S1                 0.0000
     51 ****        -5.1640   3.1229   0.9483 LP             1 S1                 0.0000
     52 ****        -5.0306   5.4310   1.9008 LP             1 S1                 0.0000
     53 ****        -4.4847   4.3676   3.0134 LP             1 S1                 0.0000
@<TRIPOS>BOND
    1    1    2 1     
    2    1   22 1     
    3    1   23 1     
    4    1   24 1     
    5    2   21 1     
    6    2    3 2     
    7    3    4 1     
    8    3   25 1     
    9    4    5 1     
   10    4   20 2     
   11    5    6 1     
   12    6    7 2     
   13    6    8 am    
   14    8    9 1     
   15    8   26 1     
   16    9   10 1     
   17    9   27 1     
   18    9   28 1     
   19   10   11 1     
   20   10   12 1     
   21   10   29 1     
   22   11   30 1     
   23   11   31 1     
   24   11   32 1     
   25   12   19 1     
   26   12   13 1     
   27   12   45 1     
   28   13   14 1     
   29   13   33 1     
   30   13   34 1     
   31   14   15 1     
   32   14   16 1     
   33   14   35 1     
   34   15   36 1     
   35   15   37 1     
   36   15   38 1     
   37   16   17 1     
   38   17   18 1     
   39   17   19 1     
   40   17   39 1     
   41   18   40 1     
   42   18   41 1     
   43   18   42 1     
   44   19   43 1     
   45   19   44 1     
   46   20   21 1     
   47    5   46 1     
   48    7   47 1     
   49    7   48 1     
   50   16   49 1     
   51   16   50 1     
   52   20   51 1     
   53   21   52 1     
   54   21   53 1     
@<TRIPOS>SUBSTRUCTURE
      1 S1             1
@<TRIPOS>SET
LONE_PAIRS      STATIC     ATOMS    <user>   **** ""
8 46 47 48 49 50 51 52 53
DONOR_HYDROGENS      STATIC     ATOMS    <user>   **** ""
2 26 45
ATOM$BLUE        STATIC     ATOMS    COLORGROUP SYSTEM
8 46 47 48 49 50 51 52 53
ATOM$RED        STATIC     ATOMS    COLORGROUP SYSTEM
2 26 45
