AV-unprocessed.smi:1175|AV-procd|sdf|4951|dock5
  -GOLD-   22720 3543D 1   1.00000     0.00000
 Structure written by MMmdl.
 36 37  0  0  0  0  0  0  0  0  1 V2000
  149.9242  136.4230  158.8680 O   0  0  0  0  0  0  0  0  0  0  0  0
  148.8538  137.0159  158.7262 C   0  0  0  0  0  0  0  0  0  0  0  0
  147.5175  136.2906  158.9408 C   0  0  0  0  0  0  0  0  0  0  0  0
  147.4666  135.5194  160.1944 N   0  0  0  0  0  0  0  0  0  0  0  0
  147.4821  134.1148  160.0851 C   0  0  0  0  0  0  0  0  0  0  0  0
  147.4320  133.2958  161.1534 C   0  0  0  0  0  0  0  0  0  0  0  0
  147.5110  131.7840  161.0075 C   0  0  0  0  0  0  0  0  0  0  0  0
  147.6821  131.4332  159.7329 F   0  0  0  0  0  0  0  0  0  0  0  0
  148.5423  131.3150  161.7084 F   0  0  0  0  0  0  0  0  0  0  0  0
  146.4016  131.1971  161.4584 F   0  0  0  0  0  0  0  0  0  0  0  0
  147.3927  133.9344  162.4542 C   0  0  0  0  0  0  0  0  0  0  0  0
  147.3893  135.2761  162.5770 C   0  0  0  0  0  0  0  0  0  0  0  0
  147.4245  136.1533  161.4047 C   0  0  0  0  0  0  0  0  0  0  0  0
  147.4178  137.3806  161.5041 O   0  0  0  0  0  0  0  0  0  0  0  0
  148.7691  138.3045  158.3617 N   0  0  0  0  0  0  0  0  0  0  0  0
  149.9010  139.1881  158.1009 C   0  0  0  0  0  0  0  0  0  0  0  0
  150.5213  138.9348  156.7140 C   0  0  1  0  0  0  0  0  0  0  0  0
  149.5045  138.8701  155.5926 C   0  0  0  0  0  0  0  0  0  0  0  0
  150.3737  139.0860  154.3563 C   0  0  0  0  0  0  0  0  0  0  0  0
  151.4777  139.8797  154.7843 O   0  0  0  0  0  0  0  0  0  0  0  0
  151.4428  140.0413  156.1984 C   0  0  0  0  0  0  0  0  0  0  0  0
  146.7031  137.0170  158.9150 H   0  0  0  0  0  0  0  0  0  0  0  0
  147.3436  135.6385  158.0835 H   0  0  0  0  0  0  0  0  0  0  0  0
  147.5482  133.7440  159.0725 H   0  0  0  0  0  0  0  0  0  0  0  0
  147.3625  133.3268  163.3467 H   0  0  0  0  0  0  0  0  0  0  0  0
  147.3589  135.7172  163.5625 H   0  0  0  0  0  0  0  0  0  0  0  0
  147.8483  138.7072  158.2642 H   0  0  0  0  0  0  0  0  0  0  0  0
  149.5354  140.2139  158.1522 H   0  0  0  0  0  0  0  0  0  0  0  0
  150.6552  139.0961  158.8844 H   0  0  0  0  0  0  0  0  0  0  0  0
  151.0762  137.9950  156.7307 H   0  0  0  0  0  0  0  0  0  0  0  0
  148.9546  137.9289  155.5650 H   0  0  0  0  0  0  0  0  0  0  0  0
  148.7834  139.6833  155.6861 H   0  0  0  0  0  0  0  0  0  0  0  0
  150.7555  138.1336  153.9869 H   0  0  0  0  0  0  0  0  0  0  0  0
  149.8272  139.5687  153.5456 H   0  0  0  0  0  0  0  0  0  0  0  0
  151.0279  141.0252  156.4216 H   0  0  0  0  0  0  0  0  0  0  0  0
  152.4432  139.9906  156.6287 H   0  0  0  0  0  0  0  0  0  0  0  0
  1  2  2  0  0  0  0
  2  3  1  0  0  0  0
  2 15  1  0  0  0  0
  3  4  1  0  0  0  0
  3 22  1  0  0  0  0
  3 23  1  0  0  0  0
  4 13  1  0  0  0  0
  4  5  1  0  0  0  0
  5  6  2  0  0  0  0
  5 24  1  0  0  0  0
  6  7  1  0  0  0  0
  6 11  1  0  0  0  0
  7  8  1  0  0  0  0
  7  9  1  0  0  0  0
  7 10  1  0  0  0  0
 11 12  2  0  0  0  0
 11 25  1  0  0  0  0
 12 13  1  0  0  0  0
 12 26  1  0  0  0  0
 13 14  2  0  0  0  0
 15 16  1  0  0  0  0
 15 27  1  0  0  0  0
 16 17  1  0  0  0  0
 16 28  1  0  0  0  0
 16 29  1  0  0  0  0
 17 21  1  0  0  0  0
 17 18  1  0  0  0  0
 17 30  1  0  0  0  0
 18 19  1  0  0  0  0
 18 31  1  0  0  0  0
 18 32  1  0  0  0  0
 19 20  1  0  0  0  0
 19 33  1  0  0  0  0
 19 34  1  0  0  0  0
 20 21  1  0  0  0  0
 21 35  1  0  0  0  0
 21 36  1  0  0  0  0
M  END
> <s_m_source_file>
AV-unprocessed.smi

> <i_m_source_file_index>
1175

> <i_lp_mmshare_version>
43012

> <i_f3d_flags>
0

> <s_epik_input>
W0NIMl0xT1tDSDJdW0NIMl1bQ0BIXTFbQ0gyXVtOSF1DKD1PKVtDSDJdbjJbY0hdYyhDKEYpKEYpRilbY0hdW2NIXWMyPU8=

> <s_epik_cmdline>
J2VwaWtfcHl0aG9uJywgJy1waCcsICc3LjAnLCAnLXRuJywgJzgnLCAnLW1hJywgJzIwMCcsICctbWV0YWxfYmluZGluZycsICctaW1hZScsICc8aW5maWxlLm1hZT4nLCAnLW9tYWUnLCAnPG91dGZpbGUubWFlPic=

> <r_lp_tautomer_probability>
1

> <r_epik_Ionization_Penalty>
3.67963e-08

> <r_epik_Ionization_Penalty_Charging>
1.809e-08

> <r_epik_Ionization_Penalty_Neutral>
1.87063e-08

> <r_epik_State_Penalty>
-0

> <r_epik_Charging_Adjusted_Penalty>
1.809e-08

> <i_epik_Tot_Q>
0

> <i_epik_Tot_abs_Q>
0

> <r_epik_Metal_State_Penalty>
-0

> <b_epik_Metal_Only>
0

> <s_lp_Force_Field>
OPLS_2005

> <r_lp_Energy>
29.657

> <b_lp_Chiralities_Consistent>
1

> <s_lp_Variant>
AV-unprocessed.smi:1175-2

> <Gold.Version>
5.8.1

> <Gold.Id.Protein>
6NUR|6NUR_protein|mol2

> <Gold.PLP.Fitness>
45.5957

> <Gold.PLP.PLP>
-36.6592

> <Gold.PLP.part.hbond>
-4.0000

> <Gold.PLP.part.metal>
0.0000

> <Gold.PLP.part.buried>
-5.1640

> <Gold.PLP.part.nonpolar>
-28.0076

> <Gold.PLP.part.repulsive>
0.2059

> <Gold.PLP.ligand.clash>
1.3717

> <Gold.PLP.ligand.torsion>
0.5145

> <Gold.PLP.Chemscore.Hbond>
3.7600

> <Gold.PLP.Chemscore.CHOScore>
0.0000

> <Gold.PLP.Chemscore.Metal>
0.0000

> <Gold.Chemscore.Hbonds>
donor molecule, donor type, donor heavy atom, donor atom, acceptor molecule, acceptor atom, score
      P1  H  6896  6907       L1     1  0.99
      P1  H  6931  6943       L1    14  0.82
      P1  H  6934  6947       L1    14  0.86
      P1  H  7989  7998       L1    20  1.00

> <Gold.PLP.Chemscore.Internal.Correction>
0.0573

> <Gold.Rescore>
     Score         DG    S(hbond)    S(metal)    S(lipo)     H(rot)  DE(clash)    DE(int)     intcor
     19.53     -20.06       3.70        0.00      59.99       1.87       0.00       0.54       ----

> <Gold.Chemscore.Fitness>
19.5258

> <Gold.Chemscore.DG>
-20.0646

> <Gold.Chemscore.ZeroCoef>
-5.4800

> <Gold.Chemscore.Hbond>
3.6971

> <Gold.Chemscore.Metal>
0.0000

> <Gold.Chemscore.Lipo>
59.9865

> <Gold.Chemscore.Internal_Hbond>
0.0000

> <Gold.Chemscore.DEClash>
0.0007

> <Gold.Chemscore.DEInternal>
0.5381

> <Gold.Chemscore.Rot>
1.8681

> <Gold.Chemscore.Internal.Correction>
   9.000000E+99

> <Gold.Chemscore.Hbonds>
donor molecule, donor type, donor heavy atom, donor atom, acceptor molecule, acceptor atom, score
      P1  H  6896  6907       L1     1  0.90
      P1  H  6931  6943       L1    14  0.79
      P1  H  6934  6947       L1    14  0.85
      P1  H  7989  7998       L1    20  0.30

> <Gold.Chemscore.Hbond.Weighted>
-12.3484

> <Gold.Chemscore.Metal.Weighted>
-0.0000

> <Gold.Chemscore.Lipo.Weighted>
-7.0184

> <Gold.Chemscore.Internal_Hbond.Weighted>
0.0000

> <Gold.Chemscore.DEClash.Weighted>
0.0007

> <Gold.Chemscore.DEInternal.Weighted>
0.5381

> <Gold.Chemscore.Rot.Weighted>
4.7822

> <Gold.Chemscore.Internal.Correction.Weighted>
   9.000000E+99

> <Gold.Protein.RotatedTorsions>
[ 6907 6896 6895 6894 ] final  -63.06 input  -60.11 | X-H torsion
[ 7974 7965 7964 7962 ] final   85.79 input  175.53 | X-H torsion
[ 8008 7997 7996 7995 ] final  172.42 input   59.86 | X-H torsion
[ 10167 10162 10161 10158 ] final  155.76 input  -65.29 | X-H torsion
[ 10718 10713 10712 10709 ] final  -74.65 input   66.30 | X-H torsion
[ 10763 10752 10751 10750 ] final  -39.55 input  -60.55 | X-H torsion
[ 11005 11000 10999 10996 ] final   90.72 input  -57.11 | X-H torsion

> <Gold.Protein.ActiveResidues>
 VAL166  LYS551  ARG553  GLY616  TRP617  ASP618  TYR619  PRO620  LYS621  CYS622 
 ASP623  PHE694  ASN695  SER759  ASP760  ASP761  ALA762  ILE779  LEU786  VAL792 
 PHE793  MET794  SER795  GLU796  ALA797  LYS798  CYS799  TRP800  GLU811  SER814 

> <Gold.Protein.RotatedAtoms>
  150.7674  134.6486  159.6275 H   0  0  0  0  0  0  0  0  0  0  0  0  # atno 6907 bound_to 6896
  152.3712  134.6728  160.0184 H   0  0  0  0  0  0  0  0  0  0  0  0  # atno 6908 bound_to 6896
  151.7087  133.3275  159.3321 H   0  0  0  0  0  0  0  0  0  0  0  0  # atno 6909 bound_to 6896
  145.5808  139.2325  143.2353 H   0  0  0  0  0  0  0  0  0  0  0  0  # atno 7974 bound_to 7965
  156.1176  140.1486  156.9251 H   0  0  0  0  0  0  0  0  0  0  0  0  # atno 8008 bound_to 7997
  154.4811  140.0879  156.7422 H   0  0  0  0  0  0  0  0  0  0  0  0  # atno 8009 bound_to 7997
  155.4486  140.3434  155.4300 H   0  0  0  0  0  0  0  0  0  0  0  0  # atno 8010 bound_to 7997
  139.4821  144.5070  151.8082 H   0  0  0  0  0  0  0  0  0  0  0  0  # atno 10167 bound_to 10162
  156.0235  130.4422  150.2924 H   0  0  0  0  0  0  0  0  0  0  0  0  # atno 10718 bound_to 10713
  153.9313  135.6771  153.4745 H   0  0  0  0  0  0  0  0  0  0  0  0  # atno 10763 bound_to 10752
  153.0978  135.4843  154.8808 H   0  0  0  0  0  0  0  0  0  0  0  0  # atno 10764 bound_to 10752
  154.7426  135.3164  154.8658 H   0  0  0  0  0  0  0  0  0  0  0  0  # atno 10765 bound_to 10752
  139.8851  134.8630  156.3324 H   0  0  0  0  0  0  0  0  0  0  0  0  # atno 11005 bound_to 11000
  146.1717  140.6635  142.9230 LP  0  0  0  0  0  0  0  0  0  0  0  0  # atno 17320 bound_to 7965
  144.7394  140.4901  143.6880 LP  0  0  0  0  0  0  0  0  0  0  0  0  # atno 17321 bound_to 7965
  140.4569  144.1777  150.5902 LP  0  0  0  0  0  0  0  0  0  0  0  0  # atno 17342 bound_to 10162
  140.4526  143.2481  151.9328 LP  0  0  0  0  0  0  0  0  0  0  0  0  # atno 17343 bound_to 10162
  157.1027  131.0200  151.3079 LP  0  0  0  0  0  0  0  0  0  0  0  0  # atno 17370 bound_to 10713
  157.4767  130.7741  149.7375 LP  0  0  0  0  0  0  0  0  0  0  0  0  # atno 17371 bound_to 10713
  140.9713  133.7325  156.0539 LP  0  0  0  0  0  0  0  0  0  0  0  0  # atno 17394 bound_to 11000
  140.7866  134.3664  157.5475 LP  0  0  0  0  0  0  0  0  0  0  0  0  # atno 17395 bound_to 11000

$$$$
