AV-unprocessed.smi:2560|AV-procd|sdf|10039|dock7
  -GOLD-   2272014 83D 1   1.00000     0.00000
 Structure written by MMmdl.
 31 32  0  0  0  0  0  0  0  0  1 V2000
  150.2103  137.7787  158.3829 C   0  0  0  0  0  0  0  0  0  0  0  0
  151.6174  136.8576  157.7043 S   0  0  0  0  0  0  0  0  0  0  0  0
  150.9232  135.5297  156.7740 C   0  0  0  0  0  0  0  0  0  0  0  0
  151.1098  134.2538  157.1573 N   0  0  0  0  0  0  0  0  0  0  0  0
  150.3181  133.2406  156.0595 S   0  0  0  0  0  0  0  0  0  0  0  0
  149.7737  134.6122  155.1395 C   0  0  0  0  0  0  0  0  0  0  0  0
  148.9706  134.4789  153.9697 N   0  0  0  0  0  0  0  0  0  0  0  0
  148.1295  133.4986  153.5756 C   0  0  0  0  0  0  0  0  0  0  0  0
  147.9481  132.5006  154.2706 O   0  0  0  0  0  0  0  0  0  0  0  0
  147.5148  133.6844  152.3956 N   0  0  0  0  0  0  0  0  0  0  0  0
  146.5611  132.7736  151.7735 C   0  0  1  0  0  0  0  0  0  0  0  0
  145.1668  133.0824  152.2961 C   0  0  0  0  0  0  0  0  0  0  0  0
  144.0741  133.1567  151.5173 C   0  0  0  0  0  0  0  0  0  0  0  0
  144.0974  132.9232  150.0184 C   0  0  0  0  0  0  0  0  0  0  0  0
  145.3995  132.2438  149.5599 C   0  0  0  0  0  0  0  0  0  0  0  0
  146.6323  132.8681  150.2310 C   0  0  0  0  0  0  0  0  0  0  0  0
  150.1934  135.7613  155.6686 N   0  0  0  0  0  0  0  0  0  0  0  0
  150.5642  138.6199  158.9785 H   0  0  0  0  0  0  0  0  0  0  0  0
  149.6021  137.1359  159.0194 H   0  0  0  0  0  0  0  0  0  0  0  0
  149.5849  138.1639  157.5773 H   0  0  0  0  0  0  0  0  0  0  0  0
  149.0632  135.2394  153.3118 H   0  0  0  0  0  0  0  0  0  0  0  0
  147.7248  134.5332  151.8899 H   0  0  0  0  0  0  0  0  0  0  0  0
  146.7894  131.7532  152.0859 H   0  0  0  0  0  0  0  0  0  0  0  0
  145.0726  133.2530  153.3588 H   0  0  0  0  0  0  0  0  0  0  0  0
  143.1189  133.4046  151.9561 H   0  0  0  0  0  0  0  0  0  0  0  0
  143.2403  132.3118  149.7351 H   0  0  0  0  0  0  0  0  0  0  0  0
  143.9787  133.8872  149.5230 H   0  0  0  0  0  0  0  0  0  0  0  0
  145.3612  131.1824  149.8082 H   0  0  0  0  0  0  0  0  0  0  0  0
  145.4877  132.3024  148.4749 H   0  0  0  0  0  0  0  0  0  0  0  0
  146.6995  133.9142  149.9278 H   0  0  0  0  0  0  0  0  0  0  0  0
  147.5399  132.3852  149.8671 H   0  0  0  0  0  0  0  0  0  0  0  0
  1  2  1  0  0  0  0
  1 18  1  0  0  0  0
  1 19  1  0  0  0  0
  1 20  1  0  0  0  0
  2  3  1  0  0  0  0
  3 17  1  0  0  0  0
  3  4  2  0  0  0  0
  4  5  1  0  0  0  0
  5  6  1  0  0  0  0
  6  7  1  0  0  0  0
  6 17  2  0  0  0  0
  7  8  1  0  0  0  0
  7 21  1  0  0  0  0
  8  9  2  0  0  0  0
  8 10  1  0  0  0  0
 10 11  1  0  0  0  0
 10 22  1  0  0  0  0
 11 16  1  0  0  0  0
 11 12  1  0  0  0  0
 11 23  1  0  0  0  0
 12 13  2  0  0  0  0
 12 24  1  0  0  0  0
 13 14  1  0  0  0  0
 13 25  1  0  0  0  0
 14 15  1  0  0  0  0
 14 26  1  0  0  0  0
 14 27  1  0  0  0  0
 15 16  1  0  0  0  0
 15 28  1  0  0  0  0
 15 29  1  0  0  0  0
 16 30  1  0  0  0  0
 16 31  1  0  0  0  0
M  END
> <s_m_source_file>
AV-unprocessed.smi

> <i_m_source_file_index>
2560

> <i_lp_mmshare_version>
43012

> <i_f3d_flags>
0

> <s_epik_input>
W0NIM11TYzFuc2MobjEpW05IXUMoPU8pW05IXVtDQEBIXTJbQ0hdPVtDSF1bQ0gyXVtDSDJdW0NIMl0y

> <s_epik_cmdline>
J2VwaWtfcHl0aG9uJywgJy1waCcsICc3LjAnLCAnLXRuJywgJzgnLCAnLW1hJywgJzIwMCcsICctbWV0YWxfYmluZGluZycsICctaW1hZScsICc8aW5maWxlLm1hZT4nLCAnLW9tYWUnLCAnPG91dGZpbGUubWFlPic=

> <r_lp_tautomer_probability>
1

> <r_epik_Ionization_Penalty>
2.65559e-05

> <r_epik_Ionization_Penalty_Charging>
0

> <r_epik_Ionization_Penalty_Neutral>
2.65559e-05

> <r_epik_State_Penalty>
-0

> <r_epik_Charging_Adjusted_Penalty>
0

> <i_epik_Tot_Q>
0

> <i_epik_Tot_abs_Q>
0

> <r_epik_Metal_State_Penalty>
-0

> <b_epik_Metal_Only>
0

> <s_lp_Force_Field>
OPLS_2005

> <r_lp_Energy>
8.24661

> <b_lp_Chiralities_Consistent>
1

> <s_lp_Variant>
AV-unprocessed.smi:2560-2

> <Gold.Version>
5.8.1

> <Gold.Id.Protein>
6NUR|6NUR_protein|mol2

> <Gold.PLP.Fitness>
33.0288

> <Gold.PLP.PLP>
-27.4667

> <Gold.PLP.part.hbond>
-3.0000

> <Gold.PLP.part.metal>
0.0000

> <Gold.PLP.part.buried>
-2.5095

> <Gold.PLP.part.nonpolar>
-21.2833

> <Gold.PLP.part.repulsive>
0.1537

> <Gold.PLP.ligand.clash>
0.0000

> <Gold.PLP.ligand.torsion>
0.5325

> <Gold.PLP.Chemscore.Hbond>
2.2067

> <Gold.PLP.Chemscore.CHOScore>
0.0000

> <Gold.PLP.Chemscore.Metal>
0.0000

> <Gold.Chemscore.Hbonds>
donor molecule, donor type, donor heavy atom, donor atom, acceptor molecule, acceptor atom, score
      L1  H     7    21       P1  7948  1.00
      L1  H    10    22       P1  7948  0.87
      P1  H  6896  6908       L1     4  0.28

> <Gold.PLP.Chemscore.Internal.Correction>
0.0071

> <Gold.Rescore>
     Score         DG    S(hbond)    S(metal)    S(lipo)     H(rot)  DE(clash)    DE(int)     intcor
     14.80     -15.44       1.91        0.00      57.94       1.25       0.02       0.61       ----

> <Gold.Chemscore.Fitness>
14.8032

> <Gold.Chemscore.DG>
-15.4362

> <Gold.Chemscore.ZeroCoef>
-5.4800

> <Gold.Chemscore.Hbond>
1.9111

> <Gold.Chemscore.Metal>
0.0000

> <Gold.Chemscore.Lipo>
57.9417

> <Gold.Chemscore.Internal_Hbond>
0.0000

> <Gold.Chemscore.DEClash>
0.0221

> <Gold.Chemscore.DEInternal>
0.6109

> <Gold.Chemscore.Rot>
1.2524

> <Gold.Chemscore.Internal.Correction>
   9.000000E+99

> <Gold.Chemscore.Hbonds>
donor molecule, donor type, donor heavy atom, donor atom, acceptor molecule, acceptor atom, score
      L1  H     7    21       P1  7948  0.35
      L1  H    10    22       P1  7948  0.24
      P1  H  6896  6908       L1     4  0.26

> <Gold.Chemscore.Hbond.Weighted>
-6.3831

> <Gold.Chemscore.Metal.Weighted>
-0.0000

> <Gold.Chemscore.Lipo.Weighted>
-6.7792

> <Gold.Chemscore.Internal_Hbond.Weighted>
0.0000

> <Gold.Chemscore.DEClash.Weighted>
0.0221

> <Gold.Chemscore.DEInternal.Weighted>
0.6109

> <Gold.Chemscore.Rot.Weighted>
3.2062

> <Gold.Chemscore.Internal.Correction.Weighted>
   9.000000E+99

> <Gold.Protein.RotatedTorsions>
[ 6907 6896 6895 6894 ] final  109.03 input  -60.11 | X-H torsion
[ 7974 7965 7964 7962 ] final  -24.88 input  175.53 | X-H torsion
[ 8008 7997 7996 7995 ] final   86.37 input   59.86 | X-H torsion
[ 10167 10162 10161 10158 ] final   73.92 input  -65.29 | X-H torsion
[ 10718 10713 10712 10709 ] final  155.61 input   66.30 | X-H torsion
[ 10763 10752 10751 10750 ] final   54.99 input  -60.55 | X-H torsion
[ 11005 11000 10999 10996 ] final -123.08 input  -57.11 | X-H torsion

> <Gold.Protein.ActiveResidues>
 VAL166  LYS551  ARG553  GLY616  TRP617  ASP618  TYR619  PRO620  LYS621  CYS622 
 ASP623  PHE694  ASN695  SER759  ASP760  ASP761  ALA762  ILE779  LEU786  VAL792 
 PHE793  MET794  SER795  GLU796  ALA797  LYS798  CYS799  TRP800  GLU811  SER814 

> <Gold.Protein.RotatedAtoms>
  152.5086  133.9003  159.7437 H   0  0  0  0  0  0  0  0  0  0  0  0  # atno 6907 bound_to 6896
  150.9420  133.6637  159.2795 H   0  0  0  0  0  0  0  0  0  0  0  0  # atno 6908 bound_to 6896
  151.3945  135.0966  159.9589 H   0  0  0  0  0  0  0  0  0  0  0  0  # atno 6909 bound_to 6896
  146.1527  140.4811  142.8604 H   0  0  0  0  0  0  0  0  0  0  0  0  # atno 7974 bound_to 7965
  155.9620  140.3392  155.6499 H   0  0  0  0  0  0  0  0  0  0  0  0  # atno 8008 bound_to 7997
  155.6786  140.0735  157.2511 H   0  0  0  0  0  0  0  0  0  0  0  0  # atno 8009 bound_to 7997
  154.4145  140.1678  156.1945 H   0  0  0  0  0  0  0  0  0  0  0  0  # atno 8010 bound_to 7997
  140.0192  144.5553  150.7595 H   0  0  0  0  0  0  0  0  0  0  0  0  # atno 10167 bound_to 10162
  157.2160  131.0708  151.1941 H   0  0  0  0  0  0  0  0  0  0  0  0  # atno 10718 bound_to 10713
  152.9811  135.5726  154.4993 H   0  0  0  0  0  0  0  0  0  0  0  0  # atno 10763 bound_to 10752
  154.4515  135.2778  155.1779 H   0  0  0  0  0  0  0  0  0  0  0  0  # atno 10764 bound_to 10752
  154.3405  135.6230  153.5647 H   0  0  0  0  0  0  0  0  0  0  0  0  # atno 10765 bound_to 10752
  140.9947  134.0489  157.3612 H   0  0  0  0  0  0  0  0  0  0  0  0  # atno 11005 bound_to 11000
  144.7924  140.6057  143.6533 LP  0  0  0  0  0  0  0  0  0  0  0  0  # atno 17320 bound_to 7965
  145.4785  139.1497  143.3775 LP  0  0  0  0  0  0  0  0  0  0  0  0  # atno 17321 bound_to 7965
  140.7349  143.2735  151.3815 LP  0  0  0  0  0  0  0  0  0  0  0  0  # atno 17342 bound_to 10162
  139.6151  144.1019  152.2337 LP  0  0  0  0  0  0  0  0  0  0  0  0  # atno 17343 bound_to 10162
  157.3624  130.7138  149.6510 LP  0  0  0  0  0  0  0  0  0  0  0  0  # atno 17370 bound_to 10713
  155.9686  130.4222  150.4504 LP  0  0  0  0  0  0  0  0  0  0  0  0  # atno 17371 bound_to 10713
  139.9009  135.0164  156.7262 LP  0  0  0  0  0  0  0  0  0  0  0  0  # atno 17394 bound_to 11000
  140.6985  133.9327  155.8010 LP  0  0  0  0  0  0  0  0  0  0  0  0  # atno 17395 bound_to 11000

$$$$
