#       Name:                AV-unprocessed.smi:2976
#       Creating user name   scv26
#       Creation time:       Fri Mar 27 16:27:51 2020


#       File generated by GOLD software.
#

@<TRIPOS>MOLECULE
AV-unprocessed.smi:2976
    45    46     1
SMALL
NO_CHARGES


@<TRIPOS>ATOM
      1 ****        -3.7735  -1.0876  -1.1541 C.3            1 S1                 0.0000
      2 ****        -3.1192  -0.2653  -0.0312 C.3            1 S1                 0.0000
      3 ****        -3.7253  -0.5965   1.3474 C.3            1 S1                 0.0000
      4 ****        -3.1411   0.3017   2.4488 C.3            1 S1                 0.0000
      5 ****        -1.6070   0.2326   2.4781 C.3            1 S1                 0.0000
      6 ****        -1.0049   0.5673   1.0996 C.3            1 S1                 0.0000
      7 ****         0.4531   0.5180   1.1741 N.am           1 S1                 0.0000
      8 ****         1.2962   1.1182   0.3204 C.2            1 S1                 0.0000
      9 ****         0.9224   1.8275  -0.6146 O.2            1 S1                 0.0000
     10 ****         2.7921   0.8860   0.5739 C.3            1 S1                 0.0000
     11 ****         3.5738   0.7890  -0.6675 N.am           1 S1                 0.0000
     12 ****         4.3067   1.9246  -0.9649 N.2            1 S1                 0.0000
     13 ****         5.0184   1.9568  -2.0385 C.2            1 S1                 0.0000
     14 ****         5.0851   0.8378  -2.9527 C.2            1 S1                 0.0000
     15 ****         6.0565   0.9398  -4.3789 Cl             1 S1                 0.0000
     16 ****         4.3689  -0.2735  -2.6477 C.2            1 S1                 0.0000
     17 ****         4.3992  -1.6532  -3.6918 Cl             1 S1                 0.0000
     18 ****         3.5479  -0.3469  -1.4313 C.2            1 S1                 0.0000
     19 ****         2.8886  -1.3389  -1.1164 O.2            1 S1                 0.0000
     20 ****        -1.5700  -0.3599  -0.0134 C.3            1 S1                 0.0000
     21 ****        -1.0388  -1.8103   0.0730 C.3            1 S1                 0.0000
     22 ****        -3.6736  -2.1596  -0.9835 H              1 S1                 0.0000
     23 ****        -3.3285  -0.8571  -2.1224 H              1 S1                 0.0000
     24 ****        -4.8395  -0.8694  -1.2229 H              1 S1                 0.0000
     25 ****        -3.3649   0.7770  -0.2413 H              1 S1                 0.0000
     26 ****        -4.8080  -0.4691   1.3164 H              1 S1                 0.0000
     27 ****        -3.5497  -1.6441   1.5942 H              1 S1                 0.0000
     28 ****        -3.4549   1.3327   2.2805 H              1 S1                 0.0000
     29 ****        -3.5453   0.0114   3.4188 H              1 S1                 0.0000
     30 ****        -1.2280   0.9277   3.2284 H              1 S1                 0.0000
     31 ****        -1.2917  -0.7614   2.7973 H              1 S1                 0.0000
     32 ****        -1.2900   1.5950   0.8648 H              1 S1                 0.0000
     33 ****         0.8501  -0.0401   1.9159 H              1 S1                 0.0000
     34 ****         3.1589   1.7064   1.1935 H              1 S1                 0.0000
     35 ****         2.9342  -0.0180   1.1697 H              1 S1                 0.0000
     36 ****         5.6089   2.8302  -2.3154 H              1 S1                 0.0000
     37 ****        -1.2199   0.0332  -0.9691 H              1 S1                 0.0000
     38 ****        -1.3562  -2.3102   0.9872 H              1 S1                 0.0000
     39 ****         0.0503  -1.8417   0.0431 H              1 S1                 0.0000
     40 ****        -1.3821  -2.4119  -0.7678 H              1 S1                 0.0000
     41 ****        -0.0540   1.9800  -0.7672 LP             1 S1                 0.0000
     42 ****         1.5954   2.2510  -1.2211 LP             1 S1                 0.0000
     43 ****         4.2841   2.7140  -0.3514 LP             1 S1                 0.0000
     44 ****         2.3465  -1.3328  -0.2761 LP             1 S1                 0.0000
     45 ****         2.8956  -2.1501  -1.7011 LP             1 S1                 0.0000
@<TRIPOS>BOND
    1    1    2 1     
    2    1   22 1     
    3    1   23 1     
    4    1   24 1     
    5    2   20 1     
    6    2    3 1     
    7    2   25 1     
    8    3    4 1     
    9    3   26 1     
   10    3   27 1     
   11    4    5 1     
   12    4   28 1     
   13    4   29 1     
   14    5    6 1     
   15    5   30 1     
   16    5   31 1     
   17    6    7 1     
   18    6   20 1     
   19    6   32 1     
   20    7    8 am    
   21    7   33 1     
   22    8    9 2     
   23    8   10 1     
   24   10   11 1     
   25   10   34 1     
   26   10   35 1     
   27   11   18 am    
   28   11   12 1     
   29   12   13 2     
   30   13   14 1     
   31   13   36 1     
   32   14   15 1     
   33   14   16 2     
   34   16   17 1     
   35   16   18 1     
   36   18   19 2     
   37   20   21 1     
   38   20   37 1     
   39   21   38 1     
   40   21   39 1     
   41   21   40 1     
   42    9   41 1     
   43    9   42 1     
   44   12   43 1     
   45   19   44 1     
   46   19   45 1     
@<TRIPOS>SUBSTRUCTURE
      1 S1             1
@<TRIPOS>SET
LONE_PAIRS      STATIC     ATOMS    <user>   **** ""
5 41 42 43 44 45
DONOR_HYDROGENS      STATIC     ATOMS    <user>   **** ""
1 33
ATOM$BLUE        STATIC     ATOMS    COLORGROUP SYSTEM
5 41 42 43 44 45
ATOM$RED        STATIC     ATOMS    COLORGROUP SYSTEM
1 33
