AV-unprocessed.smi:132|AV-procd|sdf|1164|dock2
  -GOLD-   2262018303D 1   1.00000     0.00000
 Structure written by MMmdl.
 41 44  0  0  0  0  0  0  0  0  1 V2000
  150.0258  141.3275  153.9678 O   0  0  0  0  0  0  0  0  0  0  0  0
  149.0978  140.5193  154.0317 C   0  0  0  0  0  0  0  0  0  0  0  0
  147.6920  140.9027  153.9622 C   0  0  0  0  0  0  0  0  0  0  0  0
  147.3615  142.2005  153.8517 F   0  0  0  0  0  0  0  0  0  0  0  0
  146.7131  139.9735  154.0094 C   0  0  0  0  0  0  0  0  0  0  0  0
  146.9635  138.6168  154.1200 N   0  0  0  0  0  0  0  0  0  0  0  0
  145.8267  137.6227  154.1640 C   0  0  1  0  0  0  0  0  0  0  0  0
  144.7842  138.0350  155.2097 C   0  0  0  0  0  0  0  0  0  0  0  0
  143.4890  137.7211  154.4924 C   0  0  0  0  0  0  0  0  0  0  0  0
  143.8510  138.0446  153.0484 C   0  0  0  0  0  0  0  0  0  0  0  0
  145.1948  137.5919  152.9159 O   0  0  0  0  0  0  0  0  0  0  0  0
  148.2944  138.1540  154.2130 C   0  0  0  0  0  0  0  0  0  0  0  0
  148.5416  136.9509  154.3212 O   0  0  0  0  0  0  0  0  0  0  0  0
  149.3218  139.1275  154.1723 N   0  0  0  0  0  0  0  0  0  0  0  0
  150.7032  138.6744  154.2303 C   0  0  0  0  0  0  0  0  0  0  0  0
  151.3618  139.0927  155.5104 C   0  0  0  0  0  0  0  0  0  0  0  0
  152.2585  138.3998  156.2135 N   0  0  0  0  0  0  0  0  0  0  0  0
  152.5717  139.1856  157.2990 N   0  0  0  0  0  0  0  0  0  0  0  0
  151.8411  140.2992  157.1775 C   0  0  0  0  0  0  0  0  0  0  0  0
  151.7933  141.4562  158.0696 C   0  0  0  0  0  0  0  0  0  0  0  0
  152.3287  141.3868  159.3764 C   0  0  0  0  0  0  0  0  0  0  0  0
  152.2773  142.5083  160.2271 C   0  0  0  0  0  0  0  0  0  0  0  0
  151.6875  143.7065  159.7811 C   0  0  0  0  0  0  0  0  0  0  0  0
  151.6249  145.0801  160.8236 Cl  0  0  0  0  0  0  0  0  0  0  0  0
  151.1484  143.7821  158.4828 C   0  0  0  0  0  0  0  0  0  0  0  0
  151.2012  142.6617  157.6309 C   0  0  0  0  0  0  0  0  0  0  0  0
  151.0628  140.2984  156.0621 O   0  0  0  0  0  0  0  0  0  0  0  0
  145.6914  140.3162  153.9581 H   0  0  0  0  0  0  0  0  0  0  0  0
  146.2538  136.6350  154.3409 H   0  0  0  0  0  0  0  0  0  0  0  0
  144.9191  137.4848  156.1414 H   0  0  0  0  0  0  0  0  0  0  0  0
  144.8559  139.1048  155.4118 H   0  0  0  0  0  0  0  0  0  0  0  0
  143.2506  136.6615  154.5922 H   0  0  0  0  0  0  0  0  0  0  0  0
  142.6428  138.3012  154.8615 H   0  0  0  0  0  0  0  0  0  0  0  0
  143.1929  137.5547  152.3306 H   0  0  0  0  0  0  0  0  0  0  0  0
  143.8049  139.1199  152.8735 H   0  0  0  0  0  0  0  0  0  0  0  0
  150.7047  137.5880  154.1258 H   0  0  0  0  0  0  0  0  0  0  0  0
  151.2501  139.0621  153.3704 H   0  0  0  0  0  0  0  0  0  0  0  0
  152.7870  140.4777  159.7373 H   0  0  0  0  0  0  0  0  0  0  0  0
  152.6917  142.4476  161.2228 H   0  0  0  0  0  0  0  0  0  0  0  0
  150.6936  144.6991  158.1379 H   0  0  0  0  0  0  0  0  0  0  0  0
  150.7824  142.7360  156.6380 H   0  0  0  0  0  0  0  0  0  0  0  0
  1  2  2  0  0  0  0
  2 14  1  0  0  0  0
  2  3  1  0  0  0  0
  3  4  1  0  0  0  0
  3  5  2  0  0  0  0
  5  6  1  0  0  0  0
  5 28  1  0  0  0  0
  6  7  1  0  0  0  0
  6 12  1  0  0  0  0
  7 11  1  0  0  0  0
  7  8  1  0  0  0  0
  7 29  1  0  0  0  0
  8  9  1  0  0  0  0
  8 30  1  0  0  0  0
  8 31  1  0  0  0  0
  9 10  1  0  0  0  0
  9 32  1  0  0  0  0
  9 33  1  0  0  0  0
 10 11  1  0  0  0  0
 10 34  1  0  0  0  0
 10 35  1  0  0  0  0
 12 13  2  0  0  0  0
 12 14  1  0  0  0  0
 14 15  1  0  0  0  0
 15 16  1  0  0  0  0
 15 36  1  0  0  0  0
 15 37  1  0  0  0  0
 16 27  1  0  0  0  0
 16 17  2  0  0  0  0
 17 18  1  0  0  0  0
 18 19  2  0  0  0  0
 19 20  1  0  0  0  0
 19 27  1  0  0  0  0
 20 26  1  0  0  0  0
 20 21  2  0  0  0  0
 21 22  1  0  0  0  0
 21 38  1  0  0  0  0
 22 23  2  0  0  0  0
 22 39  1  0  0  0  0
 23 24  1  0  0  0  0
 23 25  1  0  0  0  0
 25 26  2  0  0  0  0
 25 40  1  0  0  0  0
 26 41  1  0  0  0  0
M  END
> <s_m_source_file>
AV-unprocessed.smi

> <i_m_source_file_index>
132

> <i_lp_mmshare_version>
43012

> <i_f3d_flags>
0

> <s_epik_input>
TzFbQ0gyXVtDSDJdW0NIMl1bQ0BIXTFuKFtjSF1jKEYpYzI9TyljKD1PKW4yW0NIMl1jM25uYyhvMyktYzRbY0hdW2NIXWMoQ2wpW2NIXVtjSF00

> <s_epik_cmdline>
J2VwaWtfcHl0aG9uJywgJy1waCcsICc3LjAnLCAnLXRuJywgJzgnLCAnLW1hJywgJzIwMCcsICctbWV0YWxfYmluZGluZycsICctaW1hZScsICc8aW5maWxlLm1hZT4nLCAnLW9tYWUnLCAnPG91dGZpbGUubWFlPic=

> <r_lp_tautomer_probability>
1

> <r_epik_Ionization_Penalty>
2.5553e-09

> <r_epik_Ionization_Penalty_Charging>
2.54231e-09

> <r_epik_Ionization_Penalty_Neutral>
1.29923e-11

> <r_epik_State_Penalty>
-0

> <r_epik_Charging_Adjusted_Penalty>
2.54231e-09

> <i_epik_Tot_Q>
0

> <i_epik_Tot_abs_Q>
0

> <r_epik_Metal_State_Penalty>
-0

> <b_epik_Metal_Only>
0

> <s_epik_Chemistry_Notes>
This compound contains an acetal/aminal-like group ( X-CH(R)-Y where X, Y are N, S, or O) that may be acid/base labile, releasing an aldehyde.

> <s_lp_Force_Field>
OPLS_2005

> <r_lp_Energy>
32.8563

> <b_lp_Chiralities_Consistent>
1

> <s_lp_Variant>
AV-unprocessed.smi:132-2

> <Gold.Version>
5.8.1

> <Gold.Id.Protein>
6NUR|6NUR_protein|mol2

> <Gold.PLP.Fitness>
50.4031

> <Gold.PLP.PLP>
-42.8902

> <Gold.PLP.part.hbond>
-3.0000

> <Gold.PLP.part.metal>
0.0000

> <Gold.PLP.part.buried>
-4.0668

> <Gold.PLP.part.nonpolar>
-37.2804

> <Gold.PLP.part.repulsive>
1.7809

> <Gold.PLP.ligand.clash>
0.0000

> <Gold.PLP.ligand.torsion>
0.6427

> <Gold.PLP.Chemscore.Hbond>
2.1520

> <Gold.PLP.Chemscore.CHOScore>
0.7539

> <Gold.PLP.Chemscore.Metal>
0.0000

> <Gold.Chemscore.Hbonds>
donor molecule, donor type, donor heavy atom, donor atom, acceptor molecule, acceptor atom, score
      P1  H  7989  7998       L1     1  0.27
      P1  H  7997  8008       L1    18  0.59
      P1  H  8011  8017       L1     1  0.69
      L1  C     5    28       P1 10175  1.00

> <Gold.PLP.Chemscore.Internal.Correction>
0.0805

> <Gold.Rescore>
     Score         DG    S(hbond)    S(metal)    S(lipo)     H(rot)  DE(clash)    DE(int)     intcor
     13.49     -18.33       1.96        0.00      91.03       1.70       1.52       3.31       ----

> <Gold.Chemscore.Fitness>
13.4928

> <Gold.Chemscore.DG>
-18.3308

> <Gold.Chemscore.ZeroCoef>
-5.4800

> <Gold.Chemscore.Hbond>
1.9603

> <Gold.Chemscore.Metal>
0.0000

> <Gold.Chemscore.Lipo>
91.0279

> <Gold.Chemscore.Internal_Hbond>
0.0000

> <Gold.Chemscore.DEClash>
1.5249

> <Gold.Chemscore.DEInternal>
3.3131

> <Gold.Chemscore.Rot>
1.6980

> <Gold.Chemscore.Internal.Correction>
   9.000000E+99

> <Gold.Chemscore.Hbonds>
donor molecule, donor type, donor heavy atom, donor atom, acceptor molecule, acceptor atom, score
      P1  H  7989  7998       L1     1  0.28
      P1  H  7997  8008       L1    18  0.02
      P1  H  8011  8017       L1     1  0.47

> <Gold.Chemscore.Hbond.Weighted>
-6.5474

> <Gold.Chemscore.Metal.Weighted>
-0.0000

> <Gold.Chemscore.Lipo.Weighted>
-10.6503

> <Gold.Chemscore.Internal_Hbond.Weighted>
0.0000

> <Gold.Chemscore.DEClash.Weighted>
1.5249

> <Gold.Chemscore.DEInternal.Weighted>
3.3131

> <Gold.Chemscore.Rot.Weighted>
4.3469

> <Gold.Chemscore.Internal.Correction.Weighted>
   9.000000E+99

> <Gold.Protein.RotatedTorsions>
[ 6907 6896 6895 6894 ] final  -24.17 input  -60.11 | X-H torsion
[ 7974 7965 7964 7962 ] final -174.92 input  175.53 | X-H torsion
[ 8008 7997 7996 7995 ] final  -59.79 input   59.86 | X-H torsion
[ 10167 10162 10161 10158 ] final  163.09 input  -65.29 | X-H torsion
[ 10718 10713 10712 10709 ] final  -70.30 input   66.30 | X-H torsion
[ 10763 10752 10751 10750 ] final  160.54 input  -60.55 | X-H torsion
[ 11005 11000 10999 10996 ] final   20.10 input  -57.11 | X-H torsion

> <Gold.Protein.ActiveResidues>
 VAL166  LYS551  ARG553  GLY616  TRP617  ASP618  TYR619  PRO620  LYS621  CYS622 
 ASP623  PHE694  ASN695  SER759  ASP760  ASP761  ALA762  ILE779  LEU786  VAL792 
 PHE793  MET794  SER795  GLU796  ALA797  LYS798  CYS799  TRP800  GLU811  SER814 

> <Gold.Protein.RotatedAtoms>
  151.1934  135.0412  159.8841 H   0  0  0  0  0  0  0  0  0  0  0  0  # atno 6907 bound_to 6896
  152.5438  134.0931  159.8295 H   0  0  0  0  0  0  0  0  0  0  0  0  # atno 6908 bound_to 6896
  151.1062  133.5159  159.2640 H   0  0  0  0  0  0  0  0  0  0  0  0  # atno 6909 bound_to 6896
  144.7130  140.1399  143.6392 H   0  0  0  0  0  0  0  0  0  0  0  0  # atno 7974 bound_to 7965
  154.4368  140.1054  156.6171 H   0  0  0  0  0  0  0  0  0  0  0  0  # atno 8008 bound_to 7997
  155.5748  140.3490  155.4506 H   0  0  0  0  0  0  0  0  0  0  0  0  # atno 8009 bound_to 7997
  156.0363  140.1272  157.0194 H   0  0  0  0  0  0  0  0  0  0  0  0  # atno 8010 bound_to 7997
  139.4869  144.4372  151.8997 H   0  0  0  0  0  0  0  0  0  0  0  0  # atno 10167 bound_to 10162
  156.0414  130.4329  150.2275 H   0  0  0  0  0  0  0  0  0  0  0  0  # atno 10718 bound_to 10713
  154.2490  135.2772  155.2824 H   0  0  0  0  0  0  0  0  0  0  0  0  # atno 10763 bound_to 10752
  154.5481  135.5683  153.6901 H   0  0  0  0  0  0  0  0  0  0  0  0  # atno 10764 bound_to 10752
  152.9984  135.6267  154.2636 H   0  0  0  0  0  0  0  0  0  0  0  0  # atno 10765 bound_to 10752
  140.4063  134.1665  155.7665 H   0  0  0  0  0  0  0  0  0  0  0  0  # atno 11005 bound_to 11000
  145.9211  139.2546  143.1381 LP  0  0  0  0  0  0  0  0  0  0  0  0  # atno 17320 bound_to 7965
  145.9619  140.8829  143.0206 LP  0  0  0  0  0  0  0  0  0  0  0  0  # atno 17321 bound_to 7965
  140.3822  144.2721  150.5907 LP  0  0  0  0  0  0  0  0  0  0  0  0  # atno 17342 bound_to 10162
  140.5223  143.2263  151.8370 LP  0  0  0  0  0  0  0  0  0  0  0  0  # atno 17343 bound_to 10162
  157.0370  131.0024  151.3295 LP  0  0  0  0  0  0  0  0  0  0  0  0  # atno 17370 bound_to 10713
  157.5237  130.8014  149.7838 LP  0  0  0  0  0  0  0  0  0  0  0  0  # atno 17371 bound_to 10713
  141.1838  133.8357  157.1163 LP  0  0  0  0  0  0  0  0  0  0  0  0  # atno 17394 bound_to 11000
  140.0299  134.9906  157.0761 LP  0  0  0  0  0  0  0  0  0  0  0  0  # atno 17395 bound_to 11000

$$$$
