AV-unprocessed.smi:107|AV-procd|sdf|1022|dock4
  -GOLD-   2262018 23D 1   1.00000     0.00000
 Structure written by MMmdl.
 30 31  0  0  0  0  0  0  0  0  2 V2000
  152.3159  144.8506  158.4336 C   0  0  0  0  0  0  0  0  0  0  0  0
  151.9748  143.3767  158.5657 C   0  0  0  0  0  0  0  0  0  0  0  0
  151.0812  142.7676  157.7547 C   0  0  0  0  0  0  0  0  0  0  0  0
  150.7729  141.4246  157.8817 N   0  0  0  0  0  0  0  0  0  0  0  0
  149.7522  140.7797  156.9754 C   0  0  1  0  0  0  0  0  0  0  0  0
  149.4933  141.6378  155.7438 C   0  0  0  0  0  0  0  0  0  0  0  0
  149.1246  140.5924  154.6978 C   0  0  1  0  0  0  0  0  0  0  0  0
  149.7797  140.8779  153.4755 O   0  0  0  0  0  0  0  0  0  0  0  0
  149.5112  139.2335  155.3329 C   0  0  1  0  0  0  0  0  0  0  0  0
  150.3395  138.2799  154.4511 C   0  0  0  0  0  0  0  0  0  0  0  0
  149.7220  138.1224  153.1912 O   0  0  0  0  0  0  0  0  0  0  0  0
  150.2586  139.5805  156.4925 O   0  0  0  0  0  0  0  0  0  0  0  0
  151.3789  140.6578  158.9099 C   0  0  0  0  0  0  0  0  0  0  0  0
  151.0496  139.4769  159.0244 O   0  0  0  0  0  0  0  0  0  0  0  0
  152.2887  141.2614  159.7271 N   0  5  0  0  0  0  0  0  0  0  0  0
  152.6264  142.5782  159.6113 C   0  0  0  0  0  0  0  0  0  0  0  0
  153.4517  143.1093  160.3544 O   0  0  0  0  0  0  0  0  0  0  0  0
  151.7564  145.3163  157.6220 H   0  0  0  0  0  0  0  0  0  0  0  0
  153.3789  144.9787  158.2282 H   0  0  0  0  0  0  0  0  0  0  0  0
  152.0763  145.3802  159.3562 H   0  0  0  0  0  0  0  0  0  0  0  0
  150.5905  143.3522  156.9907 H   0  0  0  0  0  0  0  0  0  0  0  0
  148.8602  140.5751  157.5707 H   0  0  0  0  0  0  0  0  0  0  0  0
  148.7088  142.3704  155.9357 H   0  0  0  0  0  0  0  0  0  0  0  0
  150.4121  142.1618  155.4737 H   0  0  0  0  0  0  0  0  0  0  0  0
  148.0496  140.6108  154.5145 H   0  0  0  0  0  0  0  0  0  0  0  0
  149.5613  140.2022  152.8522 H   0  0  0  0  0  0  0  0  0  0  0  0
  148.5924  138.7399  155.6555 H   0  0  0  0  0  0  0  0  0  0  0  0
  151.3309  138.6935  154.2648 H   0  0  0  0  0  0  0  0  0  0  0  0
  150.4727  137.3109  154.9336 H   0  0  0  0  0  0  0  0  0  0  0  0
  149.9501  138.8631  152.6504 H   0  0  0  0  0  0  0  0  0  0  0  0
  1  2  1  0  0  0  0
  1 18  1  0  0  0  0
  1 19  1  0  0  0  0
  1 20  1  0  0  0  0
  2 16  1  0  0  0  0
  2  3  2  0  0  0  0
  3  4  1  0  0  0  0
  3 21  1  0  0  0  0
  4  5  1  0  0  0  0
  4 13  1  0  0  0  0
  5 12  1  0  0  0  0
  5  6  1  0  0  0  0
  5 22  1  0  0  0  0
  6  7  1  0  0  0  0
  6 23  1  0  0  0  0
  6 24  1  0  0  0  0
  7  8  1  0  0  0  0
  7  9  1  0  0  0  0
  7 25  1  0  0  0  0
  8 26  1  0  0  0  0
  9 10  1  0  0  0  0
  9 12  1  0  0  0  0
  9 27  1  0  0  0  0
 10 11  1  0  0  0  0
 10 28  1  0  0  0  0
 10 29  1  0  0  0  0
 11 30  1  0  0  0  0
 13 14  2  0  0  0  0
 13 15  1  0  0  0  0
 15 16  1  0  0  0  0
 16 17  2  0  0  0  0
M  CHG  1  15  -1
M  END
> <s_m_source_file>
AV-unprocessed.smi

> <i_m_source_file_index>
107

> <i_lp_mmshare_version>
43012

> <i_f3d_flags>
0

> <s_epik_input>
Tz1jMVtuSF1jKD1PKW4oW2NIXWMxW0NIM10pW0NAQEhdMltDSDJdW0NAQEhdKFtPSF0pW0NASF0oTzIpW0NIMl1bT0hd

> <s_epik_cmdline>
J2VwaWtfcHl0aG9uJywgJy1waCcsICc3LjAnLCAnLXRuJywgJzgnLCAnLW1hJywgJzIwMCcsICctbWV0YWxfYmluZGluZycsICctaW1hZScsICc8aW5maWxlLm1hZT4nLCAnLW9tYWUnLCAnPG91dGZpbGUubWFlPic=

> <r_lp_tautomer_probability>
0.999537

> <r_epik_Ionization_Penalty>
3.66603

> <r_epik_Ionization_Penalty_Charging>
1.09773e-07

> <r_epik_Ionization_Penalty_Neutral>
3.66603

> <r_epik_State_Penalty>
3.66562

> <r_epik_Charging_Adjusted_Penalty>
3.66562

> <i_epik_Tot_Q>
-1

> <i_epik_Tot_abs_Q>
1

> <r_epik_Metal_State_Penalty>
0.234536

> <b_epik_Metal_Only>
1

> <s_epik_Chemistry_Notes>
This compound contains an acetal/aminal-like group ( X-CH(R)-Y where X, Y are N, S, or O) that may be acid/base labile, releasing an aldehyde.

> <s_lp_Force_Field>
OPLS_2005

> <r_lp_Energy>
40.7451

> <b_lp_Chiralities_Consistent>
1

> <s_lp_Variant>
AV-unprocessed.smi:107-10

> <Gold.Version>
5.8.1

> <Gold.Id.Protein>
6NUR|6NUR_protein|mol2

> <Gold.PLP.Fitness>
42.3096

> <Gold.PLP.PLP>
-30.9303

> <Gold.PLP.part.hbond>
-4.9535

> <Gold.PLP.part.metal>
0.0000

> <Gold.PLP.part.buried>
-0.5263

> <Gold.PLP.part.nonpolar>
-25.3307

> <Gold.PLP.part.repulsive>
0.0000

> <Gold.PLP.ligand.clash>
0.0000

> <Gold.PLP.ligand.torsion>
0.3818

> <Gold.PLP.Chemscore.Hbond>
3.0400

> <Gold.PLP.Chemscore.CHOScore>
0.9995

> <Gold.PLP.Chemscore.Metal>
0.0000

> <Gold.Chemscore.Hbonds>
donor molecule, donor type, donor heavy atom, donor atom, acceptor molecule, acceptor atom, score
      L1  H     8    26       P1  7957  0.70
      L1  H    11    30       P1  7957  1.00
      P1  H  7989  7998       L1     8  0.30
      P1  H  8011  8017       L1     8  1.00
      L1  C     3    21       P1  8028  0.96

> <Gold.PLP.Chemscore.Internal.Correction>
0.0242

> <Gold.Rescore>
     Score         DG    S(hbond)    S(metal)    S(lipo)     H(rot)  DE(clash)    DE(int)     intcor
     10.86     -12.63       2.03        0.00      61.82       2.69       0.19       1.58       ----

> <Gold.Chemscore.Fitness>
10.8605

> <Gold.Chemscore.DG>
-12.6279

> <Gold.Chemscore.ZeroCoef>
-5.4800

> <Gold.Chemscore.Hbond>
2.0342

> <Gold.Chemscore.Metal>
0.0000

> <Gold.Chemscore.Lipo>
61.8192

> <Gold.Chemscore.Internal_Hbond>
0.0000

> <Gold.Chemscore.DEClash>
0.1901

> <Gold.Chemscore.DEInternal>
1.5773

> <Gold.Chemscore.Rot>
2.6871

> <Gold.Chemscore.Internal.Correction>
   9.000000E+99

> <Gold.Chemscore.Hbonds>
donor molecule, donor type, donor heavy atom, donor atom, acceptor molecule, acceptor atom, score
      L1  H     8    26       P1  7957  0.72
      L1  H    11    30       P1  7957  0.57
      P1  H  7989  7998       L1     8  0.12
      P1  H  8011  8017       L1     8  0.25

> <Gold.Chemscore.Hbond.Weighted>
-6.7941

> <Gold.Chemscore.Metal.Weighted>
-0.0000

> <Gold.Chemscore.Lipo.Weighted>
-7.2328

> <Gold.Chemscore.Internal_Hbond.Weighted>
0.0000

> <Gold.Chemscore.DEClash.Weighted>
0.1901

> <Gold.Chemscore.DEInternal.Weighted>
1.5773

> <Gold.Chemscore.Rot.Weighted>
6.8791

> <Gold.Chemscore.Internal.Correction.Weighted>
   9.000000E+99

> <Gold.Protein.RotatedTorsions>
[ 6907 6896 6895 6894 ] final   87.59 input  -60.11 | X-H torsion
[ 7974 7965 7964 7962 ] final -155.57 input  175.53 | X-H torsion
[ 8008 7997 7996 7995 ] final   70.35 input   59.86 | X-H torsion
[ 10167 10162 10161 10158 ] final  141.57 input  -65.29 | X-H torsion
[ 10718 10713 10712 10709 ] final  -71.94 input   66.30 | X-H torsion
[ 10763 10752 10751 10750 ] final -136.29 input  -60.55 | X-H torsion
[ 11005 11000 10999 10996 ] final -103.40 input  -57.11 | X-H torsion

> <Gold.Protein.ActiveResidues>
 VAL166  LYS551  ARG553  GLY616  TRP617  ASP618  TYR619  PRO620  LYS621  CYS622 
 ASP623  PHE694  ASN695  SER759  ASP760  ASP761  ALA762  ILE779  LEU786  VAL792 
 PHE793  MET794  SER795  GLU796  ALA797  LYS798  CYS799  TRP800  GLU811  SER814 

> <Gold.Protein.RotatedAtoms>
  152.5413  134.2252  159.8803 H   0  0  0  0  0  0  0  0  0  0  0  0  # atno 6907 bound_to 6896
  151.2227  133.4487  159.2609 H   0  0  0  0  0  0  0  0  0  0  0  0  # atno 6908 bound_to 6896
  151.0790  134.9859  159.8402 H   0  0  0  0  0  0  0  0  0  0  0  0  # atno 6909 bound_to 6896
  144.7634  140.4231  143.5960 H   0  0  0  0  0  0  0  0  0  0  0  0  # atno 7974 bound_to 7965
  155.7375  140.3491  155.5088 H   0  0  0  0  0  0  0  0  0  0  0  0  # atno 8008 bound_to 7997
  155.9125  140.1053  157.1290 H   0  0  0  0  0  0  0  0  0  0  0  0  # atno 8009 bound_to 7997
  154.4058  140.1265  156.4562 H   0  0  0  0  0  0  0  0  0  0  0  0  # atno 8010 bound_to 7997
  139.5017  144.6163  151.6156 H   0  0  0  0  0  0  0  0  0  0  0  0  # atno 10167 bound_to 10162
  156.0341  130.4362  150.2519 H   0  0  0  0  0  0  0  0  0  0  0  0  # atno 10718 bound_to 10713
  154.8687  135.3677  154.5037 H   0  0  0  0  0  0  0  0  0  0  0  0  # atno 10763 bound_to 10752
  153.5676  135.7021  153.5524 H   0  0  0  0  0  0  0  0  0  0  0  0  # atno 10764 bound_to 10752
  153.3571  135.4056  155.1654 H   0  0  0  0  0  0  0  0  0  0  0  0  # atno 10765 bound_to 10752
  141.1147  133.8637  157.1482 H   0  0  0  0  0  0  0  0  0  0  0  0  # atno 11005 bound_to 11000
  145.6548  139.1571  143.2842 LP  0  0  0  0  0  0  0  0  0  0  0  0  # atno 17320 bound_to 7965
  146.1718  140.6633  142.9229 LP  0  0  0  0  0  0  0  0  0  0  0  0  # atno 17321 bound_to 7965
  140.5852  143.9877  150.6291 LP  0  0  0  0  0  0  0  0  0  0  0  0  # atno 17342 bound_to 10162
  140.3039  143.3242  152.0945 LP  0  0  0  0  0  0  0  0  0  0  0  0  # atno 17343 bound_to 10162
  157.0619  131.0092  151.3219 LP  0  0  0  0  0  0  0  0  0  0  0  0  # atno 17370 bound_to 10713
  157.5064  130.7911  149.7658 LP  0  0  0  0  0  0  0  0  0  0  0  0  # atno 17371 bound_to 10713
  140.0062  135.0007  157.0297 LP  0  0  0  0  0  0  0  0  0  0  0  0  # atno 17394 bound_to 11000
  140.4679  134.1417  155.7199 LP  0  0  0  0  0  0  0  0  0  0  0  0  # atno 17395 bound_to 11000

$$$$
