AV-unprocessed.smi:712|AV-procd|sdf|3473|dock2
  -GOLD-   22720 0463D 1   1.00000     0.00000
 Structure written by MMmdl.
 50 51  0  0  0  0  0  0  0  0  1 V2000
  146.9234  132.5474  162.4941 C   0  0  0  0  0  0  0  0  0  0  0  0
  147.2134  133.7954  161.6861 C   0  0  0  0  0  0  0  0  0  0  0  0
  147.5218  133.7088  160.2738 C   0  0  0  0  0  0  0  0  0  0  0  0
  147.7668  134.8362  159.5877 C   0  0  0  0  0  0  0  0  0  0  0  0
  147.7337  136.1016  160.2016 N   0  0  0  0  0  0  0  0  0  0  0  0
  148.0118  137.2719  159.3527 C   0  0  0  0  0  0  0  0  0  0  0  0
  149.4005  137.2254  158.7007 C   0  0  0  0  0  0  0  0  0  0  0  0
  150.0699  136.1921  158.7244 O   0  0  0  0  0  0  0  0  0  0  0  0
  149.8040  138.3527  158.0954 N   0  0  0  0  0  0  0  0  0  0  0  0
  151.0750  138.5416  157.4009 C   0  0  0  0  0  0  0  0  0  0  0  0
  151.8410  139.7765  157.9088 C   0  0  1  0  0  0  0  0  0  0  0  0
  151.0321  141.0892  157.8421 C   0  0  0  0  0  0  0  0  0  0  0  0
  151.7842  142.2272  158.3607 N   0  0  0  0  0  0  0  0  0  0  0  0
  150.9875  143.4546  158.2645 C   0  0  0  0  0  0  0  0  0  0  0  0
  151.7162  144.8046  158.4779 C   0  0  0  0  0  0  0  0  0  0  0  0
  153.0673  144.9040  157.7499 C   0  0  0  0  0  0  0  0  0  0  0  0
  151.8034  145.2338  159.9526 C   0  0  0  0  0  0  0  0  0  0  0  0
  152.2149  141.9234  159.7227 C   0  0  0  0  0  0  0  0  0  0  0  0
  153.0130  140.6103  159.7973 C   0  0  0  0  0  0  0  0  0  0  0  0
  152.2437  139.5426  159.2558 O   0  0  0  0  0  0  0  0  0  0  0  0
  147.4563  136.2517  161.5318 C   0  0  0  0  0  0  0  0  0  0  0  0
  147.4316  137.3562  162.0756 O   0  0  0  0  0  0  0  0  0  0  0  0
  147.1865  135.0131  162.2709 C   0  0  0  0  0  0  0  0  0  0  0  0
  147.1079  131.6464  161.9086 H   0  0  0  0  0  0  0  0  0  0  0  0
  145.8817  132.5387  162.8153 H   0  0  0  0  0  0  0  0  0  0  0  0
  147.5575  132.5121  163.3804 H   0  0  0  0  0  0  0  0  0  0  0  0
  147.5574  132.7509  159.7758 H   0  0  0  0  0  0  0  0  0  0  0  0
  148.0082  134.8404  158.5348 H   0  0  0  0  0  0  0  0  0  0  0  0
  147.2697  137.3556  158.5577 H   0  0  0  0  0  0  0  0  0  0  0  0
  147.9079  138.1881  159.9374 H   0  0  0  0  0  0  0  0  0  0  0  0
  149.1809  139.1470  158.1162 H   0  0  0  0  0  0  0  0  0  0  0  0
  151.6791  137.6487  157.5638 H   0  0  0  0  0  0  0  0  0  0  0  0
  150.9274  138.6116  156.3222 H   0  0  0  0  0  0  0  0  0  0  0  0
  152.7388  139.8861  157.2976 H   0  0  0  0  0  0  0  0  0  0  0  0
  150.7431  141.2778  156.8075 H   0  0  0  0  0  0  0  0  0  0  0  0
  150.1056  140.9817  158.4077 H   0  0  0  0  0  0  0  0  0  0  0  0
  150.5679  143.4940  157.2581 H   0  0  0  0  0  0  0  0  0  0  0  0
  150.1240  143.3913  158.9284 H   0  0  0  0  0  0  0  0  0  0  0  0
  151.0714  145.5510  158.0118 H   0  0  0  0  0  0  0  0  0  0  0  0
  153.8097  144.2324  158.1807 H   0  0  0  0  0  0  0  0  0  0  0  0
  153.4680  145.9161  157.8089 H   0  0  0  0  0  0  0  0  0  0  0  0
  152.9629  144.6532  156.6940 H   0  0  0  0  0  0  0  0  0  0  0  0
  152.4774  144.6096  160.5351 H   0  0  0  0  0  0  0  0  0  0  0  0
  150.8236  145.1989  160.4299 H   0  0  0  0  0  0  0  0  0  0  0  0
  152.1662  146.2588  160.0339 H   0  0  0  0  0  0  0  0  0  0  0  0
  152.8495  142.7200  160.1038 H   0  0  0  0  0  0  0  0  0  0  0  0
  151.3480  141.8615  160.3824 H   0  0  0  0  0  0  0  0  0  0  0  0
  153.9538  140.7006  159.2522 H   0  0  0  0  0  0  0  0  0  0  0  0
  153.2645  140.3780  160.8320 H   0  0  0  0  0  0  0  0  0  0  0  0
  146.9565  135.0845  163.3243 H   0  0  0  0  0  0  0  0  0  0  0  0
  1  2  1  0  0  0  0
  1 24  1  0  0  0  0
  1 25  1  0  0  0  0
  1 26  1  0  0  0  0
  2 23  2  0  0  0  0
  2  3  1  0  0  0  0
  3  4  2  0  0  0  0
  3 27  1  0  0  0  0
  4  5  1  0  0  0  0
  4 28  1  0  0  0  0
  5  6  1  0  0  0  0
  5 21  1  0  0  0  0
  6  7  1  0  0  0  0
  6 29  1  0  0  0  0
  6 30  1  0  0  0  0
  7  8  2  0  0  0  0
  7  9  1  0  0  0  0
  9 10  1  0  0  0  0
  9 31  1  0  0  0  0
 10 11  1  0  0  0  0
 10 32  1  0  0  0  0
 10 33  1  0  0  0  0
 11 20  1  0  0  0  0
 11 12  1  0  0  0  0
 11 34  1  0  0  0  0
 12 13  1  0  0  0  0
 12 35  1  0  0  0  0
 12 36  1  0  0  0  0
 13 14  1  0  0  0  0
 13 18  1  0  0  0  0
 14 15  1  0  0  0  0
 14 37  1  0  0  0  0
 14 38  1  0  0  0  0
 15 16  1  0  0  0  0
 15 17  1  0  0  0  0
 15 39  1  0  0  0  0
 16 40  1  0  0  0  0
 16 41  1  0  0  0  0
 16 42  1  0  0  0  0
 17 43  1  0  0  0  0
 17 44  1  0  0  0  0
 17 45  1  0  0  0  0
 18 19  1  0  0  0  0
 18 46  1  0  0  0  0
 18 47  1  0  0  0  0
 19 20  1  0  0  0  0
 19 48  1  0  0  0  0
 19 49  1  0  0  0  0
 21 22  2  0  0  0  0
 21 23  1  0  0  0  0
 23 50  1  0  0  0  0
M  END
> <s_m_source_file>
AV-unprocessed.smi

> <i_m_source_file_index>
712

> <i_lp_mmshare_version>
43012

> <i_f3d_flags>
0

> <s_epik_input>
W0NIM11jMVtjSF1bY0hdbihjKD1PKVtjSF0xKVtDSDJdQyg9TylbTkhdW0NIMl1bQ0BASF0yW0NIMl1OKFtDSDJdW0NIMl1PMilbQ0gyXVtDSF0oW0NIM10pW0NIM10=

> <s_epik_cmdline>
J2VwaWtfcHl0aG9uJywgJy1waCcsICc3LjAnLCAnLXRuJywgJzgnLCAnLW1hJywgJzIwMCcsICctbWV0YWxfYmluZGluZycsICctaW1hZScsICc8aW5maWxlLm1hZT4nLCAnLW9tYWUnLCAnPG91dGZpbGUubWFlPic=

> <r_lp_tautomer_probability>
1

> <r_epik_Ionization_Penalty>
1.11669

> <r_epik_Ionization_Penalty_Charging>
4.93496e-07

> <r_epik_Ionization_Penalty_Neutral>
1.11669

> <r_epik_State_Penalty>
1.17516

> <r_epik_Charging_Adjusted_Penalty>
1.17516

> <i_epik_Tot_Q>
0

> <i_epik_Tot_abs_Q>
0

> <r_epik_Metal_State_Penalty>
1.17513

> <b_epik_Metal_Only>
0

> <s_lp_Force_Field>
OPLS_2005

> <r_lp_Energy>
40.1187

> <b_lp_Chiralities_Consistent>
1

> <s_lp_Variant>
AV-unprocessed.smi:712-6

> <Gold.Version>
5.8.1

> <Gold.Id.Protein>
6NUR|6NUR_protein|mol2

> <Gold.PLP.Fitness>
48.6734

> <Gold.PLP.PLP>
-42.8446

> <Gold.PLP.part.hbond>
-3.0000

> <Gold.PLP.part.metal>
0.0000

> <Gold.PLP.part.buried>
-6.8347

> <Gold.PLP.part.nonpolar>
-32.3831

> <Gold.PLP.part.repulsive>
0.1037

> <Gold.PLP.ligand.clash>
0.0000

> <Gold.PLP.ligand.torsion>
0.4424

> <Gold.PLP.Chemscore.Hbond>
2.2017

> <Gold.PLP.Chemscore.CHOScore>
0.0000

> <Gold.PLP.Chemscore.Metal>
0.0000

> <Gold.Chemscore.Hbonds>
donor molecule, donor type, donor heavy atom, donor atom, acceptor molecule, acceptor atom, score
      P1  H  6896  6909       L1     8  0.59
      P1  H  6931  6943       L1    22  0.82
      P1  H  6934  6947       L1    22  0.64

> <Gold.PLP.Chemscore.Internal.Correction>
0.1084

> <Gold.Rescore>
     Score         DG    S(hbond)    S(metal)    S(lipo)     H(rot)  DE(clash)    DE(int)     intcor
     19.11     -21.18       2.12        0.00     113.56       1.82       0.33       1.74       ----

> <Gold.Chemscore.Fitness>
19.1127

> <Gold.Chemscore.DG>
-21.1763

> <Gold.Chemscore.ZeroCoef>
-5.4800

> <Gold.Chemscore.Hbond>
2.1196

> <Gold.Chemscore.Metal>
0.0000

> <Gold.Chemscore.Lipo>
113.5640

> <Gold.Chemscore.Internal_Hbond>
0.0000

> <Gold.Chemscore.DEClash>
0.3257

> <Gold.Chemscore.DEInternal>
1.7379

> <Gold.Chemscore.Rot>
1.8243

> <Gold.Chemscore.Internal.Correction>
   9.000000E+99

> <Gold.Chemscore.Hbonds>
donor molecule, donor type, donor heavy atom, donor atom, acceptor molecule, acceptor atom, score
      P1  H  6896  6909       L1     8  0.54
      P1  H  6931  6943       L1    22  0.69
      P1  H  6934  6947       L1    22  0.58

> <Gold.Chemscore.Hbond.Weighted>
-7.0796

> <Gold.Chemscore.Metal.Weighted>
-0.0000

> <Gold.Chemscore.Lipo.Weighted>
-13.2870

> <Gold.Chemscore.Internal_Hbond.Weighted>
0.0000

> <Gold.Chemscore.DEClash.Weighted>
0.3257

> <Gold.Chemscore.DEInternal.Weighted>
1.7379

> <Gold.Chemscore.Rot.Weighted>
4.6703

> <Gold.Chemscore.Internal.Correction.Weighted>
   9.000000E+99

> <Gold.Protein.RotatedTorsions>
[ 6907 6896 6895 6894 ] final   35.69 input  -60.11 | X-H torsion
[ 7974 7965 7964 7962 ] final   19.17 input  175.53 | X-H torsion
[ 8008 7997 7996 7995 ] final    1.46 input   59.86 | X-H torsion
[ 10167 10162 10161 10158 ] final  104.99 input  -65.29 | X-H torsion
[ 10718 10713 10712 10709 ] final  -34.63 input   66.30 | X-H torsion
[ 10763 10752 10751 10750 ] final  -92.18 input  -60.55 | X-H torsion
[ 11005 11000 10999 10996 ] final -112.79 input  -57.11 | X-H torsion

> <Gold.Protein.ActiveResidues>
 VAL166  LYS551  ARG553  GLY616  TRP617  ASP618  TYR619  PRO620  LYS621  CYS622 
 ASP623  PHE694  ASN695  SER759  ASP760  ASP761  ALA762  ILE779  LEU786  VAL792 
 PHE793  MET794  SER795  GLU796  ALA797  LYS798  CYS799  TRP800  GLU811  SER814 

> <Gold.Protein.RotatedAtoms>
  152.1196  134.9215  160.0563 H   0  0  0  0  0  0  0  0  0  0  0  0  # atno 6907 bound_to 6896
  152.0361  133.3953  159.4325 H   0  0  0  0  0  0  0  0  0  0  0  0  # atno 6908 bound_to 6896
  150.6848  134.3387  159.4902 H   0  0  0  0  0  0  0  0  0  0  0  0  # atno 6909 bound_to 6896
  146.2159  139.8352  142.8652 H   0  0  0  0  0  0  0  0  0  0  0  0  # atno 7974 bound_to 7965
  154.6800  140.2630  155.6918 H   0  0  0  0  0  0  0  0  0  0  0  0  # atno 8008 bound_to 7997
  156.2693  140.2812  156.1263 H   0  0  0  0  0  0  0  0  0  0  0  0  # atno 8009 bound_to 7997
  155.1045  140.0375  157.2696 H   0  0  0  0  0  0  0  0  0  0  0  0  # atno 8010 bound_to 7997
  139.7130  144.7074  151.0996 H   0  0  0  0  0  0  0  0  0  0  0  0  # atno 10167 bound_to 10162
  156.3483  130.4304  149.7727 H   0  0  0  0  0  0  0  0  0  0  0  0  # atno 10718 bound_to 10713
  154.6835  135.5240  153.8295 H   0  0  0  0  0  0  0  0  0  0  0  0  # atno 10763 bound_to 10752
  153.0581  135.6558  154.0537 H   0  0  0  0  0  0  0  0  0  0  0  0  # atno 10764 bound_to 10752
  154.0421  135.2976  155.3333 H   0  0  0  0  0  0  0  0  0  0  0  0  # atno 10765 bound_to 10752
  141.0654  133.9468  157.2589 H   0  0  0  0  0  0  0  0  0  0  0  0  # atno 11005 bound_to 11000
  145.2956  141.0180  143.3638 LP  0  0  0  0  0  0  0  0  0  0  0  0  # atno 17320 bound_to 7965
  144.9044  139.4608  143.6617 LP  0  0  0  0  0  0  0  0  0  0  0  0  # atno 17321 bound_to 7965
  140.7737  143.5267  150.9472 LP  0  0  0  0  0  0  0  0  0  0  0  0  # atno 17342 bound_to 10162
  139.8952  143.6903  152.3139 LP  0  0  0  0  0  0  0  0  0  0  0  0  # atno 17343 bound_to 10162
  156.4937  130.8097  151.3105 LP  0  0  0  0  0  0  0  0  0  0  0  0  # atno 17370 bound_to 10713
  157.7457  130.9967  150.2789 LP  0  0  0  0  0  0  0  0  0  0  0  0  # atno 17371 bound_to 10713
  139.9471  135.0182  156.8885 LP  0  0  0  0  0  0  0  0  0  0  0  0  # atno 17394 bound_to 11000
  140.5784  134.0376  155.7455 LP  0  0  0  0  0  0  0  0  0  0  0  0  # atno 17395 bound_to 11000

$$$$
