AV-unprocessed.smi:694|AV-procd|sdf|3376|dock9
  -GOLD-   22720 0353D 1   1.00000     0.00000
 Structure written by MMmdl.
 43 44  0  0  0  0  0  0  0  0  2 V2000
  152.2637  142.3781  158.8511 C   0  0  0  0  0  0  0  0  0  0  0  0
  151.6256  142.8628  157.6322 N   0  0  0  0  0  0  0  0  0  0  0  0
  151.4910  144.2941  157.3949 C   0  0  0  0  0  0  0  0  0  0  0  0
  150.9985  141.9465  156.7601 C   0  0  0  0  0  0  0  0  0  0  0  0
  151.4893  140.6393  156.5235 C   0  0  0  0  0  0  0  0  0  0  0  0
  150.8079  139.7850  155.6326 C   0  0  0  0  0  0  0  0  0  0  0  0
  149.6391  140.2317  154.9813 C   0  0  0  0  0  0  0  0  0  0  0  0
  149.0041  139.3291  154.0827 N   0  0  0  0  0  0  0  0  0  0  0  0
  147.8149  139.4372  153.4636 C   0  0  0  0  0  0  0  0  0  0  0  0
  147.0035  140.3476  153.6260 O   0  0  0  0  0  0  0  0  0  0  0  0
  147.6083  138.4069  152.6312 N   0  0  0  0  0  0  0  0  0  0  0  0
  146.4250  138.2300  151.7952 C   0  0  0  0  0  0  0  0  0  0  0  0
  145.6328  136.9610  152.1687 C   0  0  2  0  0  0  0  0  0  0  0  0
  145.6377  135.8770  151.0777 C   0  0  0  0  0  0  0  0  0  0  0  0
  144.2971  135.1326  151.1922 C   0  0  0  0  0  0  0  0  0  0  0  0
  143.5063  135.8343  152.3012 C   0  0  0  0  0  0  0  0  0  0  0  0
  144.1433  137.2187  152.4209 C   0  0  1  0  0  0  0  0  0  0  0  0
  143.9049  137.7852  153.6929 O   0  0  0  0  0  0  0  0  0  0  0  0
  149.1874  141.5457  155.2529 C   0  0  0  0  0  0  0  0  0  0  0  0
  149.8713  142.3308  156.1132 N   0  3  0  0  0  0  0  0  0  0  0  0
  153.0633  141.6763  158.6118 H   0  0  0  0  0  0  0  0  0  0  0  0
  151.5375  141.8737  159.4893 H   0  0  0  0  0  0  0  0  0  0  0  0
  152.7007  143.1966  159.4237 H   0  0  0  0  0  0  0  0  0  0  0  0
  150.4401  144.5849  157.3882 H   0  0  0  0  0  0  0  0  0  0  0  0
  151.9361  144.5673  156.4375 H   0  0  0  0  0  0  0  0  0  0  0  0
  151.9919  144.8737  158.1706 H   0  0  0  0  0  0  0  0  0  0  0  0
  152.3814  140.2751  157.0109 H   0  0  0  0  0  0  0  0  0  0  0  0
  151.1876  138.7899  155.4519 H   0  0  0  0  0  0  0  0  0  0  0  0
  149.5338  138.4972  153.8669 H   0  0  0  0  0  0  0  0  0  0  0  0
  148.3238  137.6982  152.5603 H   0  0  0  0  0  0  0  0  0  0  0  0
  145.7849  139.1110  151.8656 H   0  0  0  0  0  0  0  0  0  0  0  0
  146.7521  138.1740  150.7565 H   0  0  0  0  0  0  0  0  0  0  0  0
  146.0593  136.5236  153.0737 H   0  0  0  0  0  0  0  0  0  0  0  0
  145.7130  136.3308  150.0887 H   0  0  0  0  0  0  0  0  0  0  0  0
  146.4883  135.2035  151.1893 H   0  0  0  0  0  0  0  0  0  0  0  0
  143.7580  135.1946  150.2463 H   0  0  0  0  0  0  0  0  0  0  0  0
  144.4375  134.0749  151.4176 H   0  0  0  0  0  0  0  0  0  0  0  0
  142.4373  135.8814  152.0901 H   0  0  0  0  0  0  0  0  0  0  0  0
  143.6335  135.2828  153.2342 H   0  0  0  0  0  0  0  0  0  0  0  0
  143.7383  137.8754  151.6493 H   0  0  0  0  0  0  0  0  0  0  0  0
  143.8086  138.7199  153.5933 H   0  0  0  0  0  0  0  0  0  0  0  0
  148.3168  142.0138  154.8205 H   0  0  0  0  0  0  0  0  0  0  0  0
  149.5183  143.2727  156.2831 H   0  0  0  0  0  0  0  0  0  0  0  0
  1  2  1  0  0  0  0
  1 21  1  0  0  0  0
  1 22  1  0  0  0  0
  1 23  1  0  0  0  0
  2  3  1  0  0  0  0
  2  4  1  0  0  0  0
  3 24  1  0  0  0  0
  3 25  1  0  0  0  0
  3 26  1  0  0  0  0
  4 20  1  0  0  0  0
  4  5  2  0  0  0  0
  5  6  1  0  0  0  0
  5 27  1  0  0  0  0
  6  7  2  0  0  0  0
  6 28  1  0  0  0  0
  7  8  1  0  0  0  0
  7 19  1  0  0  0  0
  8  9  1  0  0  0  0
  8 29  1  0  0  0  0
  9 10  2  0  0  0  0
  9 11  1  0  0  0  0
 11 12  1  0  0  0  0
 11 30  1  0  0  0  0
 12 13  1  0  0  0  0
 12 31  1  0  0  0  0
 12 32  1  0  0  0  0
 13 17  1  0  0  0  0
 13 14  1  0  0  0  0
 13 33  1  0  0  0  0
 14 15  1  0  0  0  0
 14 34  1  0  0  0  0
 14 35  1  0  0  0  0
 15 16  1  0  0  0  0
 15 36  1  0  0  0  0
 15 37  1  0  0  0  0
 16 17  1  0  0  0  0
 16 38  1  0  0  0  0
 16 39  1  0  0  0  0
 17 18  1  0  0  0  0
 17 40  1  0  0  0  0
 18 41  1  0  0  0  0
 19 20  2  0  0  0  0
 19 42  1  0  0  0  0
 20 43  1  0  0  0  0
M  CHG  1  20   1
M  END
> <s_m_source_file>
AV-unprocessed.smi

> <i_m_source_file_index>
694

> <i_lp_mmshare_version>
43012

> <i_f3d_flags>
0

> <s_epik_input>
W0NIM11OKFtDSDNdKWMxW2NIXVtjSF1jKFtjSF1uMSlbTkhdQyg9TylbTkhdW0NIMl1bQ0BASF0yW0NIMl1bQ0gyXVtDSDJdW0NASF0yW09IXQ==

> <s_epik_cmdline>
J2VwaWtfcHl0aG9uJywgJy1waCcsICc3LjAnLCAnLXRuJywgJzgnLCAnLW1hJywgJzIwMCcsICctbWV0YWxfYmluZGluZycsICctaW1hZScsICc8aW5maWxlLm1hZT4nLCAnLW9tYWUnLCAnPG91dGZpbGUubWFlPic=

> <r_lp_tautomer_probability>
0.999994

> <r_epik_Ionization_Penalty>
0.266135

> <r_epik_Ionization_Penalty_Charging>
0.266113

> <r_epik_Ionization_Penalty_Neutral>
2.14137e-05

> <r_epik_State_Penalty>
0.258052

> <r_epik_Charging_Adjusted_Penalty>
0.524165

> <i_epik_Tot_Q>
1

> <i_epik_Tot_abs_Q>
1

> <r_epik_Metal_State_Penalty>
0.544313

> <b_epik_Metal_Only>
0

> <s_lp_Force_Field>
OPLS_2005

> <r_lp_Energy>
32.5934

> <b_lp_Chiralities_Consistent>
1

> <s_lp_Variant>
AV-unprocessed.smi:694-1

> <Gold.Version>
5.8.1

> <Gold.Id.Protein>
6NUR|6NUR_protein|mol2

> <Gold.PLP.Fitness>
48.3582

> <Gold.PLP.PLP>
-38.7178

> <Gold.PLP.part.hbond>
-4.8821

> <Gold.PLP.part.metal>
0.0000

> <Gold.PLP.part.buried>
-0.0357

> <Gold.PLP.part.nonpolar>
-35.6451

> <Gold.PLP.part.repulsive>
0.4076

> <Gold.PLP.ligand.clash>
0.0000

> <Gold.PLP.ligand.torsion>
1.1681

> <Gold.PLP.Chemscore.Hbond>
3.9840

> <Gold.PLP.Chemscore.CHOScore>
0.0000

> <Gold.PLP.Chemscore.Metal>
0.0000

> <Gold.Chemscore.Hbonds>
donor molecule, donor type, donor heavy atom, donor atom, acceptor molecule, acceptor atom, score
      L1  H    11    30       P1  7948  1.00
      L1  H    18    41       P1 10175  0.93
      L1  H    20    43       P1  8028  1.95

> <Gold.PLP.Chemscore.Internal.Correction>
0.0246

> <Gold.Rescore>
     Score         DG    S(hbond)    S(metal)    S(lipo)     H(rot)  DE(clash)    DE(int)     intcor
     16.83     -20.33       2.83        0.00      84.36       1.75       1.19       2.32       ----

> <Gold.Chemscore.Fitness>
16.8257

> <Gold.Chemscore.DG>
-20.3346

> <Gold.Chemscore.ZeroCoef>
-5.4800

> <Gold.Chemscore.Hbond>
2.8325

> <Gold.Chemscore.Metal>
0.0000

> <Gold.Chemscore.Lipo>
84.3594

> <Gold.Chemscore.Internal_Hbond>
0.0000

> <Gold.Chemscore.DEClash>
1.1870

> <Gold.Chemscore.DEInternal>
2.3219

> <Gold.Chemscore.Rot>
1.7485

> <Gold.Chemscore.Internal.Correction>
   9.000000E+99

> <Gold.Chemscore.Hbonds>
donor molecule, donor type, donor heavy atom, donor atom, acceptor molecule, acceptor atom, score
      L1  H    11    30       P1  7948  0.95
      L1  H    18    41       P1 10175  0.86
      L1  H    20    43       P1  8028  0.93

> <Gold.Chemscore.Hbond.Weighted>
-9.4607

> <Gold.Chemscore.Metal.Weighted>
-0.0000

> <Gold.Chemscore.Lipo.Weighted>
-9.8701

> <Gold.Chemscore.Internal_Hbond.Weighted>
0.0000

> <Gold.Chemscore.DEClash.Weighted>
1.1870

> <Gold.Chemscore.DEInternal.Weighted>
2.3219

> <Gold.Chemscore.Rot.Weighted>
4.4762

> <Gold.Chemscore.Internal.Correction.Weighted>
   9.000000E+99

> <Gold.Protein.RotatedTorsions>
[ 6907 6896 6895 6894 ] final   39.62 input  -60.11 | X-H torsion
[ 7974 7965 7964 7962 ] final   65.01 input  175.53 | X-H torsion
[ 8008 7997 7996 7995 ] final  169.76 input   59.86 | X-H torsion
[ 10167 10162 10161 10158 ] final   65.47 input  -65.29 | X-H torsion
[ 10718 10713 10712 10709 ] final  123.62 input   66.30 | X-H torsion
[ 10763 10752 10751 10750 ] final  -68.38 input  -60.55 | X-H torsion
[ 11005 11000 10999 10996 ] final   78.51 input  -57.11 | X-H torsion

> <Gold.Protein.ActiveResidues>
 VAL166  LYS551  ARG553  GLY616  TRP617  ASP618  TYR619  PRO620  LYS621  CYS622 
 ASP623  PHE694  ASN695  SER759  ASP760  ASP761  ALA762  ILE779  LEU786  VAL792 
 PHE793  MET794  SER795  GLU796  ALA797  LYS798  CYS799  TRP800  GLU811  SER814 

> <Gold.Protein.RotatedAtoms>
  152.1719  134.8827  160.0533 H   0  0  0  0  0  0  0  0  0  0  0  0  # atno 6907 bound_to 6896
  151.9783  133.3744  159.4106 H   0  0  0  0  0  0  0  0  0  0  0  0  # atno 6908 bound_to 6896
  150.6903  134.3989  159.5154 H   0  0  0  0  0  0  0  0  0  0  0  0  # atno 6909 bound_to 6896
  145.8434  139.3209  143.0918 H   0  0  0  0  0  0  0  0  0  0  0  0  # atno 7974 bound_to 7965
  156.1428  140.1556  156.8893 H   0  0  0  0  0  0  0  0  0  0  0  0  # atno 8008 bound_to 7997
  154.5002  140.0827  156.7820 H   0  0  0  0  0  0  0  0  0  0  0  0  # atno 8009 bound_to 7997
  155.4046  140.3416  155.4261 H   0  0  0  0  0  0  0  0  0  0  0  0  # atno 8010 bound_to 7997
  140.1109  144.4819  150.6979 H   0  0  0  0  0  0  0  0  0  0  0  0  # atno 10167 bound_to 10162
  157.5650  131.1087  150.8471 H   0  0  0  0  0  0  0  0  0  0  0  0  # atno 10718 bound_to 10713
  154.3881  135.6059  153.5828 H   0  0  0  0  0  0  0  0  0  0  0  0  # atno 10763 bound_to 10752
  152.9787  135.5877  154.4330 H   0  0  0  0  0  0  0  0  0  0  0  0  # atno 10764 bound_to 10752
  154.4110  135.2844  155.2015 H   0  0  0  0  0  0  0  0  0  0  0  0  # atno 10765 bound_to 10752
  139.9210  134.7769  156.1659 H   0  0  0  0  0  0  0  0  0  0  0  0  # atno 11005 bound_to 11000
  145.9439  140.8959  143.0293 LP  0  0  0  0  0  0  0  0  0  0  0  0  # atno 17320 bound_to 7965
  144.6732  140.1586  143.7424 LP  0  0  0  0  0  0  0  0  0  0  0  0  # atno 17321 bound_to 7965
  140.6926  143.2385  151.5089 LP  0  0  0  0  0  0  0  0  0  0  0  0  # atno 17342 bound_to 10162
  139.5620  144.2134  152.1706 LP  0  0  0  0  0  0  0  0  0  0  0  0  # atno 17343 bound_to 10162
  156.8958  130.5229  149.5284 LP  0  0  0  0  0  0  0  0  0  0  0  0  # atno 17370 bound_to 10713
  156.0699  130.5734  150.9362 LP  0  0  0  0  0  0  0  0  0  0  0  0  # atno 17371 bound_to 10713
  141.0730  133.6788  156.2178 LP  0  0  0  0  0  0  0  0  0  0  0  0  # atno 17394 bound_to 11000
  140.6476  134.5101  157.5575 LP  0  0  0  0  0  0  0  0  0  0  0  0  # atno 17395 bound_to 11000

$$$$
