AV-unprocessed.smi:686|AV-procd|sdf|3350|dock3
  -GOLD-   22720 0323D 1   1.00000     0.00000
 Structure written by MMmdl.
 40 41  0  0  0  0  0  0  0  0  3 V2000
  150.3955  132.7746  155.6921 C   0  0  0  0  0  0  0  0  0  0  0  0
  149.4035  133.6714  154.9259 C   0  0  1  0  0  0  0  0  0  0  0  0
  149.0279  133.1209  153.5486 C   0  0  0  0  0  0  0  0  0  0  0  0
  147.7929  133.8436  153.1695 N   0  3  1  0  0  0  0  0  0  0  0  0
  146.9655  133.1989  152.1103 C   0  0  0  0  0  0  0  0  0  0  0  0
  145.7326  134.0496  151.7511 C   0  0  0  0  0  0  0  0  0  0  0  0
  146.5116  131.7917  152.5418 C   0  0  0  0  0  0  0  0  0  0  0  0
  147.0729  134.1685  154.4279 C   0  0  0  0  0  0  0  0  0  0  0  0
  148.0314  133.8645  155.5915 C   0  0  2  0  0  0  0  0  0  0  0  0
  148.0530  134.9453  156.5650 N   0  5  0  0  0  0  0  0  0  0  0  0
  148.6175  134.6554  158.0567 S   0  0  0  0  0  0  0  0  0  0  0  0
  149.3017  133.3558  158.1543 O   0  0  0  0  0  0  0  0  0  0  0  0
  149.3109  135.8197  158.6317 O   0  0  0  0  0  0  0  0  0  0  0  0
  147.0399  134.4801  158.9944 C   0  0  0  0  0  0  0  0  0  0  0  0
  147.0455  135.3931  160.1884 C   0  0  0  0  0  0  0  0  0  0  0  0
  146.9391  135.0497  161.5648 C   0  0  0  0  0  0  0  0  0  0  0  0
  147.0040  136.2555  162.2009 C   0  0  0  0  0  0  0  0  0  0  0  0
  147.1486  137.2604  161.3006 O   0  0  0  0  0  0  0  0  0  0  0  0
  147.1772  136.6999  160.0186 N   0  0  0  0  0  0  0  0  0  0  0  0
  150.0022  131.7705  155.8615 H   0  0  0  0  0  0  0  0  0  0  0  0
  150.6577  133.1986  156.6629 H   0  0  0  0  0  0  0  0  0  0  0  0
  151.3234  132.6667  155.1304 H   0  0  0  0  0  0  0  0  0  0  0  0
  149.8672  134.6482  154.7741 H   0  0  0  0  0  0  0  0  0  0  0  0
  149.8233  133.2869  152.8208 H   0  0  0  0  0  0  0  0  0  0  0  0
  148.8382  132.0444  153.5902 H   0  0  0  0  0  0  0  0  0  0  0  0
  147.5800  133.1018  151.2139 H   0  0  0  0  0  0  0  0  0  0  0  0
  145.1124  133.5433  151.0110 H   0  0  0  0  0  0  0  0  0  0  0  0
  146.0102  135.0120  151.3212 H   0  0  0  0  0  0  0  0  0  0  0  0
  145.1116  134.2391  152.6272 H   0  0  0  0  0  0  0  0  0  0  0  0
  145.8920  131.3286  151.7734 H   0  0  0  0  0  0  0  0  0  0  0  0
  145.9246  131.8297  153.4602 H   0  0  0  0  0  0  0  0  0  0  0  0
  147.3545  131.1225  152.7133 H   0  0  0  0  0  0  0  0  0  0  0  0
  146.7712  135.2167  154.3928 H   0  0  0  0  0  0  0  0  0  0  0  0
  146.1666  133.5715  154.5405 H   0  0  0  0  0  0  0  0  0  0  0  0
  147.7287  132.9110  156.0272 H   0  0  0  0  0  0  0  0  0  0  0  0
  146.2153  134.7224  158.3246 H   0  0  0  0  0  0  0  0  0  0  0  0
  146.9326  133.4363  159.2902 H   0  0  0  0  0  0  0  0  0  0  0  0
  146.8253  134.0733  162.0118 H   0  0  0  0  0  0  0  0  0  0  0  0
  146.9657  136.5495  163.2392 H   0  0  0  0  0  0  0  0  0  0  0  0
  148.1041  134.7313  152.8021 H   0  0  0  0  0  0  0  0  0  0  0  0
  1  2  1  0  0  0  0
  1 20  1  0  0  0  0
  1 21  1  0  0  0  0
  1 22  1  0  0  0  0
  2  9  1  0  0  0  0
  2  3  1  0  0  0  0
  2 23  1  0  0  0  0
  3  4  1  0  0  0  0
  3 24  1  0  0  0  0
  3 25  1  0  0  0  0
  4  5  1  0  0  0  0
  4  8  1  0  0  0  0
  4 40  1  0  0  0  0
  5  6  1  0  0  0  0
  5  7  1  0  0  0  0
  5 26  1  0  0  0  0
  6 27  1  0  0  0  0
  6 28  1  0  0  0  0
  6 29  1  0  0  0  0
  7 30  1  0  0  0  0
  7 31  1  0  0  0  0
  7 32  1  0  0  0  0
  8  9  1  0  0  0  0
  8 33  1  0  0  0  0
  8 34  1  0  0  0  0
  9 10  1  0  0  0  0
  9 35  1  0  0  0  0
 10 11  1  0  0  0  0
 11 12  2  0  0  0  0
 11 13  2  0  0  0  0
 11 14  1  0  0  0  0
 14 15  1  0  0  0  0
 14 36  1  0  0  0  0
 14 37  1  0  0  0  0
 15 19  2  0  0  0  0
 15 16  1  0  0  0  0
 16 17  2  0  0  0  0
 16 38  1  0  0  0  0
 17 18  1  0  0  0  0
 17 39  1  0  0  0  0
 18 19  1  0  0  0  0
M  CHG  1   4   1
M  CHG  1  10  -1
M  END
> <s_m_source_file>
AV-unprocessed.smi

> <i_m_source_file_index>
686

> <i_lp_mmshare_version>
43012

> <i_f3d_flags>
0

> <s_epik_input>
W0NIM11bQ0BASF0xW0NIMl1OKFtDSF0oW0NIM10pW0NIM10pW0NIMl1bQ0BIXTFbTkhdUyg9TykoPU8pW0NIMl1jMltjSF1bY0hdb24y

> <s_epik_cmdline>
J2VwaWtfcHl0aG9uJywgJy1waCcsICc3LjAnLCAnLXRuJywgJzgnLCAnLW1hJywgJzIwMCcsICctbWV0YWxfYmluZGluZycsICctaW1hZScsICc8aW5maWxlLm1hZT4nLCAnLW9tYWUnLCAnPG91dGZpbGUubWFlPic=

> <r_epik_Ionization_Penalty>
3.62478

> <r_epik_Ionization_Penalty_Charging>
3.62478

> <r_epik_Ionization_Penalty_Neutral>
2.03645e-10

> <r_epik_State_Penalty>
3.6247

> <r_epik_Charging_Adjusted_Penalty>
7.24949

> <i_epik_Tot_Q>
0

> <i_epik_Tot_abs_Q>
2

> <r_epik_Metal_State_Penalty>
0.530836

> <b_epik_Metal_Only>
1

> <s_lp_Force_Field>
OPLS_2005

> <r_lp_Energy>
18.1903

> <b_lp_Chiralities_Consistent>
1

> <s_lp_Variant>
AV-unprocessed.smi:686-14

> <Gold.Version>
5.8.1

> <Gold.Id.Protein>
6NUR|6NUR_protein|mol2

> <Gold.PLP.Fitness>
44.6049

> <Gold.PLP.PLP>
-29.3937

> <Gold.PLP.part.hbond>
-5.0000

> <Gold.PLP.part.metal>
0.0000

> <Gold.PLP.part.buried>
-3.7151

> <Gold.PLP.part.nonpolar>
-20.3728

> <Gold.PLP.part.repulsive>
0.0032

> <Gold.PLP.ligand.clash>
0.0000

> <Gold.PLP.ligand.torsion>
0.8793

> <Gold.PLP.Chemscore.Hbond>
5.3120

> <Gold.PLP.Chemscore.CHOScore>
0.0000

> <Gold.PLP.Chemscore.Metal>
0.0000

> <Gold.Chemscore.Hbonds>
donor molecule, donor type, donor heavy atom, donor atom, acceptor molecule, acceptor atom, score
      L1  H     4    40       P1  7948  2.00
      P1  H  6896  6907       L1    12  0.33
      P1  H  6896  6908       L1    13  0.46
      P1  H  6931  6943       L1    18  0.44
      P1  H  6934  6947       L1    18  1.00

> <Gold.PLP.Chemscore.Internal.Correction>
1.0337

> <Gold.Rescore>
     Score         DG    S(hbond)    S(metal)    S(lipo)     H(rot)  DE(clash)    DE(int)     intcor
     15.69     -18.18       2.87        0.00      62.05       1.61       0.04       2.45       ----

> <Gold.Chemscore.Fitness>
15.6930

> <Gold.Chemscore.DG>
-18.1835

> <Gold.Chemscore.ZeroCoef>
-5.4800

> <Gold.Chemscore.Hbond>
2.8676

> <Gold.Chemscore.Metal>
0.0000

> <Gold.Chemscore.Lipo>
62.0511

> <Gold.Chemscore.Internal_Hbond>
0.0000

> <Gold.Chemscore.DEClash>
0.0356

> <Gold.Chemscore.DEInternal>
2.4549

> <Gold.Chemscore.Rot>
1.6149

> <Gold.Chemscore.Internal.Correction>
   9.000000E+99

> <Gold.Chemscore.Hbonds>
donor molecule, donor type, donor heavy atom, donor atom, acceptor molecule, acceptor atom, score
      L1  H     4    40       P1  7948  0.70
      P1  H  6896  6907       L1    12  0.29
      P1  H  6896  6908       L1    13  0.23
      P1  H  6931  6943       L1    18  0.18
      P1  H  6934  6947       L1    18  0.34

> <Gold.Chemscore.Hbond.Weighted>
-9.5776

> <Gold.Chemscore.Metal.Weighted>
-0.0000

> <Gold.Chemscore.Lipo.Weighted>
-7.2600

> <Gold.Chemscore.Internal_Hbond.Weighted>
0.0000

> <Gold.Chemscore.DEClash.Weighted>
0.0356

> <Gold.Chemscore.DEInternal.Weighted>
2.4549

> <Gold.Chemscore.Rot.Weighted>
4.1341

> <Gold.Chemscore.Internal.Correction.Weighted>
   9.000000E+99

> <Gold.Protein.RotatedTorsions>
[ 6907 6896 6895 6894 ] final -155.09 input  -60.11 | X-H torsion
[ 7974 7965 7964 7962 ] final  116.49 input  175.53 | X-H torsion
[ 8008 7997 7996 7995 ] final  -70.85 input   59.86 | X-H torsion
[ 10167 10162 10161 10158 ] final  -79.79 input  -65.29 | X-H torsion
[ 10718 10713 10712 10709 ] final  -68.15 input   66.30 | X-H torsion
[ 10763 10752 10751 10750 ] final  -98.78 input  -60.55 | X-H torsion
[ 11005 11000 10999 10996 ] final  -78.83 input  -57.11 | X-H torsion

> <Gold.Protein.ActiveResidues>
 VAL166  LYS551  ARG553  GLY616  TRP617  ASP618  TYR619  PRO620  LYS621  CYS622 
 ASP623  PHE694  ASN695  SER759  ASP760  ASP761  ALA762  ILE779  LEU786  VAL792 
 PHE793  MET794  SER795  GLU796  ALA797  LYS798  CYS799  TRP800  GLU811  SER814 

> <Gold.Protein.RotatedAtoms>
  151.2672  133.4273  159.2619 H   0  0  0  0  0  0  0  0  0  0  0  0  # atno 6907 bound_to 6896
  151.0477  134.9652  159.8205 H   0  0  0  0  0  0  0  0  0  0  0  0  # atno 6908 bound_to 6896
  152.5377  134.2628  159.8994 H   0  0  0  0  0  0  0  0  0  0  0  0  # atno 6909 bound_to 6896
  145.1789  139.3060  143.4428 H   0  0  0  0  0  0  0  0  0  0  0  0  # atno 7974 bound_to 7965
  154.5043  140.0826  156.7863 H   0  0  0  0  0  0  0  0  0  0  0  0  # atno 8008 bound_to 7997
  155.3929  140.3433  155.4234 H   0  0  0  0  0  0  0  0  0  0  0  0  # atno 8009 bound_to 7997
  156.1496  140.1554  156.8779 H   0  0  0  0  0  0  0  0  0  0  0  0  # atno 8010 bound_to 7997
  140.4561  143.2468  151.8418 H   0  0  0  0  0  0  0  0  0  0  0  0  # atno 10167 bound_to 10162
  156.0520  130.4290  150.1958 H   0  0  0  0  0  0  0  0  0  0  0  0  # atno 10718 bound_to 10713
  154.7443  135.4996  153.9177 H   0  0  0  0  0  0  0  0  0  0  0  0  # atno 10763 bound_to 10752
  153.1075  135.6701  153.9567 H   0  0  0  0  0  0  0  0  0  0  0  0  # atno 10764 bound_to 10752
  153.9336  135.3075  155.3424 H   0  0  0  0  0  0  0  0  0  0  0  0  # atno 10765 bound_to 10752
  141.1666  133.7080  156.8031 H   0  0  0  0  0  0  0  0  0  0  0  0  # atno 11005 bound_to 11000
  146.3456  140.1962  142.8589 LP  0  0  0  0  0  0  0  0  0  0  0  0  # atno 17320 bound_to 7965
  145.0156  140.8751  143.5198 LP  0  0  0  0  0  0  0  0  0  0  0  0  # atno 17321 bound_to 7965
  139.4801  144.5063  151.8993 LP  0  0  0  0  0  0  0  0  0  0  0  0  # atno 17342 bound_to 10162
  140.4149  144.2320  150.5888 LP  0  0  0  0  0  0  0  0  0  0  0  0  # atno 17343 bound_to 10162
  157.0040  130.9931  151.3383 LP  0  0  0  0  0  0  0  0  0  0  0  0  # atno 17370 bound_to 10713
  157.5456  130.8148  149.8081 LP  0  0  0  0  0  0  0  0  0  0  0  0  # atno 17371 bound_to 10713
  140.2242  134.8734  157.3409 LP  0  0  0  0  0  0  0  0  0  0  0  0  # atno 17394 bound_to 11000
  140.1957  134.4317  155.7691 LP  0  0  0  0  0  0  0  0  0  0  0  0  # atno 17395 bound_to 11000

$$$$
