AV-unprocessed.smi:2653|AV-procd|sdf|10296|dock2
  -GOLD-   2272014313D 1   1.00000     0.00000
 Structure written by MMmdl.
 31 32  0  0  0  0  0  0  0  0  1 V2000
  146.5649  137.9057  153.7743 C   0  0  0  0  0  0  0  0  0  0  0  0
  147.1216  139.1755  153.1205 C   0  0  0  0  0  0  0  0  0  0  0  0
  148.1924  139.8174  153.9594 C   0  0  0  0  0  0  0  0  0  0  0  0
  149.2214  139.0799  154.3685 N   0  0  0  0  0  0  0  0  0  0  0  0
  149.9827  139.9305  155.0804 N   0  0  0  0  0  0  0  0  0  0  0  0
  149.4419  141.1958  155.0986 C   0  0  0  0  0  0  0  0  0  0  0  0
  149.9336  142.2895  155.7443 N   0  0  0  0  0  0  0  0  0  0  0  0
  150.9809  142.4206  156.5860 C   0  0  0  0  0  0  0  0  0  0  0  0
  151.6648  141.4492  156.9040 O   0  0  0  0  0  0  0  0  0  0  0  0
  151.2046  143.6581  157.0594 N   0  0  0  0  0  0  0  0  0  0  0  0
  152.2420  144.0296  157.9654 C   0  0  0  0  0  0  0  0  0  0  0  0
  152.2461  143.3752  159.3300 C   0  0  0  0  0  0  0  0  0  0  0  0
  151.8502  144.8197  159.1953 C   0  0  0  0  0  0  0  0  0  0  0  0
  148.2697  141.1766  154.3982 C   0  0  0  0  0  0  0  0  0  0  0  0
  147.2914  142.2893  154.1345 C   0  0  0  0  0  0  0  0  0  0  0  0
  150.8348  139.6367  155.5359 H   0  0  0  0  0  0  0  0  0  0  0  0
  145.7937  137.4536  153.1505 H   0  0  0  0  0  0  0  0  0  0  0  0
  146.1214  138.1243  154.7462 H   0  0  0  0  0  0  0  0  0  0  0  0
  147.3507  137.1644  153.9231 H   0  0  0  0  0  0  0  0  0  0  0  0
  147.5166  138.9302  152.1343 H   0  0  0  0  0  0  0  0  0  0  0  0
  146.3075  139.8809  152.9491 H   0  0  0  0  0  0  0  0  0  0  0  0
  149.3914  143.1310  155.6117 H   0  0  0  0  0  0  0  0  0  0  0  0
  150.5778  144.3929  156.7664 H   0  0  0  0  0  0  0  0  0  0  0  0
  153.2197  144.2559  157.5422 H   0  0  0  0  0  0  0  0  0  0  0  0
  151.4584  142.6581  159.5541 H   0  0  0  0  0  0  0  0  0  0  0  0
  153.2131  143.1588  159.7794 H   0  0  0  0  0  0  0  0  0  0  0  0
  152.5529  145.5689  159.5546 H   0  0  0  0  0  0  0  0  0  0  0  0
  150.7985  145.0667  159.3287 H   0  0  0  0  0  0  0  0  0  0  0  0
  147.7251  143.2724  154.3182 H   0  0  0  0  0  0  0  0  0  0  0  0
  146.4088  142.2038  154.7682 H   0  0  0  0  0  0  0  0  0  0  0  0
  146.9465  142.2838  153.1005 H   0  0  0  0  0  0  0  0  0  0  0  0
  1  2  1  0  0  0  0
  1 17  1  0  0  0  0
  1 18  1  0  0  0  0
  1 19  1  0  0  0  0
  2 20  1  0  0  0  0
  2 21  1  0  0  0  0
  2  3  1  0  0  0  0
  3  4  2  0  0  0  0
  3 14  1  0  0  0  0
  4  5  1  0  0  0  0
  5 16  1  0  0  0  0
  5  6  1  0  0  0  0
  6  7  1  0  0  0  0
  6 14  2  0  0  0  0
  7  8  1  0  0  0  0
  7 22  1  0  0  0  0
  8  9  2  0  0  0  0
  8 10  1  0  0  0  0
 10 11  1  0  0  0  0
 10 23  1  0  0  0  0
 11 13  1  0  0  0  0
 11 12  1  0  0  0  0
 11 24  1  0  0  0  0
 12 13  1  0  0  0  0
 12 25  1  0  0  0  0
 12 26  1  0  0  0  0
 13 27  1  0  0  0  0
 13 28  1  0  0  0  0
 14 15  1  0  0  0  0
 15 29  1  0  0  0  0
 15 30  1  0  0  0  0
 15 31  1  0  0  0  0
M  END
> <s_m_source_file>
AV-unprocessed.smi

> <i_m_source_file_index>
2653

> <i_lp_mmshare_version>
43012

> <i_f3d_flags>
0

> <s_epik_input>
W0NIM11bQ0gyXWMxW25IXW5jKGMxW0NIM10pW05IXUMoPU8pW05IXVtDSF0yW0NIMl1bQ0gyXTI=

> <s_epik_cmdline>
J2VwaWtfcHl0aG9uJywgJy1waCcsICc3LjAnLCAnLXRuJywgJzgnLCAnLW1hJywgJzIwMCcsICctbWV0YWxfYmluZGluZycsICctaW1hZScsICc8aW5maWxlLm1hZT4nLCAnLW9tYWUnLCAnPG91dGZpbGUubWFlPic=

> <r_lp_tautomer_probability>
0.5

> <r_epik_Ionization_Penalty>
6.45879e-05

> <r_epik_Ionization_Penalty_Charging>
0

> <r_epik_Ionization_Penalty_Neutral>
6.45879e-05

> <r_epik_State_Penalty>
0.41068

> <r_epik_Charging_Adjusted_Penalty>
0.41068

> <i_epik_Tot_Q>
0

> <i_epik_Tot_abs_Q>
0

> <r_epik_Metal_State_Penalty>
0.410665

> <b_epik_Metal_Only>
0

> <s_lp_Force_Field>
OPLS_2005

> <r_lp_Energy>
17.9348

> <b_lp_Chiralities_Consistent>
1

> <s_lp_Variant>
AV-unprocessed.smi:2653-2

> <Gold.Version>
5.8.1

> <Gold.Id.Protein>
6NUR|6NUR_protein|mol2

> <Gold.PLP.Fitness>
37.2941

> <Gold.PLP.PLP>
-31.8238

> <Gold.PLP.part.hbond>
-2.0000

> <Gold.PLP.part.metal>
0.0000

> <Gold.PLP.part.buried>
-3.4076

> <Gold.PLP.part.nonpolar>
-26.6781

> <Gold.PLP.part.repulsive>
0.4402

> <Gold.PLP.ligand.clash>
0.0000

> <Gold.PLP.ligand.torsion>
0.1037

> <Gold.PLP.Chemscore.Hbond>
1.8800

> <Gold.PLP.Chemscore.CHOScore>
0.0000

> <Gold.PLP.Chemscore.Metal>
0.0000

> <Gold.Chemscore.Hbonds>
donor molecule, donor type, donor heavy atom, donor atom, acceptor molecule, acceptor atom, score
      L1  H     7    22       P1  8028  1.00
      L1  H    10    23       P1  8028  0.86

> <Gold.PLP.Chemscore.Internal.Correction>
0.0377

> <Gold.Rescore>
     Score         DG    S(hbond)    S(metal)    S(lipo)     H(rot)  DE(clash)    DE(int)     intcor
     15.10     -16.52       1.86        0.00      67.74       1.21       0.05       1.37       ----

> <Gold.Chemscore.Fitness>
15.1048

> <Gold.Chemscore.DG>
-16.5227

> <Gold.Chemscore.ZeroCoef>
-5.4800

> <Gold.Chemscore.Hbond>
1.8630

> <Gold.Chemscore.Metal>
0.0000

> <Gold.Chemscore.Lipo>
67.7356

> <Gold.Chemscore.Internal_Hbond>
0.0000

> <Gold.Chemscore.DEClash>
0.0456

> <Gold.Chemscore.DEInternal>
1.3723

> <Gold.Chemscore.Rot>
1.2129

> <Gold.Chemscore.Internal.Correction>
   9.000000E+99

> <Gold.Chemscore.Hbonds>
donor molecule, donor type, donor heavy atom, donor atom, acceptor molecule, acceptor atom, score
      L1  H     7    22       P1  8028  1.00
      L1  H    10    23       P1  8028  0.78

> <Gold.Chemscore.Hbond.Weighted>
-6.2226

> <Gold.Chemscore.Metal.Weighted>
-0.0000

> <Gold.Chemscore.Lipo.Weighted>
-7.9251

> <Gold.Chemscore.Internal_Hbond.Weighted>
0.0000

> <Gold.Chemscore.DEClash.Weighted>
0.0456

> <Gold.Chemscore.DEInternal.Weighted>
1.3723

> <Gold.Chemscore.Rot.Weighted>
3.1049

> <Gold.Chemscore.Internal.Correction.Weighted>
   9.000000E+99

> <Gold.Protein.RotatedTorsions>
[ 6907 6896 6895 6894 ] final  -55.49 input  -60.11 | X-H torsion
[ 7974 7965 7964 7962 ] final -104.30 input  175.53 | X-H torsion
[ 8008 7997 7996 7995 ] final  100.26 input   59.86 | X-H torsion
[ 10167 10162 10161 10158 ] final  -36.95 input  -65.29 | X-H torsion
[ 10718 10713 10712 10709 ] final  166.34 input   66.30 | X-H torsion
[ 10763 10752 10751 10750 ] final   84.14 input  -60.55 | X-H torsion
[ 11005 11000 10999 10996 ] final  -62.39 input  -57.11 | X-H torsion

> <Gold.Protein.ActiveResidues>
 VAL166  LYS551  ARG553  GLY616  TRP617  ASP618  TYR619  PRO620  LYS621  CYS622 
 ASP623  PHE694  ASN695  SER759  ASP760  ASP761  ALA762  ILE779  LEU786  VAL792 
 PHE793  MET794  SER795  GLU796  ALA797  LYS798  CYS799  TRP800  GLU811  SER814 

> <Gold.Protein.RotatedAtoms>
  150.8247  134.7473  159.6802 H   0  0  0  0  0  0  0  0  0  0  0  0  # atno 6907 bound_to 6896
  152.4359  134.5683  159.9924 H   0  0  0  0  0  0  0  0  0  0  0  0  # atno 6908 bound_to 6896
  151.5858  133.3335  159.3053 H   0  0  0  0  0  0  0  0  0  0  0  0  # atno 6909 bound_to 6896
  145.2449  140.9218  143.3128 H   0  0  0  0  0  0  0  0  0  0  0  0  # atno 7974 bound_to 7965
  156.1186  140.3216  155.8176 H   0  0  0  0  0  0  0  0  0  0  0  0  # atno 8008 bound_to 7997
  155.4545  140.0535  157.3015 H   0  0  0  0  0  0  0  0  0  0  0  0  # atno 8009 bound_to 7997
  154.4811  140.2053  155.9775 H   0  0  0  0  0  0  0  0  0  0  0  0  # atno 8010 bound_to 7997
  140.7130  143.3374  151.2433 H   0  0  0  0  0  0  0  0  0  0  0  0  # atno 10167 bound_to 10162
  157.0672  131.0356  151.2625 H   0  0  0  0  0  0  0  0  0  0  0  0  # atno 10718 bound_to 10713
  153.1355  135.4665  154.9415 H   0  0  0  0  0  0  0  0  0  0  0  0  # atno 10763 bound_to 10752
  154.7702  135.3156  154.8207 H   0  0  0  0  0  0  0  0  0  0  0  0  # atno 10764 bound_to 10752
  153.8741  135.6900  153.4826 H   0  0  0  0  0  0  0  0  0  0  0  0  # atno 10765 bound_to 10752
  141.1358  133.6639  156.5520 H   0  0  0  0  0  0  0  0  0  0  0  0  # atno 11005 bound_to 11000
  144.9555  139.4036  143.6381 LP  0  0  0  0  0  0  0  0  0  0  0  0  # atno 17320 bound_to 7965
  146.3318  139.8583  142.8861 LP  0  0  0  0  0  0  0  0  0  0  0  0  # atno 17321 bound_to 7965
  139.6872  143.9753  152.2840 LP  0  0  0  0  0  0  0  0  0  0  0  0  # atno 17342 bound_to 10162
  139.9402  144.6686  150.8274 LP  0  0  0  0  0  0  0  0  0  0  0  0  # atno 17343 bound_to 10162
  157.4907  130.7820  149.7505 LP  0  0  0  0  0  0  0  0  0  0  0  0  # atno 17370 bound_to 10713
  155.9961  130.3908  150.2793 LP  0  0  0  0  0  0  0  0  0  0  0  0  # atno 17371 bound_to 10713
  140.4056  134.7317  157.4806 LP  0  0  0  0  0  0  0  0  0  0  0  0  # atno 17394 bound_to 11000
  140.0464  134.6193  155.8916 LP  0  0  0  0  0  0  0  0  0  0  0  0  # atno 17395 bound_to 11000

$$$$
