#       Name:                AV-unprocessed.smi:2120
#       Creating user name   scv26
#       Creation time:       Fri Mar 27 11:38:41 2020


#       File generated by GOLD software.
#

@<TRIPOS>MOLECULE
AV-unprocessed.smi:2120
    48    51     1
SMALL
NO_CHARGES


@<TRIPOS>ATOM
      1 ****         0.4450   1.3513   1.0587 O.2            1 S1                 0.0000
      2 ****         0.0710   0.6205   0.1402 C.2            1 S1                 0.0000
      3 ****         0.9389  -0.0253  -0.6570 N.am           1 S1                 0.0000
      4 ****         2.3914   0.0505  -0.5546 C.3            1 S1                 0.0000
      5 ****         2.9264  -0.8051   0.6061 C.3            1 S1                 0.0000
      6 ****         4.4378  -0.7481   0.7106 C.ar           1 S1                 0.0000
      7 ****         5.0794   0.3847   1.2527 C.ar           1 S1                 0.0000
      8 ****         6.4853   0.3968   1.3289 C.ar           1 S1                 0.0000
      9 ****         7.1917  -0.7291   0.8607 C.ar           1 S1                 0.0000
     10 ****         6.5881  -1.8197   0.3406 N.ar           1 S1                 0.0000
     11 ****         5.2395  -1.8226   0.2696 C.ar           1 S1                 0.0000
     12 ****        -1.4428   0.4251  -0.1123 C.3            1 S1                 0.0000
     13 ****        -2.0754  -0.2903   1.1126 C.3            1 S1                 0.0000
     14 ****        -3.5981  -0.4518   0.9130 C.3            1 S1                 0.0000
     15 ****        -4.2491   0.9388   0.7601 C.3            1 S1                 0.0000
     16 ****        -3.6443   1.6504  -0.4683 C.3            1 S1                 0.0000
     17 ****        -3.9164   0.8159  -1.7367 C.3            1 S1                 0.0000
     18 ****        -3.2680  -0.5750  -1.5784 C.3            1 S1                 0.0000
     19 ****        -3.8699  -1.2924  -0.3522 C.3            1 S1                 0.0000
     20 ****        -1.7444  -0.4179  -1.3875 C.3            1 S1                 0.0000
     21 ****        -2.1218   1.8142  -0.2719 C.3            1 S1                 0.0000
     22 ****         0.5628  -0.6080  -1.3908 H              1 S1                 0.0000
     23 ****         2.8148  -0.2977  -1.4970 H              1 S1                 0.0000
     24 ****         2.6994   1.0913  -0.4411 H              1 S1                 0.0000
     25 ****         2.5053  -0.4676   1.5540 H              1 S1                 0.0000
     26 ****         2.6107  -1.8419   0.4813 H              1 S1                 0.0000
     27 ****         4.5050   1.2305   1.6016 H              1 S1                 0.0000
     28 ****         7.0102   1.2482   1.7365 H              1 S1                 0.0000
     29 ****         8.2705  -0.7535   0.9049 H              1 S1                 0.0000
     30 ****         4.7891  -2.7091  -0.1522 H              1 S1                 0.0000
     31 ****        -1.6176  -1.2702   1.2575 H              1 S1                 0.0000
     32 ****        -1.8866   0.2718   2.0288 H              1 S1                 0.0000
     33 ****        -4.0246  -0.9565   1.7803 H              1 S1                 0.0000
     34 ****        -5.3295   0.8404   0.6465 H              1 S1                 0.0000
     35 ****        -4.0864   1.5336   1.6597 H              1 S1                 0.0000
     36 ****        -4.1020   2.6339  -0.5776 H              1 S1                 0.0000
     37 ****        -4.9902   0.7159  -1.9000 H              1 S1                 0.0000
     38 ****        -3.5162   1.3226  -2.6157 H              1 S1                 0.0000
     39 ****        -3.4611  -1.1666  -2.4739 H              1 S1                 0.0000
     40 ****        -3.4368  -2.2878  -0.2458 H              1 S1                 0.0000
     41 ****        -4.9428  -1.4354  -0.4874 H              1 S1                 0.0000
     42 ****        -1.3149   0.0562  -2.2717 H              1 S1                 0.0000
     43 ****        -1.2897  -1.4074  -1.3138 H              1 S1                 0.0000
     44 ****        -1.9377   2.4401   0.6029 H              1 S1                 0.0000
     45 ****        -1.6956   2.3484  -1.1226 H              1 S1                 0.0000
     46 ****         1.4219   1.4788   1.2300 LP             1 S1                 0.0000
     47 ****        -0.2283   1.8169   1.6330 LP             1 S1                 0.0000
     48 ****         7.1231  -2.6007   0.0182 LP             1 S1                 0.0000
@<TRIPOS>BOND
    1    1    2 2     
    2    2    3 am    
    3    2   12 1     
    4    3    4 1     
    5    3   22 1     
    6    4    5 1     
    7    4   23 1     
    8    4   24 1     
    9    5    6 1     
   10    5   25 1     
   11    5   26 1     
   12    6   11 ar    
   13    6    7 ar    
   14    7    8 ar    
   15    7   27 1     
   16    8    9 ar    
   17    8   28 1     
   18    9   10 ar    
   19    9   29 1     
   20   10   11 ar    
   21   11   30 1     
   22   12   20 1     
   23   12   21 1     
   24   12   13 1     
   25   13   14 1     
   26   13   31 1     
   27   13   32 1     
   28   14   19 1     
   29   14   15 1     
   30   14   33 1     
   31   15   16 1     
   32   15   34 1     
   33   15   35 1     
   34   16   17 1     
   35   16   21 1     
   36   16   36 1     
   37   17   18 1     
   38   17   37 1     
   39   17   38 1     
   40   18   19 1     
   41   18   20 1     
   42   18   39 1     
   43   19   40 1     
   44   19   41 1     
   45   20   42 1     
   46   20   43 1     
   47   21   44 1     
   48   21   45 1     
   49    1   46 1     
   50    1   47 1     
   51   10   48 1     
@<TRIPOS>SUBSTRUCTURE
      1 S1             1
@<TRIPOS>SET
LONE_PAIRS      STATIC     ATOMS    <user>   **** ""
3 46 47 48
DONOR_HYDROGENS      STATIC     ATOMS    <user>   **** ""
1 22
ATOM$BLUE        STATIC     ATOMS    COLORGROUP SYSTEM
3 46 47 48
ATOM$RED        STATIC     ATOMS    COLORGROUP SYSTEM
1 22
