#       Name:                AV-unprocessed.smi:1533
#       Creating user name   scv26
#       Creation time:       Fri Mar 27 06:31:14 2020


#       File generated by GOLD software.
#

@<TRIPOS>MOLECULE
AV-unprocessed.smi:1533
    43    45     1
SMALL
NO_CHARGES


@<TRIPOS>ATOM
      1 ****        -3.1951   2.6059   2.7036 C.3            1 S1                 0.0000
      2 ****        -3.0939   1.3455   1.9152 C.2            1 S1                 0.0000
      3 ****        -3.1799   1.3574   0.5907 N.2            1 S1                 0.0000
      4 ****        -3.0316   0.0066   0.2455 O.3            1 S1                 0.0000
      5 ****        -2.8829  -0.6601   1.4161 C.2            1 S1                 0.0000
      6 ****        -2.6320  -2.1333   1.3839 C.3            1 S1                 0.0000
      7 ****        -1.1403  -2.5144   1.3242 C.3            1 S1                 0.0000
      8 ****        -0.4730  -1.9872   0.1359 N.am           1 S1                 0.0000
      9 ****         0.2379  -0.8497   0.0793 C.2            1 S1                 0.0000
     10 ****         0.4094  -0.1163   1.0539 O.2            1 S1                 0.0000
     11 ****         0.8020  -0.4756  -1.3025 C.3            1 S1                 0.0000
     12 ****         0.7418   1.0358  -1.6353 C.3            1 S1                 0.0000
     13 ****         2.1934   1.3592  -2.0369 C.3            1 S1                 0.0000
     14 ****         3.0854   1.3647  -0.7815 C.3            1 S1                 0.0000
     15 ****         3.2136  -0.1334  -0.4498 C.3            1 S1                 0.0000
     16 ****         2.3063  -0.7956  -1.5102 C.3            1 S1                 0.0000
     17 ****         2.6229   0.0691  -2.7269 C.3            1 S1                 0.0000
     18 ****        -2.9074   0.1255   2.4897 N.2            1 S1                 0.0000
     19 ****        -4.1477   3.0989   2.5080 H              1 S1                 0.0000
     20 ****        -2.3881   3.2867   2.4318 H              1 S1                 0.0000
     21 ****        -3.1269   2.3997   3.7721 H              1 S1                 0.0000
     22 ****        -3.0876  -2.5793   2.2686 H              1 S1                 0.0000
     23 ****        -3.1557  -2.5544   0.5251 H              1 S1                 0.0000
     24 ****        -0.6323  -2.1823   2.2314 H              1 S1                 0.0000
     25 ****        -1.0454  -3.6001   1.3060 H              1 S1                 0.0000
     26 ****        -0.5699  -2.5231  -0.7144 H              1 S1                 0.0000
     27 ****         0.2269  -1.0116  -2.0602 H              1 S1                 0.0000
     28 ****         0.0668   1.2080  -2.4747 H              1 S1                 0.0000
     29 ****         0.3977   1.6653  -0.8134 H              1 S1                 0.0000
     30 ****         2.2874   2.2607  -2.6429 H              1 S1                 0.0000
     31 ****         4.0640   1.7951  -0.9974 H              1 S1                 0.0000
     32 ****         2.6413   1.9341   0.0360 H              1 S1                 0.0000
     33 ****         4.2460  -0.4586  -0.5841 H              1 S1                 0.0000
     34 ****         2.9403  -0.3672   0.5782 H              1 S1                 0.0000
     35 ****         2.5070  -1.8578  -1.6539 H              1 S1                 0.0000
     36 ****         2.0202  -0.1748  -3.6037 H              1 S1                 0.0000
     37 ****         3.6783   0.0580  -3.0059 H              1 S1                 0.0000
     38 ****        -3.3173   2.1410  -0.0151 LP             1 S1                 0.0000
     39 ****        -2.2245  -0.1187  -0.3315 LP             1 S1                 0.0000
     40 ****        -3.8425  -0.3196  -0.2404 LP             1 S1                 0.0000
     41 ****         0.0105  -0.3586   1.9383 LP             1 S1                 0.0000
     42 ****         0.9476   0.7214   0.9607 LP             1 S1                 0.0000
     43 ****        -2.8141  -0.1149   3.4558 LP             1 S1                 0.0000
@<TRIPOS>BOND
    1    1    2 1     
    2    1   19 1     
    3    1   20 1     
    4    1   21 1     
    5    2   18 1     
    6    2    3 2     
    7    3    4 1     
    8    4    5 1     
    9    5    6 1     
   10    5   18 2     
   11    6    7 1     
   12    6   22 1     
   13    6   23 1     
   14    7    8 1     
   15    7   24 1     
   16    7   25 1     
   17    8    9 am    
   18    8   26 1     
   19    9   10 2     
   20    9   11 1     
   21   11   16 1     
   22   11   12 1     
   23   11   27 1     
   24   12   13 1     
   25   12   28 1     
   26   12   29 1     
   27   13   17 1     
   28   13   14 1     
   29   13   30 1     
   30   14   15 1     
   31   14   31 1     
   32   14   32 1     
   33   15   16 1     
   34   15   33 1     
   35   15   34 1     
   36   16   17 1     
   37   16   35 1     
   38   17   36 1     
   39   17   37 1     
   40    3   38 1     
   41    4   39 1     
   42    4   40 1     
   43   10   41 1     
   44   10   42 1     
   45   18   43 1     
@<TRIPOS>SUBSTRUCTURE
      1 S1             1
@<TRIPOS>SET
LONE_PAIRS      STATIC     ATOMS    <user>   **** ""
6 38 39 40 41 42 43
DONOR_HYDROGENS      STATIC     ATOMS    <user>   **** ""
1 26
ATOM$BLUE        STATIC     ATOMS    COLORGROUP SYSTEM
6 38 39 40 41 42 43
ATOM$RED        STATIC     ATOMS    COLORGROUP SYSTEM
1 26
