AV-unprocessed.smi:1867|AV-procd|sdf|7572|dock5
  -GOLD-   22720 9283D 1   1.00000     0.00000
 Structure written by MMmdl.
 53 56  0  0  0  0  0  0  0  0  3 V2000
  145.6009  138.0573  153.9622 O   0  0  0  0  0  0  0  0  0  0  0  0
  146.4388  137.5903  153.1948 C   0  0  0  0  0  0  0  0  0  0  0  0
  147.7583  137.8616  153.2423 N   0  0  0  0  0  0  0  0  0  0  0  0
  148.4518  138.7569  154.1016 C   0  0  0  0  0  0  0  0  0  0  0  0
  149.8420  139.0229  154.0200 C   0  0  0  0  0  0  0  0  0  0  0  0
  150.4327  139.9184  154.9348 C   0  0  0  0  0  0  0  0  0  0  0  0
  149.6327  140.5288  155.9283 C   0  0  0  0  0  0  0  0  0  0  0  0
  150.1221  141.4376  156.8771 N   0  0  0  0  0  0  0  0  0  0  0  0
  150.9802  140.8722  157.9059 C   0  0  0  0  0  0  0  0  0  0  0  0
  151.7148  142.0626  158.5281 C   0  0  0  0  0  0  0  0  0  0  0  0
  151.6362  143.1714  157.4722 C   0  0  0  0  0  0  0  0  0  0  0  0
  150.8593  142.5526  156.3073 C   0  0  0  0  0  0  0  0  0  0  0  0
  148.3142  140.2394  155.9778 N   0  3  0  0  0  0  0  0  0  0  0  0
  147.7088  139.3891  155.1207 C   0  0  0  0  0  0  0  0  0  0  0  0
  146.0865  136.7183  152.2331 N   0  0  0  0  0  0  0  0  0  0  0  0
  144.7503  136.2123  151.9106 C   0  0  2  0  0  0  0  0  0  0  0  0
  144.0003  135.6926  153.1307 C   0  0  0  0  0  0  0  0  0  0  0  0
  142.9068  134.8137  152.5162 C   0  0  0  0  0  0  0  0  0  0  0  0
  143.4292  134.3270  151.2160 N   0  3  2  0  0  0  0  0  0  0  0  0
  143.4401  132.8451  151.0871 C   0  0  0  0  0  0  0  0  0  0  0  0
  144.3296  132.4015  149.9167 C   0  0  0  0  0  0  0  0  0  0  0  0
  145.7951  132.8255  150.1292 C   0  0  0  0  0  0  0  0  0  0  0  0
  145.9296  134.0283  151.0825 C   0  0  0  0  0  0  0  0  0  0  0  0
  144.7328  135.0029  150.9543 C   0  0  2  0  0  0  0  0  0  0  0  0
  148.3400  137.3378  152.6053 H   0  0  0  0  0  0  0  0  0  0  0  0
  150.4732  138.5519  153.2828 H   0  0  0  0  0  0  0  0  0  0  0  0
  151.4900  140.1295  154.8670 H   0  0  0  0  0  0  0  0  0  0  0  0
  150.3943  140.3317  158.6502 H   0  0  0  0  0  0  0  0  0  0  0  0
  151.6998  140.1752  157.4754 H   0  0  0  0  0  0  0  0  0  0  0  0
  151.2132  142.3836  159.4420 H   0  0  0  0  0  0  0  0  0  0  0  0
  152.7432  141.8082  158.7866 H   0  0  0  0  0  0  0  0  0  0  0  0
  151.0976  144.0303  157.8748 H   0  0  0  0  0  0  0  0  0  0  0  0
  152.6217  143.5156  157.1577 H   0  0  0  0  0  0  0  0  0  0  0  0
  151.5496  142.1997  155.5396 H   0  0  0  0  0  0  0  0  0  0  0  0
  150.1847  143.2754  155.8473 H   0  0  0  0  0  0  0  0  0  0  0  0
  146.6492  139.2457  155.2750 H   0  0  0  0  0  0  0  0  0  0  0  0
  146.8388  136.3580  151.6630 H   0  0  0  0  0  0  0  0  0  0  0  0
  144.1478  137.0155  151.4809 H   0  0  0  0  0  0  0  0  0  0  0  0
  144.6595  135.0821  153.7498 H   0  0  0  0  0  0  0  0  0  0  0  0
  143.5978  136.4909  153.7551 H   0  0  0  0  0  0  0  0  0  0  0  0
  142.6112  134.0091  153.1909 H   0  0  0  0  0  0  0  0  0  0  0  0
  142.0169  135.4113  152.3157 H   0  0  0  0  0  0  0  0  0  0  0  0
  143.8072  132.3896  152.0085 H   0  0  0  0  0  0  0  0  0  0  0  0
  142.4174  132.4939  150.9470 H   0  0  0  0  0  0  0  0  0  0  0  0
  144.2710  131.3214  149.7792 H   0  0  0  0  0  0  0  0  0  0  0  0
  143.9506  132.8464  148.9956 H   0  0  0  0  0  0  0  0  0  0  0  0
  146.3719  131.9911  150.5299 H   0  0  0  0  0  0  0  0  0  0  0  0
  146.2393  133.0628  149.1618 H   0  0  0  0  0  0  0  0  0  0  0  0
  145.9913  133.6675  152.1103 H   0  0  0  0  0  0  0  0  0  0  0  0
  146.8744  134.5341  150.8827 H   0  0  0  0  0  0  0  0  0  0  0  0
  144.7187  135.3685  149.9264 H   0  0  0  0  0  0  0  0  0  0  0  0
  142.7935  134.6709  150.5103 H   0  0  0  0  0  0  0  0  0  0  0  0
  147.7480  140.6853  156.7003 H   0  0  0  0  0  0  0  0  0  0  0  0
  1  2  2  0  0  0  0
  2  3  1  0  0  0  0
  2 15  1  0  0  0  0
  3  4  1  0  0  0  0
  3 25  1  0  0  0  0
  4 14  1  0  0  0  0
  4  5  2  0  0  0  0
  5  6  1  0  0  0  0
  5 26  1  0  0  0  0
  6  7  2  0  0  0  0
  6 27  1  0  0  0  0
  7  8  1  0  0  0  0
  7 13  1  0  0  0  0
  8 12  1  0  0  0  0
  8  9  1  0  0  0  0
  9 10  1  0  0  0  0
  9 28  1  0  0  0  0
  9 29  1  0  0  0  0
 10 11  1  0  0  0  0
 10 30  1  0  0  0  0
 10 31  1  0  0  0  0
 11 12  1  0  0  0  0
 11 32  1  0  0  0  0
 11 33  1  0  0  0  0
 12 34  1  0  0  0  0
 12 35  1  0  0  0  0
 13 14  2  0  0  0  0
 13 53  1  0  0  0  0
 14 36  1  0  0  0  0
 15 16  1  0  0  0  0
 15 37  1  0  0  0  0
 16 24  1  0  0  0  0
 16 17  1  0  0  0  0
 16 38  1  0  0  0  0
 17 18  1  0  0  0  0
 17 39  1  0  0  0  0
 17 40  1  0  0  0  0
 18 19  1  0  0  0  0
 18 41  1  0  0  0  0
 18 42  1  0  0  0  0
 19 24  1  0  0  0  0
 19 20  1  0  0  0  0
 19 52  1  0  0  0  0
 20 21  1  0  0  0  0
 20 43  1  0  0  0  0
 20 44  1  0  0  0  0
 21 22  1  0  0  0  0
 21 45  1  0  0  0  0
 21 46  1  0  0  0  0
 22 23  1  0  0  0  0
 22 47  1  0  0  0  0
 22 48  1  0  0  0  0
 23 24  1  0  0  0  0
 23 49  1  0  0  0  0
 23 50  1  0  0  0  0
 24 51  1  0  0  0  0
M  CHG  1  13   1
M  CHG  1  19   1
M  END
> <s_m_source_file>
AV-unprocessed.smi

> <i_m_source_file_index>
1867

> <i_lp_mmshare_version>
43012

> <i_f3d_flags>
0

> <s_epik_input>
W0NIMl0xW0NIMl1bQ0gyXVtDSDJdW0NASF0oTjEyKVtDQEBIXShbQ0gyXVtDSDJdMilbTkhdQyg9TylbTkhdYzNbY0hdW2NIXWMobltjSF0zKU40W0NIMl1bQ0gyXVtDSDJdW0NIMl00

> <s_epik_cmdline>
J2VwaWtfcHl0aG9uJywgJy1waCcsICc3LjAnLCAnLXRuJywgJzgnLCAnLW1hJywgJzIwMCcsICctbWV0YWxfYmluZGluZycsICctaW1hZScsICc8aW5maWxlLm1hZT4nLCAnLW9tYWUnLCAnPG91dGZpbGUubWFlPic=

> <r_lp_tautomer_probability>
0.999994

> <r_epik_Ionization_Penalty>
1.27347

> <r_epik_Ionization_Penalty_Charging>
1.27345

> <r_epik_Ionization_Penalty_Neutral>
1.96458e-05

> <r_epik_State_Penalty>
1.34393

> <r_epik_Charging_Adjusted_Penalty>
2.61738

> <i_epik_Tot_Q>
2

> <i_epik_Tot_abs_Q>
2

> <r_epik_Metal_State_Penalty>
1.41094

> <b_epik_Metal_Only>
0

> <s_lp_Force_Field>
OPLS_2005

> <r_lp_Energy>
89.9373

> <b_lp_Chiralities_Consistent>
1

> <s_lp_Variant>
AV-unprocessed.smi:1867-13

> <Gold.Version>
5.8.1

> <Gold.Id.Protein>
6NUR|6NUR_protein|mol2

> <Gold.PLP.Fitness>
48.3972

> <Gold.PLP.PLP>
-38.4605

> <Gold.PLP.part.hbond>
-2.8939

> <Gold.PLP.part.metal>
0.0000

> <Gold.PLP.part.buried>
-4.4448

> <Gold.PLP.part.nonpolar>
-31.9216

> <Gold.PLP.part.repulsive>
0.2436

> <Gold.PLP.ligand.clash>
0.0218

> <Gold.PLP.ligand.torsion>
0.2740

> <Gold.PLP.Chemscore.Hbond>
3.4957

> <Gold.PLP.Chemscore.CHOScore>
0.0000

> <Gold.PLP.Chemscore.Metal>
0.0000

> <Gold.Chemscore.Hbonds>
donor molecule, donor type, donor heavy atom, donor atom, acceptor molecule, acceptor atom, score
      L1  H     3    25       P1  7948  0.81
      L1  H    15    37       P1  7948  0.61
      L1  H    19    52       P1 10186  1.89

> <Gold.PLP.Chemscore.Internal.Correction>
0.0195

> <Gold.Rescore>
     Score         DG    S(hbond)    S(metal)    S(lipo)     H(rot)  DE(clash)    DE(int)     intcor
     17.65     -21.41       1.93        0.00     107.26       1.20       1.35       2.41       ----

> <Gold.Chemscore.Fitness>
17.6506

> <Gold.Chemscore.DG>
-21.4113

> <Gold.Chemscore.ZeroCoef>
-5.4800

> <Gold.Chemscore.Hbond>
1.9285

> <Gold.Chemscore.Metal>
0.0000

> <Gold.Chemscore.Lipo>
107.2595

> <Gold.Chemscore.Internal_Hbond>
0.0000

> <Gold.Chemscore.DEClash>
1.3521

> <Gold.Chemscore.DEInternal>
2.4086

> <Gold.Chemscore.Rot>
1.1950

> <Gold.Chemscore.Internal.Correction>
   9.000000E+99

> <Gold.Chemscore.Hbonds>
donor molecule, donor type, donor heavy atom, donor atom, acceptor molecule, acceptor atom, score
      L1  H     3    25       P1  7948  0.80
      L1  H    15    37       P1  7948  0.61
      L1  H    19    52       P1 10186  0.25

> <Gold.Chemscore.Hbond.Weighted>
-6.4412

> <Gold.Chemscore.Metal.Weighted>
-0.0000

> <Gold.Chemscore.Lipo.Weighted>
-12.5494

> <Gold.Chemscore.Internal_Hbond.Weighted>
0.0000

> <Gold.Chemscore.DEClash.Weighted>
1.3521

> <Gold.Chemscore.DEInternal.Weighted>
2.4086

> <Gold.Chemscore.Rot.Weighted>
3.0593

> <Gold.Chemscore.Internal.Correction.Weighted>
   9.000000E+99

> <Gold.Protein.RotatedTorsions>
[ 6907 6896 6895 6894 ] final   26.12 input  -60.11 | X-H torsion
[ 7974 7965 7964 7962 ] final  128.96 input  175.53 | X-H torsion
[ 8008 7997 7996 7995 ] final   45.36 input   59.86 | X-H torsion
[ 10167 10162 10161 10158 ] final -155.85 input  -65.29 | X-H torsion
[ 10718 10713 10712 10709 ] final -124.00 input   66.30 | X-H torsion
[ 10763 10752 10751 10750 ] final  153.00 input  -60.55 | X-H torsion
[ 11005 11000 10999 10996 ] final  -93.37 input  -57.11 | X-H torsion

> <Gold.Protein.ActiveResidues>
 VAL166  LYS551  ARG553  GLY616  TRP617  ASP618  TYR619  PRO620  LYS621  CYS622 
 ASP623  PHE694  ASN695  SER759  ASP760  ASP761  ALA762  ILE779  LEU786  VAL792 
 PHE793  MET794  SER795  GLU796  ALA797  LYS798  CYS799  TRP800  GLU811  SER814 

> <Gold.Protein.RotatedAtoms>
  151.9827  135.0020  160.0557 H   0  0  0  0  0  0  0  0  0  0  0  0  # atno 6907 bound_to 6896
  152.1681  133.4621  159.4903 H   0  0  0  0  0  0  0  0  0  0  0  0  # atno 6908 bound_to 6896
  150.6897  134.1905  159.4326 H   0  0  0  0  0  0  0  0  0  0  0  0  # atno 6909 bound_to 6896
  145.0338  139.4022  143.5136 H   0  0  0  0  0  0  0  0  0  0  0  0  # atno 7974 bound_to 7965
  155.3347  140.3404  155.4239 H   0  0  0  0  0  0  0  0  0  0  0  0  # atno 8008 bound_to 7997
  156.1844  140.1675  156.8250 H   0  0  0  0  0  0  0  0  0  0  0  0  # atno 8009 bound_to 7997
  154.5369  140.0733  156.8427 H   0  0  0  0  0  0  0  0  0  0  0  0  # atno 8010 bound_to 7997
  139.6898  143.9440  152.2379 H   0  0  0  0  0  0  0  0  0  0  0  0  # atno 10167 bound_to 10162
  156.1550  130.6561  150.9968 H   0  0  0  0  0  0  0  0  0  0  0  0  # atno 10718 bound_to 10713
  154.1290  135.2828  155.3190 H   0  0  0  0  0  0  0  0  0  0  0  0  # atno 10763 bound_to 10752
  154.6369  135.5416  153.7747 H   0  0  0  0  0  0  0  0  0  0  0  0  # atno 10764 bound_to 10752
  153.0287  135.6476  154.1441 H   0  0  0  0  0  0  0  0  0  0  0  0  # atno 10765 bound_to 10752
  141.1499  133.7883  157.0150 H   0  0  0  0  0  0  0  0  0  0  0  0  # atno 11005 bound_to 11000
  146.3502  139.9903  142.8686 LP  0  0  0  0  0  0  0  0  0  0  0  0  # atno 17320 bound_to 7965
  145.1735  140.9732  143.4307 LP  0  0  0  0  0  0  0  0  0  0  0  0  # atno 17321 bound_to 7965
  139.9253  144.6774  150.8419 LP  0  0  0  0  0  0  0  0  0  0  0  0  # atno 17342 bound_to 10162
  140.7679  143.3346  151.2336 LP  0  0  0  0  0  0  0  0  0  0  0  0  # atno 17343 bound_to 10162
  157.6688  131.0866  150.7664 LP  0  0  0  0  0  0  0  0  0  0  0  0  # atno 17370 bound_to 10713
  156.7730  130.4835  149.5415 LP  0  0  0  0  0  0  0  0  0  0  0  0  # atno 17371 bound_to 10713
  140.0853  134.9624  157.1689 LP  0  0  0  0  0  0  0  0  0  0  0  0  # atno 17394 bound_to 11000
  140.3521  134.2588  155.7197 LP  0  0  0  0  0  0  0  0  0  0  0  0  # atno 17395 bound_to 11000

$$$$
