#       Name:                AV-unprocessed.smi:1115
#       Creating user name   scv26
#       Creation time:       Fri Mar 27 03:35:21 2020


#       File generated by GOLD software.
#

@<TRIPOS>MOLECULE
AV-unprocessed.smi:1115
    56    57     1
SMALL
NO_CHARGES


@<TRIPOS>ATOM
      1 ****        -6.2440   4.5034  -1.7194 C.3            1 S1                 0.0000
      2 ****        -6.2664   3.2104  -1.0469 N.pl3          1 S1                 0.0000
      3 ****        -7.5198   2.6937  -0.5067 C.3            1 S1                 0.0000
      4 ****        -5.0940   2.4233  -0.9795 C.ar           1 S1                 0.0000
      5 ****        -3.8643   2.8799  -1.5160 C.ar           1 S1                 0.0000
      6 ****        -2.7231   2.0600  -1.4244 C.ar           1 S1                 0.0000
      7 ****        -2.8315   0.8009  -0.7910 C.ar           1 S1                 0.0000
      8 ****        -1.7617  -0.1248  -0.6558 N.am           1 S1                 0.0000
      9 ****        -0.4396   0.1116  -0.7037 C.2            1 S1                 0.0000
     10 ****         0.0820   1.2190  -0.8314 O.2            1 S1                 0.0000
     11 ****         0.2605  -1.0235  -0.5643 N.am           1 S1                 0.0000
     12 ****         1.7199  -1.1292  -0.5727 C.3            1 S1                 0.0000
     13 ****         2.3434  -1.4525   0.8200 C.3            1 S1                 0.0000
     14 ****         1.9160  -0.3408   1.8152 C.3            1 S1                 0.0000
     15 ****         1.7885  -2.7989   1.3458 C.3            1 S1                 0.0000
     16 ****         3.8472  -1.4956   0.6790 N.4            1 S1                 1.0000
     17 ****         4.6317  -1.3937   1.9441 C.3            1 S1                 0.0000
     18 ****         6.1407  -1.3055   1.6534 C.3            1 S1                 0.0000
     19 ****         6.5567  -2.4210   0.8804 O.3            1 S1                 0.0000
     20 ****         5.8925  -2.4608  -0.3732 C.3            1 S1                 0.0000
     21 ****         4.3817  -2.6207  -0.1424 C.3            1 S1                 0.0000
     22 ****        -4.0974   0.4265  -0.3002 C.ar           1 S1                 0.0000
     23 ****        -5.1926   1.2097  -0.3839 N.ar           1 S1                 0.0000
     24 ****        -5.9523   4.3871  -2.7635 H              1 S1                 0.0000
     25 ****        -5.5397   5.1774  -1.2314 H              1 S1                 0.0000
     26 ****        -7.2249   4.9784  -1.6998 H              1 S1                 0.0000
     27 ****        -7.8056   1.7735  -1.0172 H              1 S1                 0.0000
     28 ****        -8.3328   3.4096  -0.6295 H              1 S1                 0.0000
     29 ****        -7.4202   2.4832   0.5585 H              1 S1                 0.0000
     30 ****        -3.7731   3.8401  -2.0006 H              1 S1                 0.0000
     31 ****        -1.7971   2.4082  -1.8547 H              1 S1                 0.0000
     32 ****        -2.0374  -1.0751  -0.4554 H              1 S1                 0.0000
     33 ****        -0.2550  -1.8850  -0.4558 H              1 S1                 0.0000
     34 ****         1.9347  -1.9166  -1.2920 H              1 S1                 0.0000
     35 ****         2.1725  -0.2243  -0.9821 H              1 S1                 0.0000
     36 ****         0.8336  -0.2295   1.8683 H              1 S1                 0.0000
     37 ****         2.3274   0.6289   1.5321 H              1 S1                 0.0000
     38 ****         2.2252  -0.5581   2.8374 H              1 S1                 0.0000
     39 ****         0.7182  -2.7360   1.5447 H              1 S1                 0.0000
     40 ****         2.2649  -3.0971   2.2797 H              1 S1                 0.0000
     41 ****         1.9253  -3.6083   0.6287 H              1 S1                 0.0000
     42 ****         4.3715  -0.5000   2.5083 H              1 S1                 0.0000
     43 ****         4.4263  -2.2539   2.5821 H              1 S1                 0.0000
     44 ****         6.3822  -0.3774   1.1323 H              1 S1                 0.0000
     45 ****         6.7018  -1.2978   2.5880 H              1 S1                 0.0000
     46 ****         6.1092  -1.5599  -0.9497 H              1 S1                 0.0000
     47 ****         6.2757  -3.3053  -0.9465 H              1 S1                 0.0000
     48 ****         4.2020  -3.5719   0.3597 H              1 S1                 0.0000
     49 ****         3.8993  -2.6773  -1.1152 H              1 S1                 0.0000
     50 ****        -4.2382  -0.5305   0.1807 H              1 S1                 0.0000
     51 ****         4.0776  -0.6552   0.1677 H              1 S1                 0.0000
     52 ****        -0.4903   2.0353  -0.9092 LP             1 S1                 0.0000
     53 ****         1.0782   1.3025  -0.8574 LP             1 S1                 0.0000
     54 ****         6.3514  -3.2602   1.3839 LP             1 S1                 0.0000
     55 ****         7.5425  -2.3588   0.7242 LP             1 S1                 0.0000
     56 ****        -6.0667   0.8987  -0.0110 LP             1 S1                 0.0000
@<TRIPOS>BOND
    1    1    2 1     
    2    1   24 1     
    3    1   25 1     
    4    1   26 1     
    5    2    3 1     
    6    2    4 1     
    7    3   27 1     
    8    3   28 1     
    9    3   29 1     
   10    4   23 ar    
   11    4    5 ar    
   12    5    6 ar    
   13    5   30 1     
   14    6    7 ar    
   15    6   31 1     
   16    7    8 1     
   17    7   22 ar    
   18    8    9 am    
   19    8   32 1     
   20    9   10 2     
   21    9   11 am    
   22   11   12 1     
   23   11   33 1     
   24   12   13 1     
   25   12   34 1     
   26   12   35 1     
   27   13   14 1     
   28   13   15 1     
   29   13   16 1     
   30   14   36 1     
   31   14   37 1     
   32   14   38 1     
   33   15   39 1     
   34   15   40 1     
   35   15   41 1     
   36   16   21 1     
   37   16   17 1     
   38   16   51 1     
   39   17   18 1     
   40   17   42 1     
   41   17   43 1     
   42   18   19 1     
   43   18   44 1     
   44   18   45 1     
   45   19   20 1     
   46   20   21 1     
   47   20   46 1     
   48   20   47 1     
   49   21   48 1     
   50   21   49 1     
   51   22   23 ar    
   52   22   50 1     
   53   10   52 1     
   54   10   53 1     
   55   19   54 1     
   56   19   55 1     
   57   23   56 1     
@<TRIPOS>SUBSTRUCTURE
      1 S1             1
@<TRIPOS>SET
LONE_PAIRS      STATIC     ATOMS    <user>   **** ""
5 52 53 54 55 56
DONOR_HYDROGENS      STATIC     ATOMS    <user>   **** ""
3 32 33 51
ATOM$BLUE        STATIC     ATOMS    COLORGROUP SYSTEM
5 52 53 54 55 56
ATOM$RED        STATIC     ATOMS    COLORGROUP SYSTEM
3 32 33 51
