AV-unprocessed.smi:2114|AV-procd|sdf|8620|dock6
  -GOLD-   2272011363D 1   1.00000     0.00000
 Structure written by MMmdl.
 47 48  0  0  0  0  0  0  0  0  1 V2000
  148.5734  133.0646  153.0017 C   0  0  0  0  0  0  0  0  0  0  0  0
  149.1500  132.9800  154.2931 O   0  0  0  0  0  0  0  0  0  0  0  0
  149.3388  134.2536  154.8888 C   0  0  0  0  0  0  0  0  0  0  0  0
  149.9984  134.0824  156.2658 C   0  0  1  0  0  0  0  0  0  0  0  0
  151.2462  133.1880  156.1836 C   0  0  0  0  0  0  0  0  0  0  0  0
  150.3522  135.3927  156.8050 N   0  0  0  0  0  0  0  0  0  0  0  0
  151.0506  136.3381  156.1547 C   0  0  0  0  0  0  0  0  0  0  0  0
  151.4936  136.1935  155.0151 O   0  0  0  0  0  0  0  0  0  0  0  0
  151.3227  137.5943  156.9308 C   0  0  0  0  0  0  0  0  0  0  0  0
  150.6631  137.8753  158.1473 C   0  0  0  0  0  0  0  0  0  0  0  0
  150.9379  139.0850  158.8131 C   0  0  0  0  0  0  0  0  0  0  0  0
  151.8615  139.9925  158.2435 C   0  0  0  0  0  0  0  0  0  0  0  0
  152.1460  141.2130  158.8921 N   0  0  0  0  0  0  0  0  0  0  0  0
  153.4594  141.3035  159.5232 C   0  0  0  0  0  0  0  0  0  0  0  0
  153.5321  142.5138  160.4752 C   0  0  2  0  0  0  0  0  0  0  0  0
  152.7809  142.2950  161.8007 C   0  0  0  0  0  0  0  0  0  0  0  0
  153.1050  143.6998  159.8008 O   0  0  0  0  0  0  0  0  0  0  0  0
  151.7981  143.6263  159.2322 C   0  0  1  0  0  0  0  0  0  0  0  0
  151.4994  144.9665  158.5522 C   0  0  0  0  0  0  0  0  0  0  0  0
  151.7334  142.4523  158.2395 C   0  0  0  0  0  0  0  0  0  0  0  0
  152.4836  139.7276  157.0686 N   0  0  0  0  0  0  0  0  0  0  0  0
  152.2179  138.5659  156.4346 C   0  0  0  0  0  0  0  0  0  0  0  0
  148.4429  132.0630  152.5925 H   0  0  0  0  0  0  0  0  0  0  0  0
  149.2139  133.6257  152.3199 H   0  0  0  0  0  0  0  0  0  0  0  0
  147.5942  133.5441  153.0373 H   0  0  0  0  0  0  0  0  0  0  0  0
  149.9777  134.8616  154.2461 H   0  0  0  0  0  0  0  0  0  0  0  0
  148.3837  134.7732  154.9847 H   0  0  0  0  0  0  0  0  0  0  0  0
  149.2744  133.6043  156.9282 H   0  0  0  0  0  0  0  0  0  0  0  0
  150.9962  132.2018  155.7914 H   0  0  0  0  0  0  0  0  0  0  0  0
  151.6963  133.0428  157.1660 H   0  0  0  0  0  0  0  0  0  0  0  0
  152.0039  133.6229  155.5310 H   0  0  0  0  0  0  0  0  0  0  0  0
  150.0553  135.5892  157.7496 H   0  0  0  0  0  0  0  0  0  0  0  0
  149.9477  137.1850  158.5703 H   0  0  0  0  0  0  0  0  0  0  0  0
  150.4258  139.3111  159.7366 H   0  0  0  0  0  0  0  0  0  0  0  0
  153.7154  140.3966  160.0694 H   0  0  0  0  0  0  0  0  0  0  0  0
  154.2063  141.4136  158.7358 H   0  0  0  0  0  0  0  0  0  0  0  0
  154.5803  142.6720  160.7304 H   0  0  0  0  0  0  0  0  0  0  0  0
  153.2215  141.4705  162.3615 H   0  0  0  0  0  0  0  0  0  0  0  0
  151.7295  142.0534  161.6461 H   0  0  0  0  0  0  0  0  0  0  0  0
  152.8321  143.1848  162.4283 H   0  0  0  0  0  0  0  0  0  0  0  0
  151.0614  143.4782  160.0221 H   0  0  0  0  0  0  0  0  0  0  0  0
  150.5034  144.9680  158.1088 H   0  0  0  0  0  0  0  0  0  0  0  0
  152.2192  145.1765  157.7605 H   0  0  0  0  0  0  0  0  0  0  0  0
  151.5449  145.7859  159.2699 H   0  0  0  0  0  0  0  0  0  0  0  0
  152.3854  142.6423  157.3854 H   0  0  0  0  0  0  0  0  0  0  0  0
  150.7153  142.3583  157.8590 H   0  0  0  0  0  0  0  0  0  0  0  0
  152.7424  138.4134  155.5022 H   0  0  0  0  0  0  0  0  0  0  0  0
  1  2  1  0  0  0  0
  1 23  1  0  0  0  0
  1 24  1  0  0  0  0
  1 25  1  0  0  0  0
  2  3  1  0  0  0  0
  3  4  1  0  0  0  0
  3 26  1  0  0  0  0
  3 27  1  0  0  0  0
  4  5  1  0  0  0  0
  4  6  1  0  0  0  0
  4 28  1  0  0  0  0
  5 29  1  0  0  0  0
  5 30  1  0  0  0  0
  5 31  1  0  0  0  0
  6  7  1  0  0  0  0
  6 32  1  0  0  0  0
  7  8  2  0  0  0  0
  7  9  1  0  0  0  0
  9 22  1  0  0  0  0
  9 10  2  0  0  0  0
 10 11  1  0  0  0  0
 10 33  1  0  0  0  0
 11 12  2  0  0  0  0
 11 34  1  0  0  0  0
 12 13  1  0  0  0  0
 12 21  1  0  0  0  0
 13 20  1  0  0  0  0
 13 14  1  0  0  0  0
 14 15  1  0  0  0  0
 14 35  1  0  0  0  0
 14 36  1  0  0  0  0
 15 16  1  0  0  0  0
 15 17  1  0  0  0  0
 15 37  1  0  0  0  0
 16 38  1  0  0  0  0
 16 39  1  0  0  0  0
 16 40  1  0  0  0  0
 17 18  1  0  0  0  0
 18 19  1  0  0  0  0
 18 20  1  0  0  0  0
 18 41  1  0  0  0  0
 19 42  1  0  0  0  0
 19 43  1  0  0  0  0
 19 44  1  0  0  0  0
 20 45  1  0  0  0  0
 20 46  1  0  0  0  0
 21 22  2  0  0  0  0
 22 47  1  0  0  0  0
M  END
> <s_m_source_file>
AV-unprocessed.smi

> <i_m_source_file_index>
2114

> <i_lp_mmshare_version>
43012

> <i_f3d_flags>
0

> <s_epik_input>
W0NIM11PW0NIMl1bQ0BIXShbQ0gzXSlbTkhdQyg9TyljMVtjSF1bY0hdYyhuW2NIXTEpTjJbQ0gyXVtDQEBIXShbQ0gzXSlPW0NAQEhdKFtDSDNdKVtDSDJdMg==

> <s_epik_cmdline>
J2VwaWtfcHl0aG9uJywgJy1waCcsICc3LjAnLCAnLXRuJywgJzgnLCAnLW1hJywgJzIwMCcsICctbWV0YWxfYmluZGluZycsICctaW1hZScsICc8aW5maWxlLm1hZT4nLCAnLW9tYWUnLCAnPG91dGZpbGUubWFlPic=

> <r_lp_tautomer_probability>
1

> <r_epik_Ionization_Penalty>
1.92915e-05

> <r_epik_Ionization_Penalty_Charging>
0

> <r_epik_Ionization_Penalty_Neutral>
1.92915e-05

> <r_epik_State_Penalty>
-0

> <r_epik_Charging_Adjusted_Penalty>
0

> <i_epik_Tot_Q>
0

> <i_epik_Tot_abs_Q>
0

> <r_epik_Metal_State_Penalty>
-0

> <b_epik_Metal_Only>
0

> <s_lp_Force_Field>
OPLS_2005

> <r_lp_Energy>
21.8338

> <b_lp_Chiralities_Consistent>
1

> <s_lp_Variant>
AV-unprocessed.smi:2114-4

> <Gold.Version>
5.8.1

> <Gold.Id.Protein>
6NUR|6NUR_protein|mol2

> <Gold.PLP.Fitness>
43.9412

> <Gold.PLP.PLP>
-38.3113

> <Gold.PLP.part.hbond>
-2.0000

> <Gold.PLP.part.metal>
0.0000

> <Gold.PLP.part.buried>
-7.0200

> <Gold.PLP.part.nonpolar>
-29.4800

> <Gold.PLP.part.repulsive>
0.3376

> <Gold.PLP.ligand.clash>
0.0000

> <Gold.PLP.ligand.torsion>
0.3665

> <Gold.PLP.Chemscore.Hbond>
2.0000

> <Gold.PLP.Chemscore.CHOScore>
0.0000

> <Gold.PLP.Chemscore.Metal>
0.0000

> <Gold.Chemscore.Hbonds>
donor molecule, donor type, donor heavy atom, donor atom, acceptor molecule, acceptor atom, score
      P1  H  7997  8008       L1    21  1.00
      P1  H 10752 10764       L1     8  1.00

> <Gold.PLP.Chemscore.Internal.Correction>
0.3629

> <Gold.Rescore>
     Score         DG    S(hbond)    S(metal)    S(lipo)     H(rot)  DE(clash)    DE(int)     intcor
     18.78     -20.11       1.94        0.00     102.96       1.52       0.13       1.20       ----

> <Gold.Chemscore.Fitness>
18.7808

> <Gold.Chemscore.DG>
-20.1119

> <Gold.Chemscore.ZeroCoef>
-5.4800

> <Gold.Chemscore.Hbond>
1.9412

> <Gold.Chemscore.Metal>
0.0000

> <Gold.Chemscore.Lipo>
102.9593

> <Gold.Chemscore.Internal_Hbond>
0.0000

> <Gold.Chemscore.DEClash>
0.1334

> <Gold.Chemscore.DEInternal>
1.1977

> <Gold.Chemscore.Rot>
1.5226

> <Gold.Chemscore.Internal.Correction>
   9.000000E+99

> <Gold.Chemscore.Hbonds>
donor molecule, donor type, donor heavy atom, donor atom, acceptor molecule, acceptor atom, score
      P1  H  7997  8008       L1    21  0.44
      P1  H 10752 10764       L1     8  0.99

> <Gold.Chemscore.Hbond.Weighted>
-6.4836

> <Gold.Chemscore.Metal.Weighted>
-0.0000

> <Gold.Chemscore.Lipo.Weighted>
-12.0462

> <Gold.Chemscore.Internal_Hbond.Weighted>
0.0000

> <Gold.Chemscore.DEClash.Weighted>
0.1334

> <Gold.Chemscore.DEInternal.Weighted>
1.1977

> <Gold.Chemscore.Rot.Weighted>
3.8980

> <Gold.Chemscore.Internal.Correction.Weighted>
   9.000000E+99

> <Gold.Protein.RotatedTorsions>
[ 6907 6896 6895 6894 ] final  152.48 input  -60.11 | X-H torsion
[ 7974 7965 7964 7962 ] final -165.72 input  175.53 | X-H torsion
[ 8008 7997 7996 7995 ] final  -58.10 input   59.86 | X-H torsion
[ 10167 10162 10161 10158 ] final  -73.62 input  -65.29 | X-H torsion
[ 10718 10713 10712 10709 ] final  129.83 input   66.30 | X-H torsion
[ 10763 10752 10751 10750 ] final  -57.70 input  -60.55 | X-H torsion
[ 11005 11000 10999 10996 ] final  -53.43 input  -57.11 | X-H torsion

> <Gold.Protein.ActiveResidues>
 VAL166  LYS551  ARG553  GLY616  TRP617  ASP618  TYR619  PRO620  LYS621  CYS622 
 ASP623  PHE694  ASN695  SER759  ASP760  ASP761  ALA762  ILE779  LEU786  VAL792 
 PHE793  MET794  SER795  GLU796  ALA797  LYS798  CYS799  TRP800  GLU811  SER814 

> <Gold.Protein.RotatedAtoms>
  152.0862  133.4177  159.4522 H   0  0  0  0  0  0  0  0  0  0  0  0  # atno 6907 bound_to 6896
  150.6862  134.2925  159.4682 H   0  0  0  0  0  0  0  0  0  0  0  0  # atno 6908 bound_to 6896
  152.0772  134.9495  160.0624 H   0  0  0  0  0  0  0  0  0  0  0  0  # atno 6909 bound_to 6896
  144.7263  140.2772  143.6241 H   0  0  0  0  0  0  0  0  0  0  0  0  # atno 7974 bound_to 7965
  154.4295  140.1092  156.5903 H   0  0  0  0  0  0  0  0  0  0  0  0  # atno 8008 bound_to 7997
  155.6019  140.3493  155.4577 H   0  0  0  0  0  0  0  0  0  0  0  0  # atno 8009 bound_to 7997
  156.0167  140.1230  157.0389 H   0  0  0  0  0  0  0  0  0  0  0  0  # atno 8010 bound_to 7997
  140.5095  143.2347  151.7617 H   0  0  0  0  0  0  0  0  0  0  0  0  # atno 10167 bound_to 10162
  157.5118  131.1097  150.9282 H   0  0  0  0  0  0  0  0  0  0  0  0  # atno 10718 bound_to 10713
  154.2266  135.6368  153.5162 H   0  0  0  0  0  0  0  0  0  0  0  0  # atno 10763 bound_to 10752
  152.9957  135.5509  154.6057 H   0  0  0  0  0  0  0  0  0  0  0  0  # atno 10764 bound_to 10752
  154.5530  135.2903  155.0965 H   0  0  0  0  0  0  0  0  0  0  0  0  # atno 10765 bound_to 10752
  141.0975  133.6622  156.4171 H   0  0  0  0  0  0  0  0  0  0  0  0  # atno 11005 bound_to 11000
  145.7985  139.1955  143.2062 LP  0  0  0  0  0  0  0  0  0  0  0  0  # atno 17320 bound_to 7965
  146.0696  140.7883  142.9694 LP  0  0  0  0  0  0  0  0  0  0  0  0  # atno 17321 bound_to 7965
  139.4892  144.4411  151.9764 LP  0  0  0  0  0  0  0  0  0  0  0  0  # atno 17342 bound_to 10162
  140.3502  144.3098  150.5950 LP  0  0  0  0  0  0  0  0  0  0  0  0  # atno 17343 bound_to 10162
  156.9920  130.5567  149.5304 LP  0  0  0  0  0  0  0  0  0  0  0  0  # atno 17370 bound_to 10713
  156.0294  130.5386  150.8493 LP  0  0  0  0  0  0  0  0  0  0  0  0  # atno 17371 bound_to 10713
  140.5103  134.6402  157.5282 LP  0  0  0  0  0  0  0  0  0  0  0  0  # atno 17394 bound_to 11000
  139.9817  134.7127  155.9848 LP  0  0  0  0  0  0  0  0  0  0  0  0  # atno 17395 bound_to 11000

$$$$
