AV-unprocessed.smi:2032|AV-procd|sdf|8250|dock1
  -GOLD-   2272010523D 1   1.00000     0.00000
 Structure written by MMmdl.
 41 42  0  0  0  0  0  0  0  0  2 V2000
  151.5553  143.9327  158.0774 C   0  0  0  0  0  0  0  0  0  0  0  0
  150.9888  142.8410  159.0018 C   0  0  1  0  0  0  0  0  0  0  0  0
  150.4540  141.6119  158.2401 C   0  0  0  0  0  0  0  0  0  0  0  0
  151.5100  140.7567  157.6860 N   0  0  0  0  0  0  0  0  0  0  0  0
  150.9690  139.5729  156.9757 C   0  0  1  0  0  0  0  0  0  0  0  0
  151.7543  139.2421  155.6803 C   0  0  0  0  0  0  0  0  0  0  0  0
  150.9063  138.2978  157.8621 C   0  0  0  0  0  0  0  0  0  0  0  0
  149.7542  138.2960  158.7578 N   0  0  0  0  0  0  0  0  0  0  0  0
  149.1881  137.2041  159.2885 C   0  0  0  0  0  0  0  0  0  0  0  0
  149.6489  136.0887  159.0340 O   0  0  0  0  0  0  0  0  0  0  0  0
  148.1246  137.4713  160.0808 N   0  5  0  0  0  0  0  0  0  0  0  0
  147.5439  136.4826  160.7800 C   0  0  0  0  0  0  0  0  0  0  0  0
  147.0053  136.6647  161.9915 N   0  0  0  0  0  0  0  0  0  0  0  0
  146.4588  135.5014  162.5366 C   0  0  0  0  0  0  0  0  0  0  0  0
  146.5945  134.4054  161.7263 C   0  0  0  0  0  0  0  0  0  0  0  0
  147.4165  134.8042  160.2449 S   0  0  0  0  0  0  0  0  0  0  0  0
  152.4181  140.3985  158.7795 C   0  0  0  0  0  0  0  0  0  0  0  0
  152.9954  141.6272  159.5056 C   0  0  2  0  0  0  0  0  0  0  0  0
  153.8719  141.2313  160.6986 C   0  0  0  0  0  0  0  0  0  0  0  0
  151.9323  142.4393  159.9919 O   0  0  0  0  0  0  0  0  0  0  0  0
  150.7821  144.3156  157.4112 H   0  0  0  0  0  0  0  0  0  0  0  0
  152.3673  143.5616  157.4523 H   0  0  0  0  0  0  0  0  0  0  0  0
  151.9363  144.7738  158.6571 H   0  0  0  0  0  0  0  0  0  0  0  0
  150.1537  143.2873  159.5426 H   0  0  0  0  0  0  0  0  0  0  0  0
  149.8300  141.0227  158.9138 H   0  0  0  0  0  0  0  0  0  0  0  0
  149.7993  141.9806  157.4526 H   0  0  0  0  0  0  0  0  0  0  0  0
  149.9446  139.8008  156.6766 H   0  0  0  0  0  0  0  0  0  0  0  0
  151.3964  138.3356  155.1934 H   0  0  0  0  0  0  0  0  0  0  0  0
  152.8155  139.1024  155.8886 H   0  0  0  0  0  0  0  0  0  0  0  0
  151.6574  140.0226  154.9274 H   0  0  0  0  0  0  0  0  0  0  0  0
  150.8805  137.4070  157.2324 H   0  0  0  0  0  0  0  0  0  0  0  0
  151.7801  138.2130  158.5061 H   0  0  0  0  0  0  0  0  0  0  0  0
  149.3492  139.1913  158.9880 H   0  0  0  0  0  0  0  0  0  0  0  0
  145.9926  135.5452  163.5098 H   0  0  0  0  0  0  0  0  0  0  0  0
  146.2639  133.3941  161.9084 H   0  0  0  0  0  0  0  0  0  0  0  0
  151.8991  139.7578  159.4942 H   0  0  0  0  0  0  0  0  0  0  0  0
  153.2678  139.8320  158.4053 H   0  0  0  0  0  0  0  0  0  0  0  0
  153.6064  142.2050  158.8117 H   0  0  0  0  0  0  0  0  0  0  0  0
  154.7141  140.6163  160.3799 H   0  0  0  0  0  0  0  0  0  0  0  0
  153.3026  140.6639  161.4353 H   0  0  0  0  0  0  0  0  0  0  0  0
  154.2744  142.1140  161.1959 H   0  0  0  0  0  0  0  0  0  0  0  0
  1  2  1  0  0  0  0
  1 21  1  0  0  0  0
  1 22  1  0  0  0  0
  1 23  1  0  0  0  0
  2 20  1  0  0  0  0
  2  3  1  0  0  0  0
  2 24  1  0  0  0  0
  3  4  1  0  0  0  0
  3 25  1  0  0  0  0
  3 26  1  0  0  0  0
  4  5  1  0  0  0  0
  4 17  1  0  0  0  0
  5  6  1  0  0  0  0
  5  7  1  0  0  0  0
  5 27  1  0  0  0  0
  6 28  1  0  0  0  0
  6 29  1  0  0  0  0
  6 30  1  0  0  0  0
  7  8  1  0  0  0  0
  7 31  1  0  0  0  0
  7 32  1  0  0  0  0
  8  9  1  0  0  0  0
  8 33  1  0  0  0  0
  9 10  2  0  0  0  0
  9 11  1  0  0  0  0
 11 12  1  0  0  0  0
 12 16  1  0  0  0  0
 12 13  2  0  0  0  0
 13 14  1  0  0  0  0
 14 15  2  0  0  0  0
 14 34  1  0  0  0  0
 15 16  1  0  0  0  0
 15 35  1  0  0  0  0
 17 18  1  0  0  0  0
 17 36  1  0  0  0  0
 17 37  1  0  0  0  0
 18 19  1  0  0  0  0
 18 20  1  0  0  0  0
 18 38  1  0  0  0  0
 19 39  1  0  0  0  0
 19 40  1  0  0  0  0
 19 41  1  0  0  0  0
M  CHG  1  11  -1
M  END
> <s_m_source_file>
AV-unprocessed.smi

> <i_m_source_file_index>
2032

> <i_lp_mmshare_version>
43012

> <i_f3d_flags>
0

> <s_epik_input>
W0NIM11bQ0BASF0xW0NIMl1OKFtDSDJdW0NASF0oTzEpW0NIM10pW0NASF0oW0NIM10pW0NIMl1bTkhdQyg9TylbTkhdYzJuW2NIXVtjSF1zMg==

> <s_epik_cmdline>
J2VwaWtfcHl0aG9uJywgJy1waCcsICc3LjAnLCAnLXRuJywgJzgnLCAnLW1hJywgJzIwMCcsICctbWV0YWxfYmluZGluZycsICctaW1hZScsICc8aW5maWxlLm1hZT4nLCAnLW9tYWUnLCAnPG91dGZpbGUubWFlPic=

> <r_lp_tautomer_probability>
0.999

> <r_epik_Ionization_Penalty>
7.22375

> <r_epik_Ionization_Penalty_Charging>
5.82415

> <r_epik_Ionization_Penalty_Neutral>
1.39959

> <r_epik_State_Penalty>
6.03347

> <r_epik_Charging_Adjusted_Penalty>
11.8576

> <i_epik_Tot_Q>
-1

> <i_epik_Tot_abs_Q>
1

> <r_epik_Metal_State_Penalty>
2.01024

> <b_epik_Metal_Only>
1

> <s_lp_Force_Field>
OPLS_2005

> <r_lp_Energy>
26.7829

> <b_lp_Chiralities_Consistent>
1

> <s_lp_Variant>
AV-unprocessed.smi:2032-20

> <Gold.Version>
5.8.1

> <Gold.Id.Protein>
6NUR|6NUR_protein|mol2

> <Gold.PLP.Fitness>
41.8954

> <Gold.PLP.PLP>
-37.0914

> <Gold.PLP.part.hbond>
-3.0000

> <Gold.PLP.part.metal>
0.0000

> <Gold.PLP.part.buried>
-5.6168

> <Gold.PLP.part.nonpolar>
-30.3233

> <Gold.PLP.part.repulsive>
0.2199

> <Gold.PLP.ligand.clash>
0.1475

> <Gold.PLP.ligand.torsion>
1.6332

> <Gold.PLP.Chemscore.Hbond>
2.7160

> <Gold.PLP.Chemscore.CHOScore>
0.0000

> <Gold.PLP.Chemscore.Metal>
0.0000

> <Gold.Chemscore.Hbonds>
donor molecule, donor type, donor heavy atom, donor atom, acceptor molecule, acceptor atom, score
      P1  H  6896  6909       L1    10  1.00
      P1  H  6931  6943       L1    11  0.41
      P1  H  6934  6947       L1    11  1.22

> <Gold.PLP.Chemscore.Internal.Correction>
0.0699

> <Gold.Rescore>
     Score         DG    S(hbond)    S(metal)    S(lipo)     H(rot)  DE(clash)    DE(int)     intcor
     13.12     -16.53       1.33        0.00      90.14       1.54       0.28       3.13       ----

> <Gold.Chemscore.Fitness>
13.1168

> <Gold.Chemscore.DG>
-16.5259

> <Gold.Chemscore.ZeroCoef>
-5.4800

> <Gold.Chemscore.Hbond>
1.3324

> <Gold.Chemscore.Metal>
0.0000

> <Gold.Chemscore.Lipo>
90.1360

> <Gold.Chemscore.Internal_Hbond>
0.0000

> <Gold.Chemscore.DEClash>
0.2789

> <Gold.Chemscore.DEInternal>
3.1302

> <Gold.Chemscore.Rot>
1.5431

> <Gold.Chemscore.Internal.Correction>
   9.000000E+99

> <Gold.Chemscore.Hbonds>
donor molecule, donor type, donor heavy atom, donor atom, acceptor molecule, acceptor atom, score
      P1  H  6896  6909       L1    10  1.00
      P1  H  6931  6943       L1    11  0.01
      P1  H  6934  6947       L1    11  0.15

> <Gold.Chemscore.Hbond.Weighted>
-4.4502

> <Gold.Chemscore.Metal.Weighted>
-0.0000

> <Gold.Chemscore.Lipo.Weighted>
-10.5459

> <Gold.Chemscore.Internal_Hbond.Weighted>
0.0000

> <Gold.Chemscore.DEClash.Weighted>
0.2789

> <Gold.Chemscore.DEInternal.Weighted>
3.1302

> <Gold.Chemscore.Rot.Weighted>
3.9503

> <Gold.Chemscore.Internal.Correction.Weighted>
   9.000000E+99

> <Gold.Protein.RotatedTorsions>
[ 6907 6896 6895 6894 ] final   79.07 input  -60.11 | X-H torsion
[ 7974 7965 7964 7962 ] final  -45.22 input  175.53 | X-H torsion
[ 8008 7997 7996 7995 ] final  173.50 input   59.86 | X-H torsion
[ 10167 10162 10161 10158 ] final -150.34 input  -65.29 | X-H torsion
[ 10718 10713 10712 10709 ] final   81.18 input   66.30 | X-H torsion
[ 10763 10752 10751 10750 ] final   15.82 input  -60.55 | X-H torsion
[ 11005 11000 10999 10996 ] final   80.83 input  -57.11 | X-H torsion

> <Gold.Protein.ActiveResidues>
 VAL166  LYS551  ARG553  GLY616  TRP617  ASP618  TYR619  PRO620  LYS621  CYS622 
 ASP623  PHE694  ASN695  SER759  ASP760  ASP761  ALA762  ILE779  LEU786  VAL792 
 PHE793  MET794  SER795  GLU796  ALA797  LYS798  CYS799  TRP800  GLU811  SER814 

> <Gold.Protein.RotatedAtoms>
  152.5184  134.3568  159.9270 H   0  0  0  0  0  0  0  0  0  0  0  0  # atno 6907 bound_to 6896
  151.3519  133.3916  159.2689 H   0  0  0  0  0  0  0  0  0  0  0  0  # atno 6908 bound_to 6896
  150.9720  134.9110  159.7851 H   0  0  0  0  0  0  0  0  0  0  0  0  # atno 6909 bound_to 6896
  145.9842  140.7250  142.9348 H   0  0  0  0  0  0  0  0  0  0  0  0  # atno 7974 bound_to 7965
  156.1069  140.1458  156.9391 H   0  0  0  0  0  0  0  0  0  0  0  0  # atno 8008 bound_to 7997
  154.4740  140.0900  156.7260 H   0  0  0  0  0  0  0  0  0  0  0  0  # atno 8009 bound_to 7997
  155.4663  140.3440  155.4322 H   0  0  0  0  0  0  0  0  0  0  0  0  # atno 8010 bound_to 7997
  139.7363  143.8730  152.2550 H   0  0  0  0  0  0  0  0  0  0  0  0  # atno 10167 bound_to 10162
  157.6826  130.9993  150.2189 H   0  0  0  0  0  0  0  0  0  0  0  0  # atno 10718 bound_to 10713
  153.1489  135.6774  153.8912 H   0  0  0  0  0  0  0  0  0  0  0  0  # atno 10763 bound_to 10752
  153.8344  135.3113  155.3422 H   0  0  0  0  0  0  0  0  0  0  0  0  # atno 10764 bound_to 10752
  154.7847  135.4869  154.0006 H   0  0  0  0  0  0  0  0  0  0  0  0  # atno 10765 bound_to 10752
  139.9120  134.7950  156.1961 H   0  0  0  0  0  0  0  0  0  0  0  0  # atno 11005 bound_to 11000
  144.6870  140.2961  143.7270 LP  0  0  0  0  0  0  0  0  0  0  0  0  # atno 17320 bound_to 7965
  145.7724  139.1862  143.2204 LP  0  0  0  0  0  0  0  0  0  0  0  0  # atno 17321 bound_to 7965
  139.8668  144.7089  150.9034 LP  0  0  0  0  0  0  0  0  0  0  0  0  # atno 17342 bound_to 10162
  140.7779  143.3771  151.1543 LP  0  0  0  0  0  0  0  0  0  0  0  0  # atno 17343 bound_to 10162
  156.2845  130.3737  149.7902 LP  0  0  0  0  0  0  0  0  0  0  0  0  # atno 17370 bound_to 10713
  156.5581  130.8371  151.3320 LP  0  0  0  0  0  0  0  0  0  0  0  0  # atno 17371 bound_to 10713
  141.0554  133.6868  156.1850 LP  0  0  0  0  0  0  0  0  0  0  0  0  # atno 17394 bound_to 11000
  140.6746  134.4832  157.5588 LP  0  0  0  0  0  0  0  0  0  0  0  0  # atno 17395 bound_to 11000

$$$$
