AV-unprocessed.smi:1605|AV-procd|sdf|6456|dock4
  -GOLD-   22720 7113D 1   1.00000     0.00000
 Structure written by MMmdl.
 52 54  0  0  0  0  0  0  0  0  3 V2000
  144.2771  135.3226  151.7501 C   0  0  0  0  0  0  0  0  0  0  0  0
  145.1030  136.4388  151.4558 O   0  0  0  0  0  0  0  0  0  0  0  0
  145.6646  137.0708  152.5982 C   0  0  2  0  0  0  0  0  0  0  0  0
  146.5799  138.1996  152.1017 C   0  0  0  0  0  0  0  0  0  0  0  0
  147.3186  138.8743  153.2691 C   0  0  0  0  0  0  0  0  0  0  0  0
  148.1032  137.8827  154.0492 N   0  3  1  0  0  0  0  0  0  0  0  0
  148.9448  138.5245  155.0924 C   0  0  0  0  0  0  0  0  0  0  0  0
  150.4450  138.5503  154.7239 C   0  0  1  0  0  0  0  0  0  0  0  0
  150.6086  139.2818  153.5246 O   0  0  0  0  0  0  0  0  0  0  0  0
  151.3339  139.1694  155.8272 C   0  0  0  0  0  0  0  0  0  0  0  0
  150.8903  140.4935  156.2950 N   0  0  0  0  0  0  0  0  0  0  0  0
  149.9905  141.3565  155.7478 C   0  0  0  0  0  0  0  0  0  0  0  0
  149.9207  142.4479  156.5590 N   0  3  0  0  0  0  0  0  0  0  0  0
  150.7800  142.2769  157.6461 C   0  0  0  0  0  0  0  0  0  0  0  0
  151.0541  143.1049  158.7283 C   0  0  0  0  0  0  0  0  0  0  0  0
  151.9886  142.6359  159.6791 C   0  0  0  0  0  0  0  0  0  0  0  0
  152.3172  143.5192  160.8708 C   0  0  0  0  0  0  0  0  0  0  0  0
  152.6089  141.3687  159.5285 C   0  0  0  0  0  0  0  0  0  0  0  0
  153.6097  140.8711  160.5575 C   0  0  0  0  0  0  0  0  0  0  0  0
  152.3148  140.5412  158.4217 C   0  0  0  0  0  0  0  0  0  0  0  0
  151.3986  141.0214  157.4886 C   0  0  0  0  0  0  0  0  0  0  0  0
  147.2321  136.7983  154.5763 C   0  0  0  0  0  0  0  0  0  0  0  0
  146.4915  136.0786  153.4369 C   0  0  0  0  0  0  0  0  0  0  0  0
  143.8599  134.9279  150.8237 H   0  0  0  0  0  0  0  0  0  0  0  0
  143.4453  135.6055  152.3963 H   0  0  0  0  0  0  0  0  0  0  0  0
  144.8351  134.5181  152.2284 H   0  0  0  0  0  0  0  0  0  0  0  0
  144.8735  137.5089  153.2097 H   0  0  0  0  0  0  0  0  0  0  0  0
  147.3077  137.8003  151.3938 H   0  0  0  0  0  0  0  0  0  0  0  0
  145.9940  138.9404  151.5566 H   0  0  0  0  0  0  0  0  0  0  0  0
  147.9835  139.6416  152.8708 H   0  0  0  0  0  0  0  0  0  0  0  0
  146.6082  139.3787  153.9262 H   0  0  0  0  0  0  0  0  0  0  0  0
  148.6075  139.5499  155.2509 H   0  0  0  0  0  0  0  0  0  0  0  0
  148.7936  138.0061  156.0407 H   0  0  0  0  0  0  0  0  0  0  0  0
  150.8108  137.5403  154.5438 H   0  0  0  0  0  0  0  0  0  0  0  0
  149.8313  139.1852  152.9958 H   0  0  0  0  0  0  0  0  0  0  0  0
  151.3418  138.5122  156.6977 H   0  0  0  0  0  0  0  0  0  0  0  0
  152.3714  139.2401  155.4988 H   0  0  0  0  0  0  0  0  0  0  0  0
  149.4338  141.2052  154.8343 H   0  0  0  0  0  0  0  0  0  0  0  0
  150.5751  144.0668  158.8387 H   0  0  0  0  0  0  0  0  0  0  0  0
  152.0440  143.0227  161.8020 H   0  0  0  0  0  0  0  0  0  0  0  0
  151.7786  144.4661  160.8264 H   0  0  0  0  0  0  0  0  0  0  0  0
  153.3836  143.7450  160.8984 H   0  0  0  0  0  0  0  0  0  0  0  0
  153.9800  139.8769  160.3050 H   0  0  0  0  0  0  0  0  0  0  0  0
  153.1494  140.8138  161.5440 H   0  0  0  0  0  0  0  0  0  0  0  0
  154.4674  141.5420  160.6125 H   0  0  0  0  0  0  0  0  0  0  0  0
  152.7910  139.5788  158.3071 H   0  0  0  0  0  0  0  0  0  0  0  0
  147.8217  136.0669  155.1271 H   0  0  0  0  0  0  0  0  0  0  0  0
  146.5137  137.2176  155.2827 H   0  0  0  0  0  0  0  0  0  0  0  0
  145.8514  135.3042  153.8588 H   0  0  0  0  0  0  0  0  0  0  0  0
  147.2136  135.5690  152.7973 H   0  0  0  0  0  0  0  0  0  0  0  0
  148.7413  137.4568  153.3923 H   0  0  0  0  0  0  0  0  0  0  0  0
  149.3254  143.2477  156.3846 H   0  0  0  0  0  0  0  0  0  0  0  0
  1  2  1  0  0  0  0
  1 24  1  0  0  0  0
  1 25  1  0  0  0  0
  1 26  1  0  0  0  0
  2  3  1  0  0  0  0
  3 23  1  0  0  0  0
  3  4  1  0  0  0  0
  3 27  1  0  0  0  0
  4  5  1  0  0  0  0
  4 28  1  0  0  0  0
  4 29  1  0  0  0  0
  5  6  1  0  0  0  0
  5 30  1  0  0  0  0
  5 31  1  0  0  0  0
  6  7  1  0  0  0  0
  6 22  1  0  0  0  0
  6 51  1  0  0  0  0
  7  8  1  0  0  0  0
  7 32  1  0  0  0  0
  7 33  1  0  0  0  0
  8  9  1  0  0  0  0
  8 10  1  0  0  0  0
  8 34  1  0  0  0  0
  9 35  1  0  0  0  0
 10 11  1  0  0  0  0
 10 36  1  0  0  0  0
 10 37  1  0  0  0  0
 11 21  1  0  0  0  0
 11 12  1  0  0  0  0
 12 13  2  0  0  0  0
 12 38  1  0  0  0  0
 13 14  1  0  0  0  0
 13 52  1  0  0  0  0
 14 21  2  0  0  0  0
 14 15  1  0  0  0  0
 15 16  2  0  0  0  0
 15 39  1  0  0  0  0
 16 17  1  0  0  0  0
 16 18  1  0  0  0  0
 17 40  1  0  0  0  0
 17 41  1  0  0  0  0
 17 42  1  0  0  0  0
 18 19  1  0  0  0  0
 18 20  2  0  0  0  0
 19 43  1  0  0  0  0
 19 44  1  0  0  0  0
 19 45  1  0  0  0  0
 20 21  1  0  0  0  0
 20 46  1  0  0  0  0
 22 23  1  0  0  0  0
 22 47  1  0  0  0  0
 22 48  1  0  0  0  0
 23 49  1  0  0  0  0
 23 50  1  0  0  0  0
M  CHG  1   6   1
M  CHG  1  13   1
M  END
> <s_m_source_file>
AV-unprocessed.smi

> <i_m_source_file_index>
1605

> <i_lp_mmshare_version>
43012

> <i_f3d_flags>
0

> <s_epik_input>
W0NIM11PW0NIXTFbQ0gyXVtDSDJdTihbQ0gyXVtDSDJdMSlbQ0gyXVtDQEhdKFtPSF0pW0NIMl1uKFtjSF1uMiljKGMyMylbY0hdYyhbQ0gzXSljKFtjSF0zKVtDSDNd

> <s_epik_cmdline>
J2VwaWtfcHl0aG9uJywgJy1waCcsICc3LjAnLCAnLXRuJywgJzgnLCAnLW1hJywgJzIwMCcsICctbWV0YWxfYmluZGluZycsICctaW1hZScsICc8aW5maWxlLm1hZT4nLCAnLW9tYWUnLCAnPG91dGZpbGUubWFlPic=

> <r_epik_Ionization_Penalty>
1.19848

> <r_epik_Ionization_Penalty_Charging>
1.19848

> <r_epik_Ionization_Penalty_Neutral>
1.67134e-06

> <r_epik_State_Penalty>
1.2782

> <r_epik_Charging_Adjusted_Penalty>
2.47668

> <i_epik_Tot_Q>
2

> <i_epik_Tot_abs_Q>
2

> <r_epik_Metal_State_Penalty>
5.29544

> <b_epik_Metal_Only>
0

> <s_lp_Force_Field>
OPLS_2005

> <r_lp_Energy>
33.6993

> <b_lp_Chiralities_Consistent>
1

> <s_lp_Variant>
AV-unprocessed.smi:1605-6

> <Gold.Version>
5.8.1

> <Gold.Id.Protein>
6NUR|6NUR_protein|mol2

> <Gold.PLP.Fitness>
55.4782

> <Gold.PLP.PLP>
-41.3079

> <Gold.PLP.part.hbond>
-4.0000

> <Gold.PLP.part.metal>
0.0000

> <Gold.PLP.part.buried>
-0.2388

> <Gold.PLP.part.nonpolar>
-38.5353

> <Gold.PLP.part.repulsive>
2.0294

> <Gold.PLP.ligand.clash>
0.0000

> <Gold.PLP.ligand.torsion>
0.9096

> <Gold.PLP.Chemscore.Hbond>
5.3105

> <Gold.PLP.Chemscore.CHOScore>
0.0000

> <Gold.PLP.Chemscore.Metal>
0.0000

> <Gold.Chemscore.Hbonds>
donor molecule, donor type, donor heavy atom, donor atom, acceptor molecule, acceptor atom, score
      L1  H     6    51       P1  7948  1.92
      L1  H     9    35       P1  7957  0.46
      L1  H    13    52       P1  8028  2.00
      P1  H  7989  7998       L1     9  0.86

> <Gold.PLP.Chemscore.Internal.Correction>
0.0580

> <Gold.Rescore>
     Score         DG    S(hbond)    S(metal)    S(lipo)     H(rot)  DE(clash)    DE(int)     intcor
     20.31     -23.27       2.98        0.00     116.89       2.28       1.39       1.57       ----

> <Gold.Chemscore.Fitness>
20.3062

> <Gold.Chemscore.DG>
-23.2673

> <Gold.Chemscore.ZeroCoef>
-5.4800

> <Gold.Chemscore.Hbond>
2.9814

> <Gold.Chemscore.Metal>
0.0000

> <Gold.Chemscore.Lipo>
116.8902

> <Gold.Chemscore.Internal_Hbond>
0.0000

> <Gold.Chemscore.DEClash>
1.3930

> <Gold.Chemscore.DEInternal>
1.5681

> <Gold.Chemscore.Rot>
2.2839

> <Gold.Chemscore.Internal.Correction>
   9.000000E+99

> <Gold.Chemscore.Hbonds>
donor molecule, donor type, donor heavy atom, donor atom, acceptor molecule, acceptor atom, score
      L1  H     6    51       P1  7948  0.91
      L1  H     9    35       P1  7957  0.42
      L1  H    13    52       P1  8028  0.98
      P1  H  7989  7998       L1     9  0.83

> <Gold.Chemscore.Hbond.Weighted>
-9.9580

> <Gold.Chemscore.Metal.Weighted>
-0.0000

> <Gold.Chemscore.Lipo.Weighted>
-13.6762

> <Gold.Chemscore.Internal_Hbond.Weighted>
0.0000

> <Gold.Chemscore.DEClash.Weighted>
1.3930

> <Gold.Chemscore.DEInternal.Weighted>
1.5681

> <Gold.Chemscore.Rot.Weighted>
5.8469

> <Gold.Chemscore.Internal.Correction.Weighted>
   9.000000E+99

> <Gold.Protein.RotatedTorsions>
[ 6907 6896 6895 6894 ] final  -85.67 input  -60.11 | X-H torsion
[ 7974 7965 7964 7962 ] final  -97.33 input  175.53 | X-H torsion
[ 8008 7997 7996 7995 ] final  -70.28 input   59.86 | X-H torsion
[ 10167 10162 10161 10158 ] final  -28.04 input  -65.29 | X-H torsion
[ 10718 10713 10712 10709 ] final   13.25 input   66.30 | X-H torsion
[ 10763 10752 10751 10750 ] final   61.15 input  -60.55 | X-H torsion
[ 11005 11000 10999 10996 ] final  -39.64 input  -57.11 | X-H torsion

> <Gold.Protein.ActiveResidues>
 VAL166  LYS551  ARG553  GLY616  TRP617  ASP618  TYR619  PRO620  LYS621  CYS622 
 ASP623  PHE694  ASN695  SER759  ASP760  ASP761  ALA762  ILE779  LEU786  VAL792 
 PHE793  MET794  SER795  GLU796  ALA797  LYS798  CYS799  TRP800  GLU811  SER814 

> <Gold.Protein.RotatedAtoms>
  150.6869  134.3169  159.4769 H   0  0  0  0  0  0  0  0  0  0  0  0  # atno 6907 bound_to 6896
  152.1049  134.9313  160.0577 H   0  0  0  0  0  0  0  0  0  0  0  0  # atno 6908 bound_to 6896
  152.0578  133.4013  159.4441 H   0  0  0  0  0  0  0  0  0  0  0  0  # atno 6909 bound_to 6896
  145.3352  140.9449  143.2639 H   0  0  0  0  0  0  0  0  0  0  0  0  # atno 7974 bound_to 7965
  154.5000  140.0837  156.7778 H   0  0  0  0  0  0  0  0  0  0  0  0  # atno 8008 bound_to 7997
  155.4025  140.3438  155.4240 H   0  0  0  0  0  0  0  0  0  0  0  0  # atno 8009 bound_to 7997
  156.1444  140.1539  156.8857 H   0  0  0  0  0  0  0  0  0  0  0  0  # atno 8010 bound_to 7997
  140.7273  143.4043  151.1211 H   0  0  0  0  0  0  0  0  0  0  0  0  # atno 10167 bound_to 10162
  157.0220  130.6158  149.5722 H   0  0  0  0  0  0  0  0  0  0  0  0  # atno 10718 bound_to 10713
  152.9942  135.5511  154.5988 H   0  0  0  0  0  0  0  0  0  0  0  0  # atno 10763 bound_to 10752
  154.5334  135.2815  155.1162 H   0  0  0  0  0  0  0  0  0  0  0  0  # atno 10764 bound_to 10752
  154.2468  135.6406  153.5279 H   0  0  0  0  0  0  0  0  0  0  0  0  # atno 10765 bound_to 10752
  141.0117  133.6905  156.2214 H   0  0  0  0  0  0  0  0  0  0  0  0  # atno 11005 bound_to 11000
  144.8833  139.4874  143.6712 LP  0  0  0  0  0  0  0  0  0  0  0  0  # atno 17320 bound_to 7965
  146.3030  139.7487  142.9077 LP  0  0  0  0  0  0  0  0  0  0  0  0  # atno 17321 bound_to 7965
  139.7668  143.8554  152.3112 LP  0  0  0  0  0  0  0  0  0  0  0  0  # atno 17342 bound_to 10162
  139.8458  144.7188  150.9274 LP  0  0  0  0  0  0  0  0  0  0  0  0  # atno 17343 bound_to 10162
  156.0099  130.5190  150.7954 LP  0  0  0  0  0  0  0  0  0  0  0  0  # atno 17370 bound_to 10713
  157.5243  131.0933  151.0038 LP  0  0  0  0  0  0  0  0  0  0  0  0  # atno 17371 bound_to 10713
  140.6723  134.4855  157.5587 LP  0  0  0  0  0  0  0  0  0  0  0  0  # atno 17394 bound_to 11000
  139.9093  134.8379  156.1586 LP  0  0  0  0  0  0  0  0  0  0  0  0  # atno 17395 bound_to 11000

$$$$
