AV-unprocessed.smi:124|AV-procd|sdf|1148|dock9
  -GOLD-   2262018283D 1   1.00000     0.00000
 Structure written by MMmdl.
 52 56  0  0  0  0  0  0  0  0  1 V2000
  152.7028  139.5873  155.0934 O   0  0  0  0  0  0  0  0  0  0  0  0
  151.8245  139.8300  155.9227 C   0  0  0  0  0  0  0  0  0  0  0  0
  151.8839  139.1572  157.3064 C   0  0  0  0  0  0  0  0  0  0  0  0
  151.0069  137.9960  157.4027 N   0  0  0  0  0  0  0  0  0  0  0  0
  151.4095  136.8148  156.7302 C   0  0  0  0  0  0  0  0  0  0  0  0
  152.4612  136.7529  156.0906 O   0  0  0  0  0  0  0  0  0  0  0  0
  150.4866  135.6936  156.8683 C   0  0  0  0  0  0  0  0  0  0  0  0
  150.7564  134.5311  156.2502 F   0  0  0  0  0  0  0  0  0  0  0  0
  149.3605  135.8036  157.6056 C   0  0  0  0  0  0  0  0  0  0  0  0
  149.0063  136.9626  158.2762 N   0  0  0  0  0  0  0  0  0  0  0  0
  147.7410  137.0391  159.1017 C   0  0  1  0  0  0  0  0  0  0  0  0
  146.8990  135.7742  158.9006 C   0  0  0  0  0  0  0  0  0  0  0  0
  147.3478  134.9139  160.0620 C   0  0  0  0  0  0  0  0  0  0  0  0
  147.5892  135.9599  161.1442 C   0  0  0  0  0  0  0  0  0  0  0  0
  148.0813  137.1078  160.4571 O   0  0  0  0  0  0  0  0  0  0  0  0
  149.8287  138.1066  158.1811 C   0  0  0  0  0  0  0  0  0  0  0  0
  149.5247  139.1521  158.7604 O   0  0  0  0  0  0  0  0  0  0  0  0
  150.6828  140.7150  155.6898 C   0  0  0  0  0  0  0  0  0  0  0  0
  150.4443  141.8702  156.4078 C   0  0  0  0  0  0  0  0  0  0  0  0
  151.2056  142.5490  157.4536 C   0  0  0  0  0  0  0  0  0  0  0  0
  151.5607  143.9085  157.3104 C   0  0  0  0  0  0  0  0  0  0  0  0
  152.3012  144.5653  158.3125 C   0  0  0  0  0  0  0  0  0  0  0  0
  152.6983  143.8659  159.4677 C   0  0  0  0  0  0  0  0  0  0  0  0
  152.3557  142.5090  159.6173 C   0  0  0  0  0  0  0  0  0  0  0  0
  151.6160  141.8546  158.6134 C   0  0  0  0  0  0  0  0  0  0  0  0
  149.2625  142.4395  155.9678 N   0  0  0  0  0  0  0  0  0  0  0  0
  148.6970  141.6875  154.9628 C   0  0  0  0  0  0  0  0  0  0  0  0
  147.5184  141.8583  154.2137 C   0  0  0  0  0  0  0  0  0  0  0  0
  147.1736  140.9062  153.2391 C   0  0  0  0  0  0  0  0  0  0  0  0
  148.0079  139.7934  153.0275 C   0  0  0  0  0  0  0  0  0  0  0  0
  149.1867  139.6329  153.7833 C   0  0  0  0  0  0  0  0  0  0  0  0
  149.5733  140.5779  154.7684 C   0  0  0  0  0  0  0  0  0  0  0  0
  148.8934  143.3000  156.3464 H   0  0  0  0  0  0  0  0  0  0  0  0
  152.9011  138.8412  157.5380 H   0  0  0  0  0  0  0  0  0  0  0  0
  151.5989  139.8459  158.1035 H   0  0  0  0  0  0  0  0  0  0  0  0
  148.7151  134.9399  157.6639 H   0  0  0  0  0  0  0  0  0  0  0  0
  147.2368  137.9597  158.8040 H   0  0  0  0  0  0  0  0  0  0  0  0
  145.8456  136.0380  159.0037 H   0  0  0  0  0  0  0  0  0  0  0  0
  147.0555  135.3189  157.9219 H   0  0  0  0  0  0  0  0  0  0  0  0
  146.6108  134.1641  160.3505 H   0  0  0  0  0  0  0  0  0  0  0  0
  148.2785  134.4020  159.8145 H   0  0  0  0  0  0  0  0  0  0  0  0
  146.6507  136.2222  161.6345 H   0  0  0  0  0  0  0  0  0  0  0  0
  148.2887  135.6205  161.9083 H   0  0  0  0  0  0  0  0  0  0  0  0
  151.2589  144.4558  156.4292 H   0  0  0  0  0  0  0  0  0  0  0  0
  152.5637  145.6063  158.1947 H   0  0  0  0  0  0  0  0  0  0  0  0
  153.2657  144.3690  160.2368 H   0  0  0  0  0  0  0  0  0  0  0  0
  152.6607  141.9690  160.5016 H   0  0  0  0  0  0  0  0  0  0  0  0
  151.3613  140.8119  158.7374 H   0  0  0  0  0  0  0  0  0  0  0  0
  146.8813  142.7129  154.3879 H   0  0  0  0  0  0  0  0  0  0  0  0
  146.2706  141.0261  152.6584 H   0  0  0  0  0  0  0  0  0  0  0  0
  147.7435  139.0575  152.2824 H   0  0  0  0  0  0  0  0  0  0  0  0
  149.7990  138.7650  153.5969 H   0  0  0  0  0  0  0  0  0  0  0  0
  1  2  2  0  0  0  0
  2  3  1  0  0  0  0
  2 18  1  0  0  0  0
  3  4  1  0  0  0  0
  3 34  1  0  0  0  0
  3 35  1  0  0  0  0
  4 16  1  0  0  0  0
  4  5  1  0  0  0  0
  5  6  2  0  0  0  0
  5  7  1  0  0  0  0
  7  8  1  0  0  0  0
  7  9  2  0  0  0  0
  9 10  1  0  0  0  0
  9 36  1  0  0  0  0
 10 11  1  0  0  0  0
 10 16  1  0  0  0  0
 11 15  1  0  0  0  0
 11 12  1  0  0  0  0
 11 37  1  0  0  0  0
 12 13  1  0  0  0  0
 12 38  1  0  0  0  0
 12 39  1  0  0  0  0
 13 14  1  0  0  0  0
 13 40  1  0  0  0  0
 13 41  1  0  0  0  0
 14 15  1  0  0  0  0
 14 42  1  0  0  0  0
 14 43  1  0  0  0  0
 16 17  2  0  0  0  0
 18 32  1  0  0  0  0
 18 19  2  0  0  0  0
 19 20  1  0  0  0  0
 19 26  1  0  0  0  0
 20 25  1  0  0  0  0
 20 21  2  0  0  0  0
 21 22  1  0  0  0  0
 21 44  1  0  0  0  0
 22 23  2  0  0  0  0
 22 45  1  0  0  0  0
 23 24  1  0  0  0  0
 23 46  1  0  0  0  0
 24 25  2  0  0  0  0
 24 47  1  0  0  0  0
 25 48  1  0  0  0  0
 26 33  1  0  0  0  0
 26 27  1  0  0  0  0
 27 32  1  0  0  0  0
 27 28  2  0  0  0  0
 28 29  1  0  0  0  0
 28 49  1  0  0  0  0
 29 30  2  0  0  0  0
 29 50  1  0  0  0  0
 30 31  1  0  0  0  0
 30 51  1  0  0  0  0
 31 32  2  0  0  0  0
 31 52  1  0  0  0  0
M  END
> <s_m_source_file>
AV-unprocessed.smi

> <i_m_source_file_index>
124

> <i_lp_mmshare_version>
43012

> <i_f3d_flags>
0

> <s_epik_input>
W2NIXTFbY0hdW2NIXVtjSF1bY0hdYzEtYyhbbkhdMiljKGMoYzIzKVtjSF1bY0hdW2NIXVtjSF0zKUMoPU8pW0NIMl1uNGMoPU8pYyhGKVtjSF1uKGM0PU8pW0NAQEhdNVtDSDJdW0NIMl1bQ0gyXU81

> <s_epik_cmdline>
J2VwaWtfcHl0aG9uJywgJy1waCcsICc3LjAnLCAnLXRuJywgJzgnLCAnLW1hJywgJzIwMCcsICctbWV0YWxfYmluZGluZycsICctaW1hZScsICc8aW5maWxlLm1hZT4nLCAnLW9tYWUnLCAnPG91dGZpbGUubWFlPic=

> <r_lp_tautomer_probability>
1

> <r_epik_Ionization_Penalty>
1.43207e-08

> <r_epik_Ionization_Penalty_Charging>
5.01743e-09

> <r_epik_Ionization_Penalty_Neutral>
9.30329e-09

> <r_epik_State_Penalty>
-0

> <r_epik_Charging_Adjusted_Penalty>
5.01743e-09

> <i_epik_Tot_Q>
0

> <i_epik_Tot_abs_Q>
0

> <r_epik_Metal_State_Penalty>
-0

> <b_epik_Metal_Only>
0

> <s_epik_Chemistry_Notes>
This compound contains an acetal/aminal-like group ( X-CH(R)-Y where X, Y are N, S, or O) that may be acid/base labile, releasing an aldehyde.

> <s_lp_Force_Field>
OPLS_2005

> <r_lp_Energy>
48.1056

> <b_lp_Chiralities_Consistent>
1

> <s_lp_Variant>
AV-unprocessed.smi:124-2

> <Gold.Version>
5.8.1

> <Gold.Id.Protein>
6NUR|6NUR_protein|mol2

> <Gold.PLP.Fitness>
65.8283

> <Gold.PLP.PLP>
-58.2658

> <Gold.PLP.part.hbond>
-6.4704

> <Gold.PLP.part.metal>
0.0000

> <Gold.PLP.part.buried>
3.1305

> <Gold.PLP.part.nonpolar>
-55.1108

> <Gold.PLP.part.repulsive>
0.1349

> <Gold.PLP.ligand.clash>
0.0000

> <Gold.PLP.ligand.torsion>
2.7763

> <Gold.PLP.Chemscore.Hbond>
3.9058

> <Gold.PLP.Chemscore.CHOScore>
0.0000

> <Gold.PLP.Chemscore.Metal>
0.0000

> <Gold.Chemscore.Hbonds>
donor molecule, donor type, donor heavy atom, donor atom, acceptor molecule, acceptor atom, score
      L1  H    26    33       P1  8028  0.56
      P1  H  6931  6943       L1    15  0.71
      P1  H  6934  6947       L1    15  0.48
      P1  H  7989  7998       L1     1  0.14
      P1  H  7997  8009       L1     1  1.00
      P1  H 10752 10764       L1     6  0.98

> <Gold.PLP.Chemscore.Internal.Correction>
1.3978

> <Gold.Rescore>
     Score         DG    S(hbond)    S(metal)    S(lipo)     H(rot)  DE(clash)    DE(int)     intcor
     24.22     -28.52       2.99        0.00     145.53       1.55       0.32       3.99       ----

> <Gold.Chemscore.Fitness>
24.2179

> <Gold.Chemscore.DG>
-28.5231

> <Gold.Chemscore.ZeroCoef>
-5.4800

> <Gold.Chemscore.Hbond>
2.9921

> <Gold.Chemscore.Metal>
0.0000

> <Gold.Chemscore.Lipo>
145.5294

> <Gold.Chemscore.Internal_Hbond>
0.0000

> <Gold.Chemscore.DEClash>
0.3166

> <Gold.Chemscore.DEInternal>
3.9885

> <Gold.Chemscore.Rot>
1.5537

> <Gold.Chemscore.Internal.Correction>
   9.000000E+99

> <Gold.Chemscore.Hbonds>
donor molecule, donor type, donor heavy atom, donor atom, acceptor molecule, acceptor atom, score
      L1  H    26    33       P1  8028  0.54
      P1  H  6931  6943       L1    15  0.37
      P1  H  6934  6947       L1    15  0.10
      P1  H  7989  7998       L1     1  0.01
      P1  H  7997  8009       L1     1  0.38
      P1  H 10752 10764       L1     6  0.93

> <Gold.Chemscore.Hbond.Weighted>
-9.9935

> <Gold.Chemscore.Metal.Weighted>
-0.0000

> <Gold.Chemscore.Lipo.Weighted>
-17.0269

> <Gold.Chemscore.Internal_Hbond.Weighted>
0.0000

> <Gold.Chemscore.DEClash.Weighted>
0.3166

> <Gold.Chemscore.DEInternal.Weighted>
3.9885

> <Gold.Chemscore.Rot.Weighted>
3.9774

> <Gold.Chemscore.Internal.Correction.Weighted>
   9.000000E+99

> <Gold.Protein.RotatedTorsions>
[ 6907 6896 6895 6894 ] final   66.08 input  -60.11 | X-H torsion
[ 7974 7965 7964 7962 ] final   99.35 input  175.53 | X-H torsion
[ 8008 7997 7996 7995 ] final -144.20 input   59.86 | X-H torsion
[ 10167 10162 10161 10158 ] final  -75.14 input  -65.29 | X-H torsion
[ 10718 10713 10712 10709 ] final  -90.97 input   66.30 | X-H torsion
[ 10763 10752 10751 10750 ] final  -32.06 input  -60.55 | X-H torsion
[ 11005 11000 10999 10996 ] final  114.92 input  -57.11 | X-H torsion

> <Gold.Protein.ActiveResidues>
 VAL166  LYS551  ARG553  GLY616  TRP617  ASP618  TYR619  PRO620  LYS621  CYS622 
 ASP623  PHE694  ASN695  SER759  ASP760  ASP761  ALA762  ILE779  LEU786  VAL792 
 PHE793  MET794  SER795  GLU796  ALA797  LYS798  CYS799  TRP800  GLU811  SER814 

> <Gold.Protein.RotatedAtoms>
  152.4454  134.5504  159.9864 H   0  0  0  0  0  0  0  0  0  0  0  0  # atno 6907 bound_to 6896
  151.5591  133.3400  159.2975 H   0  0  0  0  0  0  0  0  0  0  0  0  # atno 6908 bound_to 6896
  150.8370  134.7679  159.6964 H   0  0  0  0  0  0  0  0  0  0  0  0  # atno 6909 bound_to 6896
  145.4000  139.2349  143.3305 H   0  0  0  0  0  0  0  0  0  0  0  0  # atno 7974 bound_to 7965
  155.5230  140.0593  157.2903 H   0  0  0  0  0  0  0  0  0  0  0  0  # atno 8008 bound_to 7997
  154.4511  140.1949  156.0463 H   0  0  0  0  0  0  0  0  0  0  0  0  # atno 8009 bound_to 7997
  156.0705  140.3260  155.7574 H   0  0  0  0  0  0  0  0  0  0  0  0  # atno 8010 bound_to 7997
  140.4968  143.2369  151.7818 H   0  0  0  0  0  0  0  0  0  0  0  0  # atno 10167 bound_to 10162
  155.9990  130.4930  150.5403 H   0  0  0  0  0  0  0  0  0  0  0  0  # atno 10718 bound_to 10713
  153.8075  135.6885  153.4846 H   0  0  0  0  0  0  0  0  0  0  0  0  # atno 10763 bound_to 10752
  153.1649  135.4565  154.9821 H   0  0  0  0  0  0  0  0  0  0  0  0  # atno 10764 bound_to 10752
  154.7981  135.3327  154.7559 H   0  0  0  0  0  0  0  0  0  0  0  0  # atno 10765 bound_to 10752
  139.8994  134.9576  156.6966 H   0  0  0  0  0  0  0  0  0  0  0  0  # atno 11005 bound_to 11000
  146.2756  140.4696  142.8797 LP  0  0  0  0  0  0  0  0  0  0  0  0  # atno 17320 bound_to 7965
  144.8380  140.6813  143.6247 LP  0  0  0  0  0  0  0  0  0  0  0  0  # atno 17321 bound_to 7965
  139.4863  144.4576  151.9580 LP  0  0  0  0  0  0  0  0  0  0  0  0  # atno 17342 bound_to 10162
  140.3664  144.2910  150.5926 LP  0  0  0  0  0  0  0  0  0  0  0  0  # atno 17343 bound_to 10162
  157.3340  131.0705  151.1839 LP  0  0  0  0  0  0  0  0  0  0  0  0  # atno 17370 bound_to 10713
  157.2710  130.6704  149.6019 LP  0  0  0  0  0  0  0  0  0  0  0  0  # atno 17371 bound_to 10713
  140.7183  133.9162  155.8130 LP  0  0  0  0  0  0  0  0  0  0  0  0  # atno 17394 bound_to 11000
  141.0247  134.0840  157.4082 LP  0  0  0  0  0  0  0  0  0  0  0  0  # atno 17395 bound_to 11000

$$$$
