AV-unprocessed.smi:2268|AV-procd|sdf|9150|dock3
  -GOLD-   2272012353D 1   1.00000     0.00000
 Structure written by MMmdl.
 37 38  0  0  0  0  0  0  0  0  1 V2000
  153.9374  141.5153  161.0170 C   0  0  0  0  0  0  0  0  0  0  0  0
  153.0226  142.2126  160.0251 C   0  0  0  0  0  0  0  0  0  0  0  0
  152.8824  143.6151  160.1093 C   0  0  0  0  0  0  0  0  0  0  0  0
  152.0357  144.3051  159.2231 C   0  0  0  0  0  0  0  0  0  0  0  0
  151.9096  145.6502  159.3144 F   0  0  0  0  0  0  0  0  0  0  0  0
  151.3179  143.5953  158.2453 C   0  0  0  0  0  0  0  0  0  0  0  0
  151.4521  142.1978  158.1529 C   0  0  0  0  0  0  0  0  0  0  0  0
  152.3075  141.4918  159.0310 C   0  0  0  0  0  0  0  0  0  0  0  0
  152.4202  139.9729  158.8973 C   0  0  2  0  0  0  0  0  0  0  0  0
  153.7041  139.5872  158.4441 O   0  0  0  0  0  0  0  0  0  0  0  0
  151.3644  139.4281  157.9091 C   0  0  0  0  0  0  0  0  0  0  0  0
  150.4379  138.4732  158.5426 N   0  0  0  0  0  0  0  0  0  0  0  0
  151.0250  137.4547  159.3117 C   0  0  0  0  0  0  0  0  0  0  0  0
  150.3114  136.5627  159.9173 N   0  0  0  0  0  0  0  0  0  0  0  0
  148.9178  136.5994  159.8174 C   0  0  0  0  0  0  0  0  0  0  0  0
  148.1770  135.5085  160.5703 C   0  0  0  0  0  0  0  0  0  0  0  0
  148.2864  137.5602  159.0890 C   0  0  0  0  0  0  0  0  0  0  0  0
  146.7723  137.6515  158.9455 C   0  0  0  0  0  0  0  0  0  0  0  0
  149.0859  138.5812  158.3928 C   0  0  0  0  0  0  0  0  0  0  0  0
  148.5790  139.4798  157.7192 O   0  0  0  0  0  0  0  0  0  0  0  0
  154.3377  142.2157  161.7506 H   0  0  0  0  0  0  0  0  0  0  0  0
  154.7813  141.0542  160.5036 H   0  0  0  0  0  0  0  0  0  0  0  0
  153.3933  140.7442  161.5616 H   0  0  0  0  0  0  0  0  0  0  0  0
  153.4241  144.1717  160.8601 H   0  0  0  0  0  0  0  0  0  0  0  0
  150.6632  144.1216  157.5665 H   0  0  0  0  0  0  0  0  0  0  0  0
  150.8881  141.6677  157.3995 H   0  0  0  0  0  0  0  0  0  0  0  0
  152.2925  139.5069  159.8729 H   0  0  0  0  0  0  0  0  0  0  0  0
  153.7219  138.6457  158.3637 H   0  0  0  0  0  0  0  0  0  0  0  0
  150.7781  140.2620  157.5179 H   0  0  0  0  0  0  0  0  0  0  0  0
  151.8517  139.0056  157.0278 H   0  0  0  0  0  0  0  0  0  0  0  0
  152.1150  137.4739  159.3640 H   0  0  0  0  0  0  0  0  0  0  0  0
  147.5889  134.9005  159.8823 H   0  0  0  0  0  0  0  0  0  0  0  0
  147.5071  135.9439  161.3120 H   0  0  0  0  0  0  0  0  0  0  0  0
  148.8685  134.8472  161.0935 H   0  0  0  0  0  0  0  0  0  0  0  0
  146.4158  138.6088  159.3268 H   0  0  0  0  0  0  0  0  0  0  0  0
  146.2418  136.8668  159.4823 H   0  0  0  0  0  0  0  0  0  0  0  0
  146.4892  137.5792  157.8949 H   0  0  0  0  0  0  0  0  0  0  0  0
  1  2  1  0  0  0  0
  1 21  1  0  0  0  0
  1 22  1  0  0  0  0
  1 23  1  0  0  0  0
  2  8  1  0  0  0  0
  2  3  2  0  0  0  0
  3  4  1  0  0  0  0
  3 24  1  0  0  0  0
  4  5  1  0  0  0  0
  4  6  2  0  0  0  0
  6  7  1  0  0  0  0
  6 25  1  0  0  0  0
  7  8  2  0  0  0  0
  7 26  1  0  0  0  0
  8  9  1  0  0  0  0
  9 10  1  0  0  0  0
  9 11  1  0  0  0  0
  9 27  1  0  0  0  0
 10 28  1  0  0  0  0
 11 12  1  0  0  0  0
 11 29  1  0  0  0  0
 11 30  1  0  0  0  0
 12 19  1  0  0  0  0
 12 13  1  0  0  0  0
 13 14  2  0  0  0  0
 13 31  1  0  0  0  0
 14 15  1  0  0  0  0
 15 16  1  0  0  0  0
 15 17  2  0  0  0  0
 16 32  1  0  0  0  0
 16 33  1  0  0  0  0
 16 34  1  0  0  0  0
 17 18  1  0  0  0  0
 17 19  1  0  0  0  0
 18 35  1  0  0  0  0
 18 36  1  0  0  0  0
 18 37  1  0  0  0  0
 19 20  2  0  0  0  0
M  END
> <s_m_source_file>
AV-unprocessed.smi

> <i_m_source_file_index>
2268

> <i_lp_mmshare_version>
43012

> <i_f3d_flags>
0

> <s_epik_input>
W0NIM11jMVtjSF1jKEYpW2NIXVtjSF1jMVtDQEhdKFtPSF0pW0NIMl1uMltjSF1uYyhbQ0gzXSljKFtDSDNdKWMyPU8=

> <s_epik_cmdline>
J2VwaWtfcHl0aG9uJywgJy1waCcsICc3LjAnLCAnLXRuJywgJzgnLCAnLW1hJywgJzIwMCcsICctbWV0YWxfYmluZGluZycsICctaW1hZScsICc8aW5maWxlLm1hZT4nLCAnLW9tYWUnLCAnPG91dGZpbGUubWFlPic=

> <r_lp_tautomer_probability>
1

> <r_epik_Ionization_Penalty>
5.07449e-05

> <r_epik_Ionization_Penalty_Charging>
7.56727e-08

> <r_epik_Ionization_Penalty_Neutral>
5.06692e-05

> <r_epik_State_Penalty>
-0

> <r_epik_Charging_Adjusted_Penalty>
7.56727e-08

> <i_epik_Tot_Q>
0

> <i_epik_Tot_abs_Q>
0

> <r_epik_Metal_State_Penalty>
-0

> <b_epik_Metal_Only>
0

> <s_lp_Force_Field>
OPLS_2005

> <r_lp_Energy>
19.9067

> <b_lp_Chiralities_Consistent>
1

> <s_lp_Variant>
AV-unprocessed.smi:2268-1

> <Gold.Version>
5.8.1

> <Gold.Id.Protein>
6NUR|6NUR_protein|mol2

> <Gold.PLP.Fitness>
45.0726

> <Gold.PLP.PLP>
-41.0911

> <Gold.PLP.part.hbond>
-2.0000

> <Gold.PLP.part.metal>
0.0000

> <Gold.PLP.part.buried>
-4.8676

> <Gold.PLP.part.nonpolar>
-34.2163

> <Gold.PLP.part.repulsive>
0.0000

> <Gold.PLP.ligand.clash>
0.0000

> <Gold.PLP.ligand.torsion>
1.0130

> <Gold.PLP.Chemscore.Hbond>
2.0000

> <Gold.PLP.Chemscore.CHOScore>
0.0000

> <Gold.PLP.Chemscore.Metal>
0.0000

> <Gold.Chemscore.Hbonds>
donor molecule, donor type, donor heavy atom, donor atom, acceptor molecule, acceptor atom, score
      P1  H  6896  6908       L1    14  0.80
      P1  H  7997  8008       L1    10  1.00

> <Gold.PLP.Chemscore.Internal.Correction>
0.0076

> <Gold.Rescore>
     Score         DG    S(hbond)    S(metal)    S(lipo)     H(rot)  DE(clash)    DE(int)     intcor
     16.78     -17.63       1.71        0.00      98.43       1.98       0.03       0.81       ----

> <Gold.Chemscore.Fitness>
16.7839

> <Gold.Chemscore.DG>
-17.6295

> <Gold.Chemscore.ZeroCoef>
-5.4800

> <Gold.Chemscore.Hbond>
1.7088

> <Gold.Chemscore.Metal>
0.0000

> <Gold.Chemscore.Lipo>
98.4338

> <Gold.Chemscore.Internal_Hbond>
0.0000

> <Gold.Chemscore.DEClash>
0.0345

> <Gold.Chemscore.DEInternal>
0.8111

> <Gold.Chemscore.Rot>
1.9823

> <Gold.Chemscore.Internal.Correction>
   9.000000E+99

> <Gold.Chemscore.Hbonds>
donor molecule, donor type, donor heavy atom, donor atom, acceptor molecule, acceptor atom, score
      P1  H  6896  6908       L1    14  0.41
      P1  H  7997  8008       L1    10  0.26

> <Gold.Chemscore.Hbond.Weighted>
-5.7075

> <Gold.Chemscore.Metal.Weighted>
-0.0000

> <Gold.Chemscore.Lipo.Weighted>
-11.5168

> <Gold.Chemscore.Internal_Hbond.Weighted>
0.0000

> <Gold.Chemscore.DEClash.Weighted>
0.0345

> <Gold.Chemscore.DEInternal.Weighted>
0.8111

> <Gold.Chemscore.Rot.Weighted>
5.0748

> <Gold.Chemscore.Internal.Correction.Weighted>
   9.000000E+99

> <Gold.Protein.RotatedTorsions>
[ 6907 6896 6895 6894 ] final -176.41 input  -60.11 | X-H torsion
[ 7974 7965 7964 7962 ] final  -85.69 input  175.53 | X-H torsion
[ 8008 7997 7996 7995 ] final -102.67 input   59.86 | X-H torsion
[ 10167 10162 10161 10158 ] final   77.05 input  -65.29 | X-H torsion
[ 10718 10713 10712 10709 ] final   17.67 input   66.30 | X-H torsion
[ 10763 10752 10751 10750 ] final -166.08 input  -60.55 | X-H torsion
[ 11005 11000 10999 10996 ] final  -52.36 input  -57.11 | X-H torsion

> <Gold.Protein.ActiveResidues>
 VAL166  LYS551  ARG553  GLY616  TRP617  ASP618  TYR619  PRO620  LYS621  CYS622 
 ASP623  PHE694  ASN695  SER759  ASP760  ASP761  ALA762  ILE779  LEU786  VAL792 
 PHE793  MET794  SER795  GLU796  ALA797  LYS798  CYS799  TRP800  GLU811  SER814 

> <Gold.Protein.RotatedAtoms>
  151.6043  133.3353  159.3053 H   0  0  0  0  0  0  0  0  0  0  0  0  # atno 6907 bound_to 6896
  150.8191  134.7392  159.6767 H   0  0  0  0  0  0  0  0  0  0  0  0  # atno 6908 bound_to 6896
  152.4285  134.5828  160.0004 H   0  0  0  0  0  0  0  0  0  0  0  0  # atno 6909 bound_to 6896
  145.4898  140.9553  143.1818 H   0  0  0  0  0  0  0  0  0  0  0  0  # atno 7974 bound_to 7965
  154.8599  140.0427  157.1658 H   0  0  0  0  0  0  0  0  0  0  0  0  # atno 8008 bound_to 7997
  154.8851  140.2978  155.5382 H   0  0  0  0  0  0  0  0  0  0  0  0  # atno 8009 bound_to 7997
  156.2998  140.2404  156.3859 H   0  0  0  0  0  0  0  0  0  0  0  0  # atno 8010 bound_to 7997
  139.9857  144.5794  150.7861 H   0  0  0  0  0  0  0  0  0  0  0  0  # atno 10167 bound_to 10162
  157.0854  130.6405  149.5836 H   0  0  0  0  0  0  0  0  0  0  0  0  # atno 10718 bound_to 10713
  154.6868  135.2964  154.9535 H   0  0  0  0  0  0  0  0  0  0  0  0  # atno 10763 bound_to 10752
  154.0512  135.6644  153.4804 H   0  0  0  0  0  0  0  0  0  0  0  0  # atno 10764 bound_to 10752
  153.0585  135.5130  154.7940 H   0  0  0  0  0  0  0  0  0  0  0  0  # atno 10765 bound_to 10752
  141.0920  133.6631  156.4013 H   0  0  0  0  0  0  0  0  0  0  0  0  # atno 11005 bound_to 11000
  144.7840  139.6465  143.7142 LP  0  0  0  0  0  0  0  0  0  0  0  0  # atno 17320 bound_to 7965
  146.2291  139.5778  142.9567 LP  0  0  0  0  0  0  0  0  0  0  0  0  # atno 17321 bound_to 7965
  140.7473  143.2904  151.3347 LP  0  0  0  0  0  0  0  0  0  0  0  0  # atno 17342 bound_to 10162
  139.6376  144.0600  152.2529 LP  0  0  0  0  0  0  0  0  0  0  0  0  # atno 17343 bound_to 10162
  155.9912  130.4966  150.7290 LP  0  0  0  0  0  0  0  0  0  0  0  0  # atno 17370 bound_to 10713
  157.4766  131.0898  151.0584 LP  0  0  0  0  0  0  0  0  0  0  0  0  # atno 17371 bound_to 10713
  140.5229  134.6286  157.5324 LP  0  0  0  0  0  0  0  0  0  0  0  0  # atno 17394 bound_to 11000
  139.9748  134.7233  155.9971 LP  0  0  0  0  0  0  0  0  0  0  0  0  # atno 17395 bound_to 11000

$$$$
