#       Name:                AV-unprocessed.smi:3191
#       Creating user name   scv26
#       Creation time:       Fri Mar 27 18:03:29 2020


#       File generated by GOLD software.
#

@<TRIPOS>MOLECULE
AV-unprocessed.smi:3191
    38    39     1
SMALL
NO_CHARGES


@<TRIPOS>ATOM
      1 ****        -3.2609   1.0556  -1.6770 C.3            1 S1                 0.0000
      2 ****        -3.8833   0.5733  -0.4596 N.pl3          1 S1                 0.0000
      3 ****        -5.1964   0.5070  -0.2008 C.2            1 S1                 0.0000
      4 ****        -5.4976   0.0261   0.9980 N.2            1 S1                 0.0000
      5 ****        -4.2563  -0.2433   1.5679 C.2            1 S1                 0.0000
      6 ****        -3.2534   0.0874   0.6835 C.2            1 S1                 0.0000
      7 ****        -1.7703  -0.0278   0.8302 C.3            1 S1                 0.0000
      8 ****        -1.2105  -1.3300   0.2357 C.3            1 S1                 0.0000
      9 ****         0.2408  -1.3933   0.3581 N.am           1 S1                 0.0000
     10 ****         1.1082  -0.7931  -0.4712 C.2            1 S1                 0.0000
     11 ****         0.7487  -0.1245  -1.4415 O.2            1 S1                 0.0000
     12 ****         2.5425  -1.0177  -0.1049 C.3            1 S1                 0.0000
     13 ****         3.5983  -0.7505  -1.1580 C.3            1 S1                 0.0000
     14 ****         3.4951   0.1671   0.0400 C.3            1 S1                 0.0000
     15 ****         3.0565   1.6126  -0.1628 C.3            1 S1                 0.0000
     16 ****         4.5500   0.1004   1.1305 C.3            1 S1                 0.0000
     17 ****         2.7245  -1.8564   0.5658 H              1 S1                 0.0000
     18 ****        -4.0224   1.3582  -2.3965 H              1 S1                 0.0000
     19 ****        -2.6514   0.2676  -2.1193 H              1 S1                 0.0000
     20 ****        -2.6279   1.9141  -1.4517 H              1 S1                 0.0000
     21 ****        -5.9513   0.8189  -0.9077 H              1 S1                 0.0000
     22 ****        -4.1795  -0.6545   2.5636 H              1 S1                 0.0000
     23 ****        -1.2915   0.8331   0.3626 H              1 S1                 0.0000
     24 ****        -1.5097   0.0275   1.8877 H              1 S1                 0.0000
     25 ****        -1.6358  -2.1880   0.7570 H              1 S1                 0.0000
     26 ****        -1.4989  -1.4322  -0.8116 H              1 S1                 0.0000
     27 ****         0.6122  -1.9270   1.1307 H              1 S1                 0.0000
     28 ****         4.4337  -1.4463  -1.2018 H              1 S1                 0.0000
     29 ****         3.2855  -0.3577  -2.1240 H              1 S1                 0.0000
     30 ****         3.9257   2.2658  -0.2448 H              1 S1                 0.0000
     31 ****         2.4527   1.9456   0.6816 H              1 S1                 0.0000
     32 ****         2.4739   1.7329  -1.0753 H              1 S1                 0.0000
     33 ****         5.4246   0.6890   0.8517 H              1 S1                 0.0000
     34 ****         4.8721  -0.9281   1.2964 H              1 S1                 0.0000
     35 ****         4.1514   0.4898   2.0678 H              1 S1                 0.0000
     36 ****        -6.4036  -0.1109   1.3985 LP             1 S1                 0.0000
     37 ****        -0.2253  -0.0115  -1.6376 LP             1 S1                 0.0000
     38 ****         1.4310   0.3051  -2.0330 LP             1 S1                 0.0000
@<TRIPOS>BOND
    1    1    2 1     
    2    1   18 1     
    3    1   19 1     
    4    1   20 1     
    5    2    6 1     
    6    2    3 1     
    7    3    4 2     
    8    3   21 1     
    9    4    5 1     
   10    5    6 2     
   11    5   22 1     
   12    6    7 1     
   13    7    8 1     
   14    7   23 1     
   15    7   24 1     
   16    8    9 1     
   17    8   25 1     
   18    8   26 1     
   19    9   10 am    
   20    9   27 1     
   21   10   11 2     
   22   10   12 1     
   23   12   17 1     
   24   12   14 1     
   25   12   13 1     
   26   13   14 1     
   27   13   28 1     
   28   13   29 1     
   29   14   15 1     
   30   14   16 1     
   31   15   30 1     
   32   15   31 1     
   33   15   32 1     
   34   16   33 1     
   35   16   34 1     
   36   16   35 1     
   37    4   36 1     
   38   11   37 1     
   39   11   38 1     
@<TRIPOS>SUBSTRUCTURE
      1 S1             1
@<TRIPOS>SET
LONE_PAIRS      STATIC     ATOMS    <user>   **** ""
3 36 37 38
DONOR_HYDROGENS      STATIC     ATOMS    <user>   **** ""
1 27
ATOM$BLUE        STATIC     ATOMS    COLORGROUP SYSTEM
3 36 37 38
ATOM$RED        STATIC     ATOMS    COLORGROUP SYSTEM
1 27
