#       Name:                AV-unprocessed.smi:1971
#       Creating user name   scv26
#       Creation time:       Fri Mar 27 10:13:43 2020


#       File generated by GOLD software.
#

@<TRIPOS>MOLECULE
AV-unprocessed.smi:1971
    48    49     1
SMALL
NO_CHARGES


@<TRIPOS>ATOM
      1 ****        -3.4371  -3.9075  -0.5934 C.3            1 S1                 0.0000
      2 ****        -2.5917  -2.9032  -1.3899 C.3            1 S1                 0.0000
      3 ****        -2.5342  -1.5940  -0.7350 N.3            1 S1                 0.0000
      4 ****        -1.7729  -1.5617   0.5193 C.3            1 S1                 0.0000
      5 ****        -0.2565  -1.7304   0.2879 C.3            1 S1                 0.0000
      6 ****         0.2413  -0.6812  -0.6349 N.4            1 S1                 1.0000
      7 ****         1.7267  -0.6482  -0.7742 C.3            1 S1                 0.0000
      8 ****         2.2903  -1.7930  -1.6386 C.3            1 S1                 0.0000
      9 ****         2.2347   0.7299  -1.2619 C.3            1 S1                 0.0000
     10 ****         1.6201   1.8592  -0.5667 N.am           1 S1                 0.0000
     11 ****         1.8416   2.1909   0.7135 C.2            1 S1                 0.0000
     12 ****         2.5783   1.5472   1.4606 O.2            1 S1                 0.0000
     13 ****         1.1568   3.2955   1.0572 N.am           1 S1                 0.0000
     14 ****         1.1225   3.9491   2.3171 C.2            1 S1                 0.0000
     15 ****         1.7831   3.5300   3.4028 N.2            1 S1                 0.0000
     16 ****         1.5678   4.3654   4.5020 C.2            1 S1                 0.0000
     17 ****         0.7329   5.4214   4.2336 C.2            1 S1                 0.0000
     18 ****         0.1802   5.4090   2.5802 S.3            1 S1                 0.0000
     19 ****        -0.5213  -0.7022  -1.9085 C.3            1 S1                 0.0000
     20 ****        -2.0299  -0.5452  -1.6259 C.3            1 S1                 0.0000
     21 ****        -3.5684  -4.8286  -1.1614 H              1 S1                 0.0000
     22 ****        -4.4296  -3.5087  -0.3810 H              1 S1                 0.0000
     23 ****        -2.9698  -4.1784   0.3530 H              1 S1                 0.0000
     24 ****        -1.5971  -3.3088  -1.5711 H              1 S1                 0.0000
     25 ****        -3.0558  -2.7781  -2.3692 H              1 S1                 0.0000
     26 ****        -1.9573  -0.6033   1.0066 H              1 S1                 0.0000
     27 ****        -2.1381  -2.3206   1.2101 H              1 S1                 0.0000
     28 ****         0.2575  -1.6438   1.2459 H              1 S1                 0.0000
     29 ****        -0.0287  -2.7237  -0.0979 H              1 S1                 0.0000
     30 ****         2.1320  -0.7867   0.2288 H              1 S1                 0.0000
     31 ****         3.3804  -1.7899  -1.6134 H              1 S1                 0.0000
     32 ****         1.9940  -1.6991  -2.6833 H              1 S1                 0.0000
     33 ****         1.9647  -2.7703  -1.2829 H              1 S1                 0.0000
     34 ****         3.3196   0.7880  -1.1591 H              1 S1                 0.0000
     35 ****         2.0287   0.8509  -2.3255 H              1 S1                 0.0000
     36 ****         1.0075   2.4497  -1.1106 H              1 S1                 0.0000
     37 ****         0.5974   3.7234   0.3341 H              1 S1                 0.0000
     38 ****         2.0499   4.1333   5.4402 H              1 S1                 0.0000
     39 ****         0.4114   6.2030   4.9059 H              1 S1                 0.0000
     40 ****        -0.1950   0.1177  -2.5479 H              1 S1                 0.0000
     41 ****        -0.3302  -1.6236  -2.4587 H              1 S1                 0.0000
     42 ****        -2.5943  -0.5514  -2.5592 H              1 S1                 0.0000
     43 ****        -2.2159   0.4251  -1.1633 H              1 S1                 0.0000
     44 ****         0.0029   0.1922  -0.1873 H              1 S1                 0.0000
     45 ****        -3.4898  -1.4129  -0.5026 LP             1 S1                 0.0000
     46 ****         3.0468   0.7320   1.1201 LP             1 S1                 0.0000
     47 ****         2.7083   1.8395   2.4081 LP             1 S1                 0.0000
     48 ****         2.3624   2.7152   3.4249 LP             1 S1                 0.0000
@<TRIPOS>BOND
    1    1    2 1     
    2    1   21 1     
    3    1   22 1     
    4    1   23 1     
    5    2    3 1     
    6    2   24 1     
    7    2   25 1     
    8    3   20 1     
    9    3    4 1     
   10    4    5 1     
   11    4   26 1     
   12    4   27 1     
   13    5    6 1     
   14    5   28 1     
   15    5   29 1     
   16    6    7 1     
   17    6   19 1     
   18    6   44 1     
   19    7    8 1     
   20    7    9 1     
   21    7   30 1     
   22    8   31 1     
   23    8   32 1     
   24    8   33 1     
   25    9   10 1     
   26    9   34 1     
   27    9   35 1     
   28   10   11 am    
   29   10   36 1     
   30   11   12 2     
   31   11   13 am    
   32   13   14 1     
   33   13   37 1     
   34   14   18 1     
   35   14   15 2     
   36   15   16 1     
   37   16   17 2     
   38   16   38 1     
   39   17   18 1     
   40   17   39 1     
   41   19   20 1     
   42   19   40 1     
   43   19   41 1     
   44   20   42 1     
   45   20   43 1     
   46    3   45 1     
   47   12   46 1     
   48   12   47 1     
   49   15   48 1     
@<TRIPOS>SUBSTRUCTURE
      1 S1             1
@<TRIPOS>SET
LONE_PAIRS      STATIC     ATOMS    <user>   **** ""
4 45 46 47 48
DONOR_HYDROGENS      STATIC     ATOMS    <user>   **** ""
3 44 36 37
ATOM$BLUE        STATIC     ATOMS    COLORGROUP SYSTEM
4 45 46 47 48
ATOM$RED        STATIC     ATOMS    COLORGROUP SYSTEM
3 44 36 37
