AV-unprocessed.smi:2272|AV-procd|sdf|9163|dock6
  -GOLD-   2272012373D 1   1.00000     0.00000
 Structure written by MMmdl.
 41 42  0  0  0  0  0  0  0  0  1 V2000
  144.9010  136.2178  151.8389 C   0  0  0  0  0  0  0  0  0  0  0  0
  145.6422  137.4123  152.4127 C   0  0  0  0  0  0  0  0  0  0  0  0
  146.4594  138.1052  151.5145 N   0  0  0  0  0  0  0  0  0  0  0  0
  147.1309  139.1345  151.9161 C   0  0  0  0  0  0  0  0  0  0  0  0
  147.0619  139.5882  153.2430 N   0  0  0  0  0  0  0  0  0  0  0  0
  147.8864  140.7613  153.5745 C   0  0  0  0  0  0  0  0  0  0  0  0
  149.0330  140.4020  154.5474 C   0  0  1  0  0  0  0  0  0  0  0  0
  150.0629  139.7628  153.8203 O   0  0  0  0  0  0  0  0  0  0  0  0
  149.6463  141.6452  155.2080 C   0  0  0  0  0  0  0  0  0  0  0  0
  150.3894  141.2339  156.3464 O   0  0  0  0  0  0  0  0  0  0  0  0
  150.0053  141.8792  157.5516 C   0  0  0  0  0  0  0  0  0  0  0  0
  151.1320  141.9706  158.5681 C   0  0  0  0  0  0  0  0  0  0  0  0
  151.5750  143.2329  159.0169 C   0  0  0  0  0  0  0  0  0  0  0  0
  152.6222  143.3247  159.9543 C   0  0  0  0  0  0  0  0  0  0  0  0
  153.2342  142.1549  160.4435 C   0  0  0  0  0  0  0  0  0  0  0  0
  152.8001  140.8934  159.9934 C   0  0  0  0  0  0  0  0  0  0  0  0
  151.7530  140.7992  159.0557 C   0  0  0  0  0  0  0  0  0  0  0  0
  151.3477  139.5795  158.6278 F   0  0  0  0  0  0  0  0  0  0  0  0
  146.2969  138.9655  154.1860 C   0  0  0  0  0  0  0  0  0  0  0  0
  146.2587  139.3612  155.3527 O   0  0  0  0  0  0  0  0  0  0  0  0
  145.5357  137.7978  153.7137 C   0  0  0  0  0  0  0  0  0  0  0  0
  144.6647  137.0798  154.7373 C   0  0  0  0  0  0  0  0  0  0  0  0
  143.8237  136.3523  151.9383 H   0  0  0  0  0  0  0  0  0  0  0  0
  145.1889  135.3045  152.3602 H   0  0  0  0  0  0  0  0  0  0  0  0
  145.1239  136.0823  150.7797 H   0  0  0  0  0  0  0  0  0  0  0  0
  147.7886  139.7052  151.2583 H   0  0  0  0  0  0  0  0  0  0  0  0
  148.2749  141.2583  152.6829 H   0  0  0  0  0  0  0  0  0  0  0  0
  147.2400  141.5142  154.0292 H   0  0  0  0  0  0  0  0  0  0  0  0
  148.6895  139.7231  155.3292 H   0  0  0  0  0  0  0  0  0  0  0  0
  149.7847  139.6730  152.9216 H   0  0  0  0  0  0  0  0  0  0  0  0
  150.3173  142.1511  154.5115 H   0  0  0  0  0  0  0  0  0  0  0  0
  148.8621  142.3531  155.4804 H   0  0  0  0  0  0  0  0  0  0  0  0
  149.6941  142.8943  157.3042 H   0  0  0  0  0  0  0  0  0  0  0  0
  149.1320  141.3851  157.9806 H   0  0  0  0  0  0  0  0  0  0  0  0
  151.1119  144.1357  158.6465 H   0  0  0  0  0  0  0  0  0  0  0  0
  152.9561  144.2928  160.2973 H   0  0  0  0  0  0  0  0  0  0  0  0
  154.0375  142.2253  161.1620 H   0  0  0  0  0  0  0  0  0  0  0  0
  153.2717  139.9963  160.3667 H   0  0  0  0  0  0  0  0  0  0  0  0
  145.2809  136.6947  155.5503 H   0  0  0  0  0  0  0  0  0  0  0  0
  144.1118  136.2407  154.3186 H   0  0  0  0  0  0  0  0  0  0  0  0
  143.9364  137.7711  155.1626 H   0  0  0  0  0  0  0  0  0  0  0  0
  1  2  1  0  0  0  0
  1 23  1  0  0  0  0
  1 24  1  0  0  0  0
  1 25  1  0  0  0  0
  2 21  2  0  0  0  0
  2  3  1  0  0  0  0
  3  4  2  0  0  0  0
  4  5  1  0  0  0  0
  4 26  1  0  0  0  0
  5  6  1  0  0  0  0
  5 19  1  0  0  0  0
  6  7  1  0  0  0  0
  6 27  1  0  0  0  0
  6 28  1  0  0  0  0
  7  8  1  0  0  0  0
  7  9  1  0  0  0  0
  7 29  1  0  0  0  0
  8 30  1  0  0  0  0
  9 10  1  0  0  0  0
  9 31  1  0  0  0  0
  9 32  1  0  0  0  0
 10 11  1  0  0  0  0
 11 12  1  0  0  0  0
 11 33  1  0  0  0  0
 11 34  1  0  0  0  0
 12 17  1  0  0  0  0
 12 13  2  0  0  0  0
 13 14  1  0  0  0  0
 13 35  1  0  0  0  0
 14 15  2  0  0  0  0
 14 36  1  0  0  0  0
 15 16  1  0  0  0  0
 15 37  1  0  0  0  0
 16 17  2  0  0  0  0
 16 38  1  0  0  0  0
 17 18  1  0  0  0  0
 19 20  2  0  0  0  0
 19 21  1  0  0  0  0
 21 22  1  0  0  0  0
 22 39  1  0  0  0  0
 22 40  1  0  0  0  0
 22 41  1  0  0  0  0
M  END
> <s_m_source_file>
AV-unprocessed.smi

> <i_m_source_file_index>
2272

> <i_lp_mmshare_version>
43012

> <i_f3d_flags>
0

> <s_epik_input>
W0NIM11jMW5bY0hdbihjKD1PKWMxW0NIM10pW0NIMl1bQ0BIXShbT0hdKVtDSDJdT1tDSDJdYzJbY0hdW2NIXVtjSF1bY0hdYzJG

> <s_epik_cmdline>
J2VwaWtfcHl0aG9uJywgJy1waCcsICc3LjAnLCAnLXRuJywgJzgnLCAnLW1hJywgJzIwMCcsICctbWV0YWxfYmluZGluZycsICctaW1hZScsICc8aW5maWxlLm1hZT4nLCAnLW9tYWUnLCAnPG91dGZpbGUubWFlPic=

> <r_lp_tautomer_probability>
1

> <r_epik_Ionization_Penalty>
5.35985e-05

> <r_epik_Ionization_Penalty_Charging>
1.17753e-07

> <r_epik_Ionization_Penalty_Neutral>
5.34808e-05

> <r_epik_State_Penalty>
-0

> <r_epik_Charging_Adjusted_Penalty>
1.17753e-07

> <i_epik_Tot_Q>
0

> <i_epik_Tot_abs_Q>
0

> <r_epik_Metal_State_Penalty>
-0

> <b_epik_Metal_Only>
0

> <s_lp_Force_Field>
OPLS_2005

> <r_lp_Energy>
21.4702

> <b_lp_Chiralities_Consistent>
1

> <s_lp_Variant>
AV-unprocessed.smi:2272-2

> <Gold.Version>
5.8.1

> <Gold.Id.Protein>
6NUR|6NUR_protein|mol2

> <Gold.PLP.Fitness>
47.2210

> <Gold.PLP.PLP>
-40.1661

> <Gold.PLP.part.hbond>
-2.0000

> <Gold.PLP.part.metal>
0.0000

> <Gold.PLP.part.buried>
-3.7612

> <Gold.PLP.part.nonpolar>
-35.6869

> <Gold.PLP.part.repulsive>
0.6618

> <Gold.PLP.ligand.clash>
0.0000

> <Gold.PLP.ligand.torsion>
0.8598

> <Gold.PLP.Chemscore.Hbond>
1.8800

> <Gold.PLP.Chemscore.CHOScore>
1.0000

> <Gold.PLP.Chemscore.Metal>
0.0000

> <Gold.Chemscore.Hbonds>
donor molecule, donor type, donor heavy atom, donor atom, acceptor molecule, acceptor atom, score
      L1  H     8    30       P1  7957  1.00
      P1  H  7954  7966       L1     3  0.04
      P1  H  7989  7998       L1     8  0.72
      L1  C     4    26       P1  7957  0.43

> <Gold.PLP.Chemscore.Internal.Correction>
0.1346

> <Gold.Rescore>
     Score         DG    S(hbond)    S(metal)    S(lipo)     H(rot)  DE(clash)    DE(int)     intcor
     14.05     -15.46       1.37        0.00     105.04       2.69       0.34       1.07       ----

> <Gold.Chemscore.Fitness>
14.0466

> <Gold.Chemscore.DG>
-15.4594

> <Gold.Chemscore.ZeroCoef>
-5.4800

> <Gold.Chemscore.Hbond>
1.3668

> <Gold.Chemscore.Metal>
0.0000

> <Gold.Chemscore.Lipo>
105.0414

> <Gold.Chemscore.Internal_Hbond>
0.0000

> <Gold.Chemscore.DEClash>
0.3418

> <Gold.Chemscore.DEInternal>
1.0710

> <Gold.Chemscore.Rot>
2.6857

> <Gold.Chemscore.Internal.Correction>
   9.000000E+99

> <Gold.Chemscore.Hbonds>
donor molecule, donor type, donor heavy atom, donor atom, acceptor molecule, acceptor atom, score
      L1  H     8    30       P1  7957  0.99
      P1  H  7989  7998       L1     8  0.09

> <Gold.Chemscore.Hbond.Weighted>
-4.5650

> <Gold.Chemscore.Metal.Weighted>
-0.0000

> <Gold.Chemscore.Lipo.Weighted>
-12.2898

> <Gold.Chemscore.Internal_Hbond.Weighted>
0.0000

> <Gold.Chemscore.DEClash.Weighted>
0.3418

> <Gold.Chemscore.DEInternal.Weighted>
1.0710

> <Gold.Chemscore.Rot.Weighted>
6.8755

> <Gold.Chemscore.Internal.Correction.Weighted>
   9.000000E+99

> <Gold.Protein.RotatedTorsions>
[ 6907 6896 6895 6894 ] final -130.79 input  -60.11 | X-H torsion
[ 7974 7965 7964 7962 ] final   48.82 input  175.53 | X-H torsion
[ 8008 7997 7996 7995 ] final  -47.49 input   59.86 | X-H torsion
[ 10167 10162 10161 10158 ] final  132.24 input  -65.29 | X-H torsion
[ 10718 10713 10712 10709 ] final -174.04 input   66.30 | X-H torsion
[ 10763 10752 10751 10750 ] final  -13.68 input  -60.55 | X-H torsion
[ 11005 11000 10999 10996 ] final  159.79 input  -57.11 | X-H torsion

> <Gold.Protein.ActiveResidues>
 VAL166  LYS551  ARG553  GLY616  TRP617  ASP618  TYR619  PRO620  LYS621  CYS622 
 ASP623  PHE694  ASN695  SER759  ASP760  ASP761  ALA762  ILE779  LEU786  VAL792 
 PHE793  MET794  SER795  GLU796  ALA797  LYS798  CYS799  TRP800  GLU811  SER814 

> <Gold.Protein.RotatedAtoms>
  150.9437  133.6627  159.2785 H   0  0  0  0  0  0  0  0  0  0  0  0  # atno 6907 bound_to 6896
  151.4008  135.0969  159.9565 H   0  0  0  0  0  0  0  0  0  0  0  0  # atno 6908 bound_to 6896
  152.5080  133.8931  159.7458 H   0  0  0  0  0  0  0  0  0  0  0  0  # atno 6909 bound_to 6896
  146.0168  139.4605  142.9922 H   0  0  0  0  0  0  0  0  0  0  0  0  # atno 7974 bound_to 7965
  154.4017  140.1345  156.4184 H   0  0  0  0  0  0  0  0  0  0  0  0  # atno 8008 bound_to 7997
  155.7666  140.3485  155.5205 H   0  0  0  0  0  0  0  0  0  0  0  0  # atno 8009 bound_to 7997
  155.8807  140.0987  157.1477 H   0  0  0  0  0  0  0  0  0  0  0  0  # atno 8010 bound_to 7997
  139.5348  144.6671  151.4823 H   0  0  0  0  0  0  0  0  0  0  0  0  # atno 10167 bound_to 10162
  156.7792  130.9477  151.3120 H   0  0  0  0  0  0  0  0  0  0  0  0  # atno 10718 bound_to 10713
  153.5170  135.7016  153.5751 H   0  0  0  0  0  0  0  0  0  0  0  0  # atno 10763 bound_to 10752
  153.3817  135.3918  155.1861 H   0  0  0  0  0  0  0  0  0  0  0  0  # atno 10764 bound_to 10752
  154.8698  135.3836  154.4655 H   0  0  0  0  0  0  0  0  0  0  0  0  # atno 10765 bound_to 10752
  140.1996  134.8347  157.3004 H   0  0  0  0  0  0  0  0  0  0  0  0  # atno 11005 bound_to 11000
  145.7256  141.0060  143.1379 LP  0  0  0  0  0  0  0  0  0  0  0  0  # atno 17320 bound_to 7965
  144.6974  139.8923  143.7454 LP  0  0  0  0  0  0  0  0  0  0  0  0  # atno 17321 bound_to 7965
  140.6548  143.8621  150.6824 LP  0  0  0  0  0  0  0  0  0  0  0  0  # atno 17342 bound_to 10162
  140.1998  143.3969  152.1800 LP  0  0  0  0  0  0  0  0  0  0  0  0  # atno 17343 bound_to 10162
  157.6654  130.9003  149.9922 LP  0  0  0  0  0  0  0  0  0  0  0  0  # atno 17370 bound_to 10713
  156.1229  130.3645  149.9857 LP  0  0  0  0  0  0  0  0  0  0  0  0  # atno 17371 bound_to 10713
  140.2068  134.4187  155.7633 LP  0  0  0  0  0  0  0  0  0  0  0  0  # atno 17394 bound_to 11000
  141.2227  133.7099  156.8274 LP  0  0  0  0  0  0  0  0  0  0  0  0  # atno 17395 bound_to 11000

$$$$
