AV-unprocessed.smi:625|AV-procd|sdf|3104|dock7
  -GOLD-   22720 0 23D 1   1.00000     0.00000
 Structure written by MMmdl.
 49 51  0  0  0  0  0  0  0  0  1 V2000
  145.5748  135.5889  150.7970 C   0  0  0  0  0  0  0  0  0  0  0  0
  146.4379  134.7274  151.5908 N   0  0  0  0  0  0  0  0  0  0  0  0
  146.2218  133.4172  151.8008 C   0  0  0  0  0  0  0  0  0  0  0  0
  145.2487  132.8386  151.3156 O   0  0  0  0  0  0  0  0  0  0  0  0
  147.2300  132.7665  152.6429 C   0  0  0  0  0  0  0  0  0  0  0  0
  147.1299  131.3413  152.8921 C   0  0  0  0  0  0  0  0  0  0  0  0
  148.0257  130.7133  153.6785 C   0  0  0  0  0  0  0  0  0  0  0  0
  149.1333  131.4341  154.3111 C   0  0  0  0  0  0  0  0  0  0  0  0
  149.9422  130.8717  155.0490 O   0  0  0  0  0  0  0  0  0  0  0  0
  149.2044  132.7728  154.0373 N   0  0  0  0  0  0  0  0  0  0  0  0
  150.2683  133.6082  154.6251 C   0  0  0  0  0  0  0  0  0  0  0  0
  149.7665  134.8585  155.3684 C   0  0  0  0  0  0  0  0  0  0  0  0
  149.8311  134.8916  156.5965 O   0  0  0  0  0  0  0  0  0  0  0  0
  149.2689  135.8693  154.6361 N   0  0  0  0  0  0  0  0  0  0  0  0
  148.6942  137.1081  155.1527 C   0  0  1  0  0  0  0  0  0  0  0  0
  147.5934  136.7634  156.1721 C   0  0  0  0  0  0  0  0  0  0  0  0
  149.8271  137.9733  155.7582 C   0  0  1  0  0  0  0  0  0  0  0  0
  151.0289  138.1845  154.8014 C   0  0  0  0  0  0  0  0  0  0  0  0
  151.1959  139.7135  154.7729 C   0  0  2  0  0  0  0  0  0  0  0  0
  151.7110  140.2032  156.1384 C   0  0  0  0  0  0  0  0  0  0  0  0
  150.4771  140.0350  157.0442 C   0  0  0  0  0  0  0  0  0  0  0  0
  149.4299  139.4352  156.0860 C   0  0  1  0  0  0  0  0  0  0  0  0
  149.7462  140.1780  154.7917 C   0  0  0  0  0  0  0  0  0  0  0  0
  148.2600  133.4246  153.2193 C   0  0  0  0  0  0  0  0  0  0  0  0
  145.9824  136.5993  150.7690 H   0  0  0  0  0  0  0  0  0  0  0  0
  144.5739  135.6369  151.2273 H   0  0  0  0  0  0  0  0  0  0  0  0
  145.4969  135.2242  149.7723 H   0  0  0  0  0  0  0  0  0  0  0  0
  147.2518  135.1518  152.0113 H   0  0  0  0  0  0  0  0  0  0  0  0
  146.3321  130.7634  152.4478 H   0  0  0  0  0  0  0  0  0  0  0  0
  147.9264  129.6512  153.8478 H   0  0  0  0  0  0  0  0  0  0  0  0
  150.8775  133.0183  155.3123 H   0  0  0  0  0  0  0  0  0  0  0  0
  150.9621  133.9341  153.8489 H   0  0  0  0  0  0  0  0  0  0  0  0
  149.2578  135.7560  153.6328 H   0  0  0  0  0  0  0  0  0  0  0  0
  148.2411  137.6583  154.3262 H   0  0  0  0  0  0  0  0  0  0  0  0
  147.0825  137.6544  156.5342 H   0  0  0  0  0  0  0  0  0  0  0  0
  148.0028  136.2393  157.0364 H   0  0  0  0  0  0  0  0  0  0  0  0
  146.8325  136.1218  155.7266 H   0  0  0  0  0  0  0  0  0  0  0  0
  150.1740  137.4794  156.6676 H   0  0  0  0  0  0  0  0  0  0  0  0
  151.9287  137.6734  155.1457 H   0  0  0  0  0  0  0  0  0  0  0  0
  150.8118  137.8223  153.7953 H   0  0  0  0  0  0  0  0  0  0  0  0
  151.7844  140.0728  153.9281 H   0  0  0  0  0  0  0  0  0  0  0  0
  152.5674  139.6251  156.4874 H   0  0  0  0  0  0  0  0  0  0  0  0
  152.0101  141.2510  156.0894 H   0  0  0  0  0  0  0  0  0  0  0  0
  150.6743  139.3948  157.9049 H   0  0  0  0  0  0  0  0  0  0  0  0
  150.1453  141.0036  157.4207 H   0  0  0  0  0  0  0  0  0  0  0  0
  148.4098  139.5629  156.4459 H   0  0  0  0  0  0  0  0  0  0  0  0
  149.6405  141.2611  154.8767 H   0  0  0  0  0  0  0  0  0  0  0  0
  149.1680  139.8299  153.9345 H   0  0  0  0  0  0  0  0  0  0  0  0
  148.4355  134.4859  153.1156 H   0  0  0  0  0  0  0  0  0  0  0  0
  1  2  1  0  0  0  0
  1 25  1  0  0  0  0
  1 26  1  0  0  0  0
  1 27  1  0  0  0  0
  2  3  1  0  0  0  0
  2 28  1  0  0  0  0
  3  4  2  0  0  0  0
  3  5  1  0  0  0  0
  5 24  2  0  0  0  0
  5  6  1  0  0  0  0
  6  7  2  0  0  0  0
  6 29  1  0  0  0  0
  7  8  1  0  0  0  0
  7 30  1  0  0  0  0
  8  9  2  0  0  0  0
  8 10  1  0  0  0  0
 10 11  1  0  0  0  0
 10 24  1  0  0  0  0
 11 12  1  0  0  0  0
 11 31  1  0  0  0  0
 11 32  1  0  0  0  0
 12 13  2  0  0  0  0
 12 14  1  0  0  0  0
 14 15  1  0  0  0  0
 14 33  1  0  0  0  0
 15 16  1  0  0  0  0
 15 17  1  0  0  0  0
 15 34  1  0  0  0  0
 16 35  1  0  0  0  0
 16 36  1  0  0  0  0
 16 37  1  0  0  0  0
 17 22  1  0  0  0  0
 17 18  1  0  0  0  0
 17 38  1  0  0  0  0
 18 19  1  0  0  0  0
 18 39  1  0  0  0  0
 18 40  1  0  0  0  0
 19 23  1  0  0  0  0
 19 20  1  0  0  0  0
 19 41  1  0  0  0  0
 20 21  1  0  0  0  0
 20 42  1  0  0  0  0
 20 43  1  0  0  0  0
 21 22  1  0  0  0  0
 21 44  1  0  0  0  0
 21 45  1  0  0  0  0
 22 23  1  0  0  0  0
 22 46  1  0  0  0  0
 23 47  1  0  0  0  0
 23 48  1  0  0  0  0
 24 49  1  0  0  0  0
M  END
> <s_m_source_file>
AV-unprocessed.smi

> <i_m_source_file_index>
625

> <i_lp_mmshare_version>
43012

> <i_f3d_flags>
0

> <s_epik_input>
W0NIM11bTkhdQyg9TyljMVtjSF1bY0hdYyg9TyluKFtjSF0xKVtDSDJdQyg9TylbTkhdW0NASF0oW0NIM10pW0NASF0oW0NIMl1bQ0BIXTIzKVtDQEhdKFtDSDJdMylbQ0gyXVtDSDJdMg==

> <s_epik_cmdline>
J2VwaWtfcHl0aG9uJywgJy1waCcsICc3LjAnLCAnLXRuJywgJzgnLCAnLW1hJywgJzIwMCcsICctbWV0YWxfYmluZGluZycsICctaW1hZScsICc8aW5maWxlLm1hZT4nLCAnLW9tYWUnLCAnPG91dGZpbGUubWFlPic=

> <r_lp_tautomer_probability>
1

> <r_epik_Ionization_Penalty>
3.7129e-07

> <r_epik_Ionization_Penalty_Charging>
5.04114e-08

> <r_epik_Ionization_Penalty_Neutral>
3.20879e-07

> <r_epik_State_Penalty>
-0

> <r_epik_Charging_Adjusted_Penalty>
5.04114e-08

> <i_epik_Tot_Q>
0

> <i_epik_Tot_abs_Q>
0

> <r_epik_Metal_State_Penalty>
-0

> <b_epik_Metal_Only>
0

> <s_lp_Force_Field>
OPLS_2005

> <r_lp_Energy>
63.0032

> <b_lp_Chiralities_Consistent>
1

> <s_lp_Variant>
AV-unprocessed.smi:625-4

> <Gold.Version>
5.8.1

> <Gold.Id.Protein>
6NUR|6NUR_protein|mol2

> <Gold.PLP.Fitness>
44.2878

> <Gold.PLP.PLP>
-35.9576

> <Gold.PLP.part.hbond>
-2.0000

> <Gold.PLP.part.metal>
0.0000

> <Gold.PLP.part.buried>
-1.7122

> <Gold.PLP.part.nonpolar>
-31.4361

> <Gold.PLP.part.repulsive>
0.1774

> <Gold.PLP.ligand.clash>
0.0000

> <Gold.PLP.ligand.torsion>
0.3512

> <Gold.PLP.Chemscore.Hbond>
1.9920

> <Gold.PLP.Chemscore.CHOScore>
1.0000

> <Gold.PLP.Chemscore.Metal>
0.0000

> <Gold.Chemscore.Hbonds>
donor molecule, donor type, donor heavy atom, donor atom, acceptor molecule, acceptor atom, score
      L1  H     2    28       P1  7948  0.99
      L1  H    14    33       P1  7948  1.00
      L1  C    24    49       P1  7948  1.00

> <Gold.PLP.Chemscore.Internal.Correction>
0.0565

> <Gold.Rescore>
     Score         DG    S(hbond)    S(metal)    S(lipo)     H(rot)  DE(clash)    DE(int)     intcor
     12.22     -16.41       1.83        0.00      77.67       1.67       1.76       2.43       ----

> <Gold.Chemscore.Fitness>
12.2165

> <Gold.Chemscore.DG>
-16.4061

> <Gold.Chemscore.ZeroCoef>
-5.4800

> <Gold.Chemscore.Hbond>
1.8313

> <Gold.Chemscore.Metal>
0.0000

> <Gold.Chemscore.Lipo>
77.6651

> <Gold.Chemscore.Internal_Hbond>
0.0000

> <Gold.Chemscore.DEClash>
1.7568

> <Gold.Chemscore.DEInternal>
2.4328

> <Gold.Chemscore.Rot>
1.6709

> <Gold.Chemscore.Internal.Correction>
   9.000000E+99

> <Gold.Chemscore.Hbonds>
donor molecule, donor type, donor heavy atom, donor atom, acceptor molecule, acceptor atom, score
      L1  H     2    28       P1  7948  0.90
      L1  H    14    33       P1  7948  0.65

> <Gold.Chemscore.Hbond.Weighted>
-6.1167

> <Gold.Chemscore.Metal.Weighted>
-0.0000

> <Gold.Chemscore.Lipo.Weighted>
-9.0868

> <Gold.Chemscore.Internal_Hbond.Weighted>
0.0000

> <Gold.Chemscore.DEClash.Weighted>
1.7568

> <Gold.Chemscore.DEInternal.Weighted>
2.4328

> <Gold.Chemscore.Rot.Weighted>
4.2774

> <Gold.Chemscore.Internal.Correction.Weighted>
   9.000000E+99

> <Gold.Protein.RotatedTorsions>
[ 6907 6896 6895 6894 ] final   48.06 input  -60.11 | X-H torsion
[ 7974 7965 7964 7962 ] final   31.71 input  175.53 | X-H torsion
[ 8008 7997 7996 7995 ] final   37.55 input   59.86 | X-H torsion
[ 10167 10162 10161 10158 ] final   41.54 input  -65.29 | X-H torsion
[ 10718 10713 10712 10709 ] final  162.76 input   66.30 | X-H torsion
[ 10763 10752 10751 10750 ] final  168.90 input  -60.55 | X-H torsion
[ 11005 11000 10999 10996 ] final    6.68 input  -57.11 | X-H torsion

> <Gold.Protein.ActiveResidues>
 VAL166  LYS551  ARG553  GLY616  TRP617  ASP618  TYR619  PRO620  LYS621  CYS622 
 ASP623  PHE694  ASN695  SER759  ASP760  ASP761  ALA762  ILE779  LEU786  VAL792 
 PHE793  MET794  SER795  GLU796  ALA797  LYS798  CYS799  TRP800  GLU811  SER814 

> <Gold.Protein.RotatedAtoms>
  152.2752  134.7889  160.0406 H   0  0  0  0  0  0  0  0  0  0  0  0  # atno 6907 bound_to 6896
  151.8487  133.3431  159.3674 H   0  0  0  0  0  0  0  0  0  0  0  0  # atno 6908 bound_to 6896
  150.7167  134.5248  159.5715 H   0  0  0  0  0  0  0  0  0  0  0  0  # atno 6909 bound_to 6896
  146.1533  139.6621  142.9084 H   0  0  0  0  0  0  0  0  0  0  0  0  # atno 7974 bound_to 7965
  155.2056  140.3319  155.4336 H   0  0  0  0  0  0  0  0  0  0  0  0  # atno 8008 bound_to 7997
  156.2390  140.1886  156.7090 H   0  0  0  0  0  0  0  0  0  0  0  0  # atno 8009 bound_to 7997
  154.6112  140.0609  156.9481 H   0  0  0  0  0  0  0  0  0  0  0  0  # atno 8010 bound_to 7997
  140.3633  144.2200  150.6137 H   0  0  0  0  0  0  0  0  0  0  0  0  # atno 10167 bound_to 10162
  157.1180  131.0485  151.2428 H   0  0  0  0  0  0  0  0  0  0  0  0  # atno 10718 bound_to 10713
  154.3753  135.2753  155.2243 H   0  0  0  0  0  0  0  0  0  0  0  0  # atno 10763 bound_to 10752
  154.4373  135.5963  153.6110 H   0  0  0  0  0  0  0  0  0  0  0  0  # atno 10764 bound_to 10752
  152.9836  135.6010  154.3989 H   0  0  0  0  0  0  0  0  0  0  0  0  # atno 10765 bound_to 10752
  140.5567  134.0231  155.7956 H   0  0  0  0  0  0  0  0  0  0  0  0  # atno 11005 bound_to 11000
  145.4771  141.0437  143.2666 LP  0  0  0  0  0  0  0  0  0  0  0  0  # atno 17320 bound_to 7965
  144.7931  139.6288  143.7104 LP  0  0  0  0  0  0  0  0  0  0  0  0  # atno 17321 bound_to 7965
  140.5106  143.2292  151.8541 LP  0  0  0  0  0  0  0  0  0  0  0  0  # atno 17342 bound_to 10162
  139.4811  144.4954  151.9130 LP  0  0  0  0  0  0  0  0  0  0  0  0  # atno 17343 bound_to 10162
  157.4501  130.7593  149.7144 LP  0  0  0  0  0  0  0  0  0  0  0  0  # atno 17370 bound_to 10713
  155.9835  130.4000  150.3361 LP  0  0  0  0  0  0  0  0  0  0  0  0  # atno 17371 bound_to 10713
  141.1139  133.9572  157.2859 LP  0  0  0  0  0  0  0  0  0  0  0  0  # atno 17394 bound_to 11000
  139.9428  135.0188  156.8760 LP  0  0  0  0  0  0  0  0  0  0  0  0  # atno 17395 bound_to 11000

$$$$
