AV-unprocessed.smi:2114|AV-procd|sdf|8619|dock8
  -GOLD-   2272011363D 1   1.00000     0.00000
 Structure written by MMmdl.
 47 48  0  0  0  0  0  0  0  0  1 V2000
  157.4890  141.9471  169.1656 C   0  0  0  0  0  0  0  0  0  0  0  0
  156.9309  143.2326  168.9602 O   0  0  0  0  0  0  0  0  0  0  0  0
  156.0734  143.2814  167.8311 C   0  0  0  0  0  0  0  0  0  0  0  0
  156.9017  143.1436  166.5418 C   0  0  2  0  0  0  0  0  0  0  0  0
  157.9268  144.2781  166.4083 C   0  0  0  0  0  0  0  0  0  0  0  0
  156.0267  143.1554  165.3720 N   0  0  0  0  0  0  0  0  0  0  0  0
  155.7815  142.1095  164.5650 C   0  0  0  0  0  0  0  0  0  0  0  0
  156.3030  141.0030  164.7028 O   0  0  0  0  0  0  0  0  0  0  0  0
  154.8585  142.3854  163.4136 C   0  0  0  0  0  0  0  0  0  0  0  0
  154.5343  141.3902  162.4662 C   0  0  0  0  0  0  0  0  0  0  0  0
  153.6804  141.7154  161.3951 C   0  0  0  0  0  0  0  0  0  0  0  0
  153.1744  143.0322  161.2903 C   0  0  0  0  0  0  0  0  0  0  0  0
  152.3144  143.3767  160.2259 N   0  0  0  0  0  0  0  0  0  0  0  0
  152.5778  144.6679  159.5972 C   0  0  0  0  0  0  0  0  0  0  0  0
  151.4037  145.0922  158.6931 C   0  0  2  0  0  0  0  0  0  0  0  0
  150.1782  145.5939  159.4776 C   0  0  0  0  0  0  0  0  0  0  0  0
  151.0714  144.0379  157.7865 O   0  0  0  0  0  0  0  0  0  0  0  0
  150.7616  142.7907  158.4072 C   0  0  1  0  0  0  0  0  0  0  0  0
  150.4353  141.7793  157.3033 C   0  0  0  0  0  0  0  0  0  0  0  0
  151.9515  142.3345  159.2698 C   0  0  0  0  0  0  0  0  0  0  0  0
  153.5013  143.9912  162.1906 N   0  0  0  0  0  0  0  0  0  0  0  0
  154.3203  143.6749  163.2161 C   0  0  0  0  0  0  0  0  0  0  0  0
  158.1374  141.9659  170.0415 H   0  0  0  0  0  0  0  0  0  0  0  0
  158.0891  141.6365  168.3093 H   0  0  0  0  0  0  0  0  0  0  0  0
  156.7112  141.2022  169.3377 H   0  0  0  0  0  0  0  0  0  0  0  0
  155.3230  142.4908  167.8877 H   0  0  0  0  0  0  0  0  0  0  0  0
  155.5416  144.2342  167.8287 H   0  0  0  0  0  0  0  0  0  0  0  0
  157.4574  142.2049  166.5816 H   0  0  0  0  0  0  0  0  0  0  0  0
  158.6163  144.2852  167.2529 H   0  0  0  0  0  0  0  0  0  0  0  0
  157.4393  145.2530  166.3692 H   0  0  0  0  0  0  0  0  0  0  0  0
  158.5212  144.1655  165.5010 H   0  0  0  0  0  0  0  0  0  0  0  0
  155.5673  144.0290  165.1607 H   0  0  0  0  0  0  0  0  0  0  0  0
  154.9335  140.3895  162.5450 H   0  0  0  0  0  0  0  0  0  0  0  0
  153.4381  140.9616  160.6610 H   0  0  0  0  0  0  0  0  0  0  0  0
  152.7706  145.4495  160.3309 H   0  0  0  0  0  0  0  0  0  0  0  0
  153.4843  144.5743  158.9977 H   0  0  0  0  0  0  0  0  0  0  0  0
  151.7450  145.9246  158.0773 H   0  0  0  0  0  0  0  0  0  0  0  0
  150.4299  146.4810  160.0589 H   0  0  0  0  0  0  0  0  0  0  0  0
  149.7996  144.8480  160.1762 H   0  0  0  0  0  0  0  0  0  0  0  0
  149.3666  145.8626  158.8012 H   0  0  0  0  0  0  0  0  0  0  0  0
  149.8767  142.9019  159.0341 H   0  0  0  0  0  0  0  0  0  0  0  0
  150.1788  140.8070  157.7246 H   0  0  0  0  0  0  0  0  0  0  0  0
  151.2834  141.6405  156.6323 H   0  0  0  0  0  0  0  0  0  0  0  0
  149.5883  142.1158  156.7047 H   0  0  0  0  0  0  0  0  0  0  0  0
  152.8129  142.1114  158.6385 H   0  0  0  0  0  0  0  0  0  0  0  0
  151.6847  141.4164  159.7952 H   0  0  0  0  0  0  0  0  0  0  0  0
  154.5445  144.4806  163.8999 H   0  0  0  0  0  0  0  0  0  0  0  0
  1  2  1  0  0  0  0
  1 23  1  0  0  0  0
  1 24  1  0  0  0  0
  1 25  1  0  0  0  0
  2  3  1  0  0  0  0
  3  4  1  0  0  0  0
  3 26  1  0  0  0  0
  3 27  1  0  0  0  0
  4  5  1  0  0  0  0
  4  6  1  0  0  0  0
  4 28  1  0  0  0  0
  5 29  1  0  0  0  0
  5 30  1  0  0  0  0
  5 31  1  0  0  0  0
  6  7  1  0  0  0  0
  6 32  1  0  0  0  0
  7  8  2  0  0  0  0
  7  9  1  0  0  0  0
  9 22  1  0  0  0  0
  9 10  2  0  0  0  0
 10 11  1  0  0  0  0
 10 33  1  0  0  0  0
 11 12  2  0  0  0  0
 11 34  1  0  0  0  0
 12 13  1  0  0  0  0
 12 21  1  0  0  0  0
 13 20  1  0  0  0  0
 13 14  1  0  0  0  0
 14 15  1  0  0  0  0
 14 35  1  0  0  0  0
 14 36  1  0  0  0  0
 15 16  1  0  0  0  0
 15 17  1  0  0  0  0
 15 37  1  0  0  0  0
 16 38  1  0  0  0  0
 16 39  1  0  0  0  0
 16 40  1  0  0  0  0
 17 18  1  0  0  0  0
 18 19  1  0  0  0  0
 18 20  1  0  0  0  0
 18 41  1  0  0  0  0
 19 42  1  0  0  0  0
 19 43  1  0  0  0  0
 19 44  1  0  0  0  0
 20 45  1  0  0  0  0
 20 46  1  0  0  0  0
 21 22  2  0  0  0  0
 22 47  1  0  0  0  0
M  END
> <s_m_source_file>
AV-unprocessed.smi

> <i_m_source_file_index>
2114

> <i_lp_mmshare_version>
43012

> <i_f3d_flags>
0

> <s_epik_input>
W0NIM11PW0NIMl1bQ0BIXShbQ0gzXSlbTkhdQyg9TyljMVtjSF1bY0hdYyhuW2NIXTEpTjJbQ0gyXVtDQEBIXShbQ0gzXSlPW0NAQEhdKFtDSDNdKVtDSDJdMg==

> <s_epik_cmdline>
J2VwaWtfcHl0aG9uJywgJy1waCcsICc3LjAnLCAnLXRuJywgJzgnLCAnLW1hJywgJzIwMCcsICctbWV0YWxfYmluZGluZycsICctaW1hZScsICc8aW5maWxlLm1hZT4nLCAnLW9tYWUnLCAnPG91dGZpbGUubWFlPic=

> <r_lp_tautomer_probability>
1

> <r_epik_Ionization_Penalty>
1.92915e-05

> <r_epik_Ionization_Penalty_Charging>
0

> <r_epik_Ionization_Penalty_Neutral>
1.92915e-05

> <r_epik_State_Penalty>
-0

> <r_epik_Charging_Adjusted_Penalty>
0

> <i_epik_Tot_Q>
0

> <i_epik_Tot_abs_Q>
0

> <r_epik_Metal_State_Penalty>
-0

> <b_epik_Metal_Only>
0

> <s_lp_Force_Field>
OPLS_2005

> <r_lp_Energy>
21.9464

> <b_lp_Chiralities_Consistent>
1

> <s_lp_Variant>
AV-unprocessed.smi:2114-3

> <Gold.Version>
5.8.1

> <Gold.Id.Protein>
6NUR|6NUR_protein|mol2

> <Gold.PLP.Fitness>
41.8213

> <Gold.PLP.PLP>
-42.1217

> <Gold.PLP.part.hbond>
0.0000

> <Gold.PLP.part.metal>
0.0000

> <Gold.PLP.part.buried>
-3.2992

> <Gold.PLP.part.nonpolar>
-39.1367

> <Gold.PLP.part.repulsive>
0.6313

> <Gold.PLP.ligand.clash>
0.0000

> <Gold.PLP.ligand.torsion>
0.3256

> <Gold.PLP.Chemscore.Hbond>
0.0000

> <Gold.PLP.Chemscore.CHOScore>
0.0000

> <Gold.PLP.Chemscore.Metal>
0.0000

> <Gold.PLP.Chemscore.Internal.Correction>
0.3508

> <Gold.Rescore>
     Score         DG    S(hbond)    S(metal)    S(lipo)     H(rot)  DE(clash)    DE(int)     intcor
     14.88     -15.70       0.00        0.00     120.69       1.52       0.61       0.22       ----

> <Gold.Chemscore.Fitness>
14.8778

> <Gold.Chemscore.DG>
-15.7026

> <Gold.Chemscore.ZeroCoef>
-5.4800

> <Gold.Chemscore.Hbond>
0.0000

> <Gold.Chemscore.Metal>
0.0000

> <Gold.Chemscore.Lipo>
120.6887

> <Gold.Chemscore.Internal_Hbond>
0.0000

> <Gold.Chemscore.DEClash>
0.6080

> <Gold.Chemscore.DEInternal>
0.2168

> <Gold.Chemscore.Rot>
1.5226

> <Gold.Chemscore.Internal.Correction>
   9.000000E+99

> <Gold.Chemscore.Hbond.Weighted>
-0.0000

> <Gold.Chemscore.Metal.Weighted>
-0.0000

> <Gold.Chemscore.Lipo.Weighted>
-14.1206

> <Gold.Chemscore.Internal_Hbond.Weighted>
0.0000

> <Gold.Chemscore.DEClash.Weighted>
0.6080

> <Gold.Chemscore.DEInternal.Weighted>
0.2168

> <Gold.Chemscore.Rot.Weighted>
3.8980

> <Gold.Chemscore.Internal.Correction.Weighted>
   9.000000E+99

> <Gold.Protein.RotatedTorsions>
[ 6907 6896 6895 6894 ] final -151.02 input  -60.11 | X-H torsion
[ 7974 7965 7964 7962 ] final   53.41 input  175.53 | X-H torsion
[ 8008 7997 7996 7995 ] final  139.15 input   59.86 | X-H torsion
[ 10167 10162 10161 10158 ] final   34.56 input  -65.29 | X-H torsion
[ 10718 10713 10712 10709 ] final  -42.85 input   66.30 | X-H torsion
[ 10763 10752 10751 10750 ] final   34.92 input  -60.55 | X-H torsion
[ 11005 11000 10999 10996 ] final   -0.86 input  -57.11 | X-H torsion

> <Gold.Protein.ActiveResidues>
 VAL166  LYS551  ARG553  GLY616  TRP617  ASP618  TYR619  PRO620  LYS621  CYS622 
 ASP623  PHE694  ASN695  SER759  ASP760  ASP761  ALA762  ILE779  LEU786  VAL792 
 PHE793  MET794  SER795  GLU796  ALA797  LYS798  CYS799  TRP800  GLU811  SER814 

> <Gold.Protein.RotatedAtoms>
  151.2070  133.4578  159.2597 H   0  0  0  0  0  0  0  0  0  0  0  0  # atno 6907 bound_to 6896
  151.1014  134.9974  159.8460 H   0  0  0  0  0  0  0  0  0  0  0  0  # atno 6908 bound_to 6896
  152.5443  134.1996  159.8759 H   0  0  0  0  0  0  0  0  0  0  0  0  # atno 6909 bound_to 6896
  145.9714  139.4153  143.0187 H   0  0  0  0  0  0  0  0  0  0  0  0  # atno 7974 bound_to 7965
  156.2992  140.2375  156.4190 H   0  0  0  0  0  0  0  0  0  0  0  0  # atno 8008 bound_to 7997
  154.8373  140.0430  157.1537 H   0  0  0  0  0  0  0  0  0  0  0  0  # atno 8009 bound_to 7997
  154.9142  140.2994  155.5254 H   0  0  0  0  0  0  0  0  0  0  0  0  # atno 8010 bound_to 7997
  140.4303  144.1334  150.6158 H   0  0  0  0  0  0  0  0  0  0  0  0  # atno 10167 bound_to 10162
  156.2552  130.4192  149.8604 H   0  0  0  0  0  0  0  0  0  0  0  0  # atno 10718 bound_to 10713
  153.0142  135.6347  154.1745 H   0  0  0  0  0  0  0  0  0  0  0  0  # atno 10763 bound_to 10752
  154.1485  135.2830  155.3143 H   0  0  0  0  0  0  0  0  0  0  0  0  # atno 10764 bound_to 10752
  154.6071  135.5568  153.7496 H   0  0  0  0  0  0  0  0  0  0  0  0  # atno 10765 bound_to 10752
  140.6410  133.9490  155.8326 H   0  0  0  0  0  0  0  0  0  0  0  0  # atno 11005 bound_to 11000
  145.7900  140.9818  143.1054 LP  0  0  0  0  0  0  0  0  0  0  0  0  # atno 17320 bound_to 7965
  144.6838  139.9671  143.7481 LP  0  0  0  0  0  0  0  0  0  0  0  0  # atno 17321 bound_to 7965
  140.4434  143.2517  151.9443 LP  0  0  0  0  0  0  0  0  0  0  0  0  # atno 17342 bound_to 10162
  139.4785  144.5632  151.8206 LP  0  0  0  0  0  0  0  0  0  0  0  0  # atno 17343 bound_to 10162
  156.6139  130.8598  151.3460 LP  0  0  0  0  0  0  0  0  0  0  0  0  # atno 17370 bound_to 10713
  157.7230  130.9584  150.1515 LP  0  0  0  0  0  0  0  0  0  0  0  0  # atno 17371 bound_to 10713
  141.0607  134.0351  157.3662 LP  0  0  0  0  0  0  0  0  0  0  0  0  # atno 17394 bound_to 11000
  139.9080  135.0184  156.7571 LP  0  0  0  0  0  0  0  0  0  0  0  0  # atno 17395 bound_to 11000

$$$$
