AV-unprocessed.smi:1548|AV-procd|sdf|6221|dock5
  -GOLD-   22720 6393D 1   1.00000     0.00000
 Structure written by MMmdl.
 45 46  0  0  0  0  0  0  0  0  1 V2000
  140.1830  136.8335  154.0710 C   0  0  0  0  0  0  0  0  0  0  0  0
  141.2135  135.8625  153.4898 C   0  0  0  0  0  0  0  0  0  0  0  0
  142.4276  136.5704  153.2582 O   0  0  0  0  0  0  0  0  0  0  0  0
  143.4301  135.9511  152.5359 C   0  0  0  0  0  0  0  0  0  0  0  0
  143.1878  134.7207  152.0179 N   0  0  0  0  0  0  0  0  0  0  0  0
  144.1644  134.1173  151.3097 C   0  0  0  0  0  0  0  0  0  0  0  0
  145.4218  134.7040  151.0763 C   0  0  0  0  0  0  0  0  0  0  0  0
  145.6763  135.9791  151.6136 C   0  0  0  0  0  0  0  0  0  0  0  0
  144.6658  136.6192  152.3711 C   0  0  0  0  0  0  0  0  0  0  0  0
  144.8155  137.9165  152.9329 N   0  0  0  0  0  0  0  0  0  0  0  0
  145.9024  138.4461  153.5186 C   0  0  0  0  0  0  0  0  0  0  0  0
  146.9608  137.8500  153.7179 O   0  0  0  0  0  0  0  0  0  0  0  0
  145.6820  139.7160  153.8875 N   0  0  0  0  0  0  0  0  0  0  0  0
  146.6399  140.5838  154.5678 C   0  0  0  0  0  0  0  0  0  0  0  0
  147.8924  140.7766  153.6995 C   0  0  0  0  0  0  0  0  0  0  0  0
  148.9568  141.6157  154.4283 C   0  0  0  0  0  0  0  0  0  0  0  0
  149.2812  141.0538  155.7552 N   0  0  0  0  0  0  0  0  0  0  0  0
  150.7348  140.1224  155.9744 S   0  0  0  0  0  0  0  0  0  0  0  0
  150.1506  138.5466  156.7223 C   0  0  0  0  0  0  0  0  0  0  0  0
  151.2826  139.8230  154.6425 O   0  0  0  0  0  0  0  0  0  0  0  0
  151.5690  140.8182  156.9661 O   0  0  0  0  0  0  0  0  0  0  0  0
  148.1120  140.8113  156.6240 C   0  0  0  0  0  0  0  0  0  0  0  0
  147.0416  139.9643  155.9137 C   0  0  0  0  0  0  0  0  0  0  0  0
  139.2409  136.3248  154.2759 H   0  0  0  0  0  0  0  0  0  0  0  0
  139.9789  137.6489  153.3769 H   0  0  0  0  0  0  0  0  0  0  0  0
  140.5384  137.2685  155.0053 H   0  0  0  0  0  0  0  0  0  0  0  0
  141.3789  135.0431  154.1911 H   0  0  0  0  0  0  0  0  0  0  0  0
  140.8335  135.4403  152.5582 H   0  0  0  0  0  0  0  0  0  0  0  0
  143.9340  133.1404  150.9114 H   0  0  0  0  0  0  0  0  0  0  0  0
  146.1721  134.1903  150.4935 H   0  0  0  0  0  0  0  0  0  0  0  0
  146.6296  136.4477  151.4228 H   0  0  0  0  0  0  0  0  0  0  0  0
  143.9805  138.4837  152.9405 H   0  0  0  0  0  0  0  0  0  0  0  0
  144.7771  140.1150  153.6848 H   0  0  0  0  0  0  0  0  0  0  0  0
  146.1948  141.5614  154.7633 H   0  0  0  0  0  0  0  0  0  0  0  0
  148.3081  139.8070  153.4262 H   0  0  0  0  0  0  0  0  0  0  0  0
  147.6234  141.2662  152.7629 H   0  0  0  0  0  0  0  0  0  0  0  0
  149.8570  141.6992  153.8199 H   0  0  0  0  0  0  0  0  0  0  0  0
  148.5853  142.6316  154.5673 H   0  0  0  0  0  0  0  0  0  0  0  0
  151.0083  137.8989  156.9015 H   0  0  0  0  0  0  0  0  0  0  0  0
  149.4653  138.0445  156.0417 H   0  0  0  0  0  0  0  0  0  0  0  0
  149.6561  138.7465  157.6711 H   0  0  0  0  0  0  0  0  0  0  0  0
  148.4209  140.3313  157.5522 H   0  0  0  0  0  0  0  0  0  0  0  0
  147.6864  141.7755  156.9042 H   0  0  0  0  0  0  0  0  0  0  0  0
  146.1651  139.8748  156.5567 H   0  0  0  0  0  0  0  0  0  0  0  0
  147.4104  138.9505  155.7614 H   0  0  0  0  0  0  0  0  0  0  0  0
  1  2  1  0  0  0  0
  1 24  1  0  0  0  0
  1 25  1  0  0  0  0
  1 26  1  0  0  0  0
  2  3  1  0  0  0  0
  2 27  1  0  0  0  0
  2 28  1  0  0  0  0
  3  4  1  0  0  0  0
  4  9  1  0  0  0  0
  4  5  2  0  0  0  0
  5  6  1  0  0  0  0
  6  7  2  0  0  0  0
  6 29  1  0  0  0  0
  7  8  1  0  0  0  0
  7 30  1  0  0  0  0
  8  9  2  0  0  0  0
  8 31  1  0  0  0  0
  9 10  1  0  0  0  0
 10 11  1  0  0  0  0
 10 32  1  0  0  0  0
 11 12  2  0  0  0  0
 11 13  1  0  0  0  0
 13 14  1  0  0  0  0
 13 33  1  0  0  0  0
 14 23  1  0  0  0  0
 14 15  1  0  0  0  0
 14 34  1  0  0  0  0
 15 16  1  0  0  0  0
 15 35  1  0  0  0  0
 15 36  1  0  0  0  0
 16 17  1  0  0  0  0
 16 37  1  0  0  0  0
 16 38  1  0  0  0  0
 17 18  1  0  0  0  0
 17 22  1  0  0  0  0
 18 19  1  0  0  0  0
 18 20  2  0  0  0  0
 18 21  2  0  0  0  0
 19 39  1  0  0  0  0
 19 40  1  0  0  0  0
 19 41  1  0  0  0  0
 22 23  1  0  0  0  0
 22 42  1  0  0  0  0
 22 43  1  0  0  0  0
 23 44  1  0  0  0  0
 23 45  1  0  0  0  0
M  END
> <s_m_source_file>
AV-unprocessed.smi

> <i_m_source_file_index>
1548

> <i_lp_mmshare_version>
43012

> <i_f3d_flags>
0

> <s_epik_input>
W0NIM11bQ0gyXU9jMW5bY0hdW2NIXVtjSF1jMVtOSF1DKD1PKVtOSF1bQ0hdMltDSDJdW0NIMl1OKFMoPU8pKD1PKVtDSDNdKVtDSDJdW0NIMl0y

> <s_epik_cmdline>
J2VwaWtfcHl0aG9uJywgJy1waCcsICc3LjAnLCAnLXRuJywgJzgnLCAnLW1hJywgJzIwMCcsICctbWV0YWxfYmluZGluZycsICctaW1hZScsICc8aW5maWxlLm1hZT4nLCAnLW9tYWUnLCAnPG91dGZpbGUubWFlPic=

> <r_lp_tautomer_probability>
1

> <r_epik_Ionization_Penalty>
0.000113093

> <r_epik_Ionization_Penalty_Charging>
0

> <r_epik_Ionization_Penalty_Neutral>
0.000113093

> <r_epik_State_Penalty>
-0

> <r_epik_Charging_Adjusted_Penalty>
0

> <i_epik_Tot_Q>
0

> <i_epik_Tot_abs_Q>
0

> <r_epik_Metal_State_Penalty>
-0

> <b_epik_Metal_Only>
0

> <s_lp_Force_Field>
OPLS_2005

> <r_lp_Energy>
3.39389

> <b_lp_Chiralities_Consistent>
1

> <s_lp_Variant>
AV-unprocessed.smi:1548-1

> <Gold.Version>
5.8.1

> <Gold.Id.Protein>
6NUR|6NUR_protein|mol2

> <Gold.PLP.Fitness>
38.8729

> <Gold.PLP.PLP>
-32.0825

> <Gold.PLP.part.hbond>
-3.0011

> <Gold.PLP.part.metal>
0.0000

> <Gold.PLP.part.buried>
-5.0083

> <Gold.PLP.part.nonpolar>
-25.2274

> <Gold.PLP.part.repulsive>
0.5957

> <Gold.PLP.ligand.clash>
0.0000

> <Gold.PLP.ligand.torsion>
1.4758

> <Gold.PLP.Chemscore.Hbond>
2.5516

> <Gold.PLP.Chemscore.CHOScore>
0.0000

> <Gold.PLP.Chemscore.Metal>
0.0000

> <Gold.Chemscore.Hbonds>
donor molecule, donor type, donor heavy atom, donor atom, acceptor molecule, acceptor atom, score
      L1  H    10    32       P1 10175  0.64
      L1  H    13    33       P1 10175  0.91
      P1  H  7989  7998       L1    20  1.00

> <Gold.PLP.Chemscore.Internal.Correction>
2.0872

> <Gold.Rescore>
     Score         DG    S(hbond)    S(metal)    S(lipo)     H(rot)  DE(clash)    DE(int)     intcor
     14.26     -18.08       2.76        0.00      60.68       1.45       0.24       3.58       ----

> <Gold.Chemscore.Fitness>
14.2594

> <Gold.Chemscore.DG>
-18.0781

> <Gold.Chemscore.ZeroCoef>
-5.4800

> <Gold.Chemscore.Hbond>
2.7613

> <Gold.Chemscore.Metal>
0.0000

> <Gold.Chemscore.Lipo>
60.6830

> <Gold.Chemscore.Internal_Hbond>
0.0000

> <Gold.Chemscore.DEClash>
0.2366

> <Gold.Chemscore.DEInternal>
3.5821

> <Gold.Chemscore.Rot>
1.4549

> <Gold.Chemscore.Internal.Correction>
   9.000000E+99

> <Gold.Chemscore.Hbonds>
donor molecule, donor type, donor heavy atom, donor atom, acceptor molecule, acceptor atom, score
      L1  H    10    32       P1 10175  0.59
      L1  H    13    33       P1 10175  0.89
      P1  H  7989  7998       L1    20  0.98

> <Gold.Chemscore.Hbond.Weighted>
-9.2226

> <Gold.Chemscore.Metal.Weighted>
-0.0000

> <Gold.Chemscore.Lipo.Weighted>
-7.0999

> <Gold.Chemscore.Internal_Hbond.Weighted>
0.0000

> <Gold.Chemscore.DEClash.Weighted>
0.2366

> <Gold.Chemscore.DEInternal.Weighted>
3.5821

> <Gold.Chemscore.Rot.Weighted>
3.7244

> <Gold.Chemscore.Internal.Correction.Weighted>
   9.000000E+99

> <Gold.Protein.RotatedTorsions>
[ 6907 6896 6895 6894 ] final  -12.01 input  -60.11 | X-H torsion
[ 7974 7965 7964 7962 ] final   24.28 input  175.53 | X-H torsion
[ 8008 7997 7996 7995 ] final  -55.82 input   59.86 | X-H torsion
[ 10167 10162 10161 10158 ] final  -84.05 input  -65.29 | X-H torsion
[ 10718 10713 10712 10709 ] final -103.40 input   66.30 | X-H torsion
[ 10763 10752 10751 10750 ] final  102.43 input  -60.55 | X-H torsion
[ 11005 11000 10999 10996 ] final   17.94 input  -57.11 | X-H torsion

> <Gold.Protein.ActiveResidues>
 VAL166  LYS551  ARG553  GLY616  TRP617  ASP618  TYR619  PRO620  LYS621  CYS622 
 ASP623  PHE694  ASN695  SER759  ASP760  ASP761  ALA762  ILE779  LEU786  VAL792 
 PHE793  MET794  SER795  GLU796  ALA797  LYS798  CYS799  TRP800  GLU811  SER814 

> <Gold.Protein.RotatedAtoms>
  151.3772  135.0933  159.9484 H   0  0  0  0  0  0  0  0  0  0  0  0  # atno 6907 bound_to 6896
  152.5119  133.9107  159.7497 H   0  0  0  0  0  0  0  0  0  0  0  0  # atno 6908 bound_to 6896
  150.9533  133.6470  159.2797 H   0  0  0  0  0  0  0  0  0  0  0  0  # atno 6909 bound_to 6896
  146.1945  139.7626  142.8807 H   0  0  0  0  0  0  0  0  0  0  0  0  # atno 7974 bound_to 7965
  154.4208  140.1144  156.5539 H   0  0  0  0  0  0  0  0  0  0  0  0  # atno 8008 bound_to 7997
  155.6381  140.3496  155.4686 H   0  0  0  0  0  0  0  0  0  0  0  0  # atno 8009 bound_to 7997
  155.9893  140.1176  157.0643 H   0  0  0  0  0  0  0  0  0  0  0  0  # atno 8010 bound_to 7997
  140.4169  143.2600  151.8942 H   0  0  0  0  0  0  0  0  0  0  0  0  # atno 10167 bound_to 10162
  156.0264  130.5466  150.7248 H   0  0  0  0  0  0  0  0  0  0  0  0  # atno 10718 bound_to 10713
  153.3394  135.4011  155.1560 H   0  0  0  0  0  0  0  0  0  0  0  0  # atno 10763 bound_to 10752
  154.8640  135.3630  154.5365 H   0  0  0  0  0  0  0  0  0  0  0  0  # atno 10764 bound_to 10752
  153.5809  135.7076  153.5523 H   0  0  0  0  0  0  0  0  0  0  0  0  # atno 10765 bound_to 10752
  140.4304  134.1426  155.7680 H   0  0  0  0  0  0  0  0  0  0  0  0  # atno 11005 bound_to 11000
  145.3688  141.0339  143.3243 LP  0  0  0  0  0  0  0  0  0  0  0  0  # atno 17320 bound_to 7965
  144.8552  139.5261  143.6838 LP  0  0  0  0  0  0  0  0  0  0  0  0  # atno 17321 bound_to 7965
  139.4782  144.5478  151.8432 LP  0  0  0  0  0  0  0  0  0  0  0  0  # atno 17342 bound_to 10162
  140.4576  144.1767  150.5903 LP  0  0  0  0  0  0  0  0  0  0  0  0  # atno 17343 bound_to 10162
  157.4855  131.0906  151.0488 LP  0  0  0  0  0  0  0  0  0  0  0  0  # atno 17370 bound_to 10713
  157.0909  130.5942  149.5439 LP  0  0  0  0  0  0  0  0  0  0  0  0  # atno 17371 bound_to 10713
  141.1748  133.8536  157.1457 LP  0  0  0  0  0  0  0  0  0  0  0  0  # atno 17394 bound_to 11000
  140.0138  134.9976  157.0451 LP  0  0  0  0  0  0  0  0  0  0  0  0  # atno 17395 bound_to 11000

$$$$
