AV-unprocessed.smi:2463|AV-procd|sdf|9720|dock4
  -GOLD-   2272013363D 1   1.00000     0.00000
 Structure written by MMmdl.
 47 48  0  0  0  0  0  0  0  0  1 V2000
  151.0629  140.2792  155.7108 C   0  0  0  0  0  0  0  0  0  0  0  0
  150.1414  141.4003  156.2030 C   0  0  0  0  0  0  0  0  0  0  0  0
  149.2480  141.9582  155.0851 C   0  0  0  0  0  0  0  0  0  0  0  0
  148.3992  140.9314  154.5125 N   0  0  0  0  0  0  0  0  0  0  0  0
  148.7795  139.8006  153.8176 C   0  0  0  0  0  0  0  0  0  0  0  0
  147.6177  139.1612  153.4890 C   0  0  0  0  0  0  0  0  0  0  0  0
  147.4278  137.9501  152.7769 N   0  0  0  0  0  0  0  0  0  0  0  0
  146.2609  137.3773  152.4400 C   0  0  0  0  0  0  0  0  0  0  0  0
  145.1475  137.8218  152.7198 O   0  0  0  0  0  0  0  0  0  0  0  0
  146.4568  136.2420  151.7559 N   0  0  0  0  0  0  0  0  0  0  0  0
  145.3977  135.3641  151.2623 C   0  0  1  0  0  0  0  0  0  0  0  0
  145.9518  134.0408  150.7727 C   0  0  0  0  0  0  0  0  0  0  0  0
  144.7458  133.0991  150.8783 C   0  0  0  0  0  0  0  0  0  0  0  0
  143.9138  133.0830  149.5844 C   0  0  0  0  0  0  0  0  0  0  0  0
  145.1519  131.6754  151.2887 C   0  0  0  0  0  0  0  0  0  0  0  0
  143.9224  133.6499  151.9055 O   0  0  0  0  0  0  0  0  0  0  0  0
  144.3939  134.9218  152.3489 C   0  0  0  0  0  0  0  0  0  0  0  0
  145.0215  134.6952  153.7404 C   0  0  0  0  0  0  0  0  0  0  0  0
  143.1852  135.8657  152.4460 C   0  0  0  0  0  0  0  0  0  0  0  0
  146.5721  139.9620  154.0171 C   0  0  0  0  0  0  0  0  0  0  0  0
  147.0522  141.0315  154.6331 N   0  0  0  0  0  0  0  0  0  0  0  0
  151.6858  139.9036  156.5231 H   0  0  0  0  0  0  0  0  0  0  0  0
  151.7249  140.6320  154.9191 H   0  0  0  0  0  0  0  0  0  0  0  0
  150.4867  139.4407  155.3185 H   0  0  0  0  0  0  0  0  0  0  0  0
  149.5207  141.0229  157.0168 H   0  0  0  0  0  0  0  0  0  0  0  0
  150.7465  142.2045  156.6238 H   0  0  0  0  0  0  0  0  0  0  0  0
  148.6122  142.7564  155.4706 H   0  0  0  0  0  0  0  0  0  0  0  0
  149.8562  142.3936  154.2906 H   0  0  0  0  0  0  0  0  0  0  0  0
  149.8163  139.5652  153.6290 H   0  0  0  0  0  0  0  0  0  0  0  0
  148.2695  137.4708  152.4926 H   0  0  0  0  0  0  0  0  0  0  0  0
  147.4068  135.9541  151.5728 H   0  0  0  0  0  0  0  0  0  0  0  0
  144.8688  135.8357  150.4318 H   0  0  0  0  0  0  0  0  0  0  0  0
  146.3630  134.1007  149.7643 H   0  0  0  0  0  0  0  0  0  0  0  0
  146.7535  133.7054  151.4326 H   0  0  0  0  0  0  0  0  0  0  0  0
  144.4914  132.6871  148.7487 H   0  0  0  0  0  0  0  0  0  0  0  0
  143.5789  134.0839  149.3105 H   0  0  0  0  0  0  0  0  0  0  0  0
  143.0253  132.4610  149.6963 H   0  0  0  0  0  0  0  0  0  0  0  0
  145.8028  131.2201  150.5416 H   0  0  0  0  0  0  0  0  0  0  0  0
  144.2773  131.0344  151.4033 H   0  0  0  0  0  0  0  0  0  0  0  0
  145.6851  131.6743  152.2398 H   0  0  0  0  0  0  0  0  0  0  0  0
  145.3731  135.6291  154.1798 H   0  0  0  0  0  0  0  0  0  0  0  0
  145.8673  134.0090  153.6944 H   0  0  0  0  0  0  0  0  0  0  0  0
  144.2935  134.2671  154.4300 H   0  0  0  0  0  0  0  0  0  0  0  0
  143.4837  136.8578  152.7849 H   0  0  0  0  0  0  0  0  0  0  0  0
  142.4443  135.4848  153.1494 H   0  0  0  0  0  0  0  0  0  0  0  0
  142.6922  135.9781  151.4799 H   0  0  0  0  0  0  0  0  0  0  0  0
  145.5040  139.8072  153.9751 H   0  0  0  0  0  0  0  0  0  0  0  0
  1  2  1  0  0  0  0
  1 22  1  0  0  0  0
  1 23  1  0  0  0  0
  1 24  1  0  0  0  0
  2  3  1  0  0  0  0
  2 25  1  0  0  0  0
  2 26  1  0  0  0  0
  3  4  1  0  0  0  0
  3 27  1  0  0  0  0
  3 28  1  0  0  0  0
  4 21  1  0  0  0  0
  4  5  1  0  0  0  0
  5  6  2  0  0  0  0
  5 29  1  0  0  0  0
  6  7  1  0  0  0  0
  6 20  1  0  0  0  0
  7  8  1  0  0  0  0
  7 30  1  0  0  0  0
  8  9  2  0  0  0  0
  8 10  1  0  0  0  0
 10 11  1  0  0  0  0
 10 31  1  0  0  0  0
 11 17  1  0  0  0  0
 11 12  1  0  0  0  0
 11 32  1  0  0  0  0
 12 13  1  0  0  0  0
 12 33  1  0  0  0  0
 12 34  1  0  0  0  0
 13 14  1  0  0  0  0
 13 15  1  0  0  0  0
 13 16  1  0  0  0  0
 14 35  1  0  0  0  0
 14 36  1  0  0  0  0
 14 37  1  0  0  0  0
 15 38  1  0  0  0  0
 15 39  1  0  0  0  0
 15 40  1  0  0  0  0
 16 17  1  0  0  0  0
 17 18  1  0  0  0  0
 17 19  1  0  0  0  0
 18 41  1  0  0  0  0
 18 42  1  0  0  0  0
 18 43  1  0  0  0  0
 19 44  1  0  0  0  0
 19 45  1  0  0  0  0
 19 46  1  0  0  0  0
 20 21  2  0  0  0  0
 20 47  1  0  0  0  0
M  END
> <s_m_source_file>
AV-unprocessed.smi

> <i_m_source_file_index>
2463

> <i_lp_mmshare_version>
43012

> <i_f3d_flags>
0

> <s_epik_input>
W0NIM11bQ0gyXVtDSDJdbjFbY0hdYyhbY0hdbjEpW05IXUMoPU8pW05IXVtDQEBIXShDKE8yKShbQ0gzXSlbQ0gzXSlbQ0gyXUMyKFtDSDNdKVtDSDNd

> <s_epik_cmdline>
J2VwaWtfcHl0aG9uJywgJy1waCcsICc3LjAnLCAnLXRuJywgJzgnLCAnLW1hJywgJzIwMCcsICctbWV0YWxfYmluZGluZycsICctaW1hZScsICc8aW5maWxlLm1hZT4nLCAnLW9tYWUnLCAnPG91dGZpbGUubWFlPic=

> <r_lp_tautomer_probability>
1

> <r_epik_Ionization_Penalty>
3.69628e-05

> <r_epik_Ionization_Penalty_Charging>
0

> <r_epik_Ionization_Penalty_Neutral>
3.69628e-05

> <r_epik_State_Penalty>
-0

> <r_epik_Charging_Adjusted_Penalty>
0

> <i_epik_Tot_Q>
0

> <i_epik_Tot_abs_Q>
0

> <r_epik_Metal_State_Penalty>
-0

> <b_epik_Metal_Only>
0

> <s_lp_Force_Field>
OPLS_2005

> <r_lp_Energy>
21.7925

> <b_lp_Chiralities_Consistent>
1

> <s_lp_Variant>
AV-unprocessed.smi:2463-2

> <Gold.Version>
5.8.1

> <Gold.Id.Protein>
6NUR|6NUR_protein|mol2

> <Gold.PLP.Fitness>
40.7290

> <Gold.PLP.PLP>
-31.1314

> <Gold.PLP.part.hbond>
-1.5727

> <Gold.PLP.part.metal>
0.0000

> <Gold.PLP.part.buried>
2.7919

> <Gold.PLP.part.nonpolar>
-32.7434

> <Gold.PLP.part.repulsive>
1.1217

> <Gold.PLP.ligand.clash>
0.0000

> <Gold.PLP.ligand.torsion>
0.0938

> <Gold.PLP.Chemscore.Hbond>
1.9600

> <Gold.PLP.Chemscore.CHOScore>
1.2942

> <Gold.PLP.Chemscore.Metal>
0.0000

> <Gold.Chemscore.Hbonds>
donor molecule, donor type, donor heavy atom, donor atom, acceptor molecule, acceptor atom, score
      L1  H     7    30       P1  7948  1.00
      L1  H    10    31       P1  7948  0.96
      L1  C     5    29       P1  7957  0.27
      L1  C    20    47       P1 10175  1.00

> <Gold.PLP.Chemscore.Internal.Correction>
0.0226

> <Gold.Rescore>
     Score         DG    S(hbond)    S(metal)    S(lipo)     H(rot)  DE(clash)    DE(int)     intcor
     13.30     -18.04       1.88        0.00      81.91       1.29       1.37       3.36       ----

> <Gold.Chemscore.Fitness>
13.3035

> <Gold.Chemscore.DG>
-18.0430

> <Gold.Chemscore.ZeroCoef>
-5.4800

> <Gold.Chemscore.Hbond>
1.8778

> <Gold.Chemscore.Metal>
0.0000

> <Gold.Chemscore.Lipo>
81.9072

> <Gold.Chemscore.Internal_Hbond>
0.0000

> <Gold.Chemscore.DEClash>
1.3747

> <Gold.Chemscore.DEInternal>
3.3648

> <Gold.Chemscore.Rot>
1.2859

> <Gold.Chemscore.Internal.Correction>
   9.000000E+99

> <Gold.Chemscore.Hbonds>
donor molecule, donor type, donor heavy atom, donor atom, acceptor molecule, acceptor atom, score
      L1  H     7    30       P1  7948  0.88
      L1  H    10    31       P1  7948  0.89

> <Gold.Chemscore.Hbond.Weighted>
-6.2718

> <Gold.Chemscore.Metal.Weighted>
-0.0000

> <Gold.Chemscore.Lipo.Weighted>
-9.5831

> <Gold.Chemscore.Internal_Hbond.Weighted>
0.0000

> <Gold.Chemscore.DEClash.Weighted>
1.3747

> <Gold.Chemscore.DEInternal.Weighted>
3.3648

> <Gold.Chemscore.Rot.Weighted>
3.2919

> <Gold.Chemscore.Internal.Correction.Weighted>
   9.000000E+99

> <Gold.Protein.RotatedTorsions>
[ 6907 6896 6895 6894 ] final  176.78 input  -60.11 | X-H torsion
[ 7974 7965 7964 7962 ] final  -40.35 input  175.53 | X-H torsion
[ 8008 7997 7996 7995 ] final   -6.28 input   59.86 | X-H torsion
[ 10167 10162 10161 10158 ] final  -76.45 input  -65.29 | X-H torsion
[ 10718 10713 10712 10709 ] final   76.57 input   66.30 | X-H torsion
[ 10763 10752 10751 10750 ] final -104.72 input  -60.55 | X-H torsion
[ 11005 11000 10999 10996 ] final -171.55 input  -57.11 | X-H torsion

> <Gold.Protein.ActiveResidues>
 VAL166  LYS551  ARG553  GLY616  TRP617  ASP618  TYR619  PRO620  LYS621  CYS622 
 ASP623  PHE694  ASN695  SER759  ASP760  ASP761  ALA762  ILE779  LEU786  VAL792 
 PHE793  MET794  SER795  GLU796  ALA797  LYS798  CYS799  TRP800  GLU811  SER814 

> <Gold.Protein.RotatedAtoms>
  151.7146  133.3313  159.3299 H   0  0  0  0  0  0  0  0  0  0  0  0  # atno 6907 bound_to 6896
  150.7679  134.6501  159.6293 H   0  0  0  0  0  0  0  0  0  0  0  0  # atno 6908 bound_to 6896
  152.3690  134.6765  160.0234 H   0  0  0  0  0  0  0  0  0  0  0  0  # atno 6909 bound_to 6896
  146.0312  140.6729  142.9131 H   0  0  0  0  0  0  0  0  0  0  0  0  # atno 7974 bound_to 7965
  154.5953  140.2437  155.7865 H   0  0  0  0  0  0  0  0  0  0  0  0  # atno 8008 bound_to 7997
  156.2275  140.2978  156.0057 H   0  0  0  0  0  0  0  0  0  0  0  0  # atno 8009 bound_to 7997
  155.2304  140.0403  157.2951 H   0  0  0  0  0  0  0  0  0  0  0  0  # atno 8010 bound_to 7997
  140.4856  143.2392  151.7989 H   0  0  0  0  0  0  0  0  0  0  0  0  # atno 10167 bound_to 10162
  157.6678  130.9780  150.1516 H   0  0  0  0  0  0  0  0  0  0  0  0  # atno 10718 bound_to 10713
  154.7898  135.4776  154.0026 H   0  0  0  0  0  0  0  0  0  0  0  0  # atno 10763 bound_to 10752
  153.1613  135.6809  153.8745 H   0  0  0  0  0  0  0  0  0  0  0  0  # atno 10764 bound_to 10752
  153.8358  135.3186  155.3400 H   0  0  0  0  0  0  0  0  0  0  0  0  # atno 10765 bound_to 10752
  140.5070  134.5838  157.5006 H   0  0  0  0  0  0  0  0  0  0  0  0  # atno 11005 bound_to 11000
  144.7031  140.3739  143.7140 LP  0  0  0  0  0  0  0  0  0  0  0  0  # atno 17320 bound_to 7965
  145.7037  139.1667  143.2578 LP  0  0  0  0  0  0  0  0  0  0  0  0  # atno 17321 bound_to 7965
  139.4841  144.4716  151.9418 LP  0  0  0  0  0  0  0  0  0  0  0  0  # atno 17342 bound_to 10162
  140.3802  144.2746  150.5909 LP  0  0  0  0  0  0  0  0  0  0  0  0  # atno 17343 bound_to 10162
  156.2314  130.3682  149.8441 LP  0  0  0  0  0  0  0  0  0  0  0  0  # atno 17370 bound_to 10713
  156.6267  130.8649  151.3487 LP  0  0  0  0  0  0  0  0  0  0  0  0  # atno 17371 bound_to 10713
  139.9680  134.7340  156.0098 LP  0  0  0  0  0  0  0  0  0  0  0  0  # atno 17394 bound_to 11000
  141.1405  133.6565  156.3717 LP  0  0  0  0  0  0  0  0  0  0  0  0  # atno 17395 bound_to 11000

$$$$
