AV-unprocessed.smi:3259|AV-procd|sdf|12475|dock3
  -GOLD-   2272018373D 1   1.00000     0.00000
 Structure written by MMmdl.
 39 40  0  0  0  0  0  0  0  0  1 V2000
  151.0550  138.1830  154.5423 C   0  0  0  0  0  0  0  0  0  0  0  0
  151.1890  139.5910  154.6862 O   0  0  0  0  0  0  0  0  0  0  0  0
  150.2225  140.2388  155.5150 C   0  0  2  0  0  0  0  0  0  0  0  0
  148.8083  139.7786  155.1281 C   0  0  0  0  0  0  0  0  0  0  0  0
  150.4792  141.7521  155.6391 C   0  0  0  0  0  0  0  0  0  0  0  0
  150.1937  141.5890  157.1304 C   0  0  2  0  0  0  0  0  0  0  0  0
  151.0342  142.4447  157.9602 N   0  0  0  0  0  0  0  0  0  0  0  0
  150.5694  143.2852  158.8967 C   0  0  0  0  0  0  0  0  0  0  0  0
  149.3736  143.4139  159.1573 O   0  0  0  0  0  0  0  0  0  0  0  0
  151.6129  144.0991  159.6633 C   0  0  0  0  0  0  0  0  0  0  0  0
  152.3569  143.2641  160.5895 N   0  0  0  0  0  0  0  0  0  0  0  0
  153.1514  142.1711  160.3106 C   0  0  0  0  0  0  0  0  0  0  0  0
  153.6504  141.7170  161.4979 C   0  0  0  0  0  0  0  0  0  0  0  0
  153.0963  142.6071  162.4598 C   0  0  0  0  0  0  0  0  0  0  0  0
  152.3223  143.5310  161.9136 N   0  0  0  0  0  0  0  0  0  0  0  0
  150.6754  140.1206  157.0071 C   0  0  0  0  0  0  0  0  0  0  0  0
  149.9336  139.0999  157.8760 C   0  0  0  0  0  0  0  0  0  0  0  0
  152.1770  139.8597  157.2422 C   0  0  0  0  0  0  0  0  0  0  0  0
  151.7878  137.8288  153.8176 H   0  0  0  0  0  0  0  0  0  0  0  0
  150.0675  137.9017  154.1759 H   0  0  0  0  0  0  0  0  0  0  0  0
  151.2463  137.6575  155.4775 H   0  0  0  0  0  0  0  0  0  0  0  0
  148.0564  140.1450  155.8268 H   0  0  0  0  0  0  0  0  0  0  0  0
  148.7366  138.6908  155.1118 H   0  0  0  0  0  0  0  0  0  0  0  0
  148.5156  140.1450  154.1447 H   0  0  0  0  0  0  0  0  0  0  0  0
  151.5078  142.0433  155.4178 H   0  0  0  0  0  0  0  0  0  0  0  0
  149.7639  142.3821  155.1096 H   0  0  0  0  0  0  0  0  0  0  0  0
  149.1267  141.6729  157.3494 H   0  0  0  0  0  0  0  0  0  0  0  0
  152.0313  142.3974  157.8096 H   0  0  0  0  0  0  0  0  0  0  0  0
  152.3061  144.5726  158.9662 H   0  0  0  0  0  0  0  0  0  0  0  0
  151.1242  144.8989  160.2214 H   0  0  0  0  0  0  0  0  0  0  0  0
  153.2952  141.8135  159.3018 H   0  0  0  0  0  0  0  0  0  0  0  0
  154.3105  140.8771  161.6556 H   0  0  0  0  0  0  0  0  0  0  0  0
  153.2328  142.6089  163.5311 H   0  0  0  0  0  0  0  0  0  0  0  0
  150.2515  139.1548  158.9177 H   0  0  0  0  0  0  0  0  0  0  0  0
  150.1098  138.0806  157.5313 H   0  0  0  0  0  0  0  0  0  0  0  0
  148.8563  139.2635  157.8711 H   0  0  0  0  0  0  0  0  0  0  0  0
  152.4475  139.9790  158.2918 H   0  0  0  0  0  0  0  0  0  0  0  0
  152.8104  140.5382  156.6706 H   0  0  0  0  0  0  0  0  0  0  0  0
  152.4545  138.8456  156.9524 H   0  0  0  0  0  0  0  0  0  0  0  0
  1  2  1  0  0  0  0
  1 19  1  0  0  0  0
  1 20  1  0  0  0  0
  1 21  1  0  0  0  0
  2  3  1  0  0  0  0
  3 16  1  0  0  0  0
  3  4  1  0  0  0  0
  3  5  1  0  0  0  0
  4 22  1  0  0  0  0
  4 23  1  0  0  0  0
  4 24  1  0  0  0  0
  5  6  1  0  0  0  0
  5 25  1  0  0  0  0
  5 26  1  0  0  0  0
  6  7  1  0  0  0  0
  6 16  1  0  0  0  0
  6 27  1  0  0  0  0
  7  8  1  0  0  0  0
  7 28  1  0  0  0  0
  8  9  2  0  0  0  0
  8 10  1  0  0  0  0
 10 11  1  0  0  0  0
 10 29  1  0  0  0  0
 10 30  1  0  0  0  0
 11 15  1  0  0  0  0
 11 12  1  0  0  0  0
 12 13  2  0  0  0  0
 12 31  1  0  0  0  0
 13 14  1  0  0  0  0
 13 32  1  0  0  0  0
 14 15  2  0  0  0  0
 14 33  1  0  0  0  0
 16 17  1  0  0  0  0
 16 18  1  0  0  0  0
 17 34  1  0  0  0  0
 17 35  1  0  0  0  0
 17 36  1  0  0  0  0
 18 37  1  0  0  0  0
 18 38  1  0  0  0  0
 18 39  1  0  0  0  0
M  END
> <s_m_source_file>
AV-unprocessed.smi

> <i_m_source_file_index>
3259

> <i_lp_mmshare_version>
43012

> <i_f3d_flags>
0

> <s_epik_input>
W0NIM11PW0NAQF0xKFtDSDNdKVtDSDJdW0NASF0oQzEoW0NIM10pW0NIM10pW05IXUMoPU8pW0NIMl1uMltjSF1bY0hdW2NIXW4y

> <s_epik_cmdline>
J2VwaWtfcHl0aG9uJywgJy1waCcsICc3LjAnLCAnLXRuJywgJzgnLCAnLW1hJywgJzIwMCcsICctbWV0YWxfYmluZGluZycsICctaW1hZScsICc8aW5maWxlLm1hZT4nLCAnLW9tYWUnLCAnPG91dGZpbGUubWFlPic=

> <r_lp_tautomer_probability>
1

> <r_epik_Ionization_Penalty>
1.78399e-05

> <r_epik_Ionization_Penalty_Charging>
0

> <r_epik_Ionization_Penalty_Neutral>
1.78399e-05

> <r_epik_State_Penalty>
-0

> <r_epik_Charging_Adjusted_Penalty>
0

> <i_epik_Tot_Q>
0

> <i_epik_Tot_abs_Q>
0

> <r_epik_Metal_State_Penalty>
-0

> <b_epik_Metal_Only>
0

> <s_lp_Force_Field>
OPLS_2005

> <r_lp_Energy>
24.0627

> <b_lp_Chiralities_Consistent>
1

> <s_lp_Variant>
AV-unprocessed.smi:3259-4

> <Gold.Version>
5.8.1

> <Gold.Id.Protein>
6NUR|6NUR_protein|mol2

> <Gold.PLP.Fitness>
41.3790

> <Gold.PLP.PLP>
-38.8172

> <Gold.PLP.part.hbond>
-1.5995

> <Gold.PLP.part.metal>
0.0000

> <Gold.PLP.part.buried>
-6.3484

> <Gold.PLP.part.nonpolar>
-30.9933

> <Gold.PLP.part.repulsive>
0.4117

> <Gold.PLP.ligand.clash>
0.0000

> <Gold.PLP.ligand.torsion>
0.4081

> <Gold.PLP.Chemscore.Hbond>
1.0000

> <Gold.PLP.Chemscore.CHOScore>
0.0000

> <Gold.PLP.Chemscore.Metal>
0.0000

> <Gold.Chemscore.Hbonds>
donor molecule, donor type, donor heavy atom, donor atom, acceptor molecule, acceptor atom, score
      P1  H  7989  7998       L1     2  1.00

> <Gold.PLP.Chemscore.Internal.Correction>
0.3780

> <Gold.Rescore>
     Score         DG    S(hbond)    S(metal)    S(lipo)     H(rot)  DE(clash)    DE(int)     intcor
     15.34     -15.74       1.21        0.00      87.96       1.60       0.04       0.36       ----

> <Gold.Chemscore.Fitness>
15.3425

> <Gold.Chemscore.DG>
-15.7387

> <Gold.Chemscore.ZeroCoef>
-5.4800

> <Gold.Chemscore.Hbond>
1.2137

> <Gold.Chemscore.Metal>
0.0000

> <Gold.Chemscore.Lipo>
87.9577

> <Gold.Chemscore.Internal_Hbond>
0.0000

> <Gold.Chemscore.DEClash>
0.0411

> <Gold.Chemscore.DEInternal>
0.3551

> <Gold.Chemscore.Rot>
1.5962

> <Gold.Chemscore.Internal.Correction>
   9.000000E+99

> <Gold.Chemscore.Hbonds>
donor molecule, donor type, donor heavy atom, donor atom, acceptor molecule, acceptor atom, score
      P1  H  7989  7998       L1     2  0.45

> <Gold.Chemscore.Hbond.Weighted>
-4.0538

> <Gold.Chemscore.Metal.Weighted>
-0.0000

> <Gold.Chemscore.Lipo.Weighted>
-10.2911

> <Gold.Chemscore.Internal_Hbond.Weighted>
0.0000

> <Gold.Chemscore.DEClash.Weighted>
0.0411

> <Gold.Chemscore.DEInternal.Weighted>
0.3551

> <Gold.Chemscore.Rot.Weighted>
4.0862

> <Gold.Chemscore.Internal.Correction.Weighted>
   9.000000E+99

> <Gold.Protein.RotatedTorsions>
[ 6907 6896 6895 6894 ] final  120.06 input  -60.11 | X-H torsion
[ 7974 7965 7964 7962 ] final  -37.50 input  175.53 | X-H torsion
[ 8008 7997 7996 7995 ] final   47.38 input   59.86 | X-H torsion
[ 10167 10162 10161 10158 ] final   40.94 input  -65.29 | X-H torsion
[ 10718 10713 10712 10709 ] final   87.57 input   66.30 | X-H torsion
[ 10763 10752 10751 10750 ] final -146.09 input  -60.55 | X-H torsion
[ 11005 11000 10999 10996 ] final  164.51 input  -57.11 | X-H torsion

> <Gold.Protein.ActiveResidues>
 VAL166  LYS551  ARG553  GLY616  TRP617  ASP618  TYR619  PRO620  LYS621  CYS622 
 ASP623  PHE694  ASN695  SER759  ASP760  ASP761  ALA762  ILE779  LEU786  VAL792 
 PHE793  MET794  SER795  GLU796  ALA797  LYS798  CYS799  TRP800  GLU811  SER814 

> <Gold.Protein.RotatedAtoms>
  152.4426  133.7476  159.6675 H   0  0  0  0  0  0  0  0  0  0  0  0  # atno 6907 bound_to 6896
  150.8319  133.8066  159.3101 H   0  0  0  0  0  0  0  0  0  0  0  0  # atno 6908 bound_to 6896
  151.5717  135.1064  160.0048 H   0  0  0  0  0  0  0  0  0  0  0  0  # atno 6909 bound_to 6896
  146.0569  140.6403  142.9015 H   0  0  0  0  0  0  0  0  0  0  0  0  # atno 7974 bound_to 7965
  155.3680  140.3422  155.4242 H   0  0  0  0  0  0  0  0  0  0  0  0  # atno 8008 bound_to 7997
  156.1678  140.1621  156.8535 H   0  0  0  0  0  0  0  0  0  0  0  0  # atno 8009 bound_to 7997
  154.5202  140.0769  156.8140 H   0  0  0  0  0  0  0  0  0  0  0  0  # atno 8010 bound_to 7997
  140.3692  144.2127  150.6134 H   0  0  0  0  0  0  0  0  0  0  0  0  # atno 10167 bound_to 10162
  157.6941  131.0260  150.3143 H   0  0  0  0  0  0  0  0  0  0  0  0  # atno 10718 bound_to 10713
  154.8352  135.3395  154.6607 H   0  0  0  0  0  0  0  0  0  0  0  0  # atno 10763 bound_to 10752
  153.7223  135.6957  153.5014 H   0  0  0  0  0  0  0  0  0  0  0  0  # atno 10764 bound_to 10752
  153.2373  135.4396  155.0612 H   0  0  0  0  0  0  0  0  0  0  0  0  # atno 10765 bound_to 10752
  140.2467  134.8009  157.3462 H   0  0  0  0  0  0  0  0  0  0  0  0  # atno 11005 bound_to 11000
  144.7153  140.4187  143.7049 LP  0  0  0  0  0  0  0  0  0  0  0  0  # atno 17320 bound_to 7965
  145.6628  139.1584  143.2799 LP  0  0  0  0  0  0  0  0  0  0  0  0  # atno 17321 bound_to 7965
  140.5050  143.2307  151.8622 LP  0  0  0  0  0  0  0  0  0  0  0  0  # atno 17342 bound_to 10162
  139.4805  144.5016  151.9053 LP  0  0  0  0  0  0  0  0  0  0  0  0  # atno 17343 bound_to 10162
  156.3639  130.3852  149.7229 LP  0  0  0  0  0  0  0  0  0  0  0  0  # atno 17370 bound_to 10713
  156.4666  130.7977  151.2996 LP  0  0  0  0  0  0  0  0  0  0  0  0  # atno 17371 bound_to 10713
  140.1599  134.4742  155.7902 LP  0  0  0  0  0  0  0  0  0  0  0  0  # atno 17394 bound_to 11000
  141.2205  133.6897  156.7526 LP  0  0  0  0  0  0  0  0  0  0  0  0  # atno 17395 bound_to 11000

$$$$
