AV-unprocessed.smi:1329|AV-procd|sdf|5484|dock9
  -GOLD-   22720 5 63D 1   1.00000     0.00000
 Structure written by MMmdl.
 42 43  0  0  0  0  0  0  0  0  1 V2000
  147.9853  140.8275  156.1659 C   0  0  0  0  0  0  0  0  0  0  0  0
  148.8134  139.6004  155.8955 C   0  0  0  0  0  0  0  0  0  0  0  0
  150.0067  139.7939  155.4382 N   0  0  0  0  0  0  0  0  0  0  0  0
  150.8478  138.7367  155.1527 N   0  0  0  0  0  0  0  0  0  0  0  0
  152.1553  139.1421  154.6217 C   0  0  0  0  0  0  0  0  0  0  0  0
  153.3210  138.5174  155.4204 C   0  0  1  0  0  0  0  0  0  0  0  0
  154.5211  139.1171  154.9729 O   0  0  0  0  0  0  0  0  0  0  0  0
  153.2055  138.8011  156.9274 C   0  0  0  0  0  0  0  0  0  0  0  0
  153.1606  140.2044  157.1279 O   0  0  0  0  0  0  0  0  0  0  0  0
  151.8973  140.6576  157.5824 C   0  0  0  0  0  0  0  0  0  0  0  0
  152.0124  142.0064  158.2623 C   0  0  0  0  0  0  0  0  0  0  0  0
  153.1682  142.3332  159.0020 C   0  0  0  0  0  0  0  0  0  0  0  0
  153.2750  143.5909  159.6276 C   0  0  0  0  0  0  0  0  0  0  0  0
  152.2272  144.5253  159.5148 C   0  0  0  0  0  0  0  0  0  0  0  0
  151.0728  144.2026  158.7754 C   0  0  0  0  0  0  0  0  0  0  0  0
  150.9659  142.9453  158.1490 C   0  0  0  0  0  0  0  0  0  0  0  0
  150.5265  137.4217  155.3190 C   0  0  0  0  0  0  0  0  0  0  0  0
  151.3079  136.5090  155.0469 O   0  0  0  0  0  0  0  0  0  0  0  0
  149.1740  137.2094  155.8393 C   0  0  0  0  0  0  0  0  0  0  0  0
  148.7948  135.8457  156.0246 C   0  0  0  0  0  0  0  0  0  0  0  0
  148.4986  134.7395  156.1928 N   0  0  0  0  0  0  0  0  0  0  0  0
  148.3375  138.2393  156.1212 C   0  0  0  0  0  0  0  0  0  0  0  0
  146.9226  138.0723  156.6585 C   0  0  0  0  0  0  0  0  0  0  0  0
  147.7177  140.8893  157.2208 H   0  0  0  0  0  0  0  0  0  0  0  0
  147.0640  140.8089  155.5834 H   0  0  0  0  0  0  0  0  0  0  0  0
  148.5186  141.7437  155.9073 H   0  0  0  0  0  0  0  0  0  0  0  0
  152.2411  138.8957  153.5611 H   0  0  0  0  0  0  0  0  0  0  0  0
  152.2198  140.2310  154.6578 H   0  0  0  0  0  0  0  0  0  0  0  0
  153.3607  137.4394  155.2583 H   0  0  0  0  0  0  0  0  0  0  0  0
  155.0993  139.2177  155.7134 H   0  0  0  0  0  0  0  0  0  0  0  0
  152.3338  138.3063  157.3600 H   0  0  0  0  0  0  0  0  0  0  0  0
  154.0853  138.4160  157.4454 H   0  0  0  0  0  0  0  0  0  0  0  0
  151.2063  140.7409  156.7419 H   0  0  0  0  0  0  0  0  0  0  0  0
  151.4681  139.9357  158.2794 H   0  0  0  0  0  0  0  0  0  0  0  0
  153.9769  141.6223  159.0896 H   0  0  0  0  0  0  0  0  0  0  0  0
  154.1611  143.8391  160.1928 H   0  0  0  0  0  0  0  0  0  0  0  0
  152.3093  145.4897  159.9940 H   0  0  0  0  0  0  0  0  0  0  0  0
  150.2699  144.9197  158.6870 H   0  0  0  0  0  0  0  0  0  0  0  0
  150.0802  142.7041  157.5797 H   0  0  0  0  0  0  0  0  0  0  0  0
  146.6664  137.0273  156.8300 H   0  0  0  0  0  0  0  0  0  0  0  0
  146.1969  138.4766  155.9523 H   0  0  0  0  0  0  0  0  0  0  0  0
  146.8076  138.5958  157.6080 H   0  0  0  0  0  0  0  0  0  0  0  0
  1  2  1  0  0  0  0
  1 24  1  0  0  0  0
  1 25  1  0  0  0  0
  1 26  1  0  0  0  0
  2 22  1  0  0  0  0
  2  3  2  0  0  0  0
  3  4  1  0  0  0  0
  4  5  1  0  0  0  0
  4 17  1  0  0  0  0
  5  6  1  0  0  0  0
  5 27  1  0  0  0  0
  5 28  1  0  0  0  0
  6  7  1  0  0  0  0
  6  8  1  0  0  0  0
  6 29  1  0  0  0  0
  7 30  1  0  0  0  0
  8  9  1  0  0  0  0
  8 31  1  0  0  0  0
  8 32  1  0  0  0  0
  9 10  1  0  0  0  0
 10 11  1  0  0  0  0
 10 33  1  0  0  0  0
 10 34  1  0  0  0  0
 11 16  1  0  0  0  0
 11 12  2  0  0  0  0
 12 13  1  0  0  0  0
 12 35  1  0  0  0  0
 13 14  2  0  0  0  0
 13 36  1  0  0  0  0
 14 15  1  0  0  0  0
 14 37  1  0  0  0  0
 15 16  2  0  0  0  0
 15 38  1  0  0  0  0
 16 39  1  0  0  0  0
 17 18  2  0  0  0  0
 17 19  1  0  0  0  0
 19 20  1  0  0  0  0
 19 22  2  0  0  0  0
 20 21  3  0  0  0  0
 22 23  1  0  0  0  0
 23 40  1  0  0  0  0
 23 41  1  0  0  0  0
 23 42  1  0  0  0  0
M  END
> <s_m_source_file>
AV-unprocessed.smi

> <i_m_source_file_index>
1329

> <i_lp_mmshare_version>
43012

> <i_f3d_flags>
0

> <s_epik_input>
TiNDYyhjMVtDSDNdKWMoPU8pbihuYzFbQ0gzXSlbQ0gyXVtDQEhdKFtPSF0pW0NIMl1PW0NIMl1jMltjSF1bY0hdW2NIXVtjSF1bY0hdMg==

> <s_epik_cmdline>
J2VwaWtfcHl0aG9uJywgJy1waCcsICc3LjAnLCAnLXRuJywgJzgnLCAnLW1hJywgJzIwMCcsICctbWV0YWxfYmluZGluZycsICctaW1hZScsICc8aW5maWxlLm1hZT4nLCAnLW9tYWUnLCAnPG91dGZpbGUubWFlPic=

> <r_lp_tautomer_probability>
1

> <r_epik_Ionization_Penalty>
6.13319e-08

> <r_epik_Ionization_Penalty_Charging>
2.19172e-10

> <r_epik_Ionization_Penalty_Neutral>
6.11128e-08

> <r_epik_State_Penalty>
-0

> <r_epik_Charging_Adjusted_Penalty>
2.19172e-10

> <i_epik_Tot_Q>
0

> <i_epik_Tot_abs_Q>
0

> <r_epik_Metal_State_Penalty>
-0

> <b_epik_Metal_Only>
0

> <s_lp_Force_Field>
OPLS_2005

> <r_lp_Energy>
31.6334

> <b_lp_Chiralities_Consistent>
1

> <s_lp_Variant>
AV-unprocessed.smi:1329-2

> <Gold.Version>
5.8.1

> <Gold.Id.Protein>
6NUR|6NUR_protein|mol2

> <Gold.PLP.Fitness>
51.4412

> <Gold.PLP.PLP>
-44.1347

> <Gold.PLP.part.hbond>
-3.6713

> <Gold.PLP.part.metal>
0.0000

> <Gold.PLP.part.buried>
-2.8320

> <Gold.PLP.part.nonpolar>
-37.6658

> <Gold.PLP.part.repulsive>
0.2613

> <Gold.PLP.ligand.clash>
0.0000

> <Gold.PLP.ligand.torsion>
0.8940

> <Gold.PLP.Chemscore.Hbond>
3.0000

> <Gold.PLP.Chemscore.CHOScore>
0.0000

> <Gold.PLP.Chemscore.Metal>
0.0000

> <Gold.Chemscore.Hbonds>
donor molecule, donor type, donor heavy atom, donor atom, acceptor molecule, acceptor atom, score
      P1  H  7997  8010       L1     9  0.05
      P1  H 10752 10765       L1    18  1.00

> <Gold.PLP.Chemscore.Internal.Correction>
0.0944

> <Gold.Rescore>
     Score         DG    S(hbond)    S(metal)    S(lipo)     H(rot)  DE(clash)    DE(int)     intcor
     17.51     -19.55       1.93        0.00     119.29       2.48       0.20       1.84       ----

> <Gold.Chemscore.Fitness>
17.5130

> <Gold.Chemscore.DG>
-19.5482

> <Gold.Chemscore.ZeroCoef>
-5.4800

> <Gold.Chemscore.Hbond>
1.9324

> <Gold.Chemscore.Metal>
0.0000

> <Gold.Chemscore.Lipo>
119.2879

> <Gold.Chemscore.Internal_Hbond>
0.0000

> <Gold.Chemscore.DEClash>
0.1989

> <Gold.Chemscore.DEInternal>
1.8364

> <Gold.Chemscore.Rot>
2.4777

> <Gold.Chemscore.Internal.Correction>
   9.000000E+99

> <Gold.Chemscore.Hbonds>
donor molecule, donor type, donor heavy atom, donor atom, acceptor molecule, acceptor atom, score
      P1  H 10752 10765       L1    18  1.00

> <Gold.Chemscore.Hbond.Weighted>
-6.4544

> <Gold.Chemscore.Metal.Weighted>
-0.0000

> <Gold.Chemscore.Lipo.Weighted>
-13.9567

> <Gold.Chemscore.Internal_Hbond.Weighted>
0.0000

> <Gold.Chemscore.DEClash.Weighted>
0.1989

> <Gold.Chemscore.DEInternal.Weighted>
1.8364

> <Gold.Chemscore.Rot.Weighted>
6.3428

> <Gold.Chemscore.Internal.Correction.Weighted>
   9.000000E+99

> <Gold.Protein.RotatedTorsions>
[ 6907 6896 6895 6894 ] final   58.63 input  -60.11 | X-H torsion
[ 7974 7965 7964 7962 ] final -136.60 input  175.53 | X-H torsion
[ 8008 7997 7996 7995 ] final   31.24 input   59.86 | X-H torsion
[ 10167 10162 10161 10158 ] final   32.86 input  -65.29 | X-H torsion
[ 10718 10713 10712 10709 ] final  -78.75 input   66.30 | X-H torsion
[ 10763 10752 10751 10750 ] final  179.50 input  -60.55 | X-H torsion
[ 11005 11000 10999 10996 ] final   55.50 input  -57.11 | X-H torsion

> <Gold.Protein.ActiveResidues>
 VAL166  LYS551  ARG553  GLY616  TRP617  ASP618  TYR619  PRO620  LYS621  CYS622 
 ASP623  PHE694  ASN695  SER759  ASP760  ASP761  ALA762  ILE779  LEU786  VAL792 
 PHE793  MET794  SER795  GLU796  ALA797  LYS798  CYS799  TRP800  GLU811  SER814 

> <Gold.Protein.RotatedAtoms>
  152.3842  134.6544  160.0131 H   0  0  0  0  0  0  0  0  0  0  0  0  # atno 6907 bound_to 6896
  151.6798  133.3306  159.3224 H   0  0  0  0  0  0  0  0  0  0  0  0  # atno 6908 bound_to 6896
  150.7772  134.6727  159.6445 H   0  0  0  0  0  0  0  0  0  0  0  0  # atno 6909 bound_to 6896
  144.8913  140.6646  143.5143 H   0  0  0  0  0  0  0  0  0  0  0  0  # atno 7974 bound_to 7965
  155.1032  140.3231  155.4541 H   0  0  0  0  0  0  0  0  0  0  0  0  # atno 8008 bound_to 7997
  156.2711  140.2057  156.6105 H   0  0  0  0  0  0  0  0  0  0  0  0  # atno 8009 bound_to 7997
  154.6813  140.0526  157.0256 H   0  0  0  0  0  0  0  0  0  0  0  0  # atno 8010 bound_to 7997
  140.4460  144.1118  150.6182 H   0  0  0  0  0  0  0  0  0  0  0  0  # atno 10167 bound_to 10162
  156.0109  130.4526  150.3544 H   0  0  0  0  0  0  0  0  0  0  0  0  # atno 10718 bound_to 10713
  154.5215  135.2794  155.1259 H   0  0  0  0  0  0  0  0  0  0  0  0  # atno 10763 bound_to 10752
  154.2814  135.6284  153.5352 H   0  0  0  0  0  0  0  0  0  0  0  0  # atno 10764 bound_to 10752
  152.9938  135.5652  154.5705 H   0  0  0  0  0  0  0  0  0  0  0  0  # atno 10765 bound_to 10752
  140.0602  134.5613  155.9161 H   0  0  0  0  0  0  0  0  0  0  0  0  # atno 11005 bound_to 11000
  145.3778  139.1644  143.4297 LP  0  0  0  0  0  0  0  0  0  0  0  0  # atno 17320 bound_to 7965
  146.3055  140.3856  142.8688 LP  0  0  0  0  0  0  0  0  0  0  0  0  # atno 17321 bound_to 7965
  140.4263  143.2588  151.9652 LP  0  0  0  0  0  0  0  0  0  0  0  0  # atno 17342 bound_to 10162
  139.4793  144.5785  151.7972 LP  0  0  0  0  0  0  0  0  0  0  0  0  # atno 17343 bound_to 10162
  157.1635  131.0351  151.2830 LP  0  0  0  0  0  0  0  0  0  0  0  0  # atno 17370 bound_to 10713
  157.4291  130.7480  149.6975 LP  0  0  0  0  0  0  0  0  0  0  0  0  # atno 17371 bound_to 10713
  141.1969  133.6594  156.5717 LP  0  0  0  0  0  0  0  0  0  0  0  0  # atno 17394 bound_to 11000
  140.3782  134.7546  157.4644 LP  0  0  0  0  0  0  0  0  0  0  0  0  # atno 17395 bound_to 11000

$$$$
