AV-unprocessed.smi:680|AV-procd|sdf|3323|dock3
  -GOLD-   22720 0293D 1   1.00000     0.00000
 Structure written by MMmdl.
 32 33  0  0  0  0  0  0  0  0  1 V2000
  150.6778  141.9849  156.2349 C   0  0  0  0  0  0  0  0  0  0  0  0
  150.3380  140.8209  155.3516 C   0  0  0  0  0  0  0  0  0  0  0  0
  149.0570  140.4048  154.8936 C   0  0  0  0  0  0  0  0  0  0  0  0
  149.3498  139.3049  154.1321 C   0  0  0  0  0  0  0  0  0  0  0  0
  148.4972  138.5047  153.4403 N   0  0  0  0  0  0  0  0  0  0  0  0
  147.1530  138.5317  153.4068 C   0  0  0  0  0  0  0  0  0  0  0  0
  146.4390  139.3227  154.0233 O   0  0  0  0  0  0  0  0  0  0  0  0
  146.6724  137.5678  152.6077 N   0  0  0  0  0  0  0  0  0  0  0  0
  145.2591  137.2939  152.3594 C   0  0  0  0  0  0  0  0  0  0  0  0
  145.0050  135.7967  152.0987 C   0  0  2  0  0  0  0  0  0  0  0  0
  145.6137  135.3613  150.7533 C   0  0  0  0  0  0  0  0  0  0  0  0
  145.6619  133.5560  150.5704 S   0  0  0  0  0  0  0  0  0  0  0  0
  143.8874  133.1885  150.6341 C   0  0  0  0  0  0  0  0  0  0  0  0
  143.2629  133.6191  151.9667 C   0  0  0  0  0  0  0  0  0  0  0  0
  143.2227  135.4241  152.1434 S   0  0  0  0  0  0  0  0  0  0  0  0
  150.6827  139.0610  154.1139 O   0  0  0  0  0  0  0  0  0  0  0  0
  151.3061  140.0370  154.9003 N   0  0  0  0  0  0  0  0  0  0  0  0
  149.7812  142.5332  156.5249 H   0  0  0  0  0  0  0  0  0  0  0  0
  151.3426  142.6831  155.7258 H   0  0  0  0  0  0  0  0  0  0  0  0
  151.1745  141.6547  157.1476 H   0  0  0  0  0  0  0  0  0  0  0  0
  148.0972  140.8537  155.0994 H   0  0  0  0  0  0  0  0  0  0  0  0
  148.9397  137.7855  152.8875 H   0  0  0  0  0  0  0  0  0  0  0  0
  147.3360  136.9652  152.1432 H   0  0  0  0  0  0  0  0  0  0  0  0
  144.6270  137.6458  153.1766 H   0  0  0  0  0  0  0  0  0  0  0  0
  144.9703  137.8745  151.4829 H   0  0  0  0  0  0  0  0  0  0  0  0
  145.4841  135.2268  152.8962 H   0  0  0  0  0  0  0  0  0  0  0  0
  145.0622  135.7969  149.9193 H   0  0  0  0  0  0  0  0  0  0  0  0
  146.6402  135.7201  150.6733 H   0  0  0  0  0  0  0  0  0  0  0  0
  143.3854  133.6765  149.7981 H   0  0  0  0  0  0  0  0  0  0  0  0
  143.7599  132.1145  150.4979 H   0  0  0  0  0  0  0  0  0  0  0  0
  142.2381  133.2523  152.0269 H   0  0  0  0  0  0  0  0  0  0  0  0
  143.8054  133.1836  152.8064 H   0  0  0  0  0  0  0  0  0  0  0  0
  1  2  1  0  0  0  0
  1 18  1  0  0  0  0
  1 19  1  0  0  0  0
  1 20  1  0  0  0  0
  2 17  2  0  0  0  0
  2  3  1  0  0  0  0
  3  4  2  0  0  0  0
  3 21  1  0  0  0  0
  4  5  1  0  0  0  0
  4 16  1  0  0  0  0
  5  6  1  0  0  0  0
  5 22  1  0  0  0  0
  6  7  2  0  0  0  0
  6  8  1  0  0  0  0
  8  9  1  0  0  0  0
  8 23  1  0  0  0  0
  9 10  1  0  0  0  0
  9 24  1  0  0  0  0
  9 25  1  0  0  0  0
 10 15  1  0  0  0  0
 10 11  1  0  0  0  0
 10 26  1  0  0  0  0
 11 12  1  0  0  0  0
 11 27  1  0  0  0  0
 11 28  1  0  0  0  0
 12 13  1  0  0  0  0
 13 14  1  0  0  0  0
 13 29  1  0  0  0  0
 13 30  1  0  0  0  0
 14 15  1  0  0  0  0
 14 31  1  0  0  0  0
 14 32  1  0  0  0  0
 16 17  1  0  0  0  0
M  END
> <s_m_source_file>
AV-unprocessed.smi

> <i_m_source_file_index>
680

> <i_lp_mmshare_version>
43012

> <i_f3d_flags>
0

> <s_epik_input>
W0NIM11jMVtjSF1jKG9uMSlbTkhdQyg9TylbTkhdW0NIMl1bQ0BASF0yW0NIMl1TW0NIMl1bQ0gyXVMy

> <s_epik_cmdline>
J2VwaWtfcHl0aG9uJywgJy1waCcsICc3LjAnLCAnLXRuJywgJzgnLCAnLW1hJywgJzIwMCcsICctbWV0YWxfYmluZGluZycsICctaW1hZScsICc8aW5maWxlLm1hZT4nLCAnLW9tYWUnLCAnPG91dGZpbGUubWFlPic=

> <r_epik_Ionization_Penalty>
0.000554698

> <r_epik_Ionization_Penalty_Charging>
0

> <r_epik_Ionization_Penalty_Neutral>
0.000554698

> <r_epik_State_Penalty>
0.000333438

> <r_epik_Charging_Adjusted_Penalty>
0.000333438

> <i_epik_Tot_Q>
0

> <i_epik_Tot_abs_Q>
0

> <r_epik_Metal_State_Penalty>
-0

> <b_epik_Metal_Only>
0

> <s_lp_Force_Field>
OPLS_2005

> <r_lp_Energy>
4.32293

> <b_lp_Chiralities_Consistent>
1

> <s_lp_Variant>
AV-unprocessed.smi:680-1

> <Gold.Version>
5.8.1

> <Gold.Id.Protein>
6NUR|6NUR_protein|mol2

> <Gold.PLP.Fitness>
37.1153

> <Gold.PLP.PLP>
-30.3248

> <Gold.PLP.part.hbond>
-4.8714

> <Gold.PLP.part.metal>
0.0000

> <Gold.PLP.part.buried>
-1.7601

> <Gold.PLP.part.nonpolar>
-24.2170

> <Gold.PLP.part.repulsive>
0.4868

> <Gold.PLP.ligand.clash>
0.0000

> <Gold.PLP.ligand.torsion>
0.2477

> <Gold.PLP.Chemscore.Hbond>
2.4275

> <Gold.PLP.Chemscore.CHOScore>
0.0000

> <Gold.PLP.Chemscore.Metal>
0.0000

> <Gold.Chemscore.Hbonds>
donor molecule, donor type, donor heavy atom, donor atom, acceptor molecule, acceptor atom, score
      L1  H     5    22       P1  7948  1.00
      L1  H     8    23       P1  7948  1.00
      P1  H  7989  7998       L1    17  0.36

> <Gold.PLP.Chemscore.Internal.Correction>
0.0035

> <Gold.Rescore>
     Score         DG    S(hbond)    S(metal)    S(lipo)     H(rot)  DE(clash)    DE(int)     intcor
     14.88     -16.26       1.98        0.00      63.13       1.26       0.02       1.37       ----

> <Gold.Chemscore.Fitness>
14.8755

> <Gold.Chemscore.DG>
-16.2632

> <Gold.Chemscore.ZeroCoef>
-5.4800

> <Gold.Chemscore.Hbond>
1.9823

> <Gold.Chemscore.Metal>
0.0000

> <Gold.Chemscore.Lipo>
63.1254

> <Gold.Chemscore.Internal_Hbond>
0.0000

> <Gold.Chemscore.DEClash>
0.0176

> <Gold.Chemscore.DEInternal>
1.3702

> <Gold.Chemscore.Rot>
1.2590

> <Gold.Chemscore.Internal.Correction>
   9.000000E+99

> <Gold.Chemscore.Hbonds>
donor molecule, donor type, donor heavy atom, donor atom, acceptor molecule, acceptor atom, score
      L1  H     5    22       P1  7948  0.98
      L1  H     8    23       P1  7948  0.99

> <Gold.Chemscore.Hbond.Weighted>
-6.6207

> <Gold.Chemscore.Metal.Weighted>
-0.0000

> <Gold.Chemscore.Lipo.Weighted>
-7.3857

> <Gold.Chemscore.Internal_Hbond.Weighted>
0.0000

> <Gold.Chemscore.DEClash.Weighted>
0.0176

> <Gold.Chemscore.DEInternal.Weighted>
1.3702

> <Gold.Chemscore.Rot.Weighted>
3.2232

> <Gold.Chemscore.Internal.Correction.Weighted>
   9.000000E+99

> <Gold.Protein.RotatedTorsions>
[ 6907 6896 6895 6894 ] final -140.41 input  -60.11 | X-H torsion
[ 7974 7965 7964 7962 ] final  -78.76 input  175.53 | X-H torsion
[ 8008 7997 7996 7995 ] final  144.91 input   59.86 | X-H torsion
[ 10167 10162 10161 10158 ] final   22.12 input  -65.29 | X-H torsion
[ 10718 10713 10712 10709 ] final   27.19 input   66.30 | X-H torsion
[ 10763 10752 10751 10750 ] final -134.93 input  -60.55 | X-H torsion
[ 11005 11000 10999 10996 ] final  172.73 input  -57.11 | X-H torsion

> <Gold.Protein.ActiveResidues>
 VAL166  LYS551  ARG553  GLY616  TRP617  ASP618  TYR619  PRO620  LYS621  CYS622 
 ASP623  PHE694  ASN695  SER759  ASP760  ASP761  ALA762  ILE779  LEU786  VAL792 
 PHE793  MET794  SER795  GLU796  ALA797  LYS798  CYS799  TRP800  GLU811  SER814 

> <Gold.Protein.RotatedAtoms>
  151.0603  133.5549  159.2634 H   0  0  0  0  0  0  0  0  0  0  0  0  # atno 6907 bound_to 6896
  151.2527  135.0627  159.9078 H   0  0  0  0  0  0  0  0  0  0  0  0  # atno 6908 bound_to 6896
  152.5396  134.0361  159.8100 H   0  0  0  0  0  0  0  0  0  0  0  0  # atno 6909 bound_to 6896
  145.5822  140.9446  143.1338 H   0  0  0  0  0  0  0  0  0  0  0  0  # atno 7974 bound_to 7965
  156.2896  140.2223  156.5129 H   0  0  0  0  0  0  0  0  0  0  0  0  # atno 8008 bound_to 7997
  154.7593  140.0474  157.0982 H   0  0  0  0  0  0  0  0  0  0  0  0  # atno 8009 bound_to 7997
  155.0010  140.3101  155.4870 H   0  0  0  0  0  0  0  0  0  0  0  0  # atno 8010 bound_to 7997
  140.5373  143.9738  150.6499 H   0  0  0  0  0  0  0  0  0  0  0  0  # atno 10167 bound_to 10162
  157.2169  130.6960  149.6253 H   0  0  0  0  0  0  0  0  0  0  0  0  # atno 10718 bound_to 10713
  154.8711  135.3719  154.4816 H   0  0  0  0  0  0  0  0  0  0  0  0  # atno 10763 bound_to 10752
  153.5469  135.7025  153.5615 H   0  0  0  0  0  0  0  0  0  0  0  0  # atno 10764 bound_to 10752
  153.3751  135.4011  155.1781 H   0  0  0  0  0  0  0  0  0  0  0  0  # atno 10765 bound_to 10752
  140.3329  134.7342  157.4147 H   0  0  0  0  0  0  0  0  0  0  0  0  # atno 11005 bound_to 11000
  144.7389  139.7506  143.7318 LP  0  0  0  0  0  0  0  0  0  0  0  0  # atno 17320 bound_to 7965
  146.1708  139.4857  142.9929 LP  0  0  0  0  0  0  0  0  0  0  0  0  # atno 17321 bound_to 7965
  140.3129  143.3186  152.0861 LP  0  0  0  0  0  0  0  0  0  0  0  0  # atno 17342 bound_to 10162
  139.4976  144.6624  151.6433 LP  0  0  0  0  0  0  0  0  0  0  0  0  # atno 17343 bound_to 10162
  155.9685  130.4532  150.5805 LP  0  0  0  0  0  0  0  0  0  0  0  0  # atno 17370 bound_to 10713
  157.3615  131.0750  151.1632 LP  0  0  0  0  0  0  0  0  0  0  0  0  # atno 17371 bound_to 10713
  140.0846  134.5685  155.8506 LP  0  0  0  0  0  0  0  0  0  0  0  0  # atno 17394 bound_to 11000
  141.2059  133.6650  156.6207 LP  0  0  0  0  0  0  0  0  0  0  0  0  # atno 17395 bound_to 11000

$$$$
