AV-unprocessed.smi:1324|AV-procd|sdf|5469|dock4
  -GOLD-   22720 5 43D 1   1.00000     0.00000
 Structure written by MMmdl.
 43 44  0  0  0  0  0  0  0  0  1 V2000
  146.3593  137.9288  152.2547 C   0  0  0  0  0  0  0  0  0  0  0  0
  147.0631  139.0852  152.9324 C   0  0  0  0  0  0  0  0  0  0  0  0
  146.4980  140.2166  153.1987 N   0  0  0  0  0  0  0  0  0  0  0  0
  147.2527  141.2142  153.8315 C   0  0  0  0  0  0  0  0  0  0  0  0
  146.5187  142.5143  154.1108 C   0  0  0  0  0  0  0  0  0  0  0  0
  148.5608  141.0162  154.1691 C   0  0  0  0  0  0  0  0  0  0  0  0
  149.4114  142.0827  154.8586 C   0  0  0  0  0  0  0  0  0  0  0  0
  149.9938  141.7110  156.2253 C   0  0  0  0  0  0  0  0  0  0  0  0
  150.0299  140.5373  156.5961 O   0  0  0  0  0  0  0  0  0  0  0  0
  150.4501  142.7337  156.9648 N   0  0  0  0  0  0  0  0  0  0  0  0
  151.0638  142.6224  158.2868 C   0  0  0  0  0  0  0  0  0  0  0  0
  151.5090  144.0262  158.7595 C   0  0  0  0  0  0  0  0  0  0  0  0
  152.4947  144.0942  159.9403 C   0  0  0  0  0  0  0  0  0  0  0  0
  152.3268  143.0130  161.0187 C   0  0  0  0  0  0  0  0  0  0  0  0
  153.0769  141.7151  160.6762 C   0  0  0  0  0  0  0  0  0  0  0  0
  152.4165  140.8615  159.5846 C   0  0  0  0  0  0  0  0  0  0  0  0
  152.1939  141.5736  158.2378 C   0  0  0  0  0  0  0  0  0  0  0  0
  149.1970  139.7221  153.8563 C   0  0  0  0  0  0  0  0  0  0  0  0
  150.3682  139.4420  154.1062 O   0  0  0  0  0  0  0  0  0  0  0  0
  148.3938  138.8189  153.2507 N   0  0  0  0  0  0  0  0  0  0  0  0
  148.7823  137.9167  153.0172 H   0  0  0  0  0  0  0  0  0  0  0  0
  146.0375  138.2200  151.2546 H   0  0  0  0  0  0  0  0  0  0  0  0
  145.4783  137.6386  152.8274 H   0  0  0  0  0  0  0  0  0  0  0  0
  147.0096  137.0576  152.1650 H   0  0  0  0  0  0  0  0  0  0  0  0
  146.4506  142.6923  155.1840 H   0  0  0  0  0  0  0  0  0  0  0  0
  145.5041  142.4901  153.7113 H   0  0  0  0  0  0  0  0  0  0  0  0
  147.0369  143.3557  153.6503 H   0  0  0  0  0  0  0  0  0  0  0  0
  150.2422  142.3437  154.2029 H   0  0  0  0  0  0  0  0  0  0  0  0
  148.8423  143.0072  154.9651 H   0  0  0  0  0  0  0  0  0  0  0  0
  150.3730  143.6635  156.5786 H   0  0  0  0  0  0  0  0  0  0  0  0
  150.2996  142.2512  158.9728 H   0  0  0  0  0  0  0  0  0  0  0  0
  151.9548  144.5710  157.9257 H   0  0  0  0  0  0  0  0  0  0  0  0
  150.6141  144.5899  159.0269 H   0  0  0  0  0  0  0  0  0  0  0  0
  153.5170  144.0678  159.5609 H   0  0  0  0  0  0  0  0  0  0  0  0
  152.3909  145.0751  160.4057 H   0  0  0  0  0  0  0  0  0  0  0  0
  152.7460  143.3998  161.9482 H   0  0  0  0  0  0  0  0  0  0  0  0
  151.2734  142.8206  161.2254 H   0  0  0  0  0  0  0  0  0  0  0  0
  154.1044  141.9452  160.3915 H   0  0  0  0  0  0  0  0  0  0  0  0
  153.1518  141.1090  161.5798 H   0  0  0  0  0  0  0  0  0  0  0  0
  153.0454  139.9871  159.4135 H   0  0  0  0  0  0  0  0  0  0  0  0
  151.4675  140.4701  159.9527 H   0  0  0  0  0  0  0  0  0  0  0  0
  151.9289  140.8011  157.5140 H   0  0  0  0  0  0  0  0  0  0  0  0
  153.1210  142.0162  157.8717 H   0  0  0  0  0  0  0  0  0  0  0  0
  1  2  1  0  0  0  0
  1 22  1  0  0  0  0
  1 23  1  0  0  0  0
  1 24  1  0  0  0  0
  2 20  1  0  0  0  0
  2  3  2  0  0  0  0
  3  4  1  0  0  0  0
  4  5  1  0  0  0  0
  4  6  2  0  0  0  0
  5 25  1  0  0  0  0
  5 26  1  0  0  0  0
  5 27  1  0  0  0  0
  6  7  1  0  0  0  0
  6 18  1  0  0  0  0
  7  8  1  0  0  0  0
  7 28  1  0  0  0  0
  7 29  1  0  0  0  0
  8  9  2  0  0  0  0
  8 10  1  0  0  0  0
 10 11  1  0  0  0  0
 10 30  1  0  0  0  0
 11 17  1  0  0  0  0
 11 12  1  0  0  0  0
 11 31  1  0  0  0  0
 12 13  1  0  0  0  0
 12 32  1  0  0  0  0
 12 33  1  0  0  0  0
 13 14  1  0  0  0  0
 13 34  1  0  0  0  0
 13 35  1  0  0  0  0
 14 15  1  0  0  0  0
 14 36  1  0  0  0  0
 14 37  1  0  0  0  0
 15 16  1  0  0  0  0
 15 38  1  0  0  0  0
 15 39  1  0  0  0  0
 16 17  1  0  0  0  0
 16 40  1  0  0  0  0
 16 41  1  0  0  0  0
 17 42  1  0  0  0  0
 17 43  1  0  0  0  0
 18 19  2  0  0  0  0
 18 20  1  0  0  0  0
 20 21  1  0  0  0  0
M  END
> <s_m_source_file>
AV-unprocessed.smi

> <i_m_source_file_index>
1324

> <i_lp_mmshare_version>
43012

> <i_f3d_flags>
0

> <s_epik_input>
W0NIM11jMW5jKFtDSDNdKWMoYyg9TylbbkhdMSlbQ0gyXUMoPU8pW05IXVtDSF0yW0NIMl1bQ0gyXVtDSDJdW0NIMl1bQ0gyXVtDSDJdMg==

> <s_epik_cmdline>
J2VwaWtfcHl0aG9uJywgJy1waCcsICc3LjAnLCAnLXRuJywgJzgnLCAnLW1hJywgJzIwMCcsICctbWV0YWxfYmluZGluZycsICctaW1hZScsICc8aW5maWxlLm1hZT4nLCAnLW9tYWUnLCAnPG91dGZpbGUubWFlPic=

> <r_lp_tautomer_probability>
0.839158

> <r_epik_Ionization_Penalty>
0.000386947

> <r_epik_Ionization_Penalty_Charging>
0.000354181

> <r_epik_Ionization_Penalty_Neutral>
3.27662e-05

> <r_epik_State_Penalty>
0.0469431

> <r_epik_Charging_Adjusted_Penalty>
0.0472973

> <i_epik_Tot_Q>
0

> <i_epik_Tot_abs_Q>
0

> <r_epik_Metal_State_Penalty>
0.222645

> <b_epik_Metal_Only>
0

> <s_lp_Force_Field>
OPLS_2005

> <r_lp_Energy>
17.0371

> <b_lp_Chiralities_Consistent>
1

> <s_lp_Variant>
AV-unprocessed.smi:1324-1

> <Gold.Version>
5.8.1

> <Gold.Id.Protein>
6NUR|6NUR_protein|mol2

> <Gold.PLP.Fitness>
48.7809

> <Gold.PLP.PLP>
-41.1787

> <Gold.PLP.part.hbond>
-4.0000

> <Gold.PLP.part.metal>
0.0000

> <Gold.PLP.part.buried>
2.3952

> <Gold.PLP.part.nonpolar>
-40.4327

> <Gold.PLP.part.repulsive>
1.8638

> <Gold.PLP.ligand.clash>
0.0000

> <Gold.PLP.ligand.torsion>
0.2445

> <Gold.PLP.Chemscore.Hbond>
2.6903

> <Gold.PLP.Chemscore.CHOScore>
0.0000

> <Gold.PLP.Chemscore.Metal>
0.0000

> <Gold.Chemscore.Hbonds>
donor molecule, donor type, donor heavy atom, donor atom, acceptor molecule, acceptor atom, score
      L1  H    10    30       P1  8028  0.71
      L1  H    20    21       P1  7948  1.00
      P1  H  7989  7998       L1    19  1.00

> <Gold.PLP.Chemscore.Internal.Correction>
0.0203

> <Gold.Rescore>
     Score         DG    S(hbond)    S(metal)    S(lipo)     H(rot)  DE(clash)    DE(int)     intcor
     16.89     -23.24       2.71        0.00     106.70       1.48       3.74       2.61       ----

> <Gold.Chemscore.Fitness>
16.8903

> <Gold.Chemscore.DG>
-23.2367

> <Gold.Chemscore.ZeroCoef>
-5.4800

> <Gold.Chemscore.Hbond>
2.7133

> <Gold.Chemscore.Metal>
0.0000

> <Gold.Chemscore.Lipo>
106.6950

> <Gold.Chemscore.Internal_Hbond>
0.0000

> <Gold.Chemscore.DEClash>
3.7389

> <Gold.Chemscore.DEInternal>
2.6076

> <Gold.Chemscore.Rot>
1.4801

> <Gold.Chemscore.Internal.Correction>
   9.000000E+99

> <Gold.Chemscore.Hbonds>
donor molecule, donor type, donor heavy atom, donor atom, acceptor molecule, acceptor atom, score
      L1  H    10    30       P1  8028  0.67
      L1  H    20    21       P1  7948  0.91
      P1  H  7989  7998       L1    19  0.79

> <Gold.Chemscore.Hbond.Weighted>
-9.0625

> <Gold.Chemscore.Metal.Weighted>
-0.0000

> <Gold.Chemscore.Lipo.Weighted>
-12.4833

> <Gold.Chemscore.Internal_Hbond.Weighted>
0.0000

> <Gold.Chemscore.DEClash.Weighted>
3.7389

> <Gold.Chemscore.DEInternal.Weighted>
2.6076

> <Gold.Chemscore.Rot.Weighted>
3.7891

> <Gold.Chemscore.Internal.Correction.Weighted>
   9.000000E+99

> <Gold.Protein.RotatedTorsions>
[ 6907 6896 6895 6894 ] final  129.41 input  -60.11 | X-H torsion
[ 7974 7965 7964 7962 ] final   -2.00 input  175.53 | X-H torsion
[ 8008 7997 7996 7995 ] final  -71.94 input   59.86 | X-H torsion
[ 10167 10162 10161 10158 ] final   31.11 input  -65.29 | X-H torsion
[ 10718 10713 10712 10709 ] final   38.73 input   66.30 | X-H torsion
[ 10763 10752 10751 10750 ] final  109.07 input  -60.55 | X-H torsion
[ 11005 11000 10999 10996 ] final  141.23 input  -57.11 | X-H torsion

> <Gold.Protein.ActiveResidues>
 VAL166  LYS551  ARG553  GLY616  TRP617  ASP618  TYR619  PRO620  LYS621  CYS622 
 ASP623  PHE694  ASN695  SER759  ASP760  ASP761  ALA762  ILE779  LEU786  VAL792 
 PHE793  MET794  SER795  GLU796  ALA797  LYS798  CYS799  TRP800  GLU811  SER814 

> <Gold.Protein.RotatedAtoms>
  152.3626  133.6316  159.6026 H   0  0  0  0  0  0  0  0  0  0  0  0  # atno 6907 bound_to 6896
  150.7612  133.9399  159.3461 H   0  0  0  0  0  0  0  0  0  0  0  0  # atno 6908 bound_to 6896
  151.7234  135.0890  160.0339 H   0  0  0  0  0  0  0  0  0  0  0  0  # atno 6909 bound_to 6896
  146.2410  140.1504  142.8334 H   0  0  0  0  0  0  0  0  0  0  0  0  # atno 7974 bound_to 7965
  154.5127  140.0806  156.8020 H   0  0  0  0  0  0  0  0  0  0  0  0  # atno 8008 bound_to 7997
  155.3750  140.3425  155.4226 H   0  0  0  0  0  0  0  0  0  0  0  0  # atno 8009 bound_to 7997
  156.1591  140.1583  156.8629 H   0  0  0  0  0  0  0  0  0  0  0  0  # atno 8010 bound_to 7997
  140.4618  144.0895  150.6214 H   0  0  0  0  0  0  0  0  0  0  0  0  # atno 10167 bound_to 10162
  157.3622  130.7656  149.7056 H   0  0  0  0  0  0  0  0  0  0  0  0  # atno 10718 bound_to 10713
  153.4295  135.3792  155.2161 H   0  0  0  0  0  0  0  0  0  0  0  0  # atno 10763 bound_to 10752
  154.8749  135.3836  154.4285 H   0  0  0  0  0  0  0  0  0  0  0  0  # atno 10764 bound_to 10752
  153.4816  135.7088  153.5998 H   0  0  0  0  0  0  0  0  0  0  0  0  # atno 10765 bound_to 10752
  140.0386  134.9316  157.0800 H   0  0  0  0  0  0  0  0  0  0  0  0  # atno 11005 bound_to 11000
  145.0172  140.8763  143.5188 LP  0  0  0  0  0  0  0  0  0  0  0  0  # atno 17320 bound_to 7965
  145.1547  139.2493  143.5422 LP  0  0  0  0  0  0  0  0  0  0  0  0  # atno 17321 bound_to 7965
  140.4084  143.2669  151.9863 LP  0  0  0  0  0  0  0  0  0  0  0  0  # atno 17342 bound_to 10162
  139.4807  144.5937  151.7728 LP  0  0  0  0  0  0  0  0  0  0  0  0  # atno 17343 bound_to 10162
  155.9739  130.4110  150.3961 LP  0  0  0  0  0  0  0  0  0  0  0  0  # atno 17370 bound_to 10713
  157.2040  131.0445  151.2635 LP  0  0  0  0  0  0  0  0  0  0  0  0  # atno 17371 bound_to 10713
  140.4107  134.1985  155.7163 LP  0  0  0  0  0  0  0  0  0  0  0  0  # atno 17394 bound_to 11000
  141.1871  133.8289  157.1045 LP  0  0  0  0  0  0  0  0  0  0  0  0  # atno 17395 bound_to 11000

$$$$
