AV-unprocessed.smi:651|AV-procd|sdf|3188|dock5
  -GOLD-   22720 0113D 1   1.00000     0.00000
 Structure written by MMmdl.
 39 40  0  0  0  0  0  0  0  0  2 V2000
  151.2900  143.2144  157.6168 C   0  0  0  0  0  0  0  0  0  0  0  0
  150.9163  142.0597  156.7118 C   0  0  0  0  0  0  0  0  0  0  0  0
  151.6446  140.8509  156.6948 C   0  0  0  0  0  0  0  0  0  0  0  0
  151.2351  139.8123  155.8335 C   0  0  0  0  0  0  0  0  0  0  0  0
  150.1036  140.0006  155.0087 C   0  0  0  0  0  0  0  0  0  0  0  0
  149.6226  138.8930  154.0874 C   0  0  0  0  0  0  0  0  0  0  0  0
  149.1046  137.7114  154.9082 C   0  0  0  0  0  0  0  0  0  0  0  0
  148.5102  137.9113  155.9667 O   0  0  0  0  0  0  0  0  0  0  0  0
  149.3512  136.4878  154.4154 N   0  0  0  0  0  0  0  0  0  0  0  0
  148.9955  135.2290  155.0647 C   0  0  2  0  0  0  0  0  0  0  0  0
  149.5521  135.1365  156.4969 C   0  0  0  0  0  0  0  0  0  0  0  0
  149.9380  133.6725  156.6824 C   0  0  0  0  0  0  0  0  0  0  0  0
  150.4467  133.2497  155.3070 C   0  0  0  0  0  0  0  0  0  0  0  0
  149.5883  134.0230  154.2873 C   0  0  1  0  0  0  0  0  0  0  0  0
  148.4942  133.1413  153.6622 C   0  0  0  0  0  0  0  0  0  0  0  0
  147.6880  133.7152  152.7654 N   0  0  0  0  0  0  0  0  0  0  0  0
  148.3798  131.9589  153.9802 O   0  0  0  0  0  0  0  0  0  0  0  0
  149.4172  141.2332  155.0654 C   0  0  0  0  0  0  0  0  0  0  0  0
  149.8417  142.2036  155.9039 N   0  3  0  0  0  0  0  0  0  0  0  0
  152.3107  143.1068  157.9852 H   0  0  0  0  0  0  0  0  0  0  0  0
  150.6191  143.2532  158.4754 H   0  0  0  0  0  0  0  0  0  0  0  0
  151.2211  144.1619  157.0818 H   0  0  0  0  0  0  0  0  0  0  0  0
  152.5043  140.7173  157.3354 H   0  0  0  0  0  0  0  0  0  0  0  0
  151.7802  138.8798  155.8143 H   0  0  0  0  0  0  0  0  0  0  0  0
  148.8300  139.2728  153.4409 H   0  0  0  0  0  0  0  0  0  0  0  0
  150.4319  138.5618  153.4350 H   0  0  0  0  0  0  0  0  0  0  0  0
  149.8405  136.4209  153.5351 H   0  0  0  0  0  0  0  0  0  0  0  0
  147.9064  135.1574  155.1105 H   0  0  0  0  0  0  0  0  0  0  0  0
  150.4466  135.7533  156.5985 H   0  0  0  0  0  0  0  0  0  0  0  0
  148.8346  135.4749  157.2452 H   0  0  0  0  0  0  0  0  0  0  0  0
  150.6804  133.5296  157.4681 H   0  0  0  0  0  0  0  0  0  0  0  0
  149.0549  133.0889  156.9460 H   0  0  0  0  0  0  0  0  0  0  0  0
  151.4904  133.5471  155.1989 H   0  0  0  0  0  0  0  0  0  0  0  0
  150.4100  132.1670  155.1775 H   0  0  0  0  0  0  0  0  0  0  0  0
  150.2458  134.3665  153.4860 H   0  0  0  0  0  0  0  0  0  0  0  0
  146.9519  133.1792  152.3293 H   0  0  0  0  0  0  0  0  0  0  0  0
  147.8168  134.6885  152.5290 H   0  0  0  0  0  0  0  0  0  0  0  0
  148.5418  141.4666  154.4764 H   0  0  0  0  0  0  0  0  0  0  0  0
  149.3261  143.0837  155.9309 H   0  0  0  0  0  0  0  0  0  0  0  0
  1  2  1  0  0  0  0
  1 20  1  0  0  0  0
  1 21  1  0  0  0  0
  1 22  1  0  0  0  0
  2 19  1  0  0  0  0
  2  3  2  0  0  0  0
  3  4  1  0  0  0  0
  3 23  1  0  0  0  0
  4  5  2  0  0  0  0
  4 24  1  0  0  0  0
  5  6  1  0  0  0  0
  5 18  1  0  0  0  0
  6  7  1  0  0  0  0
  6 25  1  0  0  0  0
  6 26  1  0  0  0  0
  7  8  2  0  0  0  0
  7  9  1  0  0  0  0
  9 10  1  0  0  0  0
  9 27  1  0  0  0  0
 10 14  1  0  0  0  0
 10 11  1  0  0  0  0
 10 28  1  0  0  0  0
 11 12  1  0  0  0  0
 11 29  1  0  0  0  0
 11 30  1  0  0  0  0
 12 13  1  0  0  0  0
 12 31  1  0  0  0  0
 12 32  1  0  0  0  0
 13 14  1  0  0  0  0
 13 33  1  0  0  0  0
 13 34  1  0  0  0  0
 14 15  1  0  0  0  0
 14 35  1  0  0  0  0
 15 16  1  0  0  0  0
 15 17  2  0  0  0  0
 16 36  1  0  0  0  0
 16 37  1  0  0  0  0
 18 19  2  0  0  0  0
 18 38  1  0  0  0  0
 19 39  1  0  0  0  0
M  CHG  1  19   1
M  END
> <s_m_source_file>
AV-unprocessed.smi

> <i_m_source_file_index>
651

> <i_lp_mmshare_version>
43012

> <i_f3d_flags>
0

> <s_epik_input>
W0NIM11jMVtjSF1bY0hdYyhbY0hdbjEpW0NIMl1DKD1PKVtOSF1bQ0BASF0yW0NIMl1bQ0gyXVtDSDJdW0NASF0yQyg9TylbTkgyXQ==

> <s_epik_cmdline>
J2VwaWtfcHl0aG9uJywgJy1waCcsICc3LjAnLCAnLXRuJywgJzgnLCAnLW1hJywgJzIwMCcsICctbWV0YWxfYmluZGluZycsICctaW1hZScsICc8aW5maWxlLm1hZT4nLCAnLW9tYWUnLCAnPG91dGZpbGUubWFlPic=

> <r_epik_Ionization_Penalty>
2.14971

> <r_epik_Ionization_Penalty_Charging>
2.14971

> <r_epik_Ionization_Penalty_Neutral>
1.65229e-07

> <r_epik_State_Penalty>
2.28946

> <r_epik_Charging_Adjusted_Penalty>
4.43917

> <i_epik_Tot_Q>
1

> <i_epik_Tot_abs_Q>
1

> <r_epik_Metal_State_Penalty>
2.30508

> <b_epik_Metal_Only>
0

> <s_lp_Force_Field>
OPLS_2005

> <r_lp_Energy>
20.422

> <b_lp_Chiralities_Consistent>
1

> <s_lp_Variant>
AV-unprocessed.smi:651-5

> <Gold.Version>
5.8.1

> <Gold.Id.Protein>
6NUR|6NUR_protein|mol2

> <Gold.PLP.Fitness>
41.7296

> <Gold.PLP.PLP>
-32.0306

> <Gold.PLP.part.hbond>
-3.0000

> <Gold.PLP.part.metal>
0.0000

> <Gold.PLP.part.buried>
-4.0741

> <Gold.PLP.part.nonpolar>
-26.0678

> <Gold.PLP.part.repulsive>
0.2410

> <Gold.PLP.ligand.clash>
0.0000

> <Gold.PLP.ligand.torsion>
0.4229

> <Gold.PLP.Chemscore.Hbond>
3.5120

> <Gold.PLP.Chemscore.CHOScore>
0.0000

> <Gold.PLP.Chemscore.Metal>
0.0000

> <Gold.Chemscore.Hbonds>
donor molecule, donor type, donor heavy atom, donor atom, acceptor molecule, acceptor atom, score
      L1  H     9    27       P1  7948  0.47
      L1  H    16    37       P1  7948  1.00
      L1  H    19    39       P1  8028  2.00

> <Gold.PLP.Chemscore.Internal.Correction>
0.0087

> <Gold.Rescore>
     Score         DG    S(hbond)    S(metal)    S(lipo)     H(rot)  DE(clash)    DE(int)     intcor
     14.99     -16.53       2.30        0.00      73.31       2.04       0.04       1.51       ----

> <Gold.Chemscore.Fitness>
14.9856

> <Gold.Chemscore.DG>
-16.5289

> <Gold.Chemscore.ZeroCoef>
-5.4800

> <Gold.Chemscore.Hbond>
2.3024

> <Gold.Chemscore.Metal>
0.0000

> <Gold.Chemscore.Lipo>
73.3147

> <Gold.Chemscore.Internal_Hbond>
0.0000

> <Gold.Chemscore.DEClash>
0.0383

> <Gold.Chemscore.DEInternal>
1.5050

> <Gold.Chemscore.Rot>
2.0386

> <Gold.Chemscore.Internal.Correction>
   9.000000E+99

> <Gold.Chemscore.Hbonds>
donor molecule, donor type, donor heavy atom, donor atom, acceptor molecule, acceptor atom, score
      L1  H     9    27       P1  7948  0.11
      L1  H    16    37       P1  7948  0.72
      L1  H    19    39       P1  8028  1.00

> <Gold.Chemscore.Hbond.Weighted>
-7.6899

> <Gold.Chemscore.Metal.Weighted>
-0.0000

> <Gold.Chemscore.Lipo.Weighted>
-8.5778

> <Gold.Chemscore.Internal_Hbond.Weighted>
0.0000

> <Gold.Chemscore.DEClash.Weighted>
0.0383

> <Gold.Chemscore.DEInternal.Weighted>
1.5050

> <Gold.Chemscore.Rot.Weighted>
5.2188

> <Gold.Chemscore.Internal.Correction.Weighted>
   9.000000E+99

> <Gold.Protein.RotatedTorsions>
[ 6907 6896 6895 6894 ] final   90.80 input  -60.11 | X-H torsion
[ 7974 7965 7964 7962 ] final  103.30 input  175.53 | X-H torsion
[ 8008 7997 7996 7995 ] final    1.06 input   59.86 | X-H torsion
[ 10167 10162 10161 10158 ] final    8.06 input  -65.29 | X-H torsion
[ 10718 10713 10712 10709 ] final  140.17 input   66.30 | X-H torsion
[ 10763 10752 10751 10750 ] final -140.02 input  -60.55 | X-H torsion
[ 11005 11000 10999 10996 ] final   93.78 input  -57.11 | X-H torsion

> <Gold.Protein.ActiveResidues>
 VAL166  LYS551  ARG553  GLY616  TRP617  ASP618  TYR619  PRO620  LYS621  CYS622 
 ASP623  PHE694  ASN695  SER759  ASP760  ASP761  ALA762  ILE779  LEU786  VAL792 
 PHE793  MET794  SER795  GLU796  ALA797  LYS798  CYS799  TRP800  GLU811  SER814 

> <Gold.Protein.RotatedAtoms>
  152.5447  134.1755  159.8613 H   0  0  0  0  0  0  0  0  0  0  0  0  # atno 6907 bound_to 6896
  151.1762  133.4746  159.2601 H   0  0  0  0  0  0  0  0  0  0  0  0  # atno 6908 bound_to 6896
  151.1225  135.0098  159.8600 H   0  0  0  0  0  0  0  0  0  0  0  0  # atno 6909 bound_to 6896
  145.3477  139.2447  143.3575 H   0  0  0  0  0  0  0  0  0  0  0  0  # atno 7974 bound_to 7965
  154.6753  140.2621  155.6964 H   0  0  0  0  0  0  0  0  0  0  0  0  # atno 8008 bound_to 7997
  156.2675  140.2821  156.1199 H   0  0  0  0  0  0  0  0  0  0  0  0  # atno 8009 bound_to 7997
  155.1109  140.0375  157.2714 H   0  0  0  0  0  0  0  0  0  0  0  0  # atno 8010 bound_to 7997
  140.6336  143.7938  150.7328 H   0  0  0  0  0  0  0  0  0  0  0  0  # atno 10167 bound_to 10162
  157.4062  131.1022  151.0501 H   0  0  0  0  0  0  0  0  0  0  0  0  # atno 10718 bound_to 10713
  154.8592  135.3565  154.5639 H   0  0  0  0  0  0  0  0  0  0  0  0  # atno 10763 bound_to 10752
  153.6254  135.7004  153.5300 H   0  0  0  0  0  0  0  0  0  0  0  0  # atno 10764 bound_to 10752
  153.3094  135.4183  155.1282 H   0  0  0  0  0  0  0  0  0  0  0  0  # atno 10765 bound_to 10752
  139.8806  134.8809  156.3769 H   0  0  0  0  0  0  0  0  0  0  0  0  # atno 11005 bound_to 11000
  146.2981  140.4087  142.8714 LP  0  0  0  0  0  0  0  0  0  0  0  0  # atno 17320 bound_to 7965
  144.8741  140.7313  143.6028 LP  0  0  0  0  0  0  0  0  0  0  0  0  # atno 17321 bound_to 7965
  140.1554  143.4321  152.2103 LP  0  0  0  0  0  0  0  0  0  0  0  0  # atno 17342 bound_to 10162
  139.5548  144.7364  151.4327 LP  0  0  0  0  0  0  0  0  0  0  0  0  # atno 17343 bound_to 10162
  157.1482  130.6172  149.5574 LP  0  0  0  0  0  0  0  0  0  0  0  0  # atno 17370 bound_to 10713
  155.9837  130.4858  150.6947 LP  0  0  0  0  0  0  0  0  0  0  0  0  # atno 17371 bound_to 10713
  140.9426  133.7504  156.0166 LP  0  0  0  0  0  0  0  0  0  0  0  0  # atno 17394 bound_to 11000
  140.8201  134.3299  157.5384 LP  0  0  0  0  0  0  0  0  0  0  0  0  # atno 17395 bound_to 11000

$$$$
