AV-unprocessed.smi:1572|AV-procd|sdf|6330|dock8
  -GOLD-   22720 6543D 1   1.00000     0.00000
 Structure written by MMmdl.
 42 43  0  0  0  0  0  0  0  0  3 V2000
  146.9956  141.7787  155.1177 C   0  0  0  0  0  0  0  0  0  0  0  0
  148.3759  141.9210  155.6353 N   0  3  0  0  0  0  0  0  0  0  0  0
  149.4135  141.3731  154.7311 C   0  0  0  0  0  0  0  0  0  0  0  0
  149.4807  139.8329  154.8021 C   0  0  0  0  0  0  0  0  0  0  0  0
  149.7621  139.4114  156.1828 N   0  0  0  0  0  0  0  0  0  0  0  0
  150.1448  137.9877  156.3706 C   0  0  0  0  0  0  0  0  0  0  0  0
  148.9108  137.0578  156.3022 C   0  0  0  0  0  0  0  0  0  0  0  0
  151.1511  137.5488  155.2759 C   0  0  0  0  0  0  0  0  0  0  0  0
  150.8494  137.8145  157.7501 C   0  0  0  0  0  0  0  0  0  0  0  0
  149.9073  137.8388  158.8708 N   0  0  0  0  0  0  0  0  0  0  0  0
  149.2314  136.7937  159.3703 C   0  0  0  0  0  0  0  0  0  0  0  0
  149.4367  135.6576  158.9374 O   0  0  0  0  0  0  0  0  0  0  0  0
  148.3418  137.1316  160.3306 N   0  5  0  0  0  0  0  0  0  0  0  0
  147.6859  136.1711  161.0024 C   0  0  0  0  0  0  0  0  0  0  0  0
  147.1599  135.0969  160.3931 N   0  0  0  0  0  0  0  0  0  0  0  0
  146.5281  134.2265  161.2710 N   0  0  0  0  0  0  0  0  0  0  0  0
  146.6018  134.6652  162.5273 C   0  0  0  0  0  0  0  0  0  0  0  0
  147.4466  136.1824  162.7522 S   0  0  0  0  0  0  0  0  0  0  0  0
  148.6320  139.8581  157.0125 C   0  0  0  0  0  0  0  0  0  0  0  0
  148.5590  141.3967  157.0083 C   0  0  0  0  0  0  0  0  0  0  0  0
  146.7037  140.7332  155.0173 H   0  0  0  0  0  0  0  0  0  0  0  0
  146.9050  142.2504  154.1387 H   0  0  0  0  0  0  0  0  0  0  0  0
  146.2854  142.2665  155.7859 H   0  0  0  0  0  0  0  0  0  0  0  0
  149.2288  141.7017  153.7079 H   0  0  0  0  0  0  0  0  0  0  0  0
  150.3792  141.7923  155.0181 H   0  0  0  0  0  0  0  0  0  0  0  0
  148.5574  139.3805  154.4395 H   0  0  0  0  0  0  0  0  0  0  0  0
  150.2723  139.5243  154.1226 H   0  0  0  0  0  0  0  0  0  0  0  0
  149.2113  136.0123  156.3774 H   0  0  0  0  0  0  0  0  0  0  0  0
  148.3681  137.1669  155.3631 H   0  0  0  0  0  0  0  0  0  0  0  0
  148.2096  137.2395  157.1169 H   0  0  0  0  0  0  0  0  0  0  0  0
  151.5987  136.5844  155.5185 H   0  0  0  0  0  0  0  0  0  0  0  0
  151.9672  138.2636  155.1615 H   0  0  0  0  0  0  0  0  0  0  0  0
  150.6765  137.4225  154.3027 H   0  0  0  0  0  0  0  0  0  0  0  0
  151.4823  136.9278  157.7830 H   0  0  0  0  0  0  0  0  0  0  0  0
  151.5420  138.6422  157.9064 H   0  0  0  0  0  0  0  0  0  0  0  0
  149.7055  138.7445  159.2684 H   0  0  0  0  0  0  0  0  0  0  0  0
  146.1561  134.0916  163.3262 H   0  0  0  0  0  0  0  0  0  0  0  0
  147.6966  139.4296  156.6519 H   0  0  0  0  0  0  0  0  0  0  0  0
  148.7383  139.5321  158.0438 H   0  0  0  0  0  0  0  0  0  0  0  0
  149.4810  141.8087  157.4222 H   0  0  0  0  0  0  0  0  0  0  0  0
  147.7508  141.7442  157.6526 H   0  0  0  0  0  0  0  0  0  0  0  0
  148.5417  142.9159  155.6881 H   0  0  0  0  0  0  0  0  0  0  0  0
  1  2  1  0  0  0  0
  1 21  1  0  0  0  0
  1 22  1  0  0  0  0
  1 23  1  0  0  0  0
  2 20  1  0  0  0  0
  2  3  1  0  0  0  0
  2 42  1  0  0  0  0
  3  4  1  0  0  0  0
  3 24  1  0  0  0  0
  3 25  1  0  0  0  0
  4  5  1  0  0  0  0
  4 26  1  0  0  0  0
  4 27  1  0  0  0  0
  5  6  1  0  0  0  0
  5 19  1  0  0  0  0
  6  7  1  0  0  0  0
  6  8  1  0  0  0  0
  6  9  1  0  0  0  0
  7 28  1  0  0  0  0
  7 29  1  0  0  0  0
  7 30  1  0  0  0  0
  8 31  1  0  0  0  0
  8 32  1  0  0  0  0
  8 33  1  0  0  0  0
  9 10  1  0  0  0  0
  9 34  1  0  0  0  0
  9 35  1  0  0  0  0
 10 11  1  0  0  0  0
 10 36  1  0  0  0  0
 11 12  2  0  0  0  0
 11 13  1  0  0  0  0
 13 14  1  0  0  0  0
 14 18  1  0  0  0  0
 14 15  2  0  0  0  0
 15 16  1  0  0  0  0
 16 17  2  0  0  0  0
 17 18  1  0  0  0  0
 17 37  1  0  0  0  0
 19 20  1  0  0  0  0
 19 38  1  0  0  0  0
 19 39  1  0  0  0  0
 20 40  1  0  0  0  0
 20 41  1  0  0  0  0
M  CHG  1   2   1
M  CHG  1  13  -1
M  END
> <s_m_source_file>
AV-unprocessed.smi

> <i_m_source_file_index>
1572

> <i_lp_mmshare_version>
43012

> <i_f3d_flags>
0

> <s_epik_input>
W0NIM11OMVtDSDJdW0NIMl1OKFtDSDJdW0NIMl0xKUMoW0NIM10pKFtDSDNdKVtDSDJdW05IXUMoPU8pW05IXWMybm5bY0hdczI=

> <s_epik_cmdline>
J2VwaWtfcHl0aG9uJywgJy1waCcsICc3LjAnLCAnLXRuJywgJzgnLCAnLW1hJywgJzIwMCcsICctbWV0YWxfYmluZGluZycsICctaW1hZScsICc8aW5maWxlLm1hZT4nLCAnLW9tYWUnLCAnPG91dGZpbGUubWFlPic=

> <r_lp_tautomer_probability>
1

> <r_epik_Ionization_Penalty>
3.56565

> <r_epik_Ionization_Penalty_Charging>
3.52353

> <r_epik_Ionization_Penalty_Neutral>
0.0421115

> <r_epik_State_Penalty>
3.62656

> <r_epik_Charging_Adjusted_Penalty>
7.1501

> <i_epik_Tot_Q>
0

> <i_epik_Tot_abs_Q>
2

> <r_epik_Metal_State_Penalty>
0.645945

> <b_epik_Metal_Only>
1

> <s_lp_Force_Field>
OPLS_2005

> <r_lp_Energy>
17.8403

> <b_lp_Chiralities_Consistent>
1

> <s_lp_Variant>
AV-unprocessed.smi:1572-4

> <Gold.Version>
5.8.1

> <Gold.Id.Protein>
6NUR|6NUR_protein|mol2

> <Gold.PLP.Fitness>
43.5604

> <Gold.PLP.PLP>
-30.3037

> <Gold.PLP.part.hbond>
-4.0000

> <Gold.PLP.part.metal>
0.0000

> <Gold.PLP.part.buried>
-5.1112

> <Gold.PLP.part.nonpolar>
-22.0630

> <Gold.PLP.part.repulsive>
0.3005

> <Gold.PLP.ligand.clash>
0.0000

> <Gold.PLP.ligand.torsion>
1.0334

> <Gold.PLP.Chemscore.Hbond>
5.0879

> <Gold.PLP.Chemscore.CHOScore>
0.0000

> <Gold.PLP.Chemscore.Metal>
0.0000

> <Gold.Chemscore.Hbonds>
donor molecule, donor type, donor heavy atom, donor atom, acceptor molecule, acceptor atom, score
      L1  H     2    42       P1  8028  2.00
      P1  H  6896  6907       L1    12  1.00
      P1  H  6931  6943       L1    13  1.37
      P1  H  6934  6947       L1    13  0.45

> <Gold.PLP.Chemscore.Internal.Correction>
0.0600

> <Gold.Rescore>
     Score         DG    S(hbond)    S(metal)    S(lipo)     H(rot)  DE(clash)    DE(int)     intcor
     13.67     -16.34       2.61        0.00      54.93       1.67       0.00       2.66       ----

> <Gold.Chemscore.Fitness>
13.6723

> <Gold.Chemscore.DG>
-16.3371

> <Gold.Chemscore.ZeroCoef>
-5.4800

> <Gold.Chemscore.Hbond>
2.6059

> <Gold.Chemscore.Metal>
0.0000

> <Gold.Chemscore.Lipo>
54.9321

> <Gold.Chemscore.Internal_Hbond>
0.0000

> <Gold.Chemscore.DEClash>
0.0021

> <Gold.Chemscore.DEInternal>
2.6627

> <Gold.Chemscore.Rot>
1.6694

> <Gold.Chemscore.Internal.Correction>
   9.000000E+99

> <Gold.Chemscore.Hbonds>
donor molecule, donor type, donor heavy atom, donor atom, acceptor molecule, acceptor atom, score
      L1  H     2    42       P1  8028  1.00
      P1  H  6896  6907       L1    12  0.99
      P1  H  6931  6943       L1    13  0.18
      P1  H  6934  6947       L1    13  0.09

> <Gold.Chemscore.Hbond.Weighted>
-8.7038

> <Gold.Chemscore.Metal.Weighted>
-0.0000

> <Gold.Chemscore.Lipo.Weighted>
-6.4271

> <Gold.Chemscore.Internal_Hbond.Weighted>
0.0000

> <Gold.Chemscore.DEClash.Weighted>
0.0021

> <Gold.Chemscore.DEInternal.Weighted>
2.6627

> <Gold.Chemscore.Rot.Weighted>
4.2738

> <Gold.Chemscore.Internal.Correction.Weighted>
   9.000000E+99

> <Gold.Protein.RotatedTorsions>
[ 6907 6896 6895 6894 ] final  -77.05 input  -60.11 | X-H torsion
[ 7974 7965 7964 7962 ] final -155.79 input  175.53 | X-H torsion
[ 8008 7997 7996 7995 ] final  -34.90 input   59.86 | X-H torsion
[ 10167 10162 10161 10158 ] final  172.86 input  -65.29 | X-H torsion
[ 10718 10713 10712 10709 ] final   72.56 input   66.30 | X-H torsion
[ 10763 10752 10751 10750 ] final -113.88 input  -60.55 | X-H torsion
[ 11005 11000 10999 10996 ] final  -53.91 input  -57.11 | X-H torsion

> <Gold.Protein.ActiveResidues>
 VAL166  LYS551  ARG553  GLY616  TRP617  ASP618  TYR619  PRO620  LYS621  CYS622 
 ASP623  PHE694  ASN695  SER759  ASP760  ASP761  ALA762  ILE779  LEU786  VAL792 
 PHE793  MET794  SER795  GLU796  ALA797  LYS798  CYS799  TRP800  GLU811  SER814 

> <Gold.Protein.RotatedAtoms>
  150.7010  134.4481  159.5323 H   0  0  0  0  0  0  0  0  0  0  0  0  # atno 6907 bound_to 6896
  152.2178  134.8438  160.0499 H   0  0  0  0  0  0  0  0  0  0  0  0  # atno 6908 bound_to 6896
  151.9300  133.3573  159.3964 H   0  0  0  0  0  0  0  0  0  0  0  0  # atno 6909 bound_to 6896
  144.7623  140.4200  143.5967 H   0  0  0  0  0  0  0  0  0  0  0  0  # atno 7974 bound_to 7965
  154.4109  140.1671  156.2125 H   0  0  0  0  0  0  0  0  0  0  0  0  # atno 8008 bound_to 7997
  155.9432  140.3406  155.6322 H   0  0  0  0  0  0  0  0  0  0  0  0  # atno 8009 bound_to 7997
  155.6963  140.0739  157.2419 H   0  0  0  0  0  0  0  0  0  0  0  0  # atno 8010 bound_to 7997
  139.5090  144.3326  152.0096 H   0  0  0  0  0  0  0  0  0  0  0  0  # atno 10167 bound_to 10162
  157.6507  130.9585  150.0946 H   0  0  0  0  0  0  0  0  0  0  0  0  # atno 10718 bound_to 10713
  154.8416  135.4438  154.1418 H   0  0  0  0  0  0  0  0  0  0  0  0  # atno 10763 bound_to 10752
  153.2601  135.6935  153.7593 H   0  0  0  0  0  0  0  0  0  0  0  0  # atno 10764 bound_to 10752
  153.6873  135.3393  155.3169 H   0  0  0  0  0  0  0  0  0  0  0  0  # atno 10765 bound_to 10752
  141.0999  133.6619  156.4241 H   0  0  0  0  0  0  0  0  0  0  0  0  # atno 11005 bound_to 11000
  145.6579  139.1576  143.2825 LP  0  0  0  0  0  0  0  0  0  0  0  0  # atno 17320 bound_to 7965
  146.1698  140.6662  142.9238 LP  0  0  0  0  0  0  0  0  0  0  0  0  # atno 17321 bound_to 7965
  140.2766  144.3906  150.6133 LP  0  0  0  0  0  0  0  0  0  0  0  0  # atno 17342 bound_to 10162
  140.6049  143.2167  151.7000 LP  0  0  0  0  0  0  0  0  0  0  0  0  # atno 17343 bound_to 10162
  156.1886  130.3653  149.8940 LP  0  0  0  0  0  0  0  0  0  0  0  0  # atno 17370 bound_to 10713
  156.6874  130.8882  151.3584 LP  0  0  0  0  0  0  0  0  0  0  0  0  # atno 17371 bound_to 10713
  140.5047  134.6452  157.5262 LP  0  0  0  0  0  0  0  0  0  0  0  0  # atno 17394 bound_to 11000
  139.9848  134.7080  155.9794 LP  0  0  0  0  0  0  0  0  0  0  0  0  # atno 17395 bound_to 11000

$$$$
