AV-unprocessed.smi:290|AV-procd|sdf|2222|dock9
  -GOLD-   2262022 73D 1   1.00000     0.00000
 Structure written by MMmdl.
 59 62  0  0  0  0  0  0  0  0  2 V2000
  152.8895  142.4411  159.6532 C   0  0  0  0  0  0  0  0  0  0  0  0
  151.6001  143.2604  159.8203 C   0  0  1  0  0  0  0  0  0  0  0  0
  151.9834  144.3992  160.5941 O   0  0  0  0  0  0  0  0  0  0  0  0
  151.4266  145.5831  160.0475 C   0  0  0  0  0  0  0  0  0  0  0  0
  151.3679  145.2880  158.5564 C   0  0  0  0  0  0  0  0  0  0  0  0
  150.9526  143.8239  158.5228 C   0  0  2  0  0  0  0  0  0  0  0  0
  149.5449  143.7872  158.6873 O   0  0  0  0  0  0  0  0  0  0  0  0
  151.2972  143.1485  157.1660 C   0  0  0  0  0  0  0  0  0  0  0  0
  150.9056  141.7485  157.0312 N   0  0  0  0  0  0  0  0  0  0  0  0
  151.1361  140.7133  157.9141 C   0  0  0  0  0  0  0  0  0  0  0  0
  150.6489  139.5550  157.5610 N   0  0  0  0  0  0  0  0  0  0  0  0
  150.0082  139.8147  156.3585 C   0  0  0  0  0  0  0  0  0  0  0  0
  149.2652  139.0202  155.4481 C   0  0  0  0  0  0  0  0  0  0  0  0
  149.0544  137.7025  155.6664 N   0  0  0  0  0  0  0  0  0  0  0  0
  150.2462  136.8824  155.5651 C   0  0  0  0  0  0  0  0  0  0  0  0
  149.7443  135.4454  155.4226 C   0  0  0  0  0  0  0  0  0  0  0  0
  148.2444  135.5477  155.0718 C   0  0  2  0  0  0  0  0  0  0  0  0
  147.8903  134.6472  153.9291 N   0  3  1  0  0  0  0  0  0  0  0  0
  148.6046  133.3479  154.0327 C   0  0  0  0  0  0  0  0  0  0  0  0
  146.4300  134.4737  153.6821 C   0  0  0  0  0  0  0  0  0  0  0  0
  145.7523  135.6973  153.0369 C   0  0  0  0  0  0  0  0  0  0  0  0
  146.3552  135.9952  151.7950 O   0  0  0  0  0  0  0  0  0  0  0  0
  148.0279  137.0648  154.8510 C   0  0  1  0  0  0  0  0  0  0  0  0
  146.6307  137.5752  155.2683 C   0  0  0  0  0  0  0  0  0  0  0  0
  148.7503  139.6258  154.3454 N   0  0  0  0  0  0  0  0  0  0  0  0
  148.9534  140.9320  154.1480 C   0  0  0  0  0  0  0  0  0  0  0  0
  149.6256  141.7968  154.9115 N   0  0  0  0  0  0  0  0  0  0  0  0
  150.1443  141.1882  156.0175 C   0  0  0  0  0  0  0  0  0  0  0  0
  147.6640  135.2471  155.9465 H   0  0  0  0  0  0  0  0  0  0  0  0
  148.2173  137.3085  153.8044 H   0  0  0  0  0  0  0  0  0  0  0  0
  152.6925  141.4619  159.2225 H   0  0  0  0  0  0  0  0  0  0  0  0
  153.3591  142.2650  160.6212 H   0  0  0  0  0  0  0  0  0  0  0  0
  153.6156  142.9570  159.0248 H   0  0  0  0  0  0  0  0  0  0  0  0
  150.8816  142.6696  160.3910 H   0  0  0  0  0  0  0  0  0  0  0  0
  150.4275  145.7383  160.4571 H   0  0  0  0  0  0  0  0  0  0  0  0
  152.0341  146.4574  160.2816 H   0  0  0  0  0  0  0  0  0  0  0  0
  150.6912  145.9506  158.0150 H   0  0  0  0  0  0  0  0  0  0  0  0
  152.3642  145.4084  158.1285 H   0  0  0  0  0  0  0  0  0  0  0  0
  149.1798  144.5793  158.3240 H   0  0  0  0  0  0  0  0  0  0  0  0
  150.8316  143.7010  156.3489 H   0  0  0  0  0  0  0  0  0  0  0  0
  152.3709  143.2192  156.9903 H   0  0  0  0  0  0  0  0  0  0  0  0
  151.6765  140.8335  158.8408 H   0  0  0  0  0  0  0  0  0  0  0  0
  150.8384  137.1623  154.6925 H   0  0  0  0  0  0  0  0  0  0  0  0
  150.8738  137.0006  156.4491 H   0  0  0  0  0  0  0  0  0  0  0  0
  150.3237  134.9292  154.6560 H   0  0  0  0  0  0  0  0  0  0  0  0
  149.8757  134.8958  156.3555 H   0  0  0  0  0  0  0  0  0  0  0  0
  148.1613  132.7208  154.8073 H   0  0  0  0  0  0  0  0  0  0  0  0
  149.6578  133.4814  154.2776 H   0  0  0  0  0  0  0  0  0  0  0  0
  148.5812  132.8021  153.0906 H   0  0  0  0  0  0  0  0  0  0  0  0
  146.2756  133.5948  153.0548 H   0  0  0  0  0  0  0  0  0  0  0  0
  145.9079  134.2935  154.6200 H   0  0  0  0  0  0  0  0  0  0  0  0
  144.6791  135.5612  152.9095 H   0  0  0  0  0  0  0  0  0  0  0  0
  145.8715  136.5650  153.6864 H   0  0  0  0  0  0  0  0  0  0  0  0
  147.2943  135.9881  151.9037 H   0  0  0  0  0  0  0  0  0  0  0  0
  145.8208  137.0859  154.7320 H   0  0  0  0  0  0  0  0  0  0  0  0
  146.5308  138.6450  155.0826 H   0  0  0  0  0  0  0  0  0  0  0  0
  146.4575  137.4121  156.3326 H   0  0  0  0  0  0  0  0  0  0  0  0
  148.5150  141.3441  153.2510 H   0  0  0  0  0  0  0  0  0  0  0  0
  148.2482  135.1050  153.1025 H   0  0  0  0  0  0  0  0  0  0  0  0
  1  2  1  0  0  0  0
  1 31  1  0  0  0  0
  1 32  1  0  0  0  0
  1 33  1  0  0  0  0
  2  6  1  0  0  0  0
  2  3  1  0  0  0  0
  2 34  1  0  0  0  0
  3  4  1  0  0  0  0
  4  5  1  0  0  0  0
  4 35  1  0  0  0  0
  4 36  1  0  0  0  0
  5  6  1  0  0  0  0
  5 37  1  0  0  0  0
  5 38  1  0  0  0  0
  6  7  1  0  0  0  0
  6  8  1  0  0  0  0
  7 39  1  0  0  0  0
  8  9  1  0  0  0  0
  8 40  1  0  0  0  0
  8 41  1  0  0  0  0
  9 28  1  0  0  0  0
  9 10  1  0  0  0  0
 10 11  2  0  0  0  0
 10 42  1  0  0  0  0
 11 12  1  0  0  0  0
 12 28  2  0  0  0  0
 12 13  1  0  0  0  0
 13 14  1  0  0  0  0
 13 25  2  0  0  0  0
 14 23  1  0  0  0  0
 14 15  1  0  0  0  0
 15 16  1  0  0  0  0
 15 43  1  0  0  0  0
 15 44  1  0  0  0  0
 16 17  1  0  0  0  0
 16 45  1  0  0  0  0
 16 46  1  0  0  0  0
 17 29  1  0  0  0  0
 17 18  1  0  0  0  0
 17 23  1  0  0  0  0
 18 19  1  0  0  0  0
 18 20  1  0  0  0  0
 18 59  1  0  0  0  0
 19 47  1  0  0  0  0
 19 48  1  0  0  0  0
 19 49  1  0  0  0  0
 20 21  1  0  0  0  0
 20 50  1  0  0  0  0
 20 51  1  0  0  0  0
 21 22  1  0  0  0  0
 21 52  1  0  0  0  0
 21 53  1  0  0  0  0
 22 54  1  0  0  0  0
 23 30  1  0  0  0  0
 23 24  1  0  0  0  0
 24 55  1  0  0  0  0
 24 56  1  0  0  0  0
 24 57  1  0  0  0  0
 25 26  1  0  0  0  0
 26 27  2  0  0  0  0
 26 58  1  0  0  0  0
 27 28  1  0  0  0  0
M  CHG  1  18   1
M  END
> <s_m_source_file>
AV-unprocessed.smi

> <i_m_source_file_index>
290

> <i_lp_mmshare_version>
43012

> <i_f3d_flags>
0

> <s_epik_input>
W0NIMl0xW0NIMl1PW0NAQEhdKFtDSDNdKVtDQEBdMShbT0hdKVtDSDJdbihbY0hdbjIpYyhjMjMpbltjSF1uYzNONFtDSDJdW0NIMl1bQ0BIXShbQ0BIXTRbQ0gzXSlOKFtDSDNdKVtDSDJdW0NIMl1bT0hd

> <s_epik_cmdline>
J2VwaWtfcHl0aG9uJywgJy1waCcsICc3LjAnLCAnLXRuJywgJzgnLCAnLW1hJywgJzIwMCcsICctbWV0YWxfYmluZGluZycsICctaW1hZScsICc8aW5maWxlLm1hZT4nLCAnLW9tYWUnLCAnPG91dGZpbGUubWFlPic=

> <r_lp_tautomer_probability>
1

> <r_epik_Ionization_Penalty>
0.0036983

> <r_epik_Ionization_Penalty_Charging>
0.0032725

> <r_epik_Ionization_Penalty_Neutral>
0.000425798

> <r_epik_State_Penalty>
-0

> <r_epik_Charging_Adjusted_Penalty>
0.0032725

> <i_epik_Tot_Q>
1

> <i_epik_Tot_abs_Q>
1

> <r_epik_Metal_State_Penalty>
-0

> <b_epik_Metal_Only>
0

> <s_lp_Force_Field>
OPLS_2005

> <r_lp_Energy>
67.3345

> <b_lp_Chiralities_Consistent>
1

> <s_lp_Variant>
AV-unprocessed.smi:290-8

> <Gold.Version>
5.8.1

> <Gold.Id.Protein>
6NUR|6NUR_protein|mol2

> <Gold.PLP.Fitness>
53.5115

> <Gold.PLP.PLP>
-41.2910

> <Gold.PLP.part.hbond>
-4.8644

> <Gold.PLP.part.metal>
0.0000

> <Gold.PLP.part.buried>
-3.9307

> <Gold.PLP.part.nonpolar>
-33.2409

> <Gold.PLP.part.repulsive>
0.4663

> <Gold.PLP.ligand.clash>
0.0000

> <Gold.PLP.ligand.torsion>
0.7567

> <Gold.PLP.Chemscore.Hbond>
3.9100

> <Gold.PLP.Chemscore.CHOScore>
0.6198

> <Gold.PLP.Chemscore.Metal>
0.0000

> <Gold.Chemscore.Hbonds>
donor molecule, donor type, donor heavy atom, donor atom, acceptor molecule, acceptor atom, score
      L1  H     7    39       P1  8029  0.71
      L1  H    18    59       P1  7948  2.00
      L1  H    22    54       P1  7948  1.00
      L1  C    26    58       P1  7957  0.34

> <Gold.PLP.Chemscore.Internal.Correction>
0.1446

> <Gold.Rescore>
     Score         DG    S(hbond)    S(metal)    S(lipo)     H(rot)  DE(clash)    DE(int)     intcor
     13.50     -14.69       2.38        0.00      90.83       3.67       0.25       0.94       ----

> <Gold.Chemscore.Fitness>
13.4950

> <Gold.Chemscore.DG>
-14.6863

> <Gold.Chemscore.ZeroCoef>
-5.4800

> <Gold.Chemscore.Hbond>
2.3844

> <Gold.Chemscore.Metal>
0.0000

> <Gold.Chemscore.Lipo>
90.8264

> <Gold.Chemscore.Internal_Hbond>
0.0000

> <Gold.Chemscore.DEClash>
0.2463

> <Gold.Chemscore.DEInternal>
0.9449

> <Gold.Chemscore.Rot>
3.6658

> <Gold.Chemscore.Internal.Correction>
   9.000000E+99

> <Gold.Chemscore.Hbonds>
donor molecule, donor type, donor heavy atom, donor atom, acceptor molecule, acceptor atom, score
      L1  H     7    39       P1  8029  0.28
      L1  H    18    59       P1  7948  0.94
      L1  H    22    54       P1  7948  1.00

> <Gold.Chemscore.Hbond.Weighted>
-7.9640

> <Gold.Chemscore.Metal.Weighted>
-0.0000

> <Gold.Chemscore.Lipo.Weighted>
-10.6267

> <Gold.Chemscore.Internal_Hbond.Weighted>
0.0000

> <Gold.Chemscore.DEClash.Weighted>
0.2463

> <Gold.Chemscore.DEInternal.Weighted>
0.9449

> <Gold.Chemscore.Rot.Weighted>
9.3844

> <Gold.Chemscore.Internal.Correction.Weighted>
   9.000000E+99

> <Gold.Protein.RotatedTorsions>
[ 6907 6896 6895 6894 ] final   68.65 input  -60.11 | X-H torsion
[ 7974 7965 7964 7962 ] final   27.23 input  175.53 | X-H torsion
[ 8008 7997 7996 7995 ] final  -21.11 input   59.86 | X-H torsion
[ 10167 10162 10161 10158 ] final -112.09 input  -65.29 | X-H torsion
[ 10718 10713 10712 10709 ] final   -5.77 input   66.30 | X-H torsion
[ 10763 10752 10751 10750 ] final  -42.88 input  -60.55 | X-H torsion
[ 11005 11000 10999 10996 ] final  -23.86 input  -57.11 | X-H torsion

> <Gold.Protein.ActiveResidues>
 VAL166  LYS551  ARG553  GLY616  TRP617  ASP618  TYR619  PRO620  LYS621  CYS622 
 ASP623  PHE694  ASN695  SER759  ASP760  ASP761  ALA762  ILE779  LEU786  VAL792 
 PHE793  MET794  SER795  GLU796  ALA797  LYS798  CYS799  TRP800  GLU811  SER814 

> <Gold.Protein.RotatedAtoms>
  152.4634  134.5131  159.9759 H   0  0  0  0  0  0  0  0  0  0  0  0  # atno 6907 bound_to 6896
  151.5175  133.3467  159.2903 H   0  0  0  0  0  0  0  0  0  0  0  0  # atno 6908 bound_to 6896
  150.8607  134.7987  159.7143 H   0  0  0  0  0  0  0  0  0  0  0  0  # atno 6909 bound_to 6896
  146.1795  139.7220  142.8910 H   0  0  0  0  0  0  0  0  0  0  0  0  # atno 7974 bound_to 7965
  154.4726  140.2043  155.9957 H   0  0  0  0  0  0  0  0  0  0  0  0  # atno 8008 bound_to 7997
  156.1036  140.3240  155.7946 H   0  0  0  0  0  0  0  0  0  0  0  0  # atno 8009 bound_to 7997
  155.4755  140.0534  157.2965 H   0  0  0  0  0  0  0  0  0  0  0  0  # atno 8010 bound_to 7997
  140.1265  143.4398  152.1656 H   0  0  0  0  0  0  0  0  0  0  0  0  # atno 10167 bound_to 10162
  156.7416  130.5211  149.5823 H   0  0  0  0  0  0  0  0  0  0  0  0  # atno 10718 bound_to 10713
  153.9863  135.6711  153.4752 H   0  0  0  0  0  0  0  0  0  0  0  0  # atno 10763 bound_to 10752
  153.0725  135.4966  154.8332 H   0  0  0  0  0  0  0  0  0  0  0  0  # atno 10764 bound_to 10752
  154.7135  135.3102  154.9122 H   0  0  0  0  0  0  0  0  0  0  0  0  # atno 10765 bound_to 10752
  140.8791  133.7666  156.0280 H   0  0  0  0  0  0  0  0  0  0  0  0  # atno 11005 bound_to 11000
  145.4116  141.0397  143.3014 LP  0  0  0  0  0  0  0  0  0  0  0  0  # atno 17320 bound_to 7965
  144.8292  139.5658  143.6951 LP  0  0  0  0  0  0  0  0  0  0  0  0  # atno 17321 bound_to 7965
  139.5541  144.7360  151.4345 LP  0  0  0  0  0  0  0  0  0  0  0  0  # atno 17342 bound_to 10162
  140.6842  143.8013  150.7162 LP  0  0  0  0  0  0  0  0  0  0  0  0  # atno 17343 bound_to 10162
  156.1460  130.6277  151.0532 LP  0  0  0  0  0  0  0  0  0  0  0  0  # atno 17370 bound_to 10713
  157.6816  131.0836  150.7355 LP  0  0  0  0  0  0  0  0  0  0  0  0  # atno 17371 bound_to 10713
  140.8482  134.2985  157.5286 LP  0  0  0  0  0  0  0  0  0  0  0  0  # atno 17394 bound_to 11000
  139.8718  134.9453  156.3907 LP  0  0  0  0  0  0  0  0  0  0  0  0  # atno 17395 bound_to 11000

$$$$
