#       Name:                AV-unprocessed.smi:2719
#       Creating user name   scv26
#       Creation time:       Fri Mar 27 14:54:23 2020


#       File generated by GOLD software.
#

@<TRIPOS>MOLECULE
AV-unprocessed.smi:2719
    27    27     1
SMALL
NO_CHARGES


@<TRIPOS>ATOM
      1 ****         0.1272  -2.1048  -0.1131 C.3            1 S1                 0.0000
      2 ****        -0.5666  -0.7542  -0.1389 C.ar           1 S1                 0.0000
      3 ****        -1.9760  -0.6997  -0.1680 C.ar           1 S1                 0.0000
      4 ****        -2.6155   0.5528  -0.1930 C.ar           1 S1                 0.0000
      5 ****        -1.8151   1.7095  -0.1893 C.ar           1 S1                 0.0000
      6 ****        -0.4674   1.6748  -0.1657 N.ar           1 S1                 0.0000
      7 ****         0.1551   0.4701  -0.1337 C.ar           1 S1                 0.0000
      8 ****         1.6879   0.5073  -0.1082 C.3            1 S1                 0.0000
      9 ****         2.2377   1.6421  -0.7548 O.3            1 S1                 0.0000
     10 ****         2.1550   0.4668   1.3556 C.2            1 S1                 0.0000
     11 ****         2.7614  -0.5625   1.7278 O.co2          1 S1                 0.0000
     12 ****         1.9105   1.4584   2.0795 O.co2          1 S1                -1.0000
     13 ****        -0.5956  -2.9191  -0.0587 H              1 S1                 0.0000
     14 ****         0.7824  -2.1860   0.7538 H              1 S1                 0.0000
     15 ****         0.7221  -2.2466  -1.0153 H              1 S1                 0.0000
     16 ****        -2.5640  -1.6059  -0.1711 H              1 S1                 0.0000
     17 ****        -3.6925   0.6252  -0.2143 H              1 S1                 0.0000
     18 ****        -2.2689   2.6893  -0.2084 H              1 S1                 0.0000
     19 ****         2.0834  -0.3614  -0.6343 H              1 S1                 0.0000
     20 ****         1.9383   1.6448  -1.6502 H              1 S1                 0.0000
     21 ****         0.0637   2.5220  -0.1717 LP             1 S1                 0.0000
     22 ****         3.2363   1.5942  -0.7318 LP             1 S1                 0.0000
     23 ****         1.9332   2.4754  -0.2934 LP             1 S1                 0.0000
     24 ****         3.0915  -0.6356   2.6689 LP             1 S1                 0.0000
     25 ****         2.9160  -1.3121   1.0841 LP             1 S1                 0.0000
     26 ****         2.2069   1.4654   3.0346 LP             1 S1                 0.0000
     27 ****         1.4189   2.2434   1.7027 LP             1 S1                 0.0000
@<TRIPOS>BOND
    1    1    2 1     
    2    1   13 1     
    3    1   14 1     
    4    1   15 1     
    5    2    7 ar    
    6    2    3 ar    
    7    3    4 ar    
    8    3   16 1     
    9    4    5 ar    
   10    4   17 1     
   11    5    6 ar    
   12    5   18 1     
   13    6    7 ar    
   14    7    8 1     
   15    8    9 1     
   16    8   10 1     
   17    8   19 1     
   18    9   20 1     
   19   10   11 ar    
   20   10   12 ar    
   21    6   21 1     
   22    9   22 1     
   23    9   23 1     
   24   11   24 1     
   25   11   25 1     
   26   12   26 1     
   27   12   27 1     
@<TRIPOS>SUBSTRUCTURE
      1 S1             1
@<TRIPOS>SET
LONE_PAIRS      STATIC     ATOMS    <user>   **** ""
7 21 22 23 24 25 26 27
DONOR_HYDROGENS      STATIC     ATOMS    <user>   **** ""
1 20
ATOM$BLUE        STATIC     ATOMS    COLORGROUP SYSTEM
7 21 22 23 24 25 26 27
ATOM$RED        STATIC     ATOMS    COLORGROUP SYSTEM
1 20
