AV-unprocessed.smi:37|AV-procd|sdf|332|dock9
  -GOLD-   2262016163D 1   1.00000     0.00000
 Structure written by MMmdl.
 43 44  0  0  0  0  0  0  0  0  2 V2000
  146.8136  141.7311  155.2389 C   0  0  0  0  0  0  0  0  0  0  0  0
  146.3615  141.7022  156.7063 C   0  0  0  0  0  0  0  0  0  0  0  0
  147.0749  140.6413  157.5472 C   0  0  0  0  0  0  0  0  0  0  0  0
  147.9636  140.9228  158.3533 O   0  0  0  0  0  0  0  0  0  0  0  0
  146.6124  139.4095  157.2924 O   0  0  0  0  0  0  0  0  0  0  0  0
  146.8122  138.3691  158.2357 C   0  0  0  0  0  0  0  0  0  0  0  0
  147.1934  137.0843  157.4904 C   0  0  1  0  0  0  0  0  0  0  0  0
  147.5299  137.3587  156.1302 O   0  0  0  0  0  0  0  0  0  0  0  0
  148.6235  136.5814  155.7262 C   0  0  1  0  0  0  0  0  0  0  0  0
  149.8227  137.4765  155.4810 N   0  0  0  0  0  0  0  0  0  0  0  0
  149.7972  138.8263  155.7933 C   0  0  0  0  0  0  0  0  0  0  0  0
  150.8679  139.6165  155.5737 C   0  0  0  0  0  0  0  0  0  0  0  0
  150.8116  140.9222  155.8880 F   0  0  0  0  0  0  0  0  0  0  0  0
  152.0821  139.0457  154.9940 C   0  0  0  0  0  0  0  0  0  0  0  0
  153.0543  139.7719  154.7925 O   0  0  0  0  0  0  0  0  0  0  0  0
  152.0817  137.7136  154.6990 N   0  5  0  0  0  0  0  0  0  0  0  0
  151.0017  136.9092  154.9226 C   0  0  0  0  0  0  0  0  0  0  0  0
  150.9970  135.7045  154.6689 O   0  0  0  0  0  0  0  0  0  0  0  0
  148.9225  135.5981  156.8624 C   0  0  2  0  0  0  0  0  0  0  0  0
  147.8627  133.9308  156.5758 Br  0  0  0  0  0  0  0  0  0  0  0  0
  148.4121  136.3670  158.0696 C   0  0  2  0  0  0  0  0  0  0  0  0
  148.0586  135.5181  159.1532 O   0  0  0  0  0  0  0  0  0  0  0  0
  147.8925  136.0265  160.3860 C   0  0  0  0  0  0  0  0  0  0  0  0
  147.8630  137.2221  160.6775 O   0  0  0  0  0  0  0  0  0  0  0  0
  147.7296  134.9436  161.4496 C   0  0  0  0  0  0  0  0  0  0  0  0
  147.4576  135.5344  162.8395 C   0  0  0  0  0  0  0  0  0  0  0  0
  146.2797  142.5064  154.6891 H   0  0  0  0  0  0  0  0  0  0  0  0
  146.6165  140.7802  154.7427 H   0  0  0  0  0  0  0  0  0  0  0  0
  147.8801  141.9432  155.1546 H   0  0  0  0  0  0  0  0  0  0  0  0
  146.5345  142.6776  157.1618 H   0  0  0  0  0  0  0  0  0  0  0  0
  145.2880  141.5179  156.7558 H   0  0  0  0  0  0  0  0  0  0  0  0
  147.6132  138.6571  158.9176 H   0  0  0  0  0  0  0  0  0  0  0  0
  145.9120  138.2133  158.8317 H   0  0  0  0  0  0  0  0  0  0  0  0
  146.3398  136.4045  157.4671 H   0  0  0  0  0  0  0  0  0  0  0  0
  148.4149  136.1082  154.7653 H   0  0  0  0  0  0  0  0  0  0  0  0
  148.9135  139.2714  156.2217 H   0  0  0  0  0  0  0  0  0  0  0  0
  149.9771  135.3275  156.9227 H   0  0  0  0  0  0  0  0  0  0  0  0
  149.1497  137.1133  158.3700 H   0  0  0  0  0  0  0  0  0  0  0  0
  146.9106  134.2849  161.1596 H   0  0  0  0  0  0  0  0  0  0  0  0
  148.6331  134.3341  161.4722 H   0  0  0  0  0  0  0  0  0  0  0  0
  147.3061  134.7403  163.5707 H   0  0  0  0  0  0  0  0  0  0  0  0
  146.5629  136.1577  162.8380 H   0  0  0  0  0  0  0  0  0  0  0  0
  148.2925  136.1449  163.1851 H   0  0  0  0  0  0  0  0  0  0  0  0
  1  2  1  0  0  0  0
  1 27  1  0  0  0  0
  1 28  1  0  0  0  0
  1 29  1  0  0  0  0
  2  3  1  0  0  0  0
  2 30  1  0  0  0  0
  2 31  1  0  0  0  0
  3  4  2  0  0  0  0
  3  5  1  0  0  0  0
  5  6  1  0  0  0  0
  6  7  1  0  0  0  0
  6 32  1  0  0  0  0
  6 33  1  0  0  0  0
  7 21  1  0  0  0  0
  7  8  1  0  0  0  0
  7 34  1  0  0  0  0
  8  9  1  0  0  0  0
  9 10  1  0  0  0  0
  9 19  1  0  0  0  0
  9 35  1  0  0  0  0
 10 17  1  0  0  0  0
 10 11  1  0  0  0  0
 11 12  2  0  0  0  0
 11 36  1  0  0  0  0
 12 13  1  0  0  0  0
 12 14  1  0  0  0  0
 14 15  2  0  0  0  0
 14 16  1  0  0  0  0
 16 17  1  0  0  0  0
 17 18  2  0  0  0  0
 19 20  1  0  0  0  0
 19 21  1  0  0  0  0
 19 37  1  0  0  0  0
 21 22  1  0  0  0  0
 21 38  1  0  0  0  0
 22 23  1  0  0  0  0
 23 24  2  0  0  0  0
 23 25  1  0  0  0  0
 25 26  1  0  0  0  0
 25 39  1  0  0  0  0
 25 40  1  0  0  0  0
 26 41  1  0  0  0  0
 26 42  1  0  0  0  0
 26 43  1  0  0  0  0
M  CHG  1  16  -1
M  END
> <s_m_source_file>
AV-unprocessed.smi

> <i_m_source_file_index>
37

> <i_lp_mmshare_version>
43012

> <i_f3d_flags>
0

> <s_epik_input>
W0NIM11bQ0gyXUMoPU8pT1tDSDJdW0NAQEhdMU9bQ0BASF0objJbY0hdYyhGKWMoPU8pW25IXWMyPU8pW0NAQEhdKEJyKVtDQEhdMU9DKD1PKVtDSDJdW0NIM10=

> <s_epik_cmdline>
J2VwaWtfcHl0aG9uJywgJy1waCcsICc3LjAnLCAnLXRuJywgJzgnLCAnLW1hJywgJzIwMCcsICctbWV0YWxfYmluZGluZycsICctaW1hZScsICc8aW5maWxlLm1hZT4nLCAnLW9tYWUnLCAnPG91dGZpbGUubWFlPic=

> <r_epik_Ionization_Penalty>
1.08158

> <r_epik_Ionization_Penalty_Charging>
9.05154e-09

> <r_epik_Ionization_Penalty_Neutral>
1.08158

> <r_epik_State_Penalty>
1.13706

> <r_epik_Charging_Adjusted_Penalty>
1.13706

> <i_epik_Tot_Q>
-1

> <i_epik_Tot_abs_Q>
1

> <r_epik_Metal_State_Penalty>
0.00343535

> <b_epik_Metal_Only>
0

> <s_epik_Chemistry_Notes>
This compound has an ester and may undergo hydrolysis at high or low pH. This compound contains an acetal/aminal-like group ( X-CH(R)-Y where X, Y are N, S, or O) that may be acid/base labile, releasing an aldehyde.

> <s_lp_Force_Field>
OPLS_2005

> <r_lp_Energy>
34.595

> <b_lp_Chiralities_Consistent>
1

> <s_lp_Variant>
AV-unprocessed.smi:37-30

> <Gold.Version>
5.8.1

> <Gold.Id.Protein>
6NUR|6NUR_protein|mol2

> <Gold.PLP.Fitness>
39.2080

> <Gold.PLP.PLP>
-32.4315

> <Gold.PLP.part.hbond>
-6.8509

> <Gold.PLP.part.metal>
0.0000

> <Gold.PLP.part.buried>
-4.0397

> <Gold.PLP.part.nonpolar>
-22.6826

> <Gold.PLP.part.repulsive>
0.3291

> <Gold.PLP.ligand.clash>
0.0000

> <Gold.PLP.ligand.torsion>
1.8355

> <Gold.PLP.Chemscore.Hbond>
3.4378

> <Gold.PLP.Chemscore.CHOScore>
0.0000

> <Gold.PLP.Chemscore.Metal>
0.0000

> <Gold.Chemscore.Hbonds>
donor molecule, donor type, donor heavy atom, donor atom, acceptor molecule, acceptor atom, score
      P1  H  6931  6943       L1    24  0.80
      P1  H  6934  6947       L1    24  0.83
      P1  H  7989  7998       L1    15  0.06
      P1  H  7997  8009       L1    15  1.00
      P1  H 10752 10763       L1    18  0.70

> <Gold.PLP.Chemscore.Internal.Correction>
0.1342

> <Gold.Rescore>
     Score         DG    S(hbond)    S(metal)    S(lipo)     H(rot)  DE(clash)    DE(int)     intcor
      6.82     -11.15       2.76        0.00      41.23       3.27       0.46       3.88       ----

> <Gold.Chemscore.Fitness>
6.8215

> <Gold.Chemscore.DG>
-11.1535

> <Gold.Chemscore.ZeroCoef>
-5.4800

> <Gold.Chemscore.Hbond>
2.7582

> <Gold.Chemscore.Metal>
0.0000

> <Gold.Chemscore.Lipo>
41.2349

> <Gold.Chemscore.Internal_Hbond>
0.0000

> <Gold.Chemscore.DEClash>
0.4570

> <Gold.Chemscore.DEInternal>
3.8751

> <Gold.Chemscore.Rot>
3.2669

> <Gold.Chemscore.Internal.Correction>
   9.000000E+99

> <Gold.Chemscore.Hbonds>
donor molecule, donor type, donor heavy atom, donor atom, acceptor molecule, acceptor atom, score
      P1  H  6931  6943       L1    24  0.78
      P1  H  6934  6947       L1    24  0.81
      P1  H  7997  8009       L1    15  1.00
      P1  H 10752 10763       L1    18  0.07

> <Gold.Chemscore.Hbond.Weighted>
-9.2124

> <Gold.Chemscore.Metal.Weighted>
-0.0000

> <Gold.Chemscore.Lipo.Weighted>
-4.8245

> <Gold.Chemscore.Internal_Hbond.Weighted>
0.0000

> <Gold.Chemscore.DEClash.Weighted>
0.4570

> <Gold.Chemscore.DEInternal.Weighted>
3.8751

> <Gold.Chemscore.Rot.Weighted>
8.3634

> <Gold.Chemscore.Internal.Correction.Weighted>
   9.000000E+99

> <Gold.Protein.RotatedTorsions>
[ 6907 6896 6895 6894 ] final   65.96 input  -60.11 | X-H torsion
[ 7974 7965 7964 7962 ] final  172.96 input  175.53 | X-H torsion
[ 8008 7997 7996 7995 ] final -118.61 input   59.86 | X-H torsion
[ 10167 10162 10161 10158 ] final -127.03 input  -65.29 | X-H torsion
[ 10718 10713 10712 10709 ] final  -74.13 input   66.30 | X-H torsion
[ 10763 10752 10751 10750 ] final   63.16 input  -60.55 | X-H torsion
[ 11005 11000 10999 10996 ] final  -68.48 input  -57.11 | X-H torsion

> <Gold.Protein.ActiveResidues>
 VAL166  LYS551  ARG553  GLY616  TRP617  ASP618  TYR619  PRO620  LYS621  CYS622 
 ASP623  PHE694  ASN695  SER759  ASP760  ASP761  ALA762  ILE779  LEU786  VAL792 
 PHE793  MET794  SER795  GLU796  ALA797  LYS798  CYS799  TRP800  GLU811  SER814 

> <Gold.Protein.RotatedAtoms>
  152.4446  134.5521  159.9869 H   0  0  0  0  0  0  0  0  0  0  0  0  # atno 6907 bound_to 6896
  151.5609  133.3397  159.2979 H   0  0  0  0  0  0  0  0  0  0  0  0  # atno 6908 bound_to 6896
  150.8359  134.7665  159.6956 H   0  0  0  0  0  0  0  0  0  0  0  0  # atno 6909 bound_to 6896
  144.7255  139.9576  143.6434 H   0  0  0  0  0  0  0  0  0  0  0  0  # atno 7974 bound_to 7965
  155.1025  140.0396  157.2701 H   0  0  0  0  0  0  0  0  0  0  0  0  # atno 8008 bound_to 7997
  154.6747  140.2620  155.6945 H   0  0  0  0  0  0  0  0  0  0  0  0  # atno 8009 bound_to 7997
  156.2672  140.2790  156.1269 H   0  0  0  0  0  0  0  0  0  0  0  0  # atno 8010 bound_to 7997
  139.9652  143.5906  152.2432 H   0  0  0  0  0  0  0  0  0  0  0  0  # atno 10167 bound_to 10162
  156.0254  130.4410  150.2846 H   0  0  0  0  0  0  0  0  0  0  0  0  # atno 10718 bound_to 10713
  153.0008  135.5439  154.6308 H   0  0  0  0  0  0  0  0  0  0  0  0  # atno 10763 bound_to 10752
  154.5586  135.2832  155.0943 H   0  0  0  0  0  0  0  0  0  0  0  0  # atno 10764 bound_to 10752
  154.2155  135.6460  153.5181 H   0  0  0  0  0  0  0  0  0  0  0  0  # atno 10765 bound_to 10752
  141.1533  133.6742  156.6453 H   0  0  0  0  0  0  0  0  0  0  0  0  # atno 11005 bound_to 11000
  146.0662  139.3653  143.0551 LP  0  0  0  0  0  0  0  0  0  0  0  0  # atno 17320 bound_to 7965
  145.8028  140.9763  143.0990 LP  0  0  0  0  0  0  0  0  0  0  0  0  # atno 17321 bound_to 7965
  139.6523  144.7661  151.2123 LP  0  0  0  0  0  0  0  0  0  0  0  0  # atno 17342 bound_to 10162
  140.7540  143.6140  150.8577 LP  0  0  0  0  0  0  0  0  0  0  0  0  # atno 17343 bound_to 10162
  157.0950  131.0180  151.3107 LP  0  0  0  0  0  0  0  0  0  0  0  0  # atno 17370 bound_to 10713
  157.4825  130.7773  149.7427 LP  0  0  0  0  0  0  0  0  0  0  0  0  # atno 17371 bound_to 10713
  140.3362  134.7887  157.4363 LP  0  0  0  0  0  0  0  0  0  0  0  0  # atno 17394 bound_to 11000
  140.0976  134.5517  155.8384 LP  0  0  0  0  0  0  0  0  0  0  0  0  # atno 17395 bound_to 11000

$$$$
