AV-unprocessed.smi:2568|AV-procd|sdf|10093|dock10
  -GOLD-   2272014113D 1   1.00000     0.00000
 Structure written by MMmdl.
 25 26  0  0  0  0  0  0  0  0  2 V2000
  152.2262  140.9796  158.8132 C   0  0  0  0  0  0  0  0  0  0  0  0
  151.3680  141.3442  157.6503 C   0  0  0  0  0  0  0  0  0  0  0  0
  150.9920  142.6036  157.4339 N   0  0  0  0  0  0  0  0  0  0  0  0
  150.2477  142.4860  156.3143 N   0  0  0  0  0  0  0  0  0  0  0  0
  150.2167  141.2058  155.9361 C   0  0  0  0  0  0  0  0  0  0  0  0
  149.4780  140.7523  154.7166 C   0  0  1  0  0  0  0  0  0  0  0  0
  149.6976  139.2565  154.4180 C   0  0  0  0  0  0  0  0  0  0  0  0
  148.8688  138.8450  153.2683 N   0  3  0  0  0  0  0  0  0  0  0  0
  147.4451  139.1717  153.4840 C   0  0  0  0  0  0  0  0  0  0  0  0
  147.2886  140.6653  153.8200 C   0  0  0  0  0  0  0  0  0  0  0  0
  148.0920  140.9907  154.9498 O   0  0  0  0  0  0  0  0  0  0  0  0
  150.9188  140.4208  156.7482 N   0  0  0  0  0  0  0  0  0  0  0  0
  149.7989  143.2727  155.8671 H   0  0  0  0  0  0  0  0  0  0  0  0
  152.6133  141.8719  159.3068 H   0  0  0  0  0  0  0  0  0  0  0  0
  153.0716  140.3750  158.4841 H   0  0  0  0  0  0  0  0  0  0  0  0
  151.6506  140.4052  159.5392 H   0  0  0  0  0  0  0  0  0  0  0  0
  149.8073  141.3557  153.8683 H   0  0  0  0  0  0  0  0  0  0  0  0
  150.7467  139.0562  154.1989 H   0  0  0  0  0  0  0  0  0  0  0  0
  149.4276  138.6503  155.2840 H   0  0  0  0  0  0  0  0  0  0  0  0
  149.1916  139.3321  152.4444 H   0  0  0  0  0  0  0  0  0  0  0  0
  146.8751  138.9162  152.5906 H   0  0  0  0  0  0  0  0  0  0  0  0
  147.0567  138.5599  154.2993 H   0  0  0  0  0  0  0  0  0  0  0  0
  147.5698  141.2875  152.9689 H   0  0  0  0  0  0  0  0  0  0  0  0
  146.2472  140.8918  154.0493 H   0  0  0  0  0  0  0  0  0  0  0  0
  148.9669  137.8502  153.1223 H   0  0  0  0  0  0  0  0  0  0  0  0
  1  2  1  0  0  0  0
  1 14  1  0  0  0  0
  1 15  1  0  0  0  0
  1 16  1  0  0  0  0
  2 12  1  0  0  0  0
  2  3  2  0  0  0  0
  3  4  1  0  0  0  0
  4 13  1  0  0  0  0
  4  5  1  0  0  0  0
  5  6  1  0  0  0  0
  5 12  2  0  0  0  0
  6 11  1  0  0  0  0
  6  7  1  0  0  0  0
  6 17  1  0  0  0  0
  7  8  1  0  0  0  0
  7 18  1  0  0  0  0
  7 19  1  0  0  0  0
  8  9  1  0  0  0  0
  8 20  1  0  0  0  0
  8 25  1  0  0  0  0
  9 10  1  0  0  0  0
  9 21  1  0  0  0  0
  9 22  1  0  0  0  0
 10 11  1  0  0  0  0
 10 23  1  0  0  0  0
 10 24  1  0  0  0  0
M  CHG  1   8   1
M  END
> <s_m_source_file>
AV-unprocessed.smi

> <i_m_source_file_index>
2568

> <i_lp_mmshare_version>
43012

> <i_f3d_flags>
0

> <s_epik_input>
W0NIM11jMW5bbkhdYyhuMSlbQ0BASF0yW0NIMl1bTkhdW0NIMl1bQ0gyXU8y

> <s_epik_cmdline>
J2VwaWtfcHl0aG9uJywgJy1waCcsICc3LjAnLCAnLXRuJywgJzgnLCAnLW1hJywgJzIwMCcsICctbWV0YWxfYmluZGluZycsICctaW1hZScsICc8aW5maWxlLm1hZT4nLCAnLW9tYWUnLCAnPG91dGZpbGUubWFlPic=

> <r_epik_Ionization_Penalty>
0.166663

> <r_epik_Ionization_Penalty_Charging>
0.125708

> <r_epik_Ionization_Penalty_Neutral>
0.0409555

> <r_epik_State_Penalty>
1.3004

> <r_epik_Charging_Adjusted_Penalty>
1.42611

> <i_epik_Tot_Q>
1

> <i_epik_Tot_abs_Q>
1

> <r_epik_Metal_State_Penalty>
1.60166

> <b_epik_Metal_Only>
0

> <s_lp_Force_Field>
OPLS_2005

> <r_lp_Energy>
12.4533

> <b_lp_Chiralities_Consistent>
1

> <s_lp_Variant>
AV-unprocessed.smi:2568-6

> <Gold.Version>
5.8.1

> <Gold.Id.Protein>
6NUR|6NUR_protein|mol2

> <Gold.PLP.Fitness>
32.5909

> <Gold.PLP.PLP>
-20.8475

> <Gold.PLP.part.hbond>
-2.9640

> <Gold.PLP.part.metal>
0.0000

> <Gold.PLP.part.buried>
-4.5921

> <Gold.PLP.part.nonpolar>
-14.8231

> <Gold.PLP.part.repulsive>
0.3886

> <Gold.PLP.ligand.clash>
0.0000

> <Gold.PLP.ligand.torsion>
0.0429

> <Gold.PLP.Chemscore.Hbond>
3.9428

> <Gold.PLP.Chemscore.CHOScore>
0.0000

> <Gold.PLP.Chemscore.Metal>
0.0000

> <Gold.Chemscore.Hbonds>
donor molecule, donor type, donor heavy atom, donor atom, acceptor molecule, acceptor atom, score
      L1  H     4    13       P1  8028  1.00
      L1  H     8    20       P1  7957  0.96
      L1  H     8    25       P1  7948  1.98

> <Gold.PLP.Chemscore.Internal.Correction>
0.0010

> <Gold.Rescore>
     Score         DG    S(hbond)    S(metal)    S(lipo)     H(rot)  DE(clash)    DE(int)     intcor
     16.63     -16.63       2.90        0.00      34.29       1.00       0.00       0.00       ----

> <Gold.Chemscore.Fitness>
16.6283

> <Gold.Chemscore.DG>
-16.6326

> <Gold.Chemscore.ZeroCoef>
-5.4800

> <Gold.Chemscore.Hbond>
2.9045

> <Gold.Chemscore.Metal>
0.0000

> <Gold.Chemscore.Lipo>
34.2879

> <Gold.Chemscore.Internal_Hbond>
0.0000

> <Gold.Chemscore.DEClash>
0.0038

> <Gold.Chemscore.DEInternal>
0.0005

> <Gold.Chemscore.Rot>
1.0000

> <Gold.Chemscore.Internal.Correction>
   9.000000E+99

> <Gold.Chemscore.Hbonds>
donor molecule, donor type, donor heavy atom, donor atom, acceptor molecule, acceptor atom, score
      L1  H     4    13       P1  8028  1.00
      L1  H     8    20       P1  7957  0.91
      L1  H     8    25       P1  7948  0.87

> <Gold.Chemscore.Hbond.Weighted>
-9.7009

> <Gold.Chemscore.Metal.Weighted>
-0.0000

> <Gold.Chemscore.Lipo.Weighted>
-4.0117

> <Gold.Chemscore.Internal_Hbond.Weighted>
0.0000

> <Gold.Chemscore.DEClash.Weighted>
0.0038

> <Gold.Chemscore.DEInternal.Weighted>
0.0005

> <Gold.Chemscore.Rot.Weighted>
2.5600

> <Gold.Chemscore.Internal.Correction.Weighted>
   9.000000E+99

> <Gold.Protein.RotatedTorsions>
[ 6907 6896 6895 6894 ] final  166.68 input  -60.11 | X-H torsion
[ 7974 7965 7964 7962 ] final -128.88 input  175.53 | X-H torsion
[ 8008 7997 7996 7995 ] final  163.96 input   59.86 | X-H torsion
[ 10167 10162 10161 10158 ] final  130.66 input  -65.29 | X-H torsion
[ 10718 10713 10712 10709 ] final  -97.80 input   66.30 | X-H torsion
[ 10763 10752 10751 10750 ] final  -69.99 input  -60.55 | X-H torsion
[ 11005 11000 10999 10996 ] final    8.42 input  -57.11 | X-H torsion

> <Gold.Protein.ActiveResidues>
 VAL166  LYS551  ARG553  GLY616  TRP617  ASP618  TYR619  PRO620  LYS621  CYS622 
 ASP623  PHE694  ASN695  SER759  ASP760  ASP761  ALA762  ILE779  LEU786  VAL792 
 PHE793  MET794  SER795  GLU796  ALA797  LYS798  CYS799  TRP800  GLU811  SER814 

> <Gold.Protein.RotatedAtoms>
  151.8751  133.3483  159.3747 H   0  0  0  0  0  0  0  0  0  0  0  0  # atno 6907 bound_to 6896
  150.7142  134.5074  159.5600 H   0  0  0  0  0  0  0  0  0  0  0  0  # atno 6908 bound_to 6896
  152.2615  134.8029  160.0481 H   0  0  0  0  0  0  0  0  0  0  0  0  # atno 6909 bound_to 6896
  144.9626  140.7463  143.4719 H   0  0  0  0  0  0  0  0  0  0  0  0  # atno 7974 bound_to 7965
  156.1917  140.1709  156.8080 H   0  0  0  0  0  0  0  0  0  0  0  0  # atno 8008 bound_to 7997
  154.5479  140.0723  156.8651 H   0  0  0  0  0  0  0  0  0  0  0  0  # atno 8009 bound_to 7997
  155.3086  140.3366  155.4247 H   0  0  0  0  0  0  0  0  0  0  0  0  # atno 8010 bound_to 7997
  139.5419  144.6739  151.4596 H   0  0  0  0  0  0  0  0  0  0  0  0  # atno 10167 bound_to 10162
  156.0092  130.5210  150.6428 H   0  0  0  0  0  0  0  0  0  0  0  0  # atno 10718 bound_to 10713
  154.4113  135.6008  153.5954 H   0  0  0  0  0  0  0  0  0  0  0  0  # atno 10763 bound_to 10752
  152.9790  135.5930  154.4067 H   0  0  0  0  0  0  0  0  0  0  0  0  # atno 10764 bound_to 10752
  154.3879  135.2841  155.2150 H   0  0  0  0  0  0  0  0  0  0  0  0  # atno 10765 bound_to 10752
  140.5372  134.0409  155.7892 H   0  0  0  0  0  0  0  0  0  0  0  0  # atno 11005 bound_to 11000
  145.2677  139.1967  143.4858 LP  0  0  0  0  0  0  0  0  0  0  0  0  # atno 17320 bound_to 7965
  146.3358  140.2618  142.8602 LP  0  0  0  0  0  0  0  0  0  0  0  0  # atno 17321 bound_to 7965
  140.6653  143.8411  150.6934 LP  0  0  0  0  0  0  0  0  0  0  0  0  # atno 17342 bound_to 10162
  140.1818  143.4108  152.1927 LP  0  0  0  0  0  0  0  0  0  0  0  0  # atno 17343 bound_to 10162
  157.4205  131.0836  151.1136 LP  0  0  0  0  0  0  0  0  0  0  0  0  # atno 17370 bound_to 10713
  157.1739  130.6280  149.5649 LP  0  0  0  0  0  0  0  0  0  0  0  0  # atno 17371 bound_to 10713
  141.1248  133.9401  157.2657 LP  0  0  0  0  0  0  0  0  0  0  0  0  # atno 17394 bound_to 11000
  139.9523  135.0173  156.9029 LP  0  0  0  0  0  0  0  0  0  0  0  0  # atno 17395 bound_to 11000

$$$$
