AV-unprocessed.smi:949|AV-procd|sdf|4244|dock5
  -GOLD-   22720 2153D 1   1.00000     0.00000
 Structure written by MMmdl.
 33 34  0  0  0  0  0  0  0  0  2 V2000
  149.9232  140.6563  158.1158 C   0  0  0  0  0  0  0  0  0  0  0  0
  150.2623  141.9909  157.4277 C   0  0  2  0  0  0  0  0  0  0  0  0
  150.7665  141.7565  156.0787 N   0  0  0  0  0  0  0  0  0  0  0  0
  150.3183  140.7041  155.2602 C   0  0  0  0  0  0  0  0  0  0  0  0
  151.0795  139.5270  155.0454 C   0  0  0  0  0  0  0  0  0  0  0  0
  150.5712  138.5086  154.2146 C   0  0  0  0  0  0  0  0  0  0  0  0
  149.3652  138.6568  153.6290 N   0  3  0  0  0  0  0  0  0  0  0  0
  148.6019  139.7560  153.8014 C   0  0  0  0  0  0  0  0  0  0  0  0
  149.0547  140.8110  154.6216 C   0  0  0  0  0  0  0  0  0  0  0  0
  148.2443  141.9374  154.7844 N   0  0  0  0  0  0  0  0  0  0  0  0
  151.2926  142.7910  158.2488 C   0  0  1  0  0  0  0  0  0  0  0  0
  151.7193  144.1158  157.6110 C   0  0  0  0  0  0  0  0  0  0  0  0
  152.1579  144.9123  158.8176 C   0  0  0  0  0  0  0  0  0  0  0  0
  151.1179  144.4962  159.8513 C   0  0  0  0  0  0  0  0  0  0  0  0
  150.7414  143.1644  159.5109 O   0  0  0  0  0  0  0  0  0  0  0  0
  149.5140  140.8194  159.1131 H   0  0  0  0  0  0  0  0  0  0  0  0
  150.8100  140.0303  158.2218 H   0  0  0  0  0  0  0  0  0  0  0  0
  149.1834  140.0863  157.5540 H   0  0  0  0  0  0  0  0  0  0  0  0
  149.3591  142.5981  157.3666 H   0  0  0  0  0  0  0  0  0  0  0  0
  151.4648  142.3910  155.7189 H   0  0  0  0  0  0  0  0  0  0  0  0
  152.0476  139.3847  155.5003 H   0  0  0  0  0  0  0  0  0  0  0  0
  151.0918  137.5861  154.0023 H   0  0  0  0  0  0  0  0  0  0  0  0
  147.6559  139.7565  153.2796 H   0  0  0  0  0  0  0  0  0  0  0  0
  148.5286  142.7155  155.3622 H   0  0  0  0  0  0  0  0  0  0  0  0
  147.3171  141.9823  154.3863 H   0  0  0  0  0  0  0  0  0  0  0  0
  152.1798  142.1851  158.4414 H   0  0  0  0  0  0  0  0  0  0  0  0
  152.5097  143.9965  156.8694 H   0  0  0  0  0  0  0  0  0  0  0  0
  150.8702  144.6051  157.1311 H   0  0  0  0  0  0  0  0  0  0  0  0
  153.1529  144.5961  159.1341 H   0  0  0  0  0  0  0  0  0  0  0  0
  152.1787  145.9880  158.6408 H   0  0  0  0  0  0  0  0  0  0  0  0
  151.4976  144.5560  160.8715 H   0  0  0  0  0  0  0  0  0  0  0  0
  150.2352  145.1329  159.7804 H   0  0  0  0  0  0  0  0  0  0  0  0
  149.0155  137.9074  153.0314 H   0  0  0  0  0  0  0  0  0  0  0  0
  1  2  1  0  0  0  0
  1 16  1  0  0  0  0
  1 17  1  0  0  0  0
  1 18  1  0  0  0  0
  2  3  1  0  0  0  0
  2 11  1  0  0  0  0
  2 19  1  0  0  0  0
  3  4  1  0  0  0  0
  3 20  1  0  0  0  0
  4  9  1  0  0  0  0
  4  5  2  0  0  0  0
  5  6  1  0  0  0  0
  5 21  1  0  0  0  0
  6  7  2  0  0  0  0
  6 22  1  0  0  0  0
  7  8  1  0  0  0  0
  7 33  1  0  0  0  0
  8  9  2  0  0  0  0
  8 23  1  0  0  0  0
  9 10  1  0  0  0  0
 10 24  1  0  0  0  0
 10 25  1  0  0  0  0
 11 15  1  0  0  0  0
 11 12  1  0  0  0  0
 11 26  1  0  0  0  0
 12 13  1  0  0  0  0
 12 27  1  0  0  0  0
 12 28  1  0  0  0  0
 13 14  1  0  0  0  0
 13 29  1  0  0  0  0
 13 30  1  0  0  0  0
 14 15  1  0  0  0  0
 14 31  1  0  0  0  0
 14 32  1  0  0  0  0
M  CHG  1   7   1
M  END
> <s_m_source_file>
AV-unprocessed.smi

> <i_m_source_file_index>
949

> <i_lp_mmshare_version>
43012

> <i_f3d_flags>
0

> <s_epik_input>
TzFbQ0gyXVtDSDJdW0NIMl1bQ0BIXTFbQ0BIXShbQ0gzXSlbTkhdYzJbY0hdW2NIXW5bY0hdYzJbTkgyXQ==

> <s_epik_cmdline>
J2VwaWtfcHl0aG9uJywgJy1waCcsICc3LjAnLCAnLXRuJywgJzgnLCAnLW1hJywgJzIwMCcsICctbWV0YWxfYmluZGluZycsICctaW1hZScsICc8aW5maWxlLm1hZT4nLCAnLW9tYWUnLCAnPG91dGZpbGUubWFlPic=

> <r_epik_Ionization_Penalty>
0.000849261

> <r_epik_Ionization_Penalty_Charging>
0.000847912

> <r_epik_Ionization_Penalty_Neutral>
1.34939e-06

> <r_epik_State_Penalty>
0.000546618

> <r_epik_Charging_Adjusted_Penalty>
0.00139453

> <i_epik_Tot_Q>
1

> <i_epik_Tot_abs_Q>
1

> <r_epik_Metal_State_Penalty>
0.526583

> <b_epik_Metal_Only>
0

> <s_lp_Force_Field>
OPLS_2005

> <r_lp_Energy>
29.4206

> <b_lp_Chiralities_Consistent>
1

> <s_lp_Variant>
AV-unprocessed.smi:949-3

> <Gold.Version>
5.8.1

> <Gold.Id.Protein>
6NUR|6NUR_protein|mol2

> <Gold.PLP.Fitness>
41.2939

> <Gold.PLP.PLP>
-34.4342

> <Gold.PLP.part.hbond>
-3.5094

> <Gold.PLP.part.metal>
0.0000

> <Gold.PLP.part.buried>
-0.8602

> <Gold.PLP.part.nonpolar>
-30.5551

> <Gold.PLP.part.repulsive>
0.4261

> <Gold.PLP.ligand.clash>
0.0000

> <Gold.PLP.ligand.torsion>
1.0766

> <Gold.PLP.Chemscore.Hbond>
3.0000

> <Gold.PLP.Chemscore.CHOScore>
0.0000

> <Gold.PLP.Chemscore.Metal>
0.0000

> <Gold.Chemscore.Hbonds>
donor molecule, donor type, donor heavy atom, donor atom, acceptor molecule, acceptor atom, score
      L1  H     7    33       P1  7948  2.00
      L1  H    10    24       P1  8028  0.96

> <Gold.PLP.Chemscore.Internal.Correction>
0.0130

> <Gold.Rescore>
     Score         DG    S(hbond)    S(metal)    S(lipo)     H(rot)  DE(clash)    DE(int)     intcor
     17.59     -18.77       1.77        0.00      90.05       1.23       0.11       1.07       ----

> <Gold.Chemscore.Fitness>
17.5852

> <Gold.Chemscore.DG>
-18.7674

> <Gold.Chemscore.ZeroCoef>
-5.4800

> <Gold.Chemscore.Hbond>
1.7700

> <Gold.Chemscore.Metal>
0.0000

> <Gold.Chemscore.Lipo>
90.0544

> <Gold.Chemscore.Internal_Hbond>
0.0000

> <Gold.Chemscore.DEClash>
0.1103

> <Gold.Chemscore.DEInternal>
1.0720

> <Gold.Chemscore.Rot>
1.2347

> <Gold.Chemscore.Internal.Correction>
   9.000000E+99

> <Gold.Chemscore.Hbonds>
donor molecule, donor type, donor heavy atom, donor atom, acceptor molecule, acceptor atom, score
      L1  H     7    33       P1  7948  0.94
      L1  H    10    24       P1  8028  0.87

> <Gold.Chemscore.Hbond.Weighted>
-5.9120

> <Gold.Chemscore.Metal.Weighted>
-0.0000

> <Gold.Chemscore.Lipo.Weighted>
-10.5364

> <Gold.Chemscore.Internal_Hbond.Weighted>
0.0000

> <Gold.Chemscore.DEClash.Weighted>
0.1103

> <Gold.Chemscore.DEInternal.Weighted>
1.0720

> <Gold.Chemscore.Rot.Weighted>
3.1609

> <Gold.Chemscore.Internal.Correction.Weighted>
   9.000000E+99

> <Gold.Protein.RotatedTorsions>
[ 6907 6896 6895 6894 ] final  176.03 input  -60.11 | X-H torsion
[ 7974 7965 7964 7962 ] final -120.09 input  175.53 | X-H torsion
[ 8008 7997 7996 7995 ] final  -97.87 input   59.86 | X-H torsion
[ 10167 10162 10161 10158 ] final  -58.80 input  -65.29 | X-H torsion
[ 10718 10713 10712 10709 ] final -162.02 input   66.30 | X-H torsion
[ 10763 10752 10751 10750 ] final   27.60 input  -60.55 | X-H torsion
[ 11005 11000 10999 10996 ] final   10.62 input  -57.11 | X-H torsion

> <Gold.Protein.ActiveResidues>
 VAL166  LYS551  ARG553  GLY616  TRP617  ASP618  TYR619  PRO620  LYS621  CYS622 
 ASP623  PHE694  ASN695  SER759  ASP760  ASP761  ALA762  ILE779  LEU786  VAL792 
 PHE793  MET794  SER795  GLU796  ALA797  LYS798  CYS799  TRP800  GLU811  SER814 

> <Gold.Protein.RotatedAtoms>
  151.7267  133.3316  159.3329 H   0  0  0  0  0  0  0  0  0  0  0  0  # atno 6907 bound_to 6896
  150.7630  134.6400  159.6241 H   0  0  0  0  0  0  0  0  0  0  0  0  # atno 6908 bound_to 6896
  152.3618  134.6864  160.0256 H   0  0  0  0  0  0  0  0  0  0  0  0  # atno 6909 bound_to 6896
  145.0552  140.8249  143.4185 H   0  0  0  0  0  0  0  0  0  0  0  0  # atno 7974 bound_to 7965
  154.7936  140.0459  157.1219 H   0  0  0  0  0  0  0  0  0  0  0  0  # atno 8008 bound_to 7997
  154.9562  140.3071  155.5032 H   0  0  0  0  0  0  0  0  0  0  0  0  # atno 8009 bound_to 7997
  156.2953  140.2279  156.4643 H   0  0  0  0  0  0  0  0  0  0  0  0  # atno 8010 bound_to 7997
  140.6175  143.2407  151.5562 H   0  0  0  0  0  0  0  0  0  0  0  0  # atno 10167 bound_to 10162
  156.6044  130.8824  151.2922 H   0  0  0  0  0  0  0  0  0  0  0  0  # atno 10718 bound_to 10713
  153.0545  135.6533  154.0611 H   0  0  0  0  0  0  0  0  0  0  0  0  # atno 10763 bound_to 10752
  154.0292  135.2913  155.3372 H   0  0  0  0  0  0  0  0  0  0  0  0  # atno 10764 bound_to 10752
  154.6853  135.5304  153.8384 H   0  0  0  0  0  0  0  0  0  0  0  0  # atno 10765 bound_to 10752
  140.5124  134.0639  155.7822 H   0  0  0  0  0  0  0  0  0  0  0  0  # atno 11005 bound_to 11000
  145.1477  139.2533  143.5457 LP  0  0  0  0  0  0  0  0  0  0  0  0  # atno 17320 bound_to 7965
  146.3521  140.1171  142.8601 LP  0  0  0  0  0  0  0  0  0  0  0  0  # atno 17321 bound_to 7965
  139.5410  144.2647  152.1351 LP  0  0  0  0  0  0  0  0  0  0  0  0  # atno 17342 bound_to 10162
  140.1859  144.4799  150.6504 LP  0  0  0  0  0  0  0  0  0  0  0  0  # atno 17343 bound_to 10162
  157.7271  130.9638  150.1684 LP  0  0  0  0  0  0  0  0  0  0  0  0  # atno 17370 bound_to 10713
  156.2442  130.3694  149.8304 LP  0  0  0  0  0  0  0  0  0  0  0  0  # atno 17371 bound_to 10713
  141.1378  133.9191  157.2394 LP  0  0  0  0  0  0  0  0  0  0  0  0  # atno 17394 bound_to 11000
  139.9651  135.0144  156.9366 LP  0  0  0  0  0  0  0  0  0  0  0  0  # atno 17395 bound_to 11000

$$$$
