AV-unprocessed.smi:2462|AV-procd|sdf|9717|dock9
  -GOLD-   2272013353D 1   1.00000     0.00000
 Structure written by MMmdl.
 40 41  0  0  0  0  0  0  0  0  1 V2000
  152.1618  144.0741  161.1818 C   0  0  0  0  0  0  0  0  0  0  0  0
  152.0367  143.2111  159.9390 C   0  0  0  0  0  0  0  0  0  0  0  0
  151.2458  143.7377  158.9152 N   0  0  0  0  0  0  0  0  0  0  0  0
  151.0621  143.0600  157.8299 C   0  0  0  0  0  0  0  0  0  0  0  0
  151.6260  141.7856  157.6435 N   0  0  0  0  0  0  0  0  0  0  0  0
  151.3138  141.1234  156.3580 C   0  0  0  0  0  0  0  0  0  0  0  0
  150.0880  140.1548  156.3815 C   0  0  1  0  0  0  0  0  0  0  0  0
  150.4633  139.0356  157.1628 O   0  0  0  0  0  0  0  0  0  0  0  0
  148.8956  140.7784  157.1474 C   0  0  0  0  0  0  0  0  0  0  0  0
  148.1385  141.8369  156.3254 C   0  0  0  0  0  0  0  0  0  0  0  0
  147.6569  141.2681  154.9788 C   0  0  1  0  0  0  0  0  0  0  0  0
  146.9026  142.3250  154.1600 C   0  0  0  0  0  0  0  0  0  0  0  0
  148.8441  140.6874  154.1905 C   0  0  0  0  0  0  0  0  0  0  0  0
  149.6074  139.6284  155.0052 C   0  0  0  0  0  0  0  0  0  0  0  0
  152.4705  141.2333  158.5652 C   0  0  0  0  0  0  0  0  0  0  0  0
  153.0419  140.1599  158.3679 O   0  0  0  0  0  0  0  0  0  0  0  0
  152.6501  142.0040  159.8066 C   0  0  0  0  0  0  0  0  0  0  0  0
  153.5268  141.3816  160.8865 C   0  0  0  0  0  0  0  0  0  0  0  0
  153.2042  144.3404  161.3586 H   0  0  0  0  0  0  0  0  0  0  0  0
  151.7833  143.5428  162.0553 H   0  0  0  0  0  0  0  0  0  0  0  0
  151.5928  144.9995  161.0819 H   0  0  0  0  0  0  0  0  0  0  0  0
  150.4644  143.4342  156.9973 H   0  0  0  0  0  0  0  0  0  0  0  0
  151.1722  141.8807  155.5838 H   0  0  0  0  0  0  0  0  0  0  0  0
  152.1889  140.5755  156.0107 H   0  0  0  0  0  0  0  0  0  0  0  0
  149.6795  138.6246  157.4942 H   0  0  0  0  0  0  0  0  0  0  0  0
  148.1848  139.9963  157.4200 H   0  0  0  0  0  0  0  0  0  0  0  0
  149.2356  141.2143  158.0881 H   0  0  0  0  0  0  0  0  0  0  0  0
  147.2843  142.1955  156.9007 H   0  0  0  0  0  0  0  0  0  0  0  0
  148.7726  142.7071  156.1554 H   0  0  0  0  0  0  0  0  0  0  0  0
  146.9603  140.4545  155.1862 H   0  0  0  0  0  0  0  0  0  0  0  0
  147.5452  143.1721  153.9176 H   0  0  0  0  0  0  0  0  0  0  0  0
  146.0417  142.7066  154.7097 H   0  0  0  0  0  0  0  0  0  0  0  0
  146.5357  141.9069  153.2221 H   0  0  0  0  0  0  0  0  0  0  0  0
  148.4887  140.2399  153.2617 H   0  0  0  0  0  0  0  0  0  0  0  0
  149.5143  141.4930  153.8997 H   0  0  0  0  0  0  0  0  0  0  0  0
  150.4370  139.2303  154.4208 H   0  0  0  0  0  0  0  0  0  0  0  0
  148.9344  138.7840  155.1624 H   0  0  0  0  0  0  0  0  0  0  0  0
  153.1194  140.4171  161.1914 H   0  0  0  0  0  0  0  0  0  0  0  0
  153.6118  141.9982  161.7797 H   0  0  0  0  0  0  0  0  0  0  0  0
  154.5349  141.2176  160.5046 H   0  0  0  0  0  0  0  0  0  0  0  0
  1  2  1  0  0  0  0
  1 19  1  0  0  0  0
  1 20  1  0  0  0  0
  1 21  1  0  0  0  0
  2 17  2  0  0  0  0
  2  3  1  0  0  0  0
  3  4  2  0  0  0  0
  4  5  1  0  0  0  0
  4 22  1  0  0  0  0
  5  6  1  0  0  0  0
  5 15  1  0  0  0  0
  6  7  1  0  0  0  0
  6 23  1  0  0  0  0
  6 24  1  0  0  0  0
  7 14  1  0  0  0  0
  7  8  1  0  0  0  0
  7  9  1  0  0  0  0
  8 25  1  0  0  0  0
  9 10  1  0  0  0  0
  9 26  1  0  0  0  0
  9 27  1  0  0  0  0
 10 11  1  0  0  0  0
 10 28  1  0  0  0  0
 10 29  1  0  0  0  0
 11 12  1  0  0  0  0
 11 13  1  0  0  0  0
 11 30  1  0  0  0  0
 12 31  1  0  0  0  0
 12 32  1  0  0  0  0
 12 33  1  0  0  0  0
 13 14  1  0  0  0  0
 13 34  1  0  0  0  0
 13 35  1  0  0  0  0
 14 36  1  0  0  0  0
 14 37  1  0  0  0  0
 15 16  2  0  0  0  0
 15 17  1  0  0  0  0
 17 18  1  0  0  0  0
 18 38  1  0  0  0  0
 18 39  1  0  0  0  0
 18 40  1  0  0  0  0
M  END
> <s_m_source_file>
AV-unprocessed.smi

> <i_m_source_file_index>
2462

> <i_lp_mmshare_version>
43012

> <i_f3d_flags>
0

> <s_epik_input>
W0NIM11jMW5bY0hdbihjKD1PKWMxW0NIM10pW0NIMl1bQ0BAXTIoW09IXSlbQ0gyXVtDSDJdW0NAQEhdKFtDSDNdKVtDSDJdW0NIMl0y

> <s_epik_cmdline>
J2VwaWtfcHl0aG9uJywgJy1waCcsICc3LjAnLCAnLXRuJywgJzgnLCAnLW1hJywgJzIwMCcsICctbWV0YWxfYmluZGluZycsICctaW1hZScsICc8aW5maWxlLm1hZT4nLCAnLW9tYWUnLCAnPG91dGZpbGUubWFlPic=

> <r_lp_tautomer_probability>
1

> <r_epik_Ionization_Penalty>
0.000179745

> <r_epik_Ionization_Penalty_Charging>
2.35483e-07

> <r_epik_Ionization_Penalty_Neutral>
0.00017951

> <r_epik_State_Penalty>
-0

> <r_epik_Charging_Adjusted_Penalty>
2.35483e-07

> <i_epik_Tot_Q>
0

> <i_epik_Tot_abs_Q>
0

> <r_epik_Metal_State_Penalty>
-0

> <b_epik_Metal_Only>
0

> <s_lp_Force_Field>
OPLS_2005

> <r_lp_Energy>
24.5365

> <b_lp_Chiralities_Consistent>
1

> <s_lp_Variant>
AV-unprocessed.smi:2462-1

> <Gold.Version>
5.8.1

> <Gold.Id.Protein>
6NUR|6NUR_protein|mol2

> <Gold.PLP.Fitness>
41.1633

> <Gold.PLP.PLP>
-36.0492

> <Gold.PLP.part.hbond>
-1.0000

> <Gold.PLP.part.metal>
0.0000

> <Gold.PLP.part.buried>
-3.1688

> <Gold.PLP.part.nonpolar>
-30.8166

> <Gold.PLP.part.repulsive>
0.0776

> <Gold.PLP.ligand.clash>
0.0000

> <Gold.PLP.ligand.torsion>
0.4699

> <Gold.PLP.Chemscore.Hbond>
0.9920

> <Gold.PLP.Chemscore.CHOScore>
1.0000

> <Gold.PLP.Chemscore.Metal>
0.0000

> <Gold.Chemscore.Hbonds>
donor molecule, donor type, donor heavy atom, donor atom, acceptor molecule, acceptor atom, score
      P1  H  7997  8008       L1    16  0.95
      L1  C     4    22       P1  8028  1.00

> <Gold.PLP.Chemscore.Internal.Correction>
0.0780

> <Gold.Rescore>
     Score         DG    S(hbond)    S(metal)    S(lipo)     H(rot)  DE(clash)    DE(int)     intcor
     13.83     -14.40       0.96        0.00      85.61       1.68       0.08       0.49       ----

> <Gold.Chemscore.Fitness>
13.8280

> <Gold.Chemscore.DG>
-14.3969

> <Gold.Chemscore.ZeroCoef>
-5.4800

> <Gold.Chemscore.Hbond>
0.9551

> <Gold.Chemscore.Metal>
0.0000

> <Gold.Chemscore.Lipo>
85.6129

> <Gold.Chemscore.Internal_Hbond>
0.0000

> <Gold.Chemscore.DEClash>
0.0824

> <Gold.Chemscore.DEInternal>
0.4865

> <Gold.Chemscore.Rot>
1.6758

> <Gold.Chemscore.Internal.Correction>
   9.000000E+99

> <Gold.Chemscore.Hbonds>
donor molecule, donor type, donor heavy atom, donor atom, acceptor molecule, acceptor atom, score
      P1  H  7997  8008       L1    16  0.84

> <Gold.Chemscore.Hbond.Weighted>
-3.1901

> <Gold.Chemscore.Metal.Weighted>
-0.0000

> <Gold.Chemscore.Lipo.Weighted>
-10.0167

> <Gold.Chemscore.Internal_Hbond.Weighted>
0.0000

> <Gold.Chemscore.DEClash.Weighted>
0.0824

> <Gold.Chemscore.DEInternal.Weighted>
0.4865

> <Gold.Chemscore.Rot.Weighted>
4.2899

> <Gold.Chemscore.Internal.Correction.Weighted>
   9.000000E+99

> <Gold.Protein.RotatedTorsions>
[ 6907 6896 6895 6894 ] final -142.99 input  -60.11 | X-H torsion
[ 7974 7965 7964 7962 ] final  137.36 input  175.53 | X-H torsion
[ 8008 7997 7996 7995 ] final  -83.47 input   59.86 | X-H torsion
[ 10167 10162 10161 10158 ] final -135.92 input  -65.29 | X-H torsion
[ 10718 10713 10712 10709 ] final  172.63 input   66.30 | X-H torsion
[ 10763 10752 10751 10750 ] final -168.38 input  -60.55 | X-H torsion
[ 11005 11000 10999 10996 ] final  152.92 input  -57.11 | X-H torsion

> <Gold.Protein.ActiveResidues>
 VAL166  LYS551  ARG553  GLY616  TRP617  ASP618  TYR619  PRO620  LYS621  CYS622 
 ASP623  PHE694  ASN695  SER759  ASP760  ASP761  ALA762  ILE779  LEU786  VAL792 
 PHE793  MET794  SER795  GLU796  ALA797  LYS798  CYS799  TRP800  GLU811  SER814 

> <Gold.Protein.RotatedAtoms>
  151.0944  133.5291  159.2612 H   0  0  0  0  0  0  0  0  0  0  0  0  # atno 6907 bound_to 6896
  151.2146  135.0494  159.8935 H   0  0  0  0  0  0  0  0  0  0  0  0  # atno 6908 bound_to 6896
  152.5437  134.0755  159.8266 H   0  0  0  0  0  0  0  0  0  0  0  0  # atno 6909 bound_to 6896
  144.9475  139.4857  143.5542 H   0  0  0  0  0  0  0  0  0  0  0  0  # atno 7974 bound_to 7965
  154.6194  140.0618  156.9595 H   0  0  0  0  0  0  0  0  0  0  0  0  # atno 8008 bound_to 7997
  155.1842  140.3302  155.4351 H   0  0  0  0  0  0  0  0  0  0  0  0  # atno 8009 bound_to 7997
  156.2423  140.1892  156.6937 H   0  0  0  0  0  0  0  0  0  0  0  0  # atno 8010 bound_to 7997
  139.8730  143.6933  152.2637 H   0  0  0  0  0  0  0  0  0  0  0  0  # atno 10167 bound_to 10162
  156.9761  131.0105  151.2893 H   0  0  0  0  0  0  0  0  0  0  0  0  # atno 10718 bound_to 10713
  154.6634  135.2928  154.9837 H   0  0  0  0  0  0  0  0  0  0  0  0  # atno 10763 bound_to 10752
  154.0888  135.6593  153.4853 H   0  0  0  0  0  0  0  0  0  0  0  0  # atno 10764 bound_to 10752
  153.0443  135.5215  154.7596 H   0  0  0  0  0  0  0  0  0  0  0  0  # atno 10765 bound_to 10752
  140.1351  134.8776  157.2257 H   0  0  0  0  0  0  0  0  0  0  0  0  # atno 11005 bound_to 11000
  146.3309  139.8538  142.8868 LP  0  0  0  0  0  0  0  0  0  0  0  0  # atno 17320 bound_to 7965
  145.2895  141.0163  143.3671 LP  0  0  0  0  0  0  0  0  0  0  0  0  # atno 17321 bound_to 7965
  139.7266  144.7591  151.0869 LP  0  0  0  0  0  0  0  0  0  0  0  0  # atno 17342 bound_to 10162
  140.7757  143.5141  150.9617 LP  0  0  0  0  0  0  0  0  0  0  0  0  # atno 17343 bound_to 10162
  157.5559  130.8213  149.8203 LP  0  0  0  0  0  0  0  0  0  0  0  0  # atno 17370 bound_to 10713
  156.0263  130.3778  150.1814 LP  0  0  0  0  0  0  0  0  0  0  0  0  # atno 17371 bound_to 10713
  140.2792  134.3369  155.7348 LP  0  0  0  0  0  0  0  0  0  0  0  0  # atno 17394 bound_to 11000
  141.2177  133.7468  156.9339 LP  0  0  0  0  0  0  0  0  0  0  0  0  # atno 17395 bound_to 11000

$$$$
