AV-unprocessed.smi:2195|AV-procd|sdf|8907|dock8
  -GOLD-   2272012123D 1   1.00000     0.00000
 Structure written by MMmdl.
 40 42  0  0  0  0  0  0  0  0  2 V2000
  151.0513  142.1620  156.1730 C   0  0  0  0  0  0  0  0  0  0  0  0
  150.2049  141.1730  155.3983 C   0  0  0  0  0  0  0  0  0  0  0  0
  150.6418  139.8448  155.2259 C   0  0  0  0  0  0  0  0  0  0  0  0
  149.8504  138.9288  154.5065 C   0  0  0  0  0  0  0  0  0  0  0  0
  148.6140  139.3201  153.9529 C   0  0  0  0  0  0  0  0  0  0  0  0
  147.9036  138.3590  153.2659 O   0  0  0  0  0  0  0  0  0  0  0  0
  146.6966  138.7460  152.6224 C   0  0  0  0  0  0  0  0  0  0  0  0
  145.7985  137.5106  152.4573 C   0  0  1  0  0  0  0  0  0  0  0  0
  144.4692  137.9495  152.2580 O   0  0  0  0  0  0  0  0  0  0  0  0
  146.2435  136.6124  151.2857 C   0  0  0  0  0  0  0  0  0  0  0  0
  145.3136  135.5022  151.0324 N   0  0  0  0  0  0  0  0  0  0  0  0
  144.0732  135.5207  150.4737 C   0  0  0  0  0  0  0  0  0  0  0  0
  143.6101  134.2402  150.4557 N   0  3  0  0  0  0  0  0  0  0  0  0
  144.5689  133.3898  151.0106 C   0  0  0  0  0  0  0  0  0  0  0  0
  144.5584  132.0125  151.2089 C   0  0  0  0  0  0  0  0  0  0  0  0
  145.7070  131.4502  151.8040 C   0  0  0  0  0  0  0  0  0  0  0  0
  146.8078  132.2491  152.1751 C   0  0  0  0  0  0  0  0  0  0  0  0
  146.8070  133.6446  151.9700 C   0  0  0  0  0  0  0  0  0  0  0  0
  145.6672  134.1937  151.3833 C   0  0  0  0  0  0  0  0  0  0  0  0
  148.1788  140.6575  154.1331 C   0  0  0  0  0  0  0  0  0  0  0  0
  148.9707  141.5751  154.8507 C   0  0  0  0  0  0  0  0  0  0  0  0
  152.1017  141.8690  156.1667 H   0  0  0  0  0  0  0  0  0  0  0  0
  150.7154  142.2130  157.2090 H   0  0  0  0  0  0  0  0  0  0  0  0
  150.9767  143.1589  155.7375 H   0  0  0  0  0  0  0  0  0  0  0  0
  151.5846  139.5233  155.6441 H   0  0  0  0  0  0  0  0  0  0  0  0
  150.1965  137.9138  154.3787 H   0  0  0  0  0  0  0  0  0  0  0  0
  146.1851  139.4913  153.2342 H   0  0  0  0  0  0  0  0  0  0  0  0
  146.9029  139.1917  151.6477 H   0  0  0  0  0  0  0  0  0  0  0  0
  145.8147  136.9336  153.3829 H   0  0  0  0  0  0  0  0  0  0  0  0
  144.3860  138.2595  151.3688 H   0  0  0  0  0  0  0  0  0  0  0  0
  146.3758  137.1890  150.3700 H   0  0  0  0  0  0  0  0  0  0  0  0
  147.2147  136.1682  151.5065 H   0  0  0  0  0  0  0  0  0  0  0  0
  143.5504  136.3939  150.1104 H   0  0  0  0  0  0  0  0  0  0  0  0
  143.7175  131.3976  150.9235 H   0  0  0  0  0  0  0  0  0  0  0  0
  145.7452  130.3846  151.9780 H   0  0  0  0  0  0  0  0  0  0  0  0
  147.6720  131.7824  152.6252 H   0  0  0  0  0  0  0  0  0  0  0  0
  147.6582  134.2461  152.2524 H   0  0  0  0  0  0  0  0  0  0  0  0
  147.2395  141.0060  153.7315 H   0  0  0  0  0  0  0  0  0  0  0  0
  148.6257  142.5905  154.9797 H   0  0  0  0  0  0  0  0  0  0  0  0
  142.7061  133.9691  150.0903 H   0  0  0  0  0  0  0  0  0  0  0  0
  1  2  1  0  0  0  0
  1 22  1  0  0  0  0
  1 23  1  0  0  0  0
  1 24  1  0  0  0  0
  2 21  1  0  0  0  0
  2  3  2  0  0  0  0
  3  4  1  0  0  0  0
  3 25  1  0  0  0  0
  4  5  2  0  0  0  0
  4 26  1  0  0  0  0
  5  6  1  0  0  0  0
  5 20  1  0  0  0  0
  6  7  1  0  0  0  0
  7  8  1  0  0  0  0
  7 27  1  0  0  0  0
  7 28  1  0  0  0  0
  8  9  1  0  0  0  0
  8 10  1  0  0  0  0
  8 29  1  0  0  0  0
  9 30  1  0  0  0  0
 10 11  1  0  0  0  0
 10 31  1  0  0  0  0
 10 32  1  0  0  0  0
 11 19  1  0  0  0  0
 11 12  1  0  0  0  0
 12 13  2  0  0  0  0
 12 33  1  0  0  0  0
 13 14  1  0  0  0  0
 13 40  1  0  0  0  0
 14 19  2  0  0  0  0
 14 15  1  0  0  0  0
 15 16  2  0  0  0  0
 15 34  1  0  0  0  0
 16 17  1  0  0  0  0
 16 35  1  0  0  0  0
 17 18  2  0  0  0  0
 17 36  1  0  0  0  0
 18 19  1  0  0  0  0
 18 37  1  0  0  0  0
 20 21  2  0  0  0  0
 20 38  1  0  0  0  0
 21 39  1  0  0  0  0
M  CHG  1  13   1
M  END
> <s_m_source_file>
AV-unprocessed.smi

> <i_m_source_file_index>
2195

> <i_lp_mmshare_version>
43012

> <i_f3d_flags>
0

> <s_epik_input>
W0NIM11jMVtjSF1bY0hdYyhbY0hdW2NIXTEpT1tDSDJdW0NASF0oW09IXSlbQ0gyXW4oW2NIXW4yKWMoYzIzKVtjSF1bY0hdW2NIXVtjSF0z

> <s_epik_cmdline>
J2VwaWtfcHl0aG9uJywgJy1waCcsICc3LjAnLCAnLXRuJywgJzgnLCAnLW1hJywgJzIwMCcsICctbWV0YWxfYmluZGluZycsICctaW1hZScsICc8aW5maWxlLm1hZT4nLCAnLW9tYWUnLCAnPG91dGZpbGUubWFlPic=

> <r_lp_tautomer_probability>
1

> <r_epik_Ionization_Penalty>
1.3774

> <r_epik_Ionization_Penalty_Charging>
1.37739

> <r_epik_Ionization_Penalty_Neutral>
2.3993e-06

> <r_epik_State_Penalty>
1.45762

> <r_epik_Charging_Adjusted_Penalty>
2.83501

> <i_epik_Tot_Q>
1

> <i_epik_Tot_abs_Q>
1

> <r_epik_Metal_State_Penalty>
5.49752

> <b_epik_Metal_Only>
0

> <s_lp_Force_Field>
OPLS_2005

> <r_lp_Energy>
19.9339

> <b_lp_Chiralities_Consistent>
1

> <s_lp_Variant>
AV-unprocessed.smi:2195-4

> <Gold.Version>
5.8.1

> <Gold.Id.Protein>
6NUR|6NUR_protein|mol2

> <Gold.PLP.Fitness>
51.1583

> <Gold.PLP.PLP>
-40.1132

> <Gold.PLP.part.hbond>
-3.0000

> <Gold.PLP.part.metal>
0.0000

> <Gold.PLP.part.buried>
-1.1697

> <Gold.PLP.part.nonpolar>
-38.4695

> <Gold.PLP.part.repulsive>
2.5016

> <Gold.PLP.ligand.clash>
0.0000

> <Gold.PLP.ligand.torsion>
0.4830

> <Gold.PLP.Chemscore.Hbond>
2.9840

> <Gold.PLP.Chemscore.CHOScore>
1.0000

> <Gold.PLP.Chemscore.Metal>
0.0000

> <Gold.Chemscore.Hbonds>
donor molecule, donor type, donor heavy atom, donor atom, acceptor molecule, acceptor atom, score
      L1  H     9    30       P1 10171  1.00
      L1  H    13    40       P1 10186  1.98
      L1  C    12    33       P1 10171  1.00

> <Gold.PLP.Chemscore.Internal.Correction>
0.0592

> <Gold.Rescore>
     Score         DG    S(hbond)    S(metal)    S(lipo)     H(rot)  DE(clash)    DE(int)     intcor
     16.20     -17.26       1.75        0.00     100.34       2.27       0.51       0.55       ----

> <Gold.Chemscore.Fitness>
16.1956

> <Gold.Chemscore.DG>
-17.2581

> <Gold.Chemscore.ZeroCoef>
-5.4800

> <Gold.Chemscore.Hbond>
1.7530

> <Gold.Chemscore.Metal>
0.0000

> <Gold.Chemscore.Lipo>
100.3421

> <Gold.Chemscore.Internal_Hbond>
0.0000

> <Gold.Chemscore.DEClash>
0.5118

> <Gold.Chemscore.DEInternal>
0.5507

> <Gold.Chemscore.Rot>
2.2723

> <Gold.Chemscore.Internal.Correction>
   9.000000E+99

> <Gold.Chemscore.Hbonds>
donor molecule, donor type, donor heavy atom, donor atom, acceptor molecule, acceptor atom, score
      L1  H     9    30       P1 10171  1.00
      L1  H    13    40       P1 10186  0.94

> <Gold.Chemscore.Hbond.Weighted>
-5.8551

> <Gold.Chemscore.Metal.Weighted>
-0.0000

> <Gold.Chemscore.Lipo.Weighted>
-11.7400

> <Gold.Chemscore.Internal_Hbond.Weighted>
0.0000

> <Gold.Chemscore.DEClash.Weighted>
0.5118

> <Gold.Chemscore.DEInternal.Weighted>
0.5507

> <Gold.Chemscore.Rot.Weighted>
5.8170

> <Gold.Chemscore.Internal.Correction.Weighted>
   9.000000E+99

> <Gold.Protein.RotatedTorsions>
[ 6907 6896 6895 6894 ] final -105.21 input  -60.11 | X-H torsion
[ 7974 7965 7964 7962 ] final -116.03 input  175.53 | X-H torsion
[ 8008 7997 7996 7995 ] final  154.78 input   59.86 | X-H torsion
[ 10167 10162 10161 10158 ] final   78.71 input  -65.29 | X-H torsion
[ 10718 10713 10712 10709 ] final  173.94 input   66.30 | X-H torsion
[ 10763 10752 10751 10750 ] final  117.16 input  -60.55 | X-H torsion
[ 11005 11000 10999 10996 ] final  145.61 input  -57.11 | X-H torsion

> <Gold.Protein.ActiveResidues>
 VAL166  LYS551  ARG553  GLY616  TRP617  ASP618  TYR619  PRO620  LYS621  CYS622 
 ASP623  PHE694  ASN695  SER759  ASP760  ASP761  ALA762  ILE779  LEU786  VAL792 
 PHE793  MET794  SER795  GLU796  ALA797  LYS798  CYS799  TRP800  GLU811  SER814 

> <Gold.Protein.RotatedAtoms>
  150.7325  134.0160  159.3685 H   0  0  0  0  0  0  0  0  0  0  0  0  # atno 6907 bound_to 6896
  151.8122  135.0675  160.0424 H   0  0  0  0  0  0  0  0  0  0  0  0  # atno 6908 bound_to 6896
  152.3064  133.5671  159.5688 H   0  0  0  0  0  0  0  0  0  0  0  0  # atno 6909 bound_to 6896
  145.1015  140.8555  143.3923 H   0  0  0  0  0  0  0  0  0  0  0  0  # atno 7974 bound_to 7965
  156.2513  140.1957  156.6700 H   0  0  0  0  0  0  0  0  0  0  0  0  # atno 8008 bound_to 7997
  154.6400  140.0585  156.9860 H   0  0  0  0  0  0  0  0  0  0  0  0  # atno 8009 bound_to 7997
  155.1577  140.3257  155.4420 H   0  0  0  0  0  0  0  0  0  0  0  0  # atno 8010 bound_to 7997
  139.9680  144.5914  150.8011 H   0  0  0  0  0  0  0  0  0  0  0  0  # atno 10167 bound_to 10162
  156.9569  131.0048  151.2936 H   0  0  0  0  0  0  0  0  0  0  0  0  # atno 10718 bound_to 10713
  153.5481  135.3545  155.2747 H   0  0  0  0  0  0  0  0  0  0  0  0  # atno 10763 bound_to 10752
  154.8710  135.4107  154.2968 H   0  0  0  0  0  0  0  0  0  0  0  0  # atno 10764 bound_to 10752
  153.3689  135.7063  153.6722 H   0  0  0  0  0  0  0  0  0  0  0  0  # atno 10765 bound_to 10752
  140.0726  134.9143  157.1370 H   0  0  0  0  0  0  0  0  0  0  0  0  # atno 11005 bound_to 11000
  145.0950  139.2863  143.5715 LP  0  0  0  0  0  0  0  0  0  0  0  0  # atno 17320 bound_to 7965
  146.3529  140.0499  142.8636 LP  0  0  0  0  0  0  0  0  0  0  0  0  # atno 17321 bound_to 7965
  140.7531  143.3003  151.3098 LP  0  0  0  0  0  0  0  0  0  0  0  0  # atno 17342 bound_to 10162
  139.6503  144.0375  152.2621 LP  0  0  0  0  0  0  0  0  0  0  0  0  # atno 17343 bound_to 10162
  157.5684  130.8293  149.8358 LP  0  0  0  0  0  0  0  0  0  0  0  0  # atno 17370 bound_to 10713
  156.0339  130.3757  150.1613 LP  0  0  0  0  0  0  0  0  0  0  0  0  # atno 17371 bound_to 10713
  140.3604  134.2500  155.7188 LP  0  0  0  0  0  0  0  0  0  0  0  0  # atno 17394 bound_to 11000
  141.2017  133.7955  157.0425 LP  0  0  0  0  0  0  0  0  0  0  0  0  # atno 17395 bound_to 11000

$$$$
