AV-unprocessed.smi:229|AV-procd|sdf|1757|dock9
  -GOLD-   2262020283D 1   1.00000     0.00000
 Structure written by MMmdl.
 58 62  0  0  0  0  0  0  0  0  1 V2000
  149.5570  131.7672  156.8482 C   0  0  0  0  0  0  0  0  0  0  0  0
  148.5261  132.1255  155.7705 C   0  0  0  0  0  0  0  0  0  0  0  0
  148.1566  133.6162  155.7685 C   0  0  2  0  0  0  0  0  0  0  0  0
  149.3846  134.5118  156.0052 C   0  0  0  0  0  0  0  0  0  0  0  0
  148.9684  135.9067  156.0944 N   0  0  0  0  0  0  0  0  0  0  0  0
  149.9171  136.8713  155.9969 C   0  0  0  0  0  0  0  0  0  0  0  0
  150.7374  136.9129  154.9128 N   0  0  0  0  0  0  0  0  0  0  0  0
  151.6790  137.8563  154.8146 C   0  0  0  0  0  0  0  0  0  0  0  0
  151.9672  138.8408  155.6681 N   0  0  0  0  0  0  0  0  0  0  0  0
  151.1418  138.8097  156.7530 C   0  0  0  0  0  0  0  0  0  0  0  0
  150.1012  137.8691  156.9955 C   0  0  0  0  0  0  0  0  0  0  0  0
  149.4689  138.1640  158.1984 N   0  0  0  0  0  0  0  0  0  0  0  0
  150.1045  139.2132  158.6442 C   0  0  0  0  0  0  0  0  0  0  0  0
  151.1222  139.6684  157.8371 N   0  0  0  0  0  0  0  0  0  0  0  0
  151.9829  140.8128  158.0798 C   0  0  0  0  0  0  0  0  0  0  0  0
  151.2606  142.1526  157.8369 C   0  0  1  0  0  0  0  0  0  0  0  0
  150.1071  142.2155  158.6547 O   0  0  0  0  0  0  0  0  0  0  0  0
  152.1567  143.3652  158.1500 C   0  0  2  0  0  0  0  0  0  0  0  0
  152.7133  143.3922  159.5750 C   0  0  0  0  0  0  0  0  0  0  0  0
  152.9547  144.8700  159.8429 C   0  0  0  0  0  0  0  0  0  0  0  0
  152.1952  145.5815  158.7203 C   0  0  0  0  0  0  0  0  0  0  0  0
  151.4074  144.5698  158.1095 O   0  0  0  0  0  0  0  0  0  0  0  0
  147.9564  136.1352  157.1192 C   0  0  0  0  0  0  0  0  0  0  0  0
  146.7454  135.1978  156.9154 C   0  0  2  0  0  0  0  0  0  0  0  0
  145.8633  135.5908  155.7248 C   0  0  0  0  0  0  0  0  0  0  0  0
  144.6622  136.2668  156.3703 C   0  0  0  0  0  0  0  0  0  0  0  0
  144.4821  135.4987  157.5450 O   0  0  0  0  0  0  0  0  0  0  0  0
  145.7700  135.2841  158.1050 C   0  0  0  0  0  0  0  0  0  0  0  0
  147.2038  133.8465  156.8080 O   0  0  0  0  0  0  0  0  0  0  0  0
  149.7827  130.7008  156.8300 H   0  0  0  0  0  0  0  0  0  0  0  0
  149.1876  132.0125  157.8441 H   0  0  0  0  0  0  0  0  0  0  0  0
  150.4924  132.3064  156.6956 H   0  0  0  0  0  0  0  0  0  0  0  0
  148.9089  131.8388  154.7903 H   0  0  0  0  0  0  0  0  0  0  0  0
  147.6266  131.5309  155.9349 H   0  0  0  0  0  0  0  0  0  0  0  0
  147.7174  133.8631  154.8010 H   0  0  0  0  0  0  0  0  0  0  0  0
  149.8901  134.2248  156.9287 H   0  0  0  0  0  0  0  0  0  0  0  0
  150.0962  134.3825  155.1886 H   0  0  0  0  0  0  0  0  0  0  0  0
  152.2894  137.8163  153.9245 H   0  0  0  0  0  0  0  0  0  0  0  0
  149.8419  139.6907  159.5770 H   0  0  0  0  0  0  0  0  0  0  0  0
  152.3564  140.7591  159.1035 H   0  0  0  0  0  0  0  0  0  0  0  0
  152.8521  140.7266  157.4265 H   0  0  0  0  0  0  0  0  0  0  0  0
  150.9369  142.2025  156.7961 H   0  0  0  0  0  0  0  0  0  0  0  0
  149.3628  141.9338  158.1451 H   0  0  0  0  0  0  0  0  0  0  0  0
  152.9736  143.4346  157.4287 H   0  0  0  0  0  0  0  0  0  0  0  0
  151.9705  143.0126  160.2783 H   0  0  0  0  0  0  0  0  0  0  0  0
  153.6153  142.7892  159.6838 H   0  0  0  0  0  0  0  0  0  0  0  0
  152.5768  145.1522  160.8262 H   0  0  0  0  0  0  0  0  0  0  0  0
  154.0162  145.1172  159.8072 H   0  0  0  0  0  0  0  0  0  0  0  0
  151.5728  146.3984  159.0861 H   0  0  0  0  0  0  0  0  0  0  0  0
  152.8912  145.9871  157.9844 H   0  0  0  0  0  0  0  0  0  0  0  0
  148.4112  135.9437  158.0921 H   0  0  0  0  0  0  0  0  0  0  0  0
  147.6214  137.1719  157.1323 H   0  0  0  0  0  0  0  0  0  0  0  0
  146.3651  136.2310  154.9982 H   0  0  0  0  0  0  0  0  0  0  0  0
  145.5199  134.6986  155.1993 H   0  0  0  0  0  0  0  0  0  0  0  0
  144.8857  137.3022  156.6324 H   0  0  0  0  0  0  0  0  0  0  0  0
  143.7757  136.2508  155.7360 H   0  0  0  0  0  0  0  0  0  0  0  0
  145.7773  134.3868  158.7245 H   0  0  0  0  0  0  0  0  0  0  0  0
  146.0080  136.1306  158.7511 H   0  0  0  0  0  0  0  0  0  0  0  0
  1  2  1  0  0  0  0
  1 30  1  0  0  0  0
  1 31  1  0  0  0  0
  1 32  1  0  0  0  0
  2  3  1  0  0  0  0
  2 33  1  0  0  0  0
  2 34  1  0  0  0  0
  3 29  1  0  0  0  0
  3  4  1  0  0  0  0
  3 35  1  0  0  0  0
  4  5  1  0  0  0  0
  4 36  1  0  0  0  0
  4 37  1  0  0  0  0
  5  6  1  0  0  0  0
  5 23  1  0  0  0  0
  6 11  1  0  0  0  0
  6  7  2  0  0  0  0
  7  8  1  0  0  0  0
  8  9  2  0  0  0  0
  8 38  1  0  0  0  0
  9 10  1  0  0  0  0
 10 14  1  0  0  0  0
 10 11  2  0  0  0  0
 11 12  1  0  0  0  0
 12 13  2  0  0  0  0
 13 14  1  0  0  0  0
 13 39  1  0  0  0  0
 14 15  1  0  0  0  0
 15 16  1  0  0  0  0
 15 40  1  0  0  0  0
 15 41  1  0  0  0  0
 16 17  1  0  0  0  0
 16 18  1  0  0  0  0
 16 42  1  0  0  0  0
 17 43  1  0  0  0  0
 18 22  1  0  0  0  0
 18 19  1  0  0  0  0
 18 44  1  0  0  0  0
 19 20  1  0  0  0  0
 19 45  1  0  0  0  0
 19 46  1  0  0  0  0
 20 21  1  0  0  0  0
 20 47  1  0  0  0  0
 20 48  1  0  0  0  0
 21 22  1  0  0  0  0
 21 49  1  0  0  0  0
 21 50  1  0  0  0  0
 23 24  1  0  0  0  0
 23 51  1  0  0  0  0
 23 52  1  0  0  0  0
 24 28  1  0  0  0  0
 24 25  1  0  0  0  0
 24 29  1  0  0  0  0
 25 26  1  0  0  0  0
 25 53  1  0  0  0  0
 25 54  1  0  0  0  0
 26 27  1  0  0  0  0
 26 55  1  0  0  0  0
 26 56  1  0  0  0  0
 27 28  1  0  0  0  0
 28 57  1  0  0  0  0
 28 58  1  0  0  0  0
M  END
> <s_m_source_file>
AV-unprocessed.smi

> <i_m_source_file_index>
229

> <i_lp_mmshare_version>
43012

> <i_f3d_flags>
0

> <s_epik_input>
W0NIMl0xT1tDSDJdW0NIMl1bQ0BdMTJbQ0gyXU4oW0NIMl1bQ0BIXShPMilbQ0gyXVtDSDNdKWMobltjSF1uMyljKGMzNCluW2NIXW40W0NIMl1bQ0BIXShbT0hdKVtDQEBIXTVbQ0gyXVtDSDJdW0NIMl1PNQ==

> <s_epik_cmdline>
J2VwaWtfcHl0aG9uJywgJy1waCcsICc3LjAnLCAnLXRuJywgJzgnLCAnLW1hJywgJzIwMCcsICctbWV0YWxfYmluZGluZycsICctaW1hZScsICc8aW5maWxlLm1hZT4nLCAnLW9tYWUnLCAnPG91dGZpbGUubWFlPic=

> <r_lp_tautomer_probability>
1

> <r_epik_Ionization_Penalty>
0.00318402

> <r_epik_Ionization_Penalty_Charging>
0

> <r_epik_Ionization_Penalty_Neutral>
0.00318402

> <r_epik_State_Penalty>
0.00215642

> <r_epik_Charging_Adjusted_Penalty>
0.00215642

> <i_epik_Tot_Q>
0

> <i_epik_Tot_abs_Q>
0

> <r_epik_Metal_State_Penalty>
-0

> <b_epik_Metal_Only>
0

> <s_lp_Force_Field>
OPLS_2005

> <r_lp_Energy>
53.2063

> <b_lp_Chiralities_Consistent>
1

> <s_lp_Variant>
AV-unprocessed.smi:229-11

> <Gold.Version>
5.8.1

> <Gold.Id.Protein>
6NUR|6NUR_protein|mol2

> <Gold.PLP.Fitness>
45.7711

> <Gold.PLP.PLP>
-40.7037

> <Gold.PLP.part.hbond>
-2.2299

> <Gold.PLP.part.metal>
0.0000

> <Gold.PLP.part.buried>
-6.7332

> <Gold.PLP.part.nonpolar>
-32.2980

> <Gold.PLP.part.repulsive>
0.4956

> <Gold.PLP.ligand.clash>
0.0000

> <Gold.PLP.ligand.torsion>
0.6086

> <Gold.PLP.Chemscore.Hbond>
1.9750

> <Gold.PLP.Chemscore.CHOScore>
0.0000

> <Gold.PLP.Chemscore.Metal>
0.0000

> <Gold.PLP.Chemscore.Internal.Correction>
0.3596

> <Gold.Rescore>
     Score         DG    S(hbond)    S(metal)    S(lipo)     H(rot)  DE(clash)    DE(int)     intcor
      9.66     -13.92       1.07        0.00      95.40       2.46       1.86       2.40       ----

> <Gold.Chemscore.Fitness>
9.6563

> <Gold.Chemscore.DG>
-13.9170

> <Gold.Chemscore.ZeroCoef>
-5.4800

> <Gold.Chemscore.Hbond>
1.0691

> <Gold.Chemscore.Metal>
0.0000

> <Gold.Chemscore.Lipo>
95.3979

> <Gold.Chemscore.Internal_Hbond>
0.0000

> <Gold.Chemscore.DEClash>
1.8592

> <Gold.Chemscore.DEInternal>
2.4016

> <Gold.Chemscore.Rot>
2.4591

> <Gold.Chemscore.Internal.Correction>
   9.000000E+99

> <Gold.Chemscore.Hbond.Weighted>
-3.5708

> <Gold.Chemscore.Metal.Weighted>
-0.0000

> <Gold.Chemscore.Lipo.Weighted>
-11.1616

> <Gold.Chemscore.Internal_Hbond.Weighted>
0.0000

> <Gold.Chemscore.DEClash.Weighted>
1.8592

> <Gold.Chemscore.DEInternal.Weighted>
2.4016

> <Gold.Chemscore.Rot.Weighted>
6.2953

> <Gold.Chemscore.Internal.Correction.Weighted>
   9.000000E+99

> <Gold.Protein.RotatedTorsions>
[ 6907 6896 6895 6894 ] final   97.70 input  -60.11 | X-H torsion
[ 7974 7965 7964 7962 ] final   86.65 input  175.53 | X-H torsion
[ 8008 7997 7996 7995 ] final -161.43 input   59.86 | X-H torsion
[ 10167 10162 10161 10158 ] final   41.12 input  -65.29 | X-H torsion
[ 10718 10713 10712 10709 ] final   48.59 input   66.30 | X-H torsion
[ 10763 10752 10751 10750 ] final   39.25 input  -60.55 | X-H torsion
[ 11005 11000 10999 10996 ] final   -5.97 input  -57.11 | X-H torsion

> <Gold.Protein.ActiveResidues>
 VAL166  LYS551  ARG553  GLY616  TRP617  ASP618  TYR619  PRO620  LYS621  CYS622 
 ASP623  PHE694  ASN695  SER759  ASP760  ASP761  ALA762  ILE779  LEU786  VAL792 
 PHE793  MET794  SER795  GLU796  ALA797  LYS798  CYS799  TRP800  GLU811  SER814 

> <Gold.Protein.RotatedAtoms>
  152.5420  134.0693  159.8186 H   0  0  0  0  0  0  0  0  0  0  0  0  # atno 6907 bound_to 6896
  151.0809  133.5383  159.2628 H   0  0  0  0  0  0  0  0  0  0  0  0  # atno 6908 bound_to 6896
  151.2210  135.0527  159.9004 H   0  0  0  0  0  0  0  0  0  0  0  0  # atno 6909 bound_to 6896
  145.5694  139.2312  143.2415 H   0  0  0  0  0  0  0  0  0  0  0  0  # atno 7974 bound_to 7965
  155.7921  140.0880  157.2003 H   0  0  0  0  0  0  0  0  0  0  0  0  # atno 8008 bound_to 7997
  154.3985  140.1488  156.3234 H   0  0  0  0  0  0  0  0  0  0  0  0  # atno 8009 bound_to 7997
  155.8548  140.3433  155.5719 H   0  0  0  0  0  0  0  0  0  0  0  0  # atno 8010 bound_to 7997
  140.3674  144.2149  150.6134 H   0  0  0  0  0  0  0  0  0  0  0  0  # atno 10167 bound_to 10162
  157.4702  130.8250  149.7980 H   0  0  0  0  0  0  0  0  0  0  0  0  # atno 10718 bound_to 10713
  152.9973  135.6226  154.2436 H   0  0  0  0  0  0  0  0  0  0  0  0  # atno 10763 bound_to 10752
  154.2176  135.2797  155.2938 H   0  0  0  0  0  0  0  0  0  0  0  0  # atno 10764 bound_to 10752
  154.5555  135.5720  153.7019 H   0  0  0  0  0  0  0  0  0  0  0  0  # atno 10765 bound_to 10752
  140.6969  133.9023  155.8656 H   0  0  0  0  0  0  0  0  0  0  0  0  # atno 11005 bound_to 11000
  146.1795  140.6520  142.9196 LP  0  0  0  0  0  0  0  0  0  0  0  0  # atno 17320 bound_to 7965
  144.7445  140.5031  143.6845 LP  0  0  0  0  0  0  0  0  0  0  0  0  # atno 17321 bound_to 7965
  140.5067  143.2302  151.8598 LP  0  0  0  0  0  0  0  0  0  0  0  0  # atno 17342 bound_to 10162
  139.4807  144.4997  151.9076 LP  0  0  0  0  0  0  0  0  0  0  0  0  # atno 17343 bound_to 10162
  156.0070  130.3851  150.2397 LP  0  0  0  0  0  0  0  0  0  0  0  0  # atno 17370 bound_to 10713
  157.0579  131.0081  151.3232 LP  0  0  0  0  0  0  0  0  0  0  0  0  # atno 17371 bound_to 10713
  141.0195  134.0908  157.4135 LP  0  0  0  0  0  0  0  0  0  0  0  0  # atno 17394 bound_to 11000
  139.8907  135.0114  156.6753 LP  0  0  0  0  0  0  0  0  0  0  0  0  # atno 17395 bound_to 11000

$$$$
