#       Name:                AV-unprocessed.smi:2184
#       Creating user name   scv26
#       Creation time:       Fri Mar 27 12:07:07 2020


#       File generated by GOLD software.
#

@<TRIPOS>MOLECULE
AV-unprocessed.smi:2184
    53    54     1
SMALL
NO_CHARGES


@<TRIPOS>ATOM
      1 ****        -4.4077  -0.1440   5.8084 C.3            1 S1                 0.0000
      2 ****        -5.4034  -0.1460   4.2927 S.3            1 S1                 0.0000
      3 ****        -4.2073  -0.8058   3.0933 C.3            1 S1                 0.0000
      4 ****        -4.9316  -1.2640   1.8175 C.3            1 S1                 0.0000
      5 ****        -3.1041   0.2083   2.7670 C.2            1 S1                 0.0000
      6 ****        -3.3403   1.1726   2.0384 O.2            1 S1                 0.0000
      7 ****        -1.9006  -0.0188   3.3164 N.am           1 S1                 0.0000
      8 ****        -0.7234   0.8226   3.1264 C.3            1 S1                 0.0000
      9 ****        -0.0344   0.6455   1.7804 C.ar           1 S1                 0.0000
     10 ****        -0.0338  -0.5871   1.0942 C.ar           1 S1                 0.0000
     11 ****         0.6276  -0.6794  -0.1450 C.ar           1 S1                 0.0000
     12 ****         1.2794   0.4629  -0.6671 C.ar           1 S1                 0.0000
     13 ****         1.9466   0.3923  -1.9089 N.3            1 S1                 0.0000
     14 ****         2.3685   1.6434  -2.5348 C.3            1 S1                 0.0000
     15 ****         2.7850   1.4156  -4.0011 C.3            1 S1                 0.0000
     16 ****         1.5926   1.2042  -4.9514 C.3            1 S1                 0.0000
     17 ****         3.7371   0.3526  -4.0837 O.3            1 S1                 0.0000
     18 ****         3.3020  -0.8841  -3.5197 C.3            1 S1                 0.0000
     19 ****         4.4322  -1.9050  -3.6872 C.3            1 S1                 0.0000
     20 ****         2.9310  -0.6767  -2.0403 C.3            1 S1                 0.0000
     21 ****         1.2781   1.6453  -0.0033 N.ar           1 S1                 0.0000
     22 ****         0.6424   1.7283   1.1842 C.ar           1 S1                 0.0000
     23 ****        -5.0127   0.1890   6.6515 H              1 S1                 0.0000
     24 ****        -3.5569   0.5300   5.7115 H              1 S1                 0.0000
     25 ****        -4.0374  -1.1460   6.0239 H              1 S1                 0.0000
     26 ****        -3.7500  -1.6877   3.5448 H              1 S1                 0.0000
     27 ****        -4.2288  -1.6530   1.0794 H              1 S1                 0.0000
     28 ****        -5.4849  -0.4466   1.3535 H              1 S1                 0.0000
     29 ****        -5.6441  -2.0586   2.0401 H              1 S1                 0.0000
     30 ****        -1.7923  -0.8313   3.9061 H              1 S1                 0.0000
     31 ****        -0.9959   1.8699   3.2682 H              1 S1                 0.0000
     32 ****        -0.0050   0.5826   3.9105 H              1 S1                 0.0000
     33 ****        -0.5327  -1.4535   1.5026 H              1 S1                 0.0000
     34 ****         0.6146  -1.6149  -0.6842 H              1 S1                 0.0000
     35 ****         1.5686   2.3841  -2.4920 H              1 S1                 0.0000
     36 ****         3.2117   2.0478  -1.9730 H              1 S1                 0.0000
     37 ****         3.3019   2.3133  -4.3413 H              1 S1                 0.0000
     38 ****         0.9552   2.0883  -4.9712 H              1 S1                 0.0000
     39 ****         0.9675   0.3634  -4.6515 H              1 S1                 0.0000
     40 ****         1.9344   1.0216  -5.9704 H              1 S1                 0.0000
     41 ****         2.4335  -1.2522  -4.0660 H              1 S1                 0.0000
     42 ****         4.1464  -2.8764  -3.2835 H              1 S1                 0.0000
     43 ****         5.3369  -1.5807  -3.1722 H              1 S1                 0.0000
     44 ****         4.6795  -2.0428  -4.7401 H              1 S1                 0.0000
     45 ****         3.8173  -0.4062  -1.4649 H              1 S1                 0.0000
     46 ****         2.5642  -1.6163  -1.6300 H              1 S1                 0.0000
     47 ****         0.6749   2.6917   1.6716 H              1 S1                 0.0000
     48 ****        -4.2557   1.2979   1.6558 LP             1 S1                 0.0000
     49 ****        -2.6167   1.8304   1.8293 LP             1 S1                 0.0000
     50 ****         1.1722   0.1183  -2.4792 LP             1 S1                 0.0000
     51 ****         4.5661   0.6392  -3.6035 LP             1 S1                 0.0000
     52 ****         3.9477   0.1976  -5.0489 LP             1 S1                 0.0000
     53 ****         1.7412   2.4438  -0.3879 LP             1 S1                 0.0000
@<TRIPOS>BOND
    1    1    2 1     
    2    1   23 1     
    3    1   24 1     
    4    1   25 1     
    5    2    3 1     
    6    3    4 1     
    7    3    5 1     
    8    3   26 1     
    9    4   27 1     
   10    4   28 1     
   11    4   29 1     
   12    5    6 2     
   13    5    7 am    
   14    7    8 1     
   15    7   30 1     
   16    8    9 1     
   17    8   31 1     
   18    8   32 1     
   19    9   22 ar    
   20    9   10 ar    
   21   10   11 ar    
   22   10   33 1     
   23   11   12 ar    
   24   11   34 1     
   25   12   13 1     
   26   12   21 ar    
   27   13   20 1     
   28   13   14 1     
   29   14   15 1     
   30   14   35 1     
   31   14   36 1     
   32   15   16 1     
   33   15   17 1     
   34   15   37 1     
   35   16   38 1     
   36   16   39 1     
   37   16   40 1     
   38   17   18 1     
   39   18   19 1     
   40   18   20 1     
   41   18   41 1     
   42   19   42 1     
   43   19   43 1     
   44   19   44 1     
   45   20   45 1     
   46   20   46 1     
   47   21   22 ar    
   48   22   47 1     
   49    6   48 1     
   50    6   49 1     
   51   13   50 1     
   52   17   51 1     
   53   17   52 1     
   54   21   53 1     
@<TRIPOS>SUBSTRUCTURE
      1 S1             1
@<TRIPOS>SET
LONE_PAIRS      STATIC     ATOMS    <user>   **** ""
6 48 49 50 51 52 53
DONOR_HYDROGENS      STATIC     ATOMS    <user>   **** ""
1 30
ATOM$BLUE        STATIC     ATOMS    COLORGROUP SYSTEM
6 48 49 50 51 52 53
ATOM$RED        STATIC     ATOMS    COLORGROUP SYSTEM
1 30
