#       Name:                AV-unprocessed.smi:2895
#       Creating user name   scv26
#       Creation time:       Fri Mar 27 16:00:06 2020


#       File generated by GOLD software.
#

@<TRIPOS>MOLECULE
AV-unprocessed.smi:2895
    56    59     1
SMALL
NO_CHARGES


@<TRIPOS>ATOM
      1 ****         2.0547   1.5826  -1.2471 O.2            1 S1                 0.0000
      2 ****         1.7977   0.8193  -0.3154 C.2            1 S1                 0.0000
      3 ****         2.6481  -0.1485   0.0675 N.am           1 S1                 0.0000
      4 ****         3.9398  -0.4286  -0.5494 C.3            1 S1                 0.0000
      5 ****         3.7855  -1.2004  -1.8705 C.3            1 S1                 0.0000
      6 ****         5.1251  -1.5403  -2.4942 C.ar           1 S1                 0.0000
      7 ****         5.8390  -0.5752  -3.2341 C.ar           1 S1                 0.0000
      8 ****         7.0807  -0.9401  -3.7920 C.ar           1 S1                 0.0000
      9 ****         7.6232  -2.1693  -3.6542 N.ar           1 S1                 0.0000
     10 ****         6.9335  -3.0878  -2.9442 C.ar           1 S1                 0.0000
     11 ****         5.6854  -2.8256  -2.3446 C.ar           1 S1                 0.0000
     12 ****         0.6620   0.9065   0.4235 N.am           1 S1                 0.0000
     13 ****         0.1774  -0.0845   1.3980 C.3            1 S1                 0.0000
     14 ****        -1.0966  -0.7624   0.8499 C.3            1 S1                 0.0000
     15 ****        -2.1518   0.2264   0.4832 N.4            1 S1                 1.0000
     16 ****        -2.9205   0.7383   1.6584 C.3            1 S1                 0.0000
     17 ****        -3.7022  -0.3559   2.4271 C.3            1 S1                 0.0000
     18 ****        -5.1180   0.2394   2.5467 C.3            1 S1                 0.0000
     19 ****        -5.8190   0.1271   1.1822 C.3            1 S1                 0.0000
     20 ****        -5.0685   1.1699   0.3351 C.3            1 S1                 0.0000
     21 ****        -4.0443   1.7552   1.3318 C.3            1 S1                 0.0000
     22 ****        -4.8412   1.7352   2.6319 C.3            1 S1                 0.0000
     23 ****        -1.6100   1.2895  -0.4111 C.3            1 S1                 0.0000
     24 ****        -0.3451   1.9445   0.1761 C.3            1 S1                 0.0000
     25 ****         2.3843  -0.7280   0.8510 H              1 S1                 0.0000
     26 ****         4.4859   0.5028  -0.7094 H              1 S1                 0.0000
     27 ****         4.5283  -1.0163   0.1556 H              1 S1                 0.0000
     28 ****         3.2240  -2.1205  -1.7024 H              1 S1                 0.0000
     29 ****         3.2085  -0.6154  -2.5880 H              1 S1                 0.0000
     30 ****         5.4475   0.4222  -3.3711 H              1 S1                 0.0000
     31 ****         7.6534  -0.2249  -4.3637 H              1 S1                 0.0000
     32 ****         7.3899  -4.0620  -2.8504 H              1 S1                 0.0000
     33 ****         5.1742  -3.5953  -1.7849 H              1 S1                 0.0000
     34 ****         0.9073  -0.8534   1.6495 H              1 S1                 0.0000
     35 ****        -0.0353   0.4228   2.3395 H              1 S1                 0.0000
     36 ****        -0.8393  -1.3249  -0.0486 H              1 S1                 0.0000
     37 ****        -1.4667  -1.4984   1.5628 H              1 S1                 0.0000
     38 ****        -2.2241   1.2187   2.3469 H              1 S1                 0.0000
     39 ****        -3.7266  -1.3169   1.9117 H              1 S1                 0.0000
     40 ****        -3.2599  -0.5187   3.4108 H              1 S1                 0.0000
     41 ****        -5.7004  -0.1721   3.3718 H              1 S1                 0.0000
     42 ****        -5.7563  -0.8770   0.7613 H              1 S1                 0.0000
     43 ****        -6.8748   0.3887   1.2654 H              1 S1                 0.0000
     44 ****        -4.6024   0.7308  -0.5470 H              1 S1                 0.0000
     45 ****        -5.7561   1.9439  -0.0082 H              1 S1                 0.0000
     46 ****        -3.6805   2.7461   1.0587 H              1 S1                 0.0000
     47 ****        -5.7454   2.3457   2.5954 H              1 S1                 0.0000
     48 ****        -4.2542   2.0186   3.5076 H              1 S1                 0.0000
     49 ****        -1.3559   0.8247  -1.3647 H              1 S1                 0.0000
     50 ****        -2.3593   2.0420  -0.6509 H              1 S1                 0.0000
     51 ****        -0.5760   2.4532   1.1128 H              1 S1                 0.0000
     52 ****         0.0086   2.7254  -0.4984 H              1 S1                 0.0000
     53 ****        -2.8321  -0.2771  -0.0683 H              1 S1                 0.0000
     54 ****         2.9180   1.4925  -1.7437 LP             1 S1                 0.0000
     55 ****         1.4001   2.2925  -1.5070 LP             1 S1                 0.0000
     56 ****         8.5073  -2.3921  -4.0648 LP             1 S1                 0.0000
@<TRIPOS>BOND
    1    1    2 2     
    2    2    3 am    
    3    2   12 am    
    4    3    4 1     
    5    3   25 1     
    6    4    5 1     
    7    4   26 1     
    8    4   27 1     
    9    5    6 1     
   10    5   28 1     
   11    5   29 1     
   12    6   11 ar    
   13    6    7 ar    
   14    7    8 ar    
   15    7   30 1     
   16    8    9 ar    
   17    8   31 1     
   18    9   10 ar    
   19   10   11 ar    
   20   10   32 1     
   21   11   33 1     
   22   12   24 1     
   23   12   13 1     
   24   13   14 1     
   25   13   34 1     
   26   13   35 1     
   27   14   15 1     
   28   14   36 1     
   29   14   37 1     
   30   15   16 1     
   31   15   23 1     
   32   15   53 1     
   33   16   21 1     
   34   16   17 1     
   35   16   38 1     
   36   17   18 1     
   37   17   39 1     
   38   17   40 1     
   39   18   22 1     
   40   18   19 1     
   41   18   41 1     
   42   19   20 1     
   43   19   42 1     
   44   19   43 1     
   45   20   21 1     
   46   20   44 1     
   47   20   45 1     
   48   21   22 1     
   49   21   46 1     
   50   22   47 1     
   51   22   48 1     
   52   23   24 1     
   53   23   49 1     
   54   23   50 1     
   55   24   51 1     
   56   24   52 1     
   57    1   54 1     
   58    1   55 1     
   59    9   56 1     
@<TRIPOS>SUBSTRUCTURE
      1 S1             1
@<TRIPOS>SET
LONE_PAIRS      STATIC     ATOMS    <user>   **** ""
3 54 55 56
DONOR_HYDROGENS      STATIC     ATOMS    <user>   **** ""
2 25 53
ATOM$BLUE        STATIC     ATOMS    COLORGROUP SYSTEM
3 54 55 56
ATOM$RED        STATIC     ATOMS    COLORGROUP SYSTEM
2 25 53
