AV-unprocessed.smi:1114|AV-procd|sdf|4801|dock6
  -GOLD-   22720 3343D 1   1.00000     0.00000
 Structure written by MMmdl.
 53 55  0  0  0  0  0  0  0  0  2 V2000
  143.9506  133.4284  151.3490 C   0  0  0  0  0  0  0  0  0  0  0  0
  143.5685  134.6748  152.1508 C   0  0  0  0  0  0  0  0  0  0  0  0
  142.8994  134.5216  153.1729 O   0  0  0  0  0  0  0  0  0  0  0  0
  143.9759  135.8921  151.7177 N   0  0  0  0  0  0  0  0  0  0  0  0
  143.7119  137.1296  152.4616 C   0  0  0  0  0  0  0  0  0  0  0  0
  145.0378  137.6579  153.0383 C   0  0  0  0  0  0  0  0  0  0  0  0
  146.0942  137.8605  151.9307 C   0  0  0  0  0  0  0  0  0  0  0  0
  147.3816  138.1889  152.5367 N   0  0  0  0  0  0  0  0  0  0  0  0
  147.5849  139.1496  153.4498 C   0  0  0  0  0  0  0  0  0  0  0  0
  146.6911  139.8774  153.8815 O   0  0  0  0  0  0  0  0  0  0  0  0
  148.8723  139.1926  153.8348 N   0  0  0  0  0  0  0  0  0  0  0  0
  149.4868  140.0886  154.7506 C   0  0  0  0  0  0  0  0  0  0  0  0
  150.7017  139.6952  155.3484 C   0  0  0  0  0  0  0  0  0  0  0  0
  151.3552  140.5626  156.2479 C   0  0  0  0  0  0  0  0  0  0  0  0
  150.7960  141.8330  156.5361 C   0  0  0  0  0  0  0  0  0  0  0  0
  151.3766  142.7685  157.4215 N   0  0  0  0  0  0  0  0  0  0  0  0
  151.5178  144.1507  156.9592 C   0  0  0  0  0  0  0  0  0  0  0  0
  152.5073  144.9386  157.8349 C   0  0  0  0  0  0  0  0  0  0  0  0
  152.1304  144.8440  159.3196 C   0  0  0  0  0  0  0  0  0  0  0  0
  152.0361  143.3705  159.7389 C   0  0  0  0  0  0  0  0  0  0  0  0
  151.0524  142.6003  158.8417 C   0  0  0  0  0  0  0  0  0  0  0  0
  149.6331  142.1688  155.9270 N   0  3  0  0  0  0  0  0  0  0  0  0
  148.9716  141.3681  155.0639 C   0  0  0  0  0  0  0  0  0  0  0  0
  146.2124  136.6078  151.0315 C   0  0  0  0  0  0  0  0  0  0  0  0
  144.8295  136.1361  150.5483 C   0  0  0  0  0  0  0  0  0  0  0  0
  145.0341  133.3373  151.2669 H   0  0  0  0  0  0  0  0  0  0  0  0
  143.5198  133.4663  150.3481 H   0  0  0  0  0  0  0  0  0  0  0  0
  143.5773  132.5277  151.8373 H   0  0  0  0  0  0  0  0  0  0  0  0
  143.2732  137.8687  151.7899 H   0  0  0  0  0  0  0  0  0  0  0  0
  142.9875  136.9933  153.2655 H   0  0  0  0  0  0  0  0  0  0  0  0
  144.8649  138.5958  153.5673 H   0  0  0  0  0  0  0  0  0  0  0  0
  145.4096  136.9489  153.7799 H   0  0  0  0  0  0  0  0  0  0  0  0
  145.7686  138.6993  151.3125 H   0  0  0  0  0  0  0  0  0  0  0  0
  148.1736  137.6371  152.2407 H   0  0  0  0  0  0  0  0  0  0  0  0
  149.4727  138.4730  153.4596 H   0  0  0  0  0  0  0  0  0  0  0  0
  151.1339  138.7308  155.1240 H   0  0  0  0  0  0  0  0  0  0  0  0
  152.2848  140.2383  156.6903 H   0  0  0  0  0  0  0  0  0  0  0  0
  151.8782  144.1701  155.9303 H   0  0  0  0  0  0  0  0  0  0  0  0
  150.5398  144.6335  156.9722 H   0  0  0  0  0  0  0  0  0  0  0  0
  153.5150  144.5459  157.6901 H   0  0  0  0  0  0  0  0  0  0  0  0
  152.5344  145.9825  157.5206 H   0  0  0  0  0  0  0  0  0  0  0  0
  152.8685  145.3643  159.9306 H   0  0  0  0  0  0  0  0  0  0  0  0
  151.1741  145.3401  159.4909 H   0  0  0  0  0  0  0  0  0  0  0  0
  153.0230  142.9095  159.6782 H   0  0  0  0  0  0  0  0  0  0  0  0
  151.7242  143.2974  160.7810 H   0  0  0  0  0  0  0  0  0  0  0  0
  150.0368  142.9608  159.0098 H   0  0  0  0  0  0  0  0  0  0  0  0
  151.0653  141.5515  159.1370 H   0  0  0  0  0  0  0  0  0  0  0  0
  148.0679  141.7923  154.6532 H   0  0  0  0  0  0  0  0  0  0  0  0
  146.8498  136.8184  150.1722 H   0  0  0  0  0  0  0  0  0  0  0  0
  146.6941  135.7986  151.5825 H   0  0  0  0  0  0  0  0  0  0  0  0
  144.9408  135.2694  149.8986 H   0  0  0  0  0  0  0  0  0  0  0  0
  144.3715  136.9067  149.9264 H   0  0  0  0  0  0  0  0  0  0  0  0
  149.2307  143.0834  156.1325 H   0  0  0  0  0  0  0  0  0  0  0  0
  1  2  1  0  0  0  0
  1 26  1  0  0  0  0
  1 27  1  0  0  0  0
  1 28  1  0  0  0  0
  2  3  2  0  0  0  0
  2  4  1  0  0  0  0
  4 25  1  0  0  0  0
  4  5  1  0  0  0  0
  5  6  1  0  0  0  0
  5 29  1  0  0  0  0
  5 30  1  0  0  0  0
  6  7  1  0  0  0  0
  6 31  1  0  0  0  0
  6 32  1  0  0  0  0
  7  8  1  0  0  0  0
  7 24  1  0  0  0  0
  7 33  1  0  0  0  0
  8  9  1  0  0  0  0
  8 34  1  0  0  0  0
  9 10  2  0  0  0  0
  9 11  1  0  0  0  0
 11 12  1  0  0  0  0
 11 35  1  0  0  0  0
 12 23  1  0  0  0  0
 12 13  2  0  0  0  0
 13 14  1  0  0  0  0
 13 36  1  0  0  0  0
 14 15  2  0  0  0  0
 14 37  1  0  0  0  0
 15 16  1  0  0  0  0
 15 22  1  0  0  0  0
 16 21  1  0  0  0  0
 16 17  1  0  0  0  0
 17 18  1  0  0  0  0
 17 38  1  0  0  0  0
 17 39  1  0  0  0  0
 18 19  1  0  0  0  0
 18 40  1  0  0  0  0
 18 41  1  0  0  0  0
 19 20  1  0  0  0  0
 19 42  1  0  0  0  0
 19 43  1  0  0  0  0
 20 21  1  0  0  0  0
 20 44  1  0  0  0  0
 20 45  1  0  0  0  0
 21 46  1  0  0  0  0
 21 47  1  0  0  0  0
 22 23  2  0  0  0  0
 22 53  1  0  0  0  0
 23 48  1  0  0  0  0
 24 25  1  0  0  0  0
 24 49  1  0  0  0  0
 24 50  1  0  0  0  0
 25 51  1  0  0  0  0
 25 52  1  0  0  0  0
M  CHG  1  22   1
M  END
> <s_m_source_file>
AV-unprocessed.smi

> <i_m_source_file_index>
1114

> <i_lp_mmshare_version>
43012

> <i_f3d_flags>
0

> <s_epik_input>
W0NIM11DKD1PKU4xW0NIMl1bQ0gyXVtDSF0oW0NIMl1bQ0gyXTEpW05IXUMoPU8pW05IXWMyW2NIXVtjSF1jKG5bY0hdMilOM1tDSDJdW0NIMl1bQ0gyXVtDSDJdW0NIMl0z

> <s_epik_cmdline>
J2VwaWtfcHl0aG9uJywgJy1waCcsICc3LjAnLCAnLXRuJywgJzgnLCAnLW1hJywgJzIwMCcsICctbWV0YWxfYmluZGluZycsICctaW1hZScsICc8aW5maWxlLm1hZT4nLCAnLW9tYWUnLCAnPG91dGZpbGUubWFlPic=

> <r_lp_tautomer_probability>
0.999994

> <r_epik_Ionization_Penalty>
1.08953

> <r_epik_Ionization_Penalty_Charging>
1.08951

> <r_epik_Ionization_Penalty_Neutral>
2.1351e-05

> <r_epik_State_Penalty>
1.14567

> <r_epik_Charging_Adjusted_Penalty>
2.23518

> <i_epik_Tot_Q>
1

> <i_epik_Tot_abs_Q>
1

> <r_epik_Metal_State_Penalty>
1.23466

> <b_epik_Metal_Only>
0

> <s_lp_Force_Field>
OPLS_2005

> <r_lp_Energy>
44.385

> <b_lp_Chiralities_Consistent>
1

> <s_lp_Variant>
AV-unprocessed.smi:1114-2

> <Gold.Version>
5.8.1

> <Gold.Id.Protein>
6NUR|6NUR_protein|mol2

> <Gold.PLP.Fitness>
55.0344

> <Gold.PLP.PLP>
-46.8188

> <Gold.PLP.part.hbond>
-3.4996

> <Gold.PLP.part.metal>
0.0000

> <Gold.PLP.part.buried>
3.4548

> <Gold.PLP.part.nonpolar>
-47.6904

> <Gold.PLP.part.repulsive>
0.6414

> <Gold.PLP.ligand.clash>
0.0000

> <Gold.PLP.ligand.torsion>
0.6321

> <Gold.PLP.Chemscore.Hbond>
2.9840

> <Gold.PLP.Chemscore.CHOScore>
0.0000

> <Gold.PLP.Chemscore.Metal>
0.0000

> <Gold.Chemscore.Hbonds>
donor molecule, donor type, donor heavy atom, donor atom, acceptor molecule, acceptor atom, score
      L1  H     8    34       P1  7948  1.00
      L1  H    22    53       P1  8028  2.00

> <Gold.PLP.Chemscore.Internal.Correction>
0.5278

> <Gold.Rescore>
     Score         DG    S(hbond)    S(metal)    S(lipo)     H(rot)  DE(clash)    DE(int)     intcor
     18.41     -24.20       1.96        0.00     130.40       1.21       3.10       2.69       ----

> <Gold.Chemscore.Fitness>
18.4121

> <Gold.Chemscore.DG>
-24.1963

> <Gold.Chemscore.ZeroCoef>
-5.4800

> <Gold.Chemscore.Hbond>
1.9635

> <Gold.Chemscore.Metal>
0.0000

> <Gold.Chemscore.Lipo>
130.4023

> <Gold.Chemscore.Internal_Hbond>
0.0000

> <Gold.Chemscore.DEClash>
3.0967

> <Gold.Chemscore.DEInternal>
2.6875

> <Gold.Chemscore.Rot>
1.2105

> <Gold.Chemscore.Internal.Correction>
   9.000000E+99

> <Gold.Chemscore.Hbonds>
donor molecule, donor type, donor heavy atom, donor atom, acceptor molecule, acceptor atom, score
      L1  H     8    34       P1  7948  0.98
      L1  H    22    53       P1  8028  0.94

> <Gold.Chemscore.Hbond.Weighted>
-6.5583

> <Gold.Chemscore.Metal.Weighted>
-0.0000

> <Gold.Chemscore.Lipo.Weighted>
-15.2571

> <Gold.Chemscore.Internal_Hbond.Weighted>
0.0000

> <Gold.Chemscore.DEClash.Weighted>
3.0967

> <Gold.Chemscore.DEInternal.Weighted>
2.6875

> <Gold.Chemscore.Rot.Weighted>
3.0990

> <Gold.Chemscore.Internal.Correction.Weighted>
   9.000000E+99

> <Gold.Protein.RotatedTorsions>
[ 6907 6896 6895 6894 ] final -122.83 input  -60.11 | X-H torsion
[ 7974 7965 7964 7962 ] final  -97.81 input  175.53 | X-H torsion
[ 8008 7997 7996 7995 ] final  -75.75 input   59.86 | X-H torsion
[ 10167 10162 10161 10158 ] final  -39.12 input  -65.29 | X-H torsion
[ 10718 10713 10712 10709 ] final -124.36 input   66.30 | X-H torsion
[ 10763 10752 10751 10750 ] final   28.02 input  -60.55 | X-H torsion
[ 11005 11000 10999 10996 ] final -113.46 input  -57.11 | X-H torsion

> <Gold.Protein.ActiveResidues>
 VAL166  LYS551  ARG553  GLY616  TRP617  ASP618  TYR619  PRO620  LYS621  CYS622 
 ASP623  PHE694  ASN695  SER759  ASP760  ASP761  ALA762  ILE779  LEU786  VAL792 
 PHE793  MET794  SER795  GLU796  ALA797  LYS798  CYS799  TRP800  GLU811  SER814 

> <Gold.Protein.RotatedAtoms>
  150.8613  133.7640  159.2991 H   0  0  0  0  0  0  0  0  0  0  0  0  # atno 6907 bound_to 6896
  151.5281  135.1066  159.9905 H   0  0  0  0  0  0  0  0  0  0  0  0  # atno 6908 bound_to 6896
  152.4628  133.7814  159.6909 H   0  0  0  0  0  0  0  0  0  0  0  0  # atno 6909 bound_to 6896
  145.3288  140.9437  143.2673 H   0  0  0  0  0  0  0  0  0  0  0  0  # atno 7974 bound_to 7965
  154.5444  140.0739  156.8564 H   0  0  0  0  0  0  0  0  0  0  0  0  # atno 8008 bound_to 7997
  155.3117  140.3390  155.4225 H   0  0  0  0  0  0  0  0  0  0  0  0  # atno 8009 bound_to 7997
  156.1904  140.1684  156.8089 H   0  0  0  0  0  0  0  0  0  0  0  0  # atno 8010 bound_to 7997
  140.7073  143.3234  151.2737 H   0  0  0  0  0  0  0  0  0  0  0  0  # atno 10167 bound_to 10162
  156.1581  130.6582  151.0010 H   0  0  0  0  0  0  0  0  0  0  0  0  # atno 10718 bound_to 10713
  153.0518  135.6523  154.0675 H   0  0  0  0  0  0  0  0  0  0  0  0  # atno 10763 bound_to 10752
  154.0362  135.2907  155.3363 H   0  0  0  0  0  0  0  0  0  0  0  0  # atno 10764 bound_to 10752
  154.6811  135.5319  153.8330 H   0  0  0  0  0  0  0  0  0  0  0  0  # atno 10765 bound_to 10752
  141.0612  133.9531  157.2662 H   0  0  0  0  0  0  0  0  0  0  0  0  # atno 11005 bound_to 11000
  144.8880  139.4812  143.6691 LP  0  0  0  0  0  0  0  0  0  0  0  0  # atno 17320 bound_to 7965
  146.3054  139.7561  142.9060 LP  0  0  0  0  0  0  0  0  0  0  0  0  # atno 17321 bound_to 7965
  139.6695  144.0045  152.2744 LP  0  0  0  0  0  0  0  0  0  0  0  0  # atno 17342 bound_to 10162
  139.9639  144.6539  150.8053 LP  0  0  0  0  0  0  0  0  0  0  0  0  # atno 17343 bound_to 10162
  157.6711  131.0861  150.7610 LP  0  0  0  0  0  0  0  0  0  0  0  0  # atno 17370 bound_to 10713
  156.7674  130.4818  149.5425 LP  0  0  0  0  0  0  0  0  0  0  0  0  # atno 17371 bound_to 10713
  139.9435  135.0187  156.8780 LP  0  0  0  0  0  0  0  0  0  0  0  0  # atno 17394 bound_to 11000
  140.5864  134.0303  155.7483 LP  0  0  0  0  0  0  0  0  0  0  0  0  # atno 17395 bound_to 11000

$$$$
