AV-unprocessed.smi:1040|AV-procd|sdf|4524|dock8
  -GOLD-   22720 2543D 1   1.00000     0.00000
 Structure written by MMmdl.
 54 55  0  0  0  0  0  0  0  0  1 V2000
  147.4295  135.9962  157.8622 C   0  0  0  0  0  0  0  0  0  0  0  0
  147.3254  137.1831  158.8348 C   0  0  2  0  0  0  0  0  0  0  0  0
  148.5671  137.9501  158.7478 N   0  0  0  0  0  0  0  0  0  0  0  0
  149.8028  137.4396  158.8572 C   0  0  0  0  0  0  0  0  0  0  0  0
  150.0248  136.2464  159.0604 O   0  0  0  0  0  0  0  0  0  0  0  0
  150.7306  138.4002  158.7082 N   0  0  0  0  0  0  0  0  0  0  0  0
  152.1553  138.3235  158.7485 C   0  0  0  0  0  0  0  0  0  0  0  0
  152.8775  137.1052  158.8105 C   0  0  0  0  0  0  0  0  0  0  0  0
  154.2835  137.1388  158.8311 C   0  0  0  0  0  0  0  0  0  0  0  0
  154.9241  138.3888  158.7893 C   0  0  0  0  0  0  0  0  0  0  0  0
  154.2551  139.5575  158.7373 N   0  0  0  0  0  0  0  0  0  0  0  0
  152.8998  139.5348  158.7203 C   0  0  0  0  0  0  0  0  0  0  0  0
  152.2365  140.7778  158.6917 N   0  0  0  0  0  0  0  0  0  0  0  0
  153.0513  141.8821  159.1948 C   0  0  0  0  0  0  0  0  0  0  0  0
  152.1807  143.1200  159.4701 C   0  0  0  0  0  0  0  0  0  0  0  0
  151.3648  143.5071  158.2259 C   0  0  0  0  0  0  0  0  0  0  0  0
  150.5538  142.3019  157.7225 C   0  0  0  0  0  0  0  0  0  0  0  0
  151.4648  141.0847  157.4878 C   0  0  0  0  0  0  0  0  0  0  0  0
  147.1361  136.6227  160.2531 C   0  0  0  0  0  0  0  0  0  0  0  0
  147.7483  137.1144  161.2022 O   0  0  0  0  0  0  0  0  0  0  0  0
  146.2932  135.5806  160.3629 N   0  0  0  0  0  0  0  0  0  0  0  0
  145.9165  134.8341  161.5691 C   0  0  0  0  0  0  0  0  0  0  0  0
  145.0598  135.7783  162.4306 C   0  0  0  0  0  0  0  0  0  0  0  0
  147.1692  134.4234  162.3721 C   0  0  0  0  0  0  0  0  0  0  0  0
  145.0772  133.5937  161.1977 C   0  0  0  0  0  0  0  0  0  0  0  0
  146.5276  135.3831  157.8878 H   0  0  0  0  0  0  0  0  0  0  0  0
  148.2771  135.3504  158.0972 H   0  0  0  0  0  0  0  0  0  0  0  0
  147.5558  136.3434  156.8364 H   0  0  0  0  0  0  0  0  0  0  0  0
  146.4774  137.8119  158.5559 H   0  0  0  0  0  0  0  0  0  0  0  0
  148.4761  138.9397  158.5717 H   0  0  0  0  0  0  0  0  0  0  0  0
  150.3692  139.3232  158.5164 H   0  0  0  0  0  0  0  0  0  0  0  0
  152.3946  136.1427  158.8456 H   0  0  0  0  0  0  0  0  0  0  0  0
  154.8576  136.2253  158.8769 H   0  0  0  0  0  0  0  0  0  0  0  0
  156.0021  138.4527  158.8021 H   0  0  0  0  0  0  0  0  0  0  0  0
  153.5766  141.5921  160.1054 H   0  0  0  0  0  0  0  0  0  0  0  0
  153.8160  142.1212  158.4543 H   0  0  0  0  0  0  0  0  0  0  0  0
  151.5045  142.9119  160.3004 H   0  0  0  0  0  0  0  0  0  0  0  0
  152.8072  143.9559  159.7824 H   0  0  0  0  0  0  0  0  0  0  0  0
  150.7000  144.3403  158.4550 H   0  0  0  0  0  0  0  0  0  0  0  0
  152.0378  143.8500  157.4390 H   0  0  0  0  0  0  0  0  0  0  0  0
  149.7865  142.0464  158.4545 H   0  0  0  0  0  0  0  0  0  0  0  0
  150.0304  142.5597  156.8015 H   0  0  0  0  0  0  0  0  0  0  0  0
  152.1462  141.2883  156.6604 H   0  0  0  0  0  0  0  0  0  0  0  0
  150.8622  140.2207  157.2045 H   0  0  0  0  0  0  0  0  0  0  0  0
  145.8549  135.2694  159.5082 H   0  0  0  0  0  0  0  0  0  0  0  0
  144.7453  135.2955  163.3566 H   0  0  0  0  0  0  0  0  0  0  0  0
  144.1579  136.0915  161.9031 H   0  0  0  0  0  0  0  0  0  0  0  0
  145.6110  136.6795  162.7026 H   0  0  0  0  0  0  0  0  0  0  0  0
  147.7910  135.2882  162.6074 H   0  0  0  0  0  0  0  0  0  0  0  0
  147.7891  133.7088  161.8310 H   0  0  0  0  0  0  0  0  0  0  0  0
  146.8925  133.9527  163.3160 H   0  0  0  0  0  0  0  0  0  0  0  0
  144.7135  133.0845  162.0909 H   0  0  0  0  0  0  0  0  0  0  0  0
  145.6527  132.8648  160.6272 H   0  0  0  0  0  0  0  0  0  0  0  0
  144.2071  133.8679  160.5999 H   0  0  0  0  0  0  0  0  0  0  0  0
  1  2  1  0  0  0  0
  1 26  1  0  0  0  0
  1 27  1  0  0  0  0
  1 28  1  0  0  0  0
  2  3  1  0  0  0  0
  2 19  1  0  0  0  0
  2 29  1  0  0  0  0
  3  4  1  0  0  0  0
  3 30  1  0  0  0  0
  4  5  2  0  0  0  0
  4  6  1  0  0  0  0
  6  7  1  0  0  0  0
  6 31  1  0  0  0  0
  7 12  1  0  0  0  0
  7  8  2  0  0  0  0
  8  9  1  0  0  0  0
  8 32  1  0  0  0  0
  9 10  2  0  0  0  0
  9 33  1  0  0  0  0
 10 11  1  0  0  0  0
 10 34  1  0  0  0  0
 11 12  2  0  0  0  0
 12 13  1  0  0  0  0
 13 18  1  0  0  0  0
 13 14  1  0  0  0  0
 14 15  1  0  0  0  0
 14 35  1  0  0  0  0
 14 36  1  0  0  0  0
 15 16  1  0  0  0  0
 15 37  1  0  0  0  0
 15 38  1  0  0  0  0
 16 17  1  0  0  0  0
 16 39  1  0  0  0  0
 16 40  1  0  0  0  0
 17 18  1  0  0  0  0
 17 41  1  0  0  0  0
 17 42  1  0  0  0  0
 18 43  1  0  0  0  0
 18 44  1  0  0  0  0
 19 20  2  0  0  0  0
 19 21  1  0  0  0  0
 21 22  1  0  0  0  0
 21 45  1  0  0  0  0
 22 23  1  0  0  0  0
 22 24  1  0  0  0  0
 22 25  1  0  0  0  0
 23 46  1  0  0  0  0
 23 47  1  0  0  0  0
 23 48  1  0  0  0  0
 24 49  1  0  0  0  0
 24 50  1  0  0  0  0
 24 51  1  0  0  0  0
 25 52  1  0  0  0  0
 25 53  1  0  0  0  0
 25 54  1  0  0  0  0
M  END
> <s_m_source_file>
AV-unprocessed.smi

> <i_m_source_file_index>
1040

> <i_lp_mmshare_version>
43012

> <i_f3d_flags>
0

> <s_epik_input>
W0NIM11DKFtDSDNdKShbQ0gzXSlbTkhdQyg9TylbQ0BIXShbQ0gzXSlbTkhdQyg9TylbTkhdYzFbY0hdW2NIXVtjSF1uYzFOMltDSDJdW0NIMl1bQ0gyXVtDSDJdW0NIMl0y

> <s_epik_cmdline>
J2VwaWtfcHl0aG9uJywgJy1waCcsICc3LjAnLCAnLXRuJywgJzgnLCAnLW1hJywgJzIwMCcsICctbWV0YWxfYmluZGluZycsICctaW1hZScsICc8aW5maWxlLm1hZT4nLCAnLW9tYWUnLCAnPG91dGZpbGUubWFlPic=

> <r_lp_tautomer_probability>
1

> <r_epik_Ionization_Penalty>
0.0878593

> <r_epik_Ionization_Penalty_Charging>
0

> <r_epik_Ionization_Penalty_Neutral>
0.0878593

> <r_epik_State_Penalty>
0.07381

> <r_epik_Charging_Adjusted_Penalty>
0.07381

> <i_epik_Tot_Q>
0

> <i_epik_Tot_abs_Q>
0

> <r_epik_Metal_State_Penalty>
0.0646628

> <b_epik_Metal_Only>
0

> <s_lp_Force_Field>
OPLS_2005

> <r_lp_Energy>
21.1097

> <b_lp_Chiralities_Consistent>
1

> <s_lp_Variant>
AV-unprocessed.smi:1040-1

> <Gold.Version>
5.8.1

> <Gold.Id.Protein>
6NUR|6NUR_protein|mol2

> <Gold.PLP.Fitness>
44.4388

> <Gold.PLP.PLP>
-35.1116

> <Gold.PLP.part.hbond>
-4.0000

> <Gold.PLP.part.metal>
0.0000

> <Gold.PLP.part.buried>
-5.0078

> <Gold.PLP.part.nonpolar>
-26.2504

> <Gold.PLP.part.repulsive>
0.3760

> <Gold.PLP.ligand.clash>
0.0000

> <Gold.PLP.ligand.torsion>
1.0808

> <Gold.PLP.Chemscore.Hbond>
3.7344

> <Gold.PLP.Chemscore.CHOScore>
0.0000

> <Gold.PLP.Chemscore.Metal>
0.0000

> <Gold.Chemscore.Hbonds>
donor molecule, donor type, donor heavy atom, donor atom, acceptor molecule, acceptor atom, score
      P1  H  6896  6907       L1     5  1.00
      P1  H  6931  6943       L1    20  0.99
      P1  H  6934  6947       L1    20  0.75
      P1  H  7997  8008       L1    11  0.90

> <Gold.PLP.Chemscore.Internal.Correction>
0.2856

> <Gold.Rescore>
     Score         DG    S(hbond)    S(metal)    S(lipo)     H(rot)  DE(clash)    DE(int)     intcor
     18.15     -21.80       2.94        0.00      90.89       1.61       0.05       3.60       ----

> <Gold.Chemscore.Fitness>
18.1504

> <Gold.Chemscore.DG>
-21.8048

> <Gold.Chemscore.ZeroCoef>
-5.4800

> <Gold.Chemscore.Hbond>
2.9412

> <Gold.Chemscore.Metal>
0.0000

> <Gold.Chemscore.Lipo>
90.8870

> <Gold.Chemscore.Internal_Hbond>
0.0000

> <Gold.Chemscore.DEClash>
0.0513

> <Gold.Chemscore.DEInternal>
3.6031

> <Gold.Chemscore.Rot>
1.6143

> <Gold.Chemscore.Internal.Correction>
   9.000000E+99

> <Gold.Chemscore.Hbonds>
donor molecule, donor type, donor heavy atom, donor atom, acceptor molecule, acceptor atom, score
      P1  H  6896  6907       L1     5  1.00
      P1  H  6931  6943       L1    20  0.94
      P1  H  6934  6947       L1    20  0.14
      P1  H  7997  8008       L1    11  0.09

> <Gold.Chemscore.Hbond.Weighted>
-9.8237

> <Gold.Chemscore.Metal.Weighted>
-0.0000

> <Gold.Chemscore.Lipo.Weighted>
-10.6338

> <Gold.Chemscore.Internal_Hbond.Weighted>
0.0000

> <Gold.Chemscore.DEClash.Weighted>
0.0513

> <Gold.Chemscore.DEInternal.Weighted>
3.6031

> <Gold.Chemscore.Rot.Weighted>
4.1326

> <Gold.Chemscore.Internal.Correction.Weighted>
   9.000000E+99

> <Gold.Protein.RotatedTorsions>
[ 6907 6896 6895 6894 ] final  -42.47 input  -60.11 | X-H torsion
[ 7974 7965 7964 7962 ] final -131.57 input  175.53 | X-H torsion
[ 8008 7997 7996 7995 ] final  -93.69 input   59.86 | X-H torsion
[ 10167 10162 10161 10158 ] final -138.76 input  -65.29 | X-H torsion
[ 10718 10713 10712 10709 ] final -145.93 input   66.30 | X-H torsion
[ 10763 10752 10751 10750 ] final  -83.66 input  -60.55 | X-H torsion
[ 11005 11000 10999 10996 ] final -112.56 input  -57.11 | X-H torsion

> <Gold.Protein.ActiveResidues>
 VAL166  LYS551  ARG553  GLY616  TRP617  ASP618  TYR619  PRO620  LYS621  CYS622 
 ASP623  PHE694  ASN695  SER759  ASP760  ASP761  ALA762  ILE779  LEU786  VAL792 
 PHE793  MET794  SER795  GLU796  ALA797  LYS798  CYS799  TRP800  GLU811  SER814 

> <Gold.Protein.RotatedAtoms>
  150.9548  134.8944  159.7694 H   0  0  0  0  0  0  0  0  0  0  0  0  # atno 6907 bound_to 6896
  152.5134  134.3755  159.9343 H   0  0  0  0  0  0  0  0  0  0  0  0  # atno 6908 bound_to 6896
  151.3770  133.3794  159.2740 H   0  0  0  0  0  0  0  0  0  0  0  0  # atno 6909 bound_to 6896
  144.9366  140.7191  143.4872 H   0  0  0  0  0  0  0  0  0  0  0  0  # atno 7974 bound_to 7965
  154.7389  140.0496  157.0794 H   0  0  0  0  0  0  0  0  0  0  0  0  # atno 8008 bound_to 7997
  155.0204  140.3146  155.4776 H   0  0  0  0  0  0  0  0  0  0  0  0  # atno 8009 bound_to 7997
  156.2859  140.2168  156.5322 H   0  0  0  0  0  0  0  0  0  0  0  0  # atno 8010 bound_to 7997
  139.8447  143.7276  152.2661 H   0  0  0  0  0  0  0  0  0  0  0  0  # atno 10167 bound_to 10162
  156.3886  130.7874  151.2074 H   0  0  0  0  0  0  0  0  0  0  0  0  # atno 10718 bound_to 10713
  154.5903  135.5548  153.7272 H   0  0  0  0  0  0  0  0  0  0  0  0  # atno 10763 bound_to 10752
  153.0114  135.6341  154.1858 H   0  0  0  0  0  0  0  0  0  0  0  0  # atno 10764 bound_to 10752
  154.1799  135.2887  155.3035 H   0  0  0  0  0  0  0  0  0  0  0  0  # atno 10765 bound_to 10752
  141.0667  133.9447  157.2564 H   0  0  0  0  0  0  0  0  0  0  0  0  # atno 11005 bound_to 11000
  145.3056  139.1835  143.4666 LP  0  0  0  0  0  0  0  0  0  0  0  0  # atno 17320 bound_to 7965
  146.3269  140.3054  142.8623 LP  0  0  0  0  0  0  0  0  0  0  0  0  # atno 17321 bound_to 7965
  139.7524  144.7530  151.0486 LP  0  0  0  0  0  0  0  0  0  0  0  0  # atno 17342 bound_to 10162
  140.7794  143.4844  150.9975 LP  0  0  0  0  0  0  0  0  0  0  0  0  # atno 17343 bound_to 10162
  157.7497  131.0322  150.4217 LP  0  0  0  0  0  0  0  0  0  0  0  0  # atno 17370 bound_to 10713
  156.4475  130.4004  149.6657 LP  0  0  0  0  0  0  0  0  0  0  0  0  # atno 17371 bound_to 10713
  139.9483  135.0180  156.8920 LP  0  0  0  0  0  0  0  0  0  0  0  0  # atno 17394 bound_to 11000
  140.5758  134.0400  155.7446 LP  0  0  0  0  0  0  0  0  0  0  0  0  # atno 17395 bound_to 11000

$$$$
