AV-unprocessed.smi:2645|AV-procd|sdf|10279|dock3
  -GOLD-   2272014293D 1   1.00000     0.00000
 Structure written by MMmdl.
 49 51  0  0  0  0  0  0  0  0  1 V2000
  144.8198  136.3243  152.8901 O   0  0  0  0  0  0  0  0  0  0  0  0
  145.9977  136.3261  152.5298 C   0  0  0  0  0  0  0  0  0  0  0  0
  146.8420  137.3389  152.7750 N   0  0  0  0  0  0  0  0  0  0  0  0
  146.4902  138.5622  153.4861 C   0  0  0  0  0  0  0  0  0  0  0  0
  147.2718  138.6810  154.8097 C   0  0  0  0  0  0  0  0  0  0  0  0
  148.4704  139.5080  154.6781 N   0  0  0  0  0  0  0  0  0  0  0  0
  149.6848  138.7334  154.9652 C   0  0  0  0  0  0  0  0  0  0  0  0
  150.9298  139.6339  154.8545 C   0  0  0  0  0  0  0  0  0  0  0  0
  150.8023  140.7370  155.8115 N   0  0  0  0  0  0  0  0  0  0  0  0
  151.5955  140.9618  156.8869 C   0  0  0  0  0  0  0  0  0  0  0  0
  152.5479  140.2296  157.1596 O   0  0  0  0  0  0  0  0  0  0  0  0
  151.3234  142.1972  157.7683 C   0  0  0  0  0  0  0  0  0  0  0  0
  151.5225  143.5714  157.0954 C   0  0  0  0  0  0  0  0  0  0  0  0
  152.2299  144.0406  158.3694 C   0  0  0  0  0  0  0  0  0  0  0  0
  152.4859  142.5688  158.7048 C   0  0  0  0  0  0  0  0  0  0  0  0
  149.6149  141.5388  155.5038 C   0  0  0  0  0  0  0  0  0  0  0  0
  148.3686  140.6382  155.6077 C   0  0  0  0  0  0  0  0  0  0  0  0
  146.6058  135.3364  151.8517 N   0  0  0  0  0  0  0  0  0  0  0  0
  146.0432  134.1183  151.3847 C   0  0  0  0  0  0  0  0  0  0  0  0
  144.6361  134.1199  151.2514 C   0  0  0  0  0  0  0  0  0  0  0  0
  143.9814  132.9578  150.7987 C   0  0  0  0  0  0  0  0  0  0  0  0
  144.7518  131.8221  150.4918 C   0  0  0  0  0  0  0  0  0  0  0  0
  146.1472  131.9041  150.6522 C   0  0  0  0  0  0  0  0  0  0  0  0
  146.7765  133.0168  151.0854 N   0  0  0  0  0  0  0  0  0  0  0  0
  147.7928  137.2606  152.4448 H   0  0  0  0  0  0  0  0  0  0  0  0
  146.6687  139.4150  152.8308 H   0  0  0  0  0  0  0  0  0  0  0  0
  145.4187  138.5411  153.6867 H   0  0  0  0  0  0  0  0  0  0  0  0
  146.6108  139.1364  155.5488 H   0  0  0  0  0  0  0  0  0  0  0  0
  147.5393  137.6961  155.1959 H   0  0  0  0  0  0  0  0  0  0  0  0
  149.6254  138.2949  155.9628 H   0  0  0  0  0  0  0  0  0  0  0  0
  149.7859  137.9109  154.2584 H   0  0  0  0  0  0  0  0  0  0  0  0
  151.8267  139.0341  154.9949 H   0  0  0  0  0  0  0  0  0  0  0  0
  151.0094  140.0421  153.8458 H   0  0  0  0  0  0  0  0  0  0  0  0
  150.3608  142.1563  158.2811 H   0  0  0  0  0  0  0  0  0  0  0  0
  152.1914  143.5734  156.2332 H   0  0  0  0  0  0  0  0  0  0  0  0
  150.5973  144.1064  156.8802 H   0  0  0  0  0  0  0  0  0  0  0  0
  153.1298  144.6329  158.2008 H   0  0  0  0  0  0  0  0  0  0  0  0
  151.5519  144.5232  159.0751 H   0  0  0  0  0  0  0  0  0  0  0  0
  152.3219  142.3183  159.7531 H   0  0  0  0  0  0  0  0  0  0  0  0
  153.4595  142.2173  158.3574 H   0  0  0  0  0  0  0  0  0  0  0  0
  149.4989  142.3951  156.1691 H   0  0  0  0  0  0  0  0  0  0  0  0
  149.7041  141.9515  154.4975 H   0  0  0  0  0  0  0  0  0  0  0  0
  147.4790  141.2243  155.3738 H   0  0  0  0  0  0  0  0  0  0  0  0
  148.2534  140.2742  156.6302 H   0  0  0  0  0  0  0  0  0  0  0  0
  147.5824  135.4735  151.6378 H   0  0  0  0  0  0  0  0  0  0  0  0
  144.0591  135.0011  151.4922 H   0  0  0  0  0  0  0  0  0  0  0  0
  142.9069  132.9385  150.6904 H   0  0  0  0  0  0  0  0  0  0  0  0
  144.2864  130.9124  150.1423 H   0  0  0  0  0  0  0  0  0  0  0  0
  146.7751  131.0544  150.4277 H   0  0  0  0  0  0  0  0  0  0  0  0
  1  2  2  0  0  0  0
  2  3  1  0  0  0  0
  2 18  1  0  0  0  0
  3  4  1  0  0  0  0
  3 25  1  0  0  0  0
  4  5  1  0  0  0  0
  4 26  1  0  0  0  0
  4 27  1  0  0  0  0
  5  6  1  0  0  0  0
  5 28  1  0  0  0  0
  5 29  1  0  0  0  0
  6 17  1  0  0  0  0
  6  7  1  0  0  0  0
  7  8  1  0  0  0  0
  7 30  1  0  0  0  0
  7 31  1  0  0  0  0
  8  9  1  0  0  0  0
  8 32  1  0  0  0  0
  8 33  1  0  0  0  0
  9 10  1  0  0  0  0
  9 16  1  0  0  0  0
 10 11  2  0  0  0  0
 10 12  1  0  0  0  0
 12 15  1  0  0  0  0
 12 13  1  0  0  0  0
 12 34  1  0  0  0  0
 13 14  1  0  0  0  0
 13 35  1  0  0  0  0
 13 36  1  0  0  0  0
 14 15  1  0  0  0  0
 14 37  1  0  0  0  0
 14 38  1  0  0  0  0
 15 39  1  0  0  0  0
 15 40  1  0  0  0  0
 16 17  1  0  0  0  0
 16 41  1  0  0  0  0
 16 42  1  0  0  0  0
 17 43  1  0  0  0  0
 17 44  1  0  0  0  0
 18 19  1  0  0  0  0
 18 45  1  0  0  0  0
 19 24  1  0  0  0  0
 19 20  2  0  0  0  0
 20 21  1  0  0  0  0
 20 46  1  0  0  0  0
 21 22  2  0  0  0  0
 21 47  1  0  0  0  0
 22 23  1  0  0  0  0
 22 48  1  0  0  0  0
 23 24  2  0  0  0  0
 23 49  1  0  0  0  0
M  END
> <s_m_source_file>
AV-unprocessed.smi

> <i_m_source_file_index>
2645

> <i_lp_mmshare_version>
43012

> <i_f3d_flags>
0

> <s_epik_input>
bjFbY0hdW2NIXVtjSF1bY0hdYzFbTkhdQyg9TylbTkhdW0NIMl1bQ0gyXU4yW0NIMl1bQ0gyXU4oW0NIMl1bQ0gyXTIpQyg9TylbQ0hdM1tDSDJdW0NIMl1bQ0gyXTM=

> <s_epik_cmdline>
J2VwaWtfcHl0aG9uJywgJy1waCcsICc3LjAnLCAnLXRuJywgJzgnLCAnLW1hJywgJzIwMCcsICctbWV0YWxfYmluZGluZycsICctaW1hZScsICc8aW5maWxlLm1hZT4nLCAnLW9tYWUnLCAnPG91dGZpbGUubWFlPic=

> <r_epik_Ionization_Penalty>
0.278001

> <r_epik_Ionization_Penalty_Charging>
0

> <r_epik_Ionization_Penalty_Neutral>
0.278001

> <r_epik_State_Penalty>
0.270395

> <r_epik_Charging_Adjusted_Penalty>
0.270395

> <i_epik_Tot_Q>
0

> <i_epik_Tot_abs_Q>
0

> <r_epik_Metal_State_Penalty>
0.270393

> <b_epik_Metal_Only>
0

> <s_lp_Force_Field>
OPLS_2005

> <r_lp_Energy>
44.6335

> <b_lp_Chiralities_Consistent>
1

> <s_lp_Variant>
AV-unprocessed.smi:2645-1

> <Gold.Version>
5.8.1

> <Gold.Id.Protein>
6NUR|6NUR_protein|mol2

> <Gold.PLP.Fitness>
51.7645

> <Gold.PLP.PLP>
-41.9775

> <Gold.PLP.part.hbond>
-3.0000

> <Gold.PLP.part.metal>
0.0000

> <Gold.PLP.part.buried>
-5.0500

> <Gold.PLP.part.nonpolar>
-34.9705

> <Gold.PLP.part.repulsive>
0.5362

> <Gold.PLP.ligand.clash>
0.0000

> <Gold.PLP.ligand.torsion>
1.3307

> <Gold.PLP.Chemscore.Hbond>
2.9920

> <Gold.PLP.Chemscore.CHOScore>
1.0000

> <Gold.PLP.Chemscore.Metal>
0.0000

> <Gold.Chemscore.Hbonds>
donor molecule, donor type, donor heavy atom, donor atom, acceptor molecule, acceptor atom, score
      L1  H     3    25       P1  7948  0.91
      L1  H    18    45       P1  7948  1.00
      P1  H  7997  8010       L1    11  1.00
      L1  C    23    49       P1 10747  1.00

> <Gold.PLP.Chemscore.Internal.Correction>
0.4723

> <Gold.Rescore>
     Score         DG    S(hbond)    S(metal)    S(lipo)     H(rot)  DE(clash)    DE(int)     intcor
     19.28     -23.25       2.90        0.00     107.35       1.75       1.19       2.78       ----

> <Gold.Chemscore.Fitness>
19.2792

> <Gold.Chemscore.DG>
-23.2464

> <Gold.Chemscore.ZeroCoef>
-5.4800

> <Gold.Chemscore.Hbond>
2.9012

> <Gold.Chemscore.Metal>
0.0000

> <Gold.Chemscore.Lipo>
107.3456

> <Gold.Chemscore.Internal_Hbond>
0.0000

> <Gold.Chemscore.DEClash>
1.1890

> <Gold.Chemscore.DEInternal>
2.7782

> <Gold.Chemscore.Rot>
1.7512

> <Gold.Chemscore.Internal.Correction>
   9.000000E+99

> <Gold.Chemscore.Hbonds>
donor molecule, donor type, donor heavy atom, donor atom, acceptor molecule, acceptor atom, score
      L1  H     3    25       P1  7948  0.89
      L1  H    18    45       P1  7948  0.85
      P1  H  7997  8010       L1    11  0.95

> <Gold.Chemscore.Hbond.Weighted>
-9.6900

> <Gold.Chemscore.Metal.Weighted>
-0.0000

> <Gold.Chemscore.Lipo.Weighted>
-12.5594

> <Gold.Chemscore.Internal_Hbond.Weighted>
0.0000

> <Gold.Chemscore.DEClash.Weighted>
1.1890

> <Gold.Chemscore.DEInternal.Weighted>
2.7782

> <Gold.Chemscore.Rot.Weighted>
4.4830

> <Gold.Chemscore.Internal.Correction.Weighted>
   9.000000E+99

> <Gold.Protein.RotatedTorsions>
[ 6907 6896 6895 6894 ] final -159.57 input  -60.11 | X-H torsion
[ 7974 7965 7964 7962 ] final   25.03 input  175.53 | X-H torsion
[ 8008 7997 7996 7995 ] final   56.97 input   59.86 | X-H torsion
[ 10167 10162 10161 10158 ] final  145.02 input  -65.29 | X-H torsion
[ 10718 10713 10712 10709 ] final  147.23 input   66.30 | X-H torsion
[ 10763 10752 10751 10750 ] final   81.17 input  -60.55 | X-H torsion
[ 11005 11000 10999 10996 ] final  -44.76 input  -57.11 | X-H torsion

> <Gold.Protein.ActiveResidues>
 VAL166  LYS551  ARG553  GLY616  TRP617  ASP618  TYR619  PRO620  LYS621  CYS622 
 ASP623  PHE694  ASN695  SER759  ASP760  ASP761  ALA762  ILE779  LEU786  VAL792 
 PHE793  MET794  SER795  GLU796  ALA797  LYS798  CYS799  TRP800  GLU811  SER814 

> <Gold.Protein.RotatedAtoms>
  151.3356  133.3983  159.2666 H   0  0  0  0  0  0  0  0  0  0  0  0  # atno 6907 bound_to 6896
  150.9919  134.9253  159.7915 H   0  0  0  0  0  0  0  0  0  0  0  0  # atno 6908 bound_to 6896
  152.5250  134.3321  159.9239 H   0  0  0  0  0  0  0  0  0  0  0  0  # atno 6909 bound_to 6896
  146.1909  139.7522  142.8833 H   0  0  0  0  0  0  0  0  0  0  0  0  # atno 7974 bound_to 7965
  155.5262  140.3481  155.4417 H   0  0  0  0  0  0  0  0  0  0  0  0  # atno 8008 bound_to 7997
  156.0750  140.1372  156.9809 H   0  0  0  0  0  0  0  0  0  0  0  0  # atno 8009 bound_to 7997
  154.4548  140.0958  156.6701 H   0  0  0  0  0  0  0  0  0  0  0  0  # atno 8010 bound_to 7997
  139.4934  144.5931  151.6639 H   0  0  0  0  0  0  0  0  0  0  0  0  # atno 10167 bound_to 10162
  157.3235  131.0908  151.1221 H   0  0  0  0  0  0  0  0  0  0  0  0  # atno 10718 bound_to 10713
  153.1094  135.4775  154.9009 H   0  0  0  0  0  0  0  0  0  0  0  0  # atno 10763 bound_to 10752
  154.7465  135.3095  154.8638 H   0  0  0  0  0  0  0  0  0  0  0  0  # atno 10764 bound_to 10752
  153.9231  135.6853  153.4800 H   0  0  0  0  0  0  0  0  0  0  0  0  # atno 10765 bound_to 10752
  141.0472  133.6757  156.2918 H   0  0  0  0  0  0  0  0  0  0  0  0  # atno 11005 bound_to 11000
  145.3796  141.0356  143.3185 LP  0  0  0  0  0  0  0  0  0  0  0  0  # atno 17320 bound_to 7965
  144.8484  139.5360  143.6868 LP  0  0  0  0  0  0  0  0  0  0  0  0  # atno 17321 bound_to 7965
  140.5563  144.0343  150.6149 LP  0  0  0  0  0  0  0  0  0  0  0  0  # atno 17342 bound_to 10162
  140.3414  143.3017  152.0584 LP  0  0  0  0  0  0  0  0  0  0  0  0  # atno 17343 bound_to 10162
  157.2496  130.6608  149.5925 LP  0  0  0  0  0  0  0  0  0  0  0  0  # atno 17370 bound_to 10713
  155.9688  130.4542  150.5842 LP  0  0  0  0  0  0  0  0  0  0  0  0  # atno 17371 bound_to 10713
  140.6125  134.5444  157.5535 LP  0  0  0  0  0  0  0  0  0  0  0  0  # atno 17394 bound_to 11000
  139.9321  134.7944  156.0902 LP  0  0  0  0  0  0  0  0  0  0  0  0  # atno 17395 bound_to 11000

$$$$
