AV-unprocessed.smi:1066|AV-procd|sdf|4670|dock6
  -GOLD-   22720 3183D 1   1.00000     0.00000
 Structure written by MMmdl.
 38 40  0  0  0  0  0  0  0  0  2 V2000
  152.0594  138.0189  159.2521 C   0  0  0  0  0  0  0  0  0  0  0  0
  151.4050  137.1067  158.2545 C   0  0  0  0  0  0  0  0  0  0  0  0
  150.5267  136.2071  158.6778 N   0  0  0  0  0  0  0  0  0  0  0  0
  150.0958  135.5111  157.5426 O   0  0  0  0  0  0  0  0  0  0  0  0
  150.7476  136.0410  156.4828 C   0  0  0  0  0  0  0  0  0  0  0  0
  150.5238  135.4594  154.8803 Cl  0  0  0  0  0  0  0  0  0  0  0  0
  151.5927  137.0514  156.8421 C   0  0  0  0  0  0  0  0  0  0  0  0
  152.5013  137.8941  155.9819 C   0  0  0  0  0  0  0  0  0  0  0  0
  151.8369  139.2392  155.6863 C   0  0  0  0  0  0  0  0  0  0  0  0
  152.1852  139.8975  154.7069 O   0  0  0  0  0  0  0  0  0  0  0  0
  150.8783  139.6339  156.5381 N   0  0  0  0  0  0  0  0  0  0  0  0
  150.0978  140.8580  156.4087 C   0  0  2  0  0  0  0  0  0  0  0  0
  148.8193  140.8813  157.2493 C   0  0  0  0  0  0  0  0  0  0  0  0
  147.8424  141.7534  156.4407 C   0  0  0  0  0  0  0  0  0  0  0  0
  148.4923  142.0310  155.1382 N   0  3  2  0  0  0  0  0  0  0  0  0
  147.5629  142.0884  153.9907 C   0  0  0  0  0  0  0  0  0  0  0  0
  146.2800  142.8261  154.2912 C   0  0  0  0  0  0  0  0  0  0  0  0
  146.2849  141.3147  154.2095 C   0  0  0  0  0  0  0  0  0  0  0  0
  149.5723  141.0410  154.9892 C   0  0  0  0  0  0  0  0  0  0  0  0
  152.9843  138.4405  158.8580 H   0  0  0  0  0  0  0  0  0  0  0  0
  152.3080  137.4884  160.1718 H   0  0  0  0  0  0  0  0  0  0  0  0
  151.4013  138.8479  159.5125 H   0  0  0  0  0  0  0  0  0  0  0  0
  153.4612  138.0741  156.4671 H   0  0  0  0  0  0  0  0  0  0  0  0
  152.7298  137.3925  155.0409 H   0  0  0  0  0  0  0  0  0  0  0  0
  150.6628  139.0307  157.3191 H   0  0  0  0  0  0  0  0  0  0  0  0
  150.7131  141.7239  156.6631 H   0  0  0  0  0  0  0  0  0  0  0  0
  148.4102  139.8748  157.3524 H   0  0  0  0  0  0  0  0  0  0  0  0
  148.9946  141.2711  158.2527 H   0  0  0  0  0  0  0  0  0  0  0  0
  146.8956  141.2277  156.3057 H   0  0  0  0  0  0  0  0  0  0  0  0
  147.6291  142.6954  156.9468 H   0  0  0  0  0  0  0  0  0  0  0  0
  148.0139  142.1442  153.0013 H   0  0  0  0  0  0  0  0  0  0  0  0
  146.1623  143.2761  155.2757 H   0  0  0  0  0  0  0  0  0  0  0  0
  145.8084  143.3674  153.4736 H   0  0  0  0  0  0  0  0  0  0  0  0
  145.8157  140.8621  153.3382 H   0  0  0  0  0  0  0  0  0  0  0  0
  146.1712  140.7602  155.1392 H   0  0  0  0  0  0  0  0  0  0  0  0
  150.3422  141.3867  154.2984 H   0  0  0  0  0  0  0  0  0  0  0  0
  149.1642  140.1034  154.6058 H   0  0  0  0  0  0  0  0  0  0  0  0
  148.9384  142.9334  155.2234 H   0  0  0  0  0  0  0  0  0  0  0  0
  1  2  1  0  0  0  0
  1 20  1  0  0  0  0
  1 21  1  0  0  0  0
  1 22  1  0  0  0  0
  2  7  1  0  0  0  0
  2  3  2  0  0  0  0
  3  4  1  0  0  0  0
  4  5  1  0  0  0  0
  5  6  1  0  0  0  0
  5  7  2  0  0  0  0
  7  8  1  0  0  0  0
  8  9  1  0  0  0  0
  8 23  1  0  0  0  0
  8 24  1  0  0  0  0
  9 10  2  0  0  0  0
  9 11  1  0  0  0  0
 11 12  1  0  0  0  0
 11 25  1  0  0  0  0
 12 19  1  0  0  0  0
 12 13  1  0  0  0  0
 12 26  1  0  0  0  0
 13 14  1  0  0  0  0
 13 27  1  0  0  0  0
 13 28  1  0  0  0  0
 14 15  1  0  0  0  0
 14 29  1  0  0  0  0
 14 30  1  0  0  0  0
 15 16  1  0  0  0  0
 15 19  1  0  0  0  0
 15 38  1  0  0  0  0
 16 18  1  0  0  0  0
 16 17  1  0  0  0  0
 16 31  1  0  0  0  0
 17 18  1  0  0  0  0
 17 32  1  0  0  0  0
 17 33  1  0  0  0  0
 18 34  1  0  0  0  0
 18 35  1  0  0  0  0
 19 36  1  0  0  0  0
 19 37  1  0  0  0  0
M  CHG  1  15   1
M  END
> <s_m_source_file>
AV-unprocessed.smi

> <i_m_source_file_index>
1066

> <i_lp_mmshare_version>
43012

> <i_f3d_flags>
0

> <s_epik_input>
W0NIM11jMW5vYyhDbCljMVtDSDJdQyg9TylbTkhdW0NAQEhdMltDSDJdW0NIMl1OKFtDSDJdMilbQ0hdM1tDSDJdW0NIMl0z

> <s_epik_cmdline>
J2VwaWtfcHl0aG9uJywgJy1waCcsICc3LjAnLCAnLXRuJywgJzgnLCAnLW1hJywgJzIwMCcsICctbWV0YWxfYmluZGluZycsICctaW1hZScsICc8aW5maWxlLm1hZT4nLCAnLW9tYWUnLCAnPG91dGZpbGUubWFlPic=

> <r_epik_Ionization_Penalty>
0.00108138

> <r_epik_Ionization_Penalty_Charging>
0.00108128

> <r_epik_Ionization_Penalty_Neutral>
9.66632e-08

> <r_epik_State_Penalty>
0.000708577

> <r_epik_Charging_Adjusted_Penalty>
0.00178986

> <i_epik_Tot_Q>
1

> <i_epik_Tot_abs_Q>
1

> <r_epik_Metal_State_Penalty>
-0

> <b_epik_Metal_Only>
0

> <s_lp_Force_Field>
OPLS_2005

> <r_lp_Energy>
30.9378

> <b_lp_Chiralities_Consistent>
1

> <s_lp_Variant>
AV-unprocessed.smi:1066-3

> <Gold.Version>
5.8.1

> <Gold.Id.Protein>
6NUR|6NUR_protein|mol2

> <Gold.PLP.Fitness>
37.4746

> <Gold.PLP.PLP>
-29.5781

> <Gold.PLP.part.hbond>
-3.7470

> <Gold.PLP.part.metal>
0.0000

> <Gold.PLP.part.buried>
-4.1278

> <Gold.PLP.part.nonpolar>
-22.0082

> <Gold.PLP.part.repulsive>
0.2695

> <Gold.PLP.ligand.clash>
1.9199

> <Gold.PLP.ligand.torsion>
1.4490

> <Gold.PLP.Chemscore.Hbond>
3.8160

> <Gold.PLP.Chemscore.CHOScore>
0.0000

> <Gold.PLP.Chemscore.Metal>
0.0000

> <Gold.Chemscore.Hbonds>
donor molecule, donor type, donor heavy atom, donor atom, acceptor molecule, acceptor atom, score
      L1  H    15    38       P1  8028  2.00
      P1  H  6896  6909       L1     3  0.91
      P1  H  7989  7998       L1    10  0.75

> <Gold.PLP.Chemscore.Internal.Correction>
1.2665

> <Gold.Rescore>
     Score         DG    S(hbond)    S(metal)    S(lipo)     H(rot)  DE(clash)    DE(int)     intcor
     14.44     -17.26       2.43        0.00      65.78       1.57       0.02       2.80       ----

> <Gold.Chemscore.Fitness>
14.4403

> <Gold.Chemscore.DG>
-17.2612

> <Gold.Chemscore.ZeroCoef>
-5.4800

> <Gold.Chemscore.Hbond>
2.4273

> <Gold.Chemscore.Metal>
0.0000

> <Gold.Chemscore.Lipo>
65.7780

> <Gold.Chemscore.Internal_Hbond>
0.0000

> <Gold.Chemscore.DEClash>
0.0195

> <Gold.Chemscore.DEInternal>
2.8014

> <Gold.Chemscore.Rot>
1.5711

> <Gold.Chemscore.Internal.Correction>
   9.000000E+99

> <Gold.Chemscore.Hbonds>
donor molecule, donor type, donor heavy atom, donor atom, acceptor molecule, acceptor atom, score
      L1  H    15    38       P1  8028  0.95
      P1  H  6896  6909       L1     3  0.52
      P1  H  7989  7998       L1    10  0.73

> <Gold.Chemscore.Hbond.Weighted>
-8.1073

> <Gold.Chemscore.Metal.Weighted>
-0.0000

> <Gold.Chemscore.Lipo.Weighted>
-7.6960

> <Gold.Chemscore.Internal_Hbond.Weighted>
0.0000

> <Gold.Chemscore.DEClash.Weighted>
0.0195

> <Gold.Chemscore.DEInternal.Weighted>
2.8014

> <Gold.Chemscore.Rot.Weighted>
4.0221

> <Gold.Chemscore.Internal.Correction.Weighted>
   9.000000E+99

> <Gold.Protein.RotatedTorsions>
[ 6907 6896 6895 6894 ] final   88.34 input  -60.11 | X-H torsion
[ 7974 7965 7964 7962 ] final -111.05 input  175.53 | X-H torsion
[ 8008 7997 7996 7995 ] final -136.95 input   59.86 | X-H torsion
[ 10167 10162 10161 10158 ] final  -86.34 input  -65.29 | X-H torsion
[ 10718 10713 10712 10709 ] final  -51.64 input   66.30 | X-H torsion
[ 10763 10752 10751 10750 ] final   22.12 input  -60.55 | X-H torsion
[ 11005 11000 10999 10996 ] final   15.24 input  -57.11 | X-H torsion

> <Gold.Protein.ActiveResidues>
 VAL166  LYS551  ARG553  GLY616  TRP617  ASP618  TYR619  PRO620  LYS621  CYS622 
 ASP623  PHE694  ASN695  SER759  ASP760  ASP761  ALA762  ILE779  LEU786  VAL792 
 PHE793  MET794  SER795  GLU796  ALA797  LYS798  CYS799  TRP800  GLU811  SER814 

> <Gold.Protein.RotatedAtoms>
  152.5424  134.2137  159.8759 H   0  0  0  0  0  0  0  0  0  0  0  0  # atno 6907 bound_to 6896
  151.2118  133.4545  159.2606 H   0  0  0  0  0  0  0  0  0  0  0  0  # atno 6908 bound_to 6896
  151.0890  134.9917  159.8449 H   0  0  0  0  0  0  0  0  0  0  0  0  # atno 6909 bound_to 6896
  145.1608  140.8877  143.3592 H   0  0  0  0  0  0  0  0  0  0  0  0  # atno 7974 bound_to 7965
  155.4037  140.0507  157.3035 H   0  0  0  0  0  0  0  0  0  0  0  0  # atno 8008 bound_to 7997
  154.4978  140.2145  155.9369 H   0  0  0  0  0  0  0  0  0  0  0  0  # atno 8009 bound_to 7997
  156.1429  140.3151  155.8529 H   0  0  0  0  0  0  0  0  0  0  0  0  # atno 8010 bound_to 7997
  140.3951  143.2687  151.9215 H   0  0  0  0  0  0  0  0  0  0  0  0  # atno 10167 bound_to 10162
  156.1692  130.4149  149.9673 H   0  0  0  0  0  0  0  0  0  0  0  0  # atno 10718 bound_to 10713
  153.0940  135.6654  153.9798 H   0  0  0  0  0  0  0  0  0  0  0  0  # atno 10763 bound_to 10752
  153.9387  135.2996  155.3445 H   0  0  0  0  0  0  0  0  0  0  0  0  # atno 10764 bound_to 10752
  154.7357  135.5102  153.9112 H   0  0  0  0  0  0  0  0  0  0  0  0  # atno 10765 bound_to 10752
  140.4605  134.1132  155.7716 H   0  0  0  0  0  0  0  0  0  0  0  0  # atno 11005 bound_to 11000
  145.0333  139.3322  143.6014 LP  0  0  0  0  0  0  0  0  0  0  0  0  # atno 17320 bound_to 7965
  146.3482  139.9678  142.8710 LP  0  0  0  0  0  0  0  0  0  0  0  0  # atno 17321 bound_to 7965
  139.4787  144.5689  151.8120 LP  0  0  0  0  0  0  0  0  0  0  0  0  # atno 17342 bound_to 10162
  140.4799  144.1465  150.5931 LP  0  0  0  0  0  0  0  0  0  0  0  0  # atno 17343 bound_to 10162
  156.7478  130.9104  151.3636 LP  0  0  0  0  0  0  0  0  0  0  0  0  # atno 17370 bound_to 10713
  157.6790  130.9122  150.0221 LP  0  0  0  0  0  0  0  0  0  0  0  0  # atno 17371 bound_to 10713
  141.1623  133.8769  157.1813 LP  0  0  0  0  0  0  0  0  0  0  0  0  # atno 17394 bound_to 11000
  139.9948  135.0051  157.0058 LP  0  0  0  0  0  0  0  0  0  0  0  0  # atno 17395 bound_to 11000

$$$$
