AV-unprocessed.smi:3202|AV-procd|sdf|12243|dock3
  -GOLD-   2272018 73D 1   1.00000     0.00000
 Structure written by MMmdl.
 43 44  0  0  0  0  0  0  0  0  2 V2000
  146.3234  138.9458  152.0429 C   0  0  0  0  0  0  0  0  0  0  0  0
  147.3569  139.5392  152.9387 C   0  0  0  0  0  0  0  0  0  0  0  0
  147.4702  140.7852  153.4882 C   0  0  0  0  0  0  0  0  0  0  0  0
  148.6773  140.7278  154.2451 C   0  0  0  0  0  0  0  0  0  0  0  0
  149.3128  141.8171  155.0643 C   0  0  0  0  0  0  0  0  0  0  0  0
  149.8214  141.3260  156.4369 C   0  0  2  0  0  0  0  0  0  0  0  0
  149.0750  140.0711  156.9191 C   0  0  0  0  0  0  0  0  0  0  0  0
  149.6800  142.3943  157.4530 N   0  3  0  0  0  0  0  0  0  0  0  0
  150.5720  142.2884  158.6324 C   0  0  1  0  0  0  0  0  0  0  0  0
  151.6187  141.1731  158.5269 C   0  0  0  0  0  0  0  0  0  0  0  0
  152.7342  141.5798  159.4967 C   0  0  0  0  0  0  0  0  0  0  0  0
  152.4680  143.0462  159.8739 C   0  0  0  0  0  0  0  0  0  0  0  0
  151.3910  143.5685  158.9032 C   0  0  0  0  0  0  0  0  0  0  0  0
  152.0649  144.1317  157.6301 C   0  0  0  0  0  0  0  0  0  0  0  0
  150.5345  144.6675  159.5599 C   0  0  0  0  0  0  0  0  0  0  0  0
  149.2659  139.5430  154.1696 N   0  0  0  0  0  0  0  0  0  0  0  0
  148.4517  138.8274  153.3719 N   0  0  0  0  0  0  0  0  0  0  0  0
  148.6551  137.8676  153.1309 H   0  0  0  0  0  0  0  0  0  0  0  0
  145.5452  139.6731  151.8100 H   0  0  0  0  0  0  0  0  0  0  0  0
  145.8494  138.0848  152.5145 H   0  0  0  0  0  0  0  0  0  0  0  0
  146.7674  138.6166  151.1033 H   0  0  0  0  0  0  0  0  0  0  0  0
  146.7914  141.6165  153.3666 H   0  0  0  0  0  0  0  0  0  0  0  0
  150.1320  142.2547  154.4946 H   0  0  0  0  0  0  0  0  0  0  0  0
  148.5961  142.6260  155.2115 H   0  0  0  0  0  0  0  0  0  0  0  0
  150.8766  141.0618  156.3480 H   0  0  0  0  0  0  0  0  0  0  0  0
  149.2199  139.2316  156.2387 H   0  0  0  0  0  0  0  0  0  0  0  0
  148.0030  140.2525  157.0004 H   0  0  0  0  0  0  0  0  0  0  0  0
  149.4339  139.7548  157.8990 H   0  0  0  0  0  0  0  0  0  0  0  0
  149.8048  143.2942  157.0116 H   0  0  0  0  0  0  0  0  0  0  0  0
  149.9532  142.0911  159.5101 H   0  0  0  0  0  0  0  0  0  0  0  0
  151.2043  140.1923  158.7631 H   0  0  0  0  0  0  0  0  0  0  0  0
  152.0234  141.1239  157.5154 H   0  0  0  0  0  0  0  0  0  0  0  0
  152.7276  140.9518  160.3882 H   0  0  0  0  0  0  0  0  0  0  0  0
  153.7106  141.4645  159.0248 H   0  0  0  0  0  0  0  0  0  0  0  0
  152.0936  143.0769  160.8985 H   0  0  0  0  0  0  0  0  0  0  0  0
  153.3783  143.6469  159.8564 H   0  0  0  0  0  0  0  0  0  0  0  0
  152.7042  144.9816  157.8716 H   0  0  0  0  0  0  0  0  0  0  0  0
  151.3299  144.4820  156.9050 H   0  0  0  0  0  0  0  0  0  0  0  0
  152.6913  143.3906  157.1330 H   0  0  0  0  0  0  0  0  0  0  0  0
  151.1422  145.5332  159.8266 H   0  0  0  0  0  0  0  0  0  0  0  0
  150.0532  144.3125  160.4719 H   0  0  0  0  0  0  0  0  0  0  0  0
  149.7481  145.0116  158.8874 H   0  0  0  0  0  0  0  0  0  0  0  0
  148.7345  142.3434  157.8040 H   0  0  0  0  0  0  0  0  0  0  0  0
  1  2  1  0  0  0  0
  1 19  1  0  0  0  0
  1 20  1  0  0  0  0
  1 21  1  0  0  0  0
  2 17  1  0  0  0  0
  2  3  2  0  0  0  0
  3  4  1  0  0  0  0
  3 22  1  0  0  0  0
  4  5  1  0  0  0  0
  4 16  2  0  0  0  0
  5  6  1  0  0  0  0
  5 23  1  0  0  0  0
  5 24  1  0  0  0  0
  6  7  1  0  0  0  0
  6  8  1  0  0  0  0
  6 25  1  0  0  0  0
  7 26  1  0  0  0  0
  7 27  1  0  0  0  0
  7 28  1  0  0  0  0
  8  9  1  0  0  0  0
  8 29  1  0  0  0  0
  8 43  1  0  0  0  0
  9 13  1  0  0  0  0
  9 10  1  0  0  0  0
  9 30  1  0  0  0  0
 10 11  1  0  0  0  0
 10 31  1  0  0  0  0
 10 32  1  0  0  0  0
 11 12  1  0  0  0  0
 11 33  1  0  0  0  0
 11 34  1  0  0  0  0
 12 13  1  0  0  0  0
 12 35  1  0  0  0  0
 12 36  1  0  0  0  0
 13 14  1  0  0  0  0
 13 15  1  0  0  0  0
 14 37  1  0  0  0  0
 14 38  1  0  0  0  0
 14 39  1  0  0  0  0
 15 40  1  0  0  0  0
 15 41  1  0  0  0  0
 15 42  1  0  0  0  0
 16 17  1  0  0  0  0
 17 18  1  0  0  0  0
M  CHG  1   8   1
M  END
> <s_m_source_file>
AV-unprocessed.smi

> <i_m_source_file_index>
3202

> <i_lp_mmshare_version>
43012

> <i_f3d_flags>
0

> <s_epik_input>
W0NIM11jMVtjSF1jKG5bbkhdMSlbQ0gyXVtDQEhdKFtDSDNdKVtOSF1bQ0BASF0oQzIoW0NIM10pW0NIM10pW0NIMl1bQ0gyXVtDSDJdMg==

> <s_epik_cmdline>
J2VwaWtfcHl0aG9uJywgJy1waCcsICc3LjAnLCAnLXRuJywgJzgnLCAnLW1hJywgJzIwMCcsICctbWV0YWxfYmluZGluZycsICctaW1hZScsICc8aW5maWxlLm1hZT4nLCAnLW9tYWUnLCAnPG91dGZpbGUubWFlPic=

> <r_lp_tautomer_probability>
0.5

> <r_epik_Ionization_Penalty>
0.000341671

> <r_epik_Ionization_Penalty_Charging>
0.000281809

> <r_epik_Ionization_Penalty_Neutral>
5.9862e-05

> <r_epik_State_Penalty>
0.41068

> <r_epik_Charging_Adjusted_Penalty>
0.410962

> <i_epik_Tot_Q>
1

> <i_epik_Tot_abs_Q>
1

> <r_epik_Metal_State_Penalty>
0.410672

> <b_epik_Metal_Only>
0

> <s_lp_Force_Field>
OPLS_2005

> <r_lp_Energy>
29.113

> <b_lp_Chiralities_Consistent>
1

> <s_lp_Variant>
AV-unprocessed.smi:3202-3

> <Gold.Version>
5.8.1

> <Gold.Id.Protein>
6NUR|6NUR_protein|mol2

> <Gold.PLP.Fitness>
44.4735

> <Gold.PLP.PLP>
-38.8029

> <Gold.PLP.part.hbond>
-3.0000

> <Gold.PLP.part.metal>
0.0000

> <Gold.PLP.part.buried>
-0.8195

> <Gold.PLP.part.nonpolar>
-35.7766

> <Gold.PLP.part.repulsive>
0.8537

> <Gold.PLP.ligand.clash>
0.0000

> <Gold.PLP.ligand.torsion>
1.6026

> <Gold.PLP.Chemscore.Hbond>
2.9520

> <Gold.PLP.Chemscore.CHOScore>
0.0000

> <Gold.PLP.Chemscore.Metal>
0.0000

> <Gold.Chemscore.Hbonds>
donor molecule, donor type, donor heavy atom, donor atom, acceptor molecule, acceptor atom, score
      L1  H     8    29       P1  8028  1.17
      L1  H    17    18       P1  7948  0.89

> <Gold.PLP.Chemscore.Internal.Correction>
0.0198

> <Gold.Rescore>
     Score         DG    S(hbond)    S(metal)    S(lipo)     H(rot)  DE(clash)    DE(int)     intcor
     16.27     -22.72       1.87        0.00     126.05       1.46       2.68       3.78       ----

> <Gold.Chemscore.Fitness>
16.2706

> <Gold.Chemscore.DG>
-22.7228

> <Gold.Chemscore.ZeroCoef>
-5.4800

> <Gold.Chemscore.Hbond>
1.8658

> <Gold.Chemscore.Metal>
0.0000

> <Gold.Chemscore.Lipo>
126.0473

> <Gold.Chemscore.Internal_Hbond>
0.0000

> <Gold.Chemscore.DEClash>
2.6766

> <Gold.Chemscore.DEInternal>
3.7755

> <Gold.Chemscore.Rot>
1.4596

> <Gold.Chemscore.Internal.Correction>
   9.000000E+99

> <Gold.Chemscore.Hbonds>
donor molecule, donor type, donor heavy atom, donor atom, acceptor molecule, acceptor atom, score
      L1  H     8    29       P1  8028  0.57
      L1  H    17    18       P1  7948  0.86

> <Gold.Chemscore.Hbond.Weighted>
-6.2318

> <Gold.Chemscore.Metal.Weighted>
-0.0000

> <Gold.Chemscore.Lipo.Weighted>
-14.7475

> <Gold.Chemscore.Internal_Hbond.Weighted>
0.0000

> <Gold.Chemscore.DEClash.Weighted>
2.6766

> <Gold.Chemscore.DEInternal.Weighted>
3.7755

> <Gold.Chemscore.Rot.Weighted>
3.7365

> <Gold.Chemscore.Internal.Correction.Weighted>
   9.000000E+99

> <Gold.Protein.RotatedTorsions>
[ 6907 6896 6895 6894 ] final -133.34 input  -60.11 | X-H torsion
[ 7974 7965 7964 7962 ] final  -51.33 input  175.53 | X-H torsion
[ 8008 7997 7996 7995 ] final -136.12 input   59.86 | X-H torsion
[ 10167 10162 10161 10158 ] final  135.79 input  -65.29 | X-H torsion
[ 10718 10713 10712 10709 ] final -149.58 input   66.30 | X-H torsion
[ 10763 10752 10751 10750 ] final  173.44 input  -60.55 | X-H torsion
[ 11005 11000 10999 10996 ] final    0.85 input  -57.11 | X-H torsion

> <Gold.Protein.ActiveResidues>
 VAL166  LYS551  ARG553  GLY616  TRP617  ASP618  TYR619  PRO620  LYS621  CYS622 
 ASP623  PHE694  ASN695  SER759  ASP760  ASP761  ALA762  ILE779  LEU786  VAL792 
 PHE793  MET794  SER795  GLU796  ALA797  LYS798  CYS799  TRP800  GLU811  SER814 

> <Gold.Protein.RotatedAtoms>
  150.9729  133.6325  159.2734 H   0  0  0  0  0  0  0  0  0  0  0  0  # atno 6907 bound_to 6896
  151.3607  135.0902  159.9443 H   0  0  0  0  0  0  0  0  0  0  0  0  # atno 6908 bound_to 6896
  152.5189  133.9303  159.7632 H   0  0  0  0  0  0  0  0  0  0  0  0  # atno 6909 bound_to 6896
  145.9202  140.7840  142.9651 H   0  0  0  0  0  0  0  0  0  0  0  0  # atno 7974 bound_to 7965
  155.3899  140.0499  157.3041 H   0  0  0  0  0  0  0  0  0  0  0  0  # atno 8008 bound_to 7997
  154.5041  140.2167  155.9248 H   0  0  0  0  0  0  0  0  0  0  0  0  # atno 8009 bound_to 7997
  156.1504  140.3137  155.8644 H   0  0  0  0  0  0  0  0  0  0  0  0  # atno 8010 bound_to 7997
  139.5204  144.6499  151.5333 H   0  0  0  0  0  0  0  0  0  0  0  0  # atno 10167 bound_to 10162
  156.4350  130.8094  151.2322 H   0  0  0  0  0  0  0  0  0  0  0  0  # atno 10718 bound_to 10713
  154.4401  135.2762  155.1853 H   0  0  0  0  0  0  0  0  0  0  0  0  # atno 10763 bound_to 10752
  154.3724  135.6106  153.5750 H   0  0  0  0  0  0  0  0  0  0  0  0  # atno 10764 bound_to 10752
  152.9840  135.5860  154.4727 H   0  0  0  0  0  0  0  0  0  0  0  0  # atno 10765 bound_to 10752
  140.6220  133.9653  155.8229 H   0  0  0  0  0  0  0  0  0  0  0  0  # atno 11005 bound_to 11000
  144.6752  140.1963  143.7391 LP  0  0  0  0  0  0  0  0  0  0  0  0  # atno 17320 bound_to 7965
  145.8560  139.2199  143.1744 LP  0  0  0  0  0  0  0  0  0  0  0  0  # atno 17321 bound_to 7965
  140.6299  143.9096  150.6596 LP  0  0  0  0  0  0  0  0  0  0  0  0  # atno 17342 bound_to 10162
  140.2397  143.3673  152.1497 LP  0  0  0  0  0  0  0  0  0  0  0  0  # atno 17343 bound_to 10162
  157.7507  131.0186  150.3633 LP  0  0  0  0  0  0  0  0  0  0  0  0  # atno 17370 bound_to 10713
  156.3979  130.3910  149.6981 LP  0  0  0  0  0  0  0  0  0  0  0  0  # atno 17371 bound_to 10713
  141.0736  134.0169  157.3491 LP  0  0  0  0  0  0  0  0  0  0  0  0  # atno 17394 bound_to 11000
  139.9150  135.0195  156.7843 LP  0  0  0  0  0  0  0  0  0  0  0  0  # atno 17395 bound_to 11000

$$$$
