#       Name:                AV-unprocessed.smi:1477
#       Creating user name   scv26
#       Creation time:       Fri Mar 27 06:07:24 2020


#       File generated by GOLD software.
#

@<TRIPOS>MOLECULE
AV-unprocessed.smi:1477
    39    40     1
SMALL
NO_CHARGES


@<TRIPOS>ATOM
      1 ****        -3.7946  -2.8071  -0.8147 C.3            1 S1                 0.0000
      2 ****        -3.5939  -1.3562  -0.8292 N.am           1 S1                 0.0000
      3 ****        -2.2785  -0.8743  -0.6922 C.2            1 S1                 0.0000
      4 ****        -1.9820   0.4383  -0.6901 C.2            1 S1                 0.0000
      5 ****        -0.6353   0.8023  -0.5478 N.am           1 S1                 0.0000
      6 ****        -0.0842   2.0292  -0.4606 C.2            1 S1                 0.0000
      7 ****        -0.7026   3.0918  -0.4845 O.2            1 S1                 0.0000
      8 ****         1.4394   2.0643  -0.3395 C.3            1 S1                 0.0000
      9 ****         1.8644   1.0631   0.5729 O.3            1 S1                 0.0000
     10 ****         3.2722   1.0374   0.7326 C.3            1 S1                 0.0000
     11 ****         3.6388  -0.0479   1.7221 C.3            1 S1                 0.0000
     12 ****         5.0580  -0.5648   1.7913 C.3            1 S1                 0.0000
     13 ****         3.9623  -1.4483   1.2523 C.3            1 S1                 0.0000
     14 ****        -3.0966   1.3625  -0.8449 C.2            1 S1                 0.0000
     15 ****        -4.3582   0.9074  -0.9779 C.2            1 S1                 0.0000
     16 ****        -4.6656  -0.5248  -0.9739 C.2            1 S1                 0.0000
     17 ****        -5.8144  -0.9516  -1.0944 O.2            1 S1                 0.0000
     18 ****        -2.8679  -3.3598  -0.6572 H              1 S1                 0.0000
     19 ****        -4.2178  -3.1431  -1.7623 H              1 S1                 0.0000
     20 ****        -4.4811  -3.0918  -0.0162 H              1 S1                 0.0000
     21 ****        -1.5245  -1.6415  -0.5870 H              1 S1                 0.0000
     22 ****         0.0101   0.0272  -0.4978 H              1 S1                 0.0000
     23 ****         1.8783   1.8965  -1.3240 H              1 S1                 0.0000
     24 ****         1.7579   3.0494   0.0059 H              1 S1                 0.0000
     25 ****         3.7650   0.8502  -0.2231 H              1 S1                 0.0000
     26 ****         3.6276   1.9963   1.1124 H              1 S1                 0.0000
     27 ****         3.1219   0.0343   2.6764 H              1 S1                 0.0000
     28 ****         5.7782  -0.1684   1.0782 H              1 S1                 0.0000
     29 ****         5.4581  -0.8020   2.7750 H              1 S1                 0.0000
     30 ****         3.6305  -2.2756   1.8763 H              1 S1                 0.0000
     31 ****         3.9534  -1.6402   0.1811 H              1 S1                 0.0000
     32 ****        -2.9523   2.4300  -0.8643 H              1 S1                 0.0000
     33 ****        -5.1651   1.6160  -1.0936 H              1 S1                 0.0000
     34 ****        -1.6985   3.0888  -0.5750 LP             1 S1                 0.0000
     35 ****        -0.2096   3.9590  -0.4135 LP             1 S1                 0.0000
     36 ****         1.5636   0.1717   0.2339 LP             1 S1                 0.0000
     37 ****         1.4438   1.2406   1.4626 LP             1 S1                 0.0000
     38 ****        -5.9850  -1.9369  -1.0881 LP             1 S1                 0.0000
     39 ****        -6.5768  -0.3128  -1.1986 LP             1 S1                 0.0000
@<TRIPOS>BOND
    1    1    2 1     
    2    1   18 1     
    3    1   19 1     
    4    1   20 1     
    5    2   16 am    
    6    2    3 1     
    7    3    4 2     
    8    3   21 1     
    9    4    5 1     
   10    4   14 1     
   11    5    6 am    
   12    5   22 1     
   13    6    7 2     
   14    6    8 1     
   15    8    9 1     
   16    8   23 1     
   17    8   24 1     
   18    9   10 1     
   19   10   11 1     
   20   10   25 1     
   21   10   26 1     
   22   11   13 1     
   23   11   12 1     
   24   11   27 1     
   25   12   13 1     
   26   12   28 1     
   27   12   29 1     
   28   13   30 1     
   29   13   31 1     
   30   14   15 2     
   31   14   32 1     
   32   15   16 1     
   33   15   33 1     
   34   16   17 2     
   35    7   34 1     
   36    7   35 1     
   37    9   36 1     
   38    9   37 1     
   39   17   38 1     
   40   17   39 1     
@<TRIPOS>SUBSTRUCTURE
      1 S1             1
@<TRIPOS>SET
LONE_PAIRS      STATIC     ATOMS    <user>   **** ""
6 34 35 36 37 38 39
DONOR_HYDROGENS      STATIC     ATOMS    <user>   **** ""
1 22
ATOM$BLUE        STATIC     ATOMS    COLORGROUP SYSTEM
6 34 35 36 37 38 39
ATOM$RED        STATIC     ATOMS    COLORGROUP SYSTEM
1 22
