AV-unprocessed.smi:2630|AV-procd|sdf|10246|dock2
  -GOLD-   2272014253D 1   1.00000     0.00000
 Structure written by MMmdl.
 35 36  0  0  0  0  0  0  0  0  1 V2000
  151.6717  145.5839  159.6262 C   0  0  0  0  0  0  0  0  0  0  0  0
  151.4614  144.3755  158.9181 O   0  0  0  0  0  0  0  0  0  0  0  0
  152.4786  143.4175  159.1619 C   0  0  0  0  0  0  0  0  0  0  0  0
  151.8530  142.0163  159.2617 C   0  0  0  0  0  0  0  0  0  0  0  0
  151.5680  141.4292  157.9674 N   0  0  0  0  0  0  0  0  0  0  0  0
  150.5415  141.8650  157.1253 C   0  0  0  0  0  0  0  0  0  0  0  0
  149.7457  142.9253  157.5247 N   0  0  0  0  0  0  0  0  0  0  0  0
  150.3056  141.2525  155.9360 C   0  0  0  0  0  0  0  0  0  0  0  0
  149.0187  141.6909  154.7912 S   0  0  0  0  0  0  0  0  0  0  0  0
  147.5859  141.4840  155.7980 C   0  0  0  0  0  0  0  0  0  0  0  0
  146.3521  142.0267  155.3862 C   0  0  0  0  0  0  0  0  0  0  0  0
  145.2105  141.8684  156.1958 C   0  0  0  0  0  0  0  0  0  0  0  0
  145.3023  141.1664  157.4137 C   0  0  0  0  0  0  0  0  0  0  0  0
  146.5359  140.6227  157.8234 C   0  0  0  0  0  0  0  0  0  0  0  0
  147.6789  140.7808  157.0155 C   0  0  0  0  0  0  0  0  0  0  0  0
  151.1039  140.1178  155.4669 C   0  0  0  0  0  0  0  0  0  0  0  0
  150.9707  139.5144  154.4025 O   0  0  0  0  0  0  0  0  0  0  0  0
  152.0993  139.7247  156.3610 N   0  0  0  0  0  0  0  0  0  0  0  0
  152.3659  140.3180  157.5940 C   0  0  0  0  0  0  0  0  0  0  0  0
  153.2650  139.8615  158.3010 O   0  0  0  0  0  0  0  0  0  0  0  0
  152.6742  138.9387  156.0943 H   0  0  0  0  0  0  0  0  0  0  0  0
  150.8653  146.2832  159.4057 H   0  0  0  0  0  0  0  0  0  0  0  0
  152.6130  146.0527  159.3365 H   0  0  0  0  0  0  0  0  0  0  0  0
  151.6821  145.4116  160.7034 H   0  0  0  0  0  0  0  0  0  0  0  0
  153.1986  143.4365  158.3429 H   0  0  0  0  0  0  0  0  0  0  0  0
  153.0224  143.6626  160.0755 H   0  0  0  0  0  0  0  0  0  0  0  0
  152.5011  141.3261  159.8003 H   0  0  0  0  0  0  0  0  0  0  0  0
  150.9202  142.0306  159.8277 H   0  0  0  0  0  0  0  0  0  0  0  0
  149.8882  143.3914  158.4092 H   0  0  0  0  0  0  0  0  0  0  0  0
  149.0619  143.3378  156.9065 H   0  0  0  0  0  0  0  0  0  0  0  0
  146.2783  142.5672  154.4540 H   0  0  0  0  0  0  0  0  0  0  0  0
  144.2649  142.2859  155.8828 H   0  0  0  0  0  0  0  0  0  0  0  0
  144.4261  141.0453  158.0337 H   0  0  0  0  0  0  0  0  0  0  0  0
  146.6058  140.0854  158.7577 H   0  0  0  0  0  0  0  0  0  0  0  0
  148.6247  140.3665  157.3331 H   0  0  0  0  0  0  0  0  0  0  0  0
  1  2  1  0  0  0  0
  1 22  1  0  0  0  0
  1 23  1  0  0  0  0
  1 24  1  0  0  0  0
  2  3  1  0  0  0  0
  3  4  1  0  0  0  0
  3 25  1  0  0  0  0
  3 26  1  0  0  0  0
  4  5  1  0  0  0  0
  4 27  1  0  0  0  0
  4 28  1  0  0  0  0
  5 19  1  0  0  0  0
  5  6  1  0  0  0  0
  6  7  1  0  0  0  0
  6  8  2  0  0  0  0
  7 29  1  0  0  0  0
  7 30  1  0  0  0  0
  8  9  1  0  0  0  0
  8 16  1  0  0  0  0
  9 10  1  0  0  0  0
 10 15  1  0  0  0  0
 10 11  2  0  0  0  0
 11 12  1  0  0  0  0
 11 31  1  0  0  0  0
 12 13  2  0  0  0  0
 12 32  1  0  0  0  0
 13 14  1  0  0  0  0
 13 33  1  0  0  0  0
 14 15  2  0  0  0  0
 14 34  1  0  0  0  0
 15 35  1  0  0  0  0
 16 17  2  0  0  0  0
 16 18  1  0  0  0  0
 18 21  1  0  0  0  0
 18 19  1  0  0  0  0
 19 20  2  0  0  0  0
M  END
> <s_m_source_file>
AV-unprocessed.smi

> <i_m_source_file_index>
2630

> <i_lp_mmshare_version>
43012

> <i_f3d_flags>
0

> <s_epik_input>
W0NIM11PW0NIMl1bQ0gyXW4xYyhbTkgyXSljKGMoPU8pW25IXWMxPU8pU2MyW2NIXVtjSF1bY0hdW2NIXVtjSF0y

> <s_epik_cmdline>
J2VwaWtfcHl0aG9uJywgJy1waCcsICc3LjAnLCAnLXRuJywgJzgnLCAnLW1hJywgJzIwMCcsICctbWV0YWxfYmluZGluZycsICctaW1hZScsICc8aW5maWxlLm1hZT4nLCAnLW9tYWUnLCAnPG91dGZpbGUubWFlPic=

> <r_lp_tautomer_probability>
1

> <r_epik_Ionization_Penalty>
1.3786e-05

> <r_epik_Ionization_Penalty_Charging>
1.17844e-05

> <r_epik_Ionization_Penalty_Neutral>
2.00164e-06

> <r_epik_State_Penalty>
-0

> <r_epik_Charging_Adjusted_Penalty>
1.17844e-05

> <i_epik_Tot_Q>
0

> <i_epik_Tot_abs_Q>
0

> <r_epik_Metal_State_Penalty>
0.0115847

> <b_epik_Metal_Only>
0

> <s_epik_Chemistry_Notes>
This compound has an imine and may undergo hydrolysis.

> <s_lp_Force_Field>
OPLS_2005

> <r_lp_Energy>
18.8348

> <b_lp_Chiralities_Consistent>
1

> <s_lp_Variant>
AV-unprocessed.smi:2630-1

> <Gold.Version>
5.8.1

> <Gold.Id.Protein>
6NUR|6NUR_protein|mol2

> <Gold.PLP.Fitness>
41.6354

> <Gold.PLP.PLP>
-35.2369

> <Gold.PLP.part.hbond>
-3.0000

> <Gold.PLP.part.metal>
0.0000

> <Gold.PLP.part.buried>
-1.0089

> <Gold.PLP.part.nonpolar>
-29.6739

> <Gold.PLP.part.repulsive>
0.3658

> <Gold.PLP.ligand.clash>
0.0000

> <Gold.PLP.ligand.torsion>
0.6496

> <Gold.PLP.Chemscore.Hbond>
2.5500

> <Gold.PLP.Chemscore.CHOScore>
0.0000

> <Gold.PLP.Chemscore.Metal>
0.0000

> <Gold.Chemscore.Hbonds>
donor molecule, donor type, donor heavy atom, donor atom, acceptor molecule, acceptor atom, score
      L1  H     7    30       P1  8028  0.82
      P1  H  7989  7998       L1    17  0.60
      P1  H  7997  8009       L1    20  0.98

> <Gold.PLP.Chemscore.Internal.Correction>
0.0477

> <Gold.Rescore>
     Score         DG    S(hbond)    S(metal)    S(lipo)     H(rot)  DE(clash)    DE(int)     intcor
     11.83     -12.98       1.65        0.00      62.36       2.07       0.64       0.51       ----

> <Gold.Chemscore.Fitness>
11.8336

> <Gold.Chemscore.DG>
-12.9795

> <Gold.Chemscore.ZeroCoef>
-5.4800

> <Gold.Chemscore.Hbond>
1.6460

> <Gold.Chemscore.Metal>
0.0000

> <Gold.Chemscore.Lipo>
62.3602

> <Gold.Chemscore.Internal_Hbond>
0.0000

> <Gold.Chemscore.DEClash>
0.6368

> <Gold.Chemscore.DEInternal>
0.5091

> <Gold.Chemscore.Rot>
2.0680

> <Gold.Chemscore.Internal.Correction>
   9.000000E+99

> <Gold.Chemscore.Hbonds>
donor molecule, donor type, donor heavy atom, donor atom, acceptor molecule, acceptor atom, score
      L1  H     7    30       P1  8028  0.69
      P1  H  7989  7998       L1    17  0.04
      P1  H  7997  8009       L1    20  0.37

> <Gold.Chemscore.Hbond.Weighted>
-5.4975

> <Gold.Chemscore.Metal.Weighted>
-0.0000

> <Gold.Chemscore.Lipo.Weighted>
-7.2961

> <Gold.Chemscore.Internal_Hbond.Weighted>
0.0000

> <Gold.Chemscore.DEClash.Weighted>
0.6368

> <Gold.Chemscore.DEInternal.Weighted>
0.5091

> <Gold.Chemscore.Rot.Weighted>
5.2941

> <Gold.Chemscore.Internal.Correction.Weighted>
   9.000000E+99

> <Gold.Protein.RotatedTorsions>
[ 6907 6896 6895 6894 ] final  119.57 input  -60.11 | X-H torsion
[ 7974 7965 7964 7962 ] final -125.47 input  175.53 | X-H torsion
[ 8008 7997 7996 7995 ] final  138.26 input   59.86 | X-H torsion
[ 10167 10162 10161 10158 ] final  -82.17 input  -65.29 | X-H torsion
[ 10718 10713 10712 10709 ] final   -5.05 input   66.30 | X-H torsion
[ 10763 10752 10751 10750 ] final  -70.47 input  -60.55 | X-H torsion
[ 11005 11000 10999 10996 ] final  -50.46 input  -57.11 | X-H torsion

> <Gold.Protein.ActiveResidues>
 VAL166  LYS551  ARG553  GLY616  TRP617  ASP618  TYR619  PRO620  LYS621  CYS622 
 ASP623  PHE694  ASN695  SER759  ASP760  ASP761  ALA762  ILE779  LEU786  VAL792 
 PHE793  MET794  SER795  GLU796  ALA797  LYS798  CYS799  TRP800  GLU811  SER814 

> <Gold.Protein.RotatedAtoms>
  152.4462  133.7540  159.6709 H   0  0  0  0  0  0  0  0  0  0  0  0  # atno 6907 bound_to 6896
  150.8362  133.7999  159.3085 H   0  0  0  0  0  0  0  0  0  0  0  0  # atno 6908 bound_to 6896
  151.5638  135.1067  160.0030 H   0  0  0  0  0  0  0  0  0  0  0  0  # atno 6909 bound_to 6896
  144.9973  140.7787  143.4518 H   0  0  0  0  0  0  0  0  0  0  0  0  # atno 7974 bound_to 7965
  156.2998  140.2398  156.4045 H   0  0  0  0  0  0  0  0  0  0  0  0  # atno 8008 bound_to 7997
  154.8497  140.0424  157.1616 H   0  0  0  0  0  0  0  0  0  0  0  0  # atno 8009 bound_to 7997
  154.9012  140.2977  155.5320 H   0  0  0  0  0  0  0  0  0  0  0  0  # atno 8010 bound_to 7997
  140.4345  143.2536  151.8713 H   0  0  0  0  0  0  0  0  0  0  0  0  # atno 10167 bound_to 10162
  156.7523  130.5243  149.5801 H   0  0  0  0  0  0  0  0  0  0  0  0  # atno 10718 bound_to 10713
  154.4181  135.5993  153.5993 H   0  0  0  0  0  0  0  0  0  0  0  0  # atno 10763 bound_to 10752
  152.9793  135.5946  154.3988 H   0  0  0  0  0  0  0  0  0  0  0  0  # atno 10764 bound_to 10752
  154.3809  135.2841  155.2190 H   0  0  0  0  0  0  0  0  0  0  0  0  # atno 10765 bound_to 10752
  141.0817  133.6652  156.3735 H   0  0  0  0  0  0  0  0  0  0  0  0  # atno 11005 bound_to 11000
  145.2202  139.2162  143.5097 LP  0  0  0  0  0  0  0  0  0  0  0  0  # atno 17320 bound_to 7965
  146.3444  140.2059  142.8589 LP  0  0  0  0  0  0  0  0  0  0  0  0  # atno 17321 bound_to 7965
  139.4786  144.5298  151.8682 LP  0  0  0  0  0  0  0  0  0  0  0  0  # atno 17342 bound_to 10162
  140.4390  144.2013  150.5890 LP  0  0  0  0  0  0  0  0  0  0  0  0  # atno 17343 bound_to 10162
  156.1393  130.6233  151.0445 LP  0  0  0  0  0  0  0  0  0  0  0  0  # atno 17370 bound_to 10713
  157.6772  131.0847  150.7465 LP  0  0  0  0  0  0  0  0  0  0  0  0  # atno 17371 bound_to 10713
  140.5453  134.6080  157.5392 LP  0  0  0  0  0  0  0  0  0  0  0  0  # atno 17394 bound_to 11000
  139.9632  134.7418  156.0194 LP  0  0  0  0  0  0  0  0  0  0  0  0  # atno 17395 bound_to 11000

$$$$
