AV-unprocessed.smi:571|AV-procd|sdf|2963|dock3
  -GOLD-   2262023463D 1   1.00000     0.00000
 Structure written by MMmdl.
 44 45  0  0  0  0  0  0  0  0  2 V2000
  149.4709  141.1238  154.4518 C   0  0  0  0  0  0  0  0  0  0  0  0
  149.1216  141.2477  155.9439 C   0  0  2  0  0  0  0  0  0  0  0  0
  147.5925  141.3407  156.1860 C   0  0  0  0  0  0  0  0  0  0  0  0
  146.9584  142.4984  155.5030 N   0  3  0  0  0  0  0  0  0  0  0  0
  146.7003  142.2461  154.0624 C   0  0  0  0  0  0  0  0  0  0  0  0
  146.2168  143.5258  153.3599 C   0  0  0  0  0  0  0  0  0  0  0  0
  144.9674  144.0911  154.0485 C   0  0  0  0  0  0  0  0  0  0  0  0
  145.2430  144.3046  155.5429 C   0  0  0  0  0  0  0  0  0  0  0  0
  145.7504  143.0104  156.2014 C   0  0  0  0  0  0  0  0  0  0  0  0
  149.8798  142.3290  156.5826 N   0  0  0  0  0  0  0  0  0  0  0  0
  150.9614  142.2037  157.3700 C   0  0  0  0  0  0  0  0  0  0  0  0
  151.4361  141.1163  157.6987 O   0  0  0  0  0  0  0  0  0  0  0  0
  151.6048  143.5139  157.8418 C   0  0  0  0  0  0  0  0  0  0  0  0
  151.8269  143.5348  159.2963 N   0  0  0  0  0  0  0  0  0  0  0  0
  152.5406  142.4478  159.8407 C   0  0  0  0  0  0  0  0  0  0  0  0
  152.7899  142.3490  161.1558 C   0  0  0  0  0  0  0  0  0  0  0  0
  152.3057  143.3976  162.0222 C   0  0  0  0  0  0  0  0  0  0  0  0
  151.6178  144.4388  161.5127 C   0  0  0  0  0  0  0  0  0  0  0  0
  151.3367  144.5474  160.0763 C   0  0  0  0  0  0  0  0  0  0  0  0
  150.6969  145.4878  159.6054 O   0  0  0  0  0  0  0  0  0  0  0  0
  148.9850  140.2540  154.0089 H   0  0  0  0  0  0  0  0  0  0  0  0
  150.5457  141.0085  154.3079 H   0  0  0  0  0  0  0  0  0  0  0  0
  149.1524  142.0010  153.8879 H   0  0  0  0  0  0  0  0  0  0  0  0
  149.4743  140.3352  156.4248 H   0  0  0  0  0  0  0  0  0  0  0  0
  147.1320  140.4236  155.8158 H   0  0  0  0  0  0  0  0  0  0  0  0
  147.3728  141.3714  157.2543 H   0  0  0  0  0  0  0  0  0  0  0  0
  147.6144  141.9002  153.5784 H   0  0  0  0  0  0  0  0  0  0  0  0
  145.9617  141.4501  153.9563 H   0  0  0  0  0  0  0  0  0  0  0  0
  147.0125  144.2722  153.3722 H   0  0  0  0  0  0  0  0  0  0  0  0
  146.0038  143.3185  152.3107 H   0  0  0  0  0  0  0  0  0  0  0  0
  144.6700  145.0305  153.5811 H   0  0  0  0  0  0  0  0  0  0  0  0
  144.1324  143.4007  153.9223 H   0  0  0  0  0  0  0  0  0  0  0  0
  145.9852  145.0943  155.6689 H   0  0  0  0  0  0  0  0  0  0  0  0
  144.3373  144.6482  156.0440 H   0  0  0  0  0  0  0  0  0  0  0  0
  144.9692  142.2488  156.1890 H   0  0  0  0  0  0  0  0  0  0  0  0
  145.9782  143.2130  157.2475 H   0  0  0  0  0  0  0  0  0  0  0  0
  149.5590  143.2676  156.3909 H   0  0  0  0  0  0  0  0  0  0  0  0
  152.5576  143.6591  157.3294 H   0  0  0  0  0  0  0  0  0  0  0  0
  150.9784  144.3462  157.5176 H   0  0  0  0  0  0  0  0  0  0  0  0
  152.8618  141.7049  159.1247 H   0  0  0  0  0  0  0  0  0  0  0  0
  153.3355  141.5070  161.5557 H   0  0  0  0  0  0  0  0  0  0  0  0
  152.4960  143.3473  163.0842 H   0  0  0  0  0  0  0  0  0  0  0  0
  151.2631  145.2137  162.1765 H   0  0  0  0  0  0  0  0  0  0  0  0
  147.6442  143.2394  155.5307 H   0  0  0  0  0  0  0  0  0  0  0  0
  1  2  1  0  0  0  0
  1 21  1  0  0  0  0
  1 22  1  0  0  0  0
  1 23  1  0  0  0  0
  2  3  1  0  0  0  0
  2 10  1  0  0  0  0
  2 24  1  0  0  0  0
  3  4  1  0  0  0  0
  3 25  1  0  0  0  0
  3 26  1  0  0  0  0
  4  9  1  0  0  0  0
  4  5  1  0  0  0  0
  4 44  1  0  0  0  0
  5  6  1  0  0  0  0
  5 27  1  0  0  0  0
  5 28  1  0  0  0  0
  6  7  1  0  0  0  0
  6 29  1  0  0  0  0
  6 30  1  0  0  0  0
  7  8  1  0  0  0  0
  7 31  1  0  0  0  0
  7 32  1  0  0  0  0
  8  9  1  0  0  0  0
  8 33  1  0  0  0  0
  8 34  1  0  0  0  0
  9 35  1  0  0  0  0
  9 36  1  0  0  0  0
 10 11  1  0  0  0  0
 10 37  1  0  0  0  0
 11 12  2  0  0  0  0
 11 13  1  0  0  0  0
 13 14  1  0  0  0  0
 13 38  1  0  0  0  0
 13 39  1  0  0  0  0
 14 19  1  0  0  0  0
 14 15  1  0  0  0  0
 15 16  2  0  0  0  0
 15 40  1  0  0  0  0
 16 17  1  0  0  0  0
 16 41  1  0  0  0  0
 17 18  2  0  0  0  0
 17 42  1  0  0  0  0
 18 19  1  0  0  0  0
 18 43  1  0  0  0  0
 19 20  2  0  0  0  0
M  CHG  1   4   1
M  END
> <s_m_source_file>
AV-unprocessed.smi

> <i_m_source_file_index>
571

> <i_lp_mmshare_version>
43012

> <i_f3d_flags>
0

> <s_epik_input>
W0NIMl0xW0NIMl1bQ0gyXVtDSDJdW0NIMl1OMVtDSDJdW0NAQEhdKFtDSDNdKVtOSF1DKD1PKVtDSDJdbjJbY0hdW2NIXVtjSF1bY0hdYzI9Tw==

> <s_epik_cmdline>
J2VwaWtfcHl0aG9uJywgJy1waCcsICc3LjAnLCAnLXRuJywgJzgnLCAnLW1hJywgJzIwMCcsICctbWV0YWxfYmluZGluZycsICctaW1hZScsICc8aW5maWxlLm1hZT4nLCAnLW9tYWUnLCAnPG91dGZpbGUubWFlPic=

> <r_lp_tautomer_probability>
1

> <r_epik_Ionization_Penalty>
0.00237248

> <r_epik_Ionization_Penalty_Charging>
0.0023724

> <r_epik_Ionization_Penalty_Neutral>
8.2065e-08

> <r_epik_State_Penalty>
0.00163922

> <r_epik_Charging_Adjusted_Penalty>
0.00401161

> <i_epik_Tot_Q>
1

> <i_epik_Tot_abs_Q>
1

> <r_epik_Metal_State_Penalty>
-0

> <b_epik_Metal_Only>
0

> <s_lp_Force_Field>
OPLS_2005

> <r_lp_Energy>
32.5109

> <b_lp_Chiralities_Consistent>
1

> <s_lp_Variant>
AV-unprocessed.smi:571-1

> <Gold.Version>
5.8.1

> <Gold.Id.Protein>
6NUR|6NUR_protein|mol2

> <Gold.PLP.Fitness>
54.6080

> <Gold.PLP.PLP>
-47.5650

> <Gold.PLP.part.hbond>
-1.9666

> <Gold.PLP.part.metal>
0.0000

> <Gold.PLP.part.buried>
-5.6805

> <Gold.PLP.part.nonpolar>
-39.5878

> <Gold.PLP.part.repulsive>
0.2680

> <Gold.PLP.ligand.clash>
0.0000

> <Gold.PLP.ligand.torsion>
0.5777

> <Gold.PLP.Chemscore.Hbond>
2.6851

> <Gold.PLP.Chemscore.CHOScore>
0.0000

> <Gold.PLP.Chemscore.Metal>
0.0000

> <Gold.Chemscore.Hbonds>
donor molecule, donor type, donor heavy atom, donor atom, acceptor molecule, acceptor atom, score
      L1  H     4    44       P1  8028  2.00
      L1  H    10    37       P1  8028  1.00

> <Gold.PLP.Chemscore.Internal.Correction>
0.1430

> <Gold.Rescore>
     Score         DG    S(hbond)    S(metal)    S(lipo)     H(rot)  DE(clash)    DE(int)     intcor
     14.44     -16.33       1.21        0.00      98.49       1.84       0.07       1.82       ----

> <Gold.Chemscore.Fitness>
14.4378

> <Gold.Chemscore.DG>
-16.3322

> <Gold.Chemscore.ZeroCoef>
-5.4800

> <Gold.Chemscore.Hbond>
1.2104

> <Gold.Chemscore.Metal>
0.0000

> <Gold.Chemscore.Lipo>
98.4893

> <Gold.Chemscore.Internal_Hbond>
0.0000

> <Gold.Chemscore.DEClash>
0.0712

> <Gold.Chemscore.DEInternal>
1.8232

> <Gold.Chemscore.Rot>
1.8413

> <Gold.Chemscore.Internal.Correction>
   9.000000E+99

> <Gold.Chemscore.Hbonds>
donor molecule, donor type, donor heavy atom, donor atom, acceptor molecule, acceptor atom, score
      L1  H     4    44       P1  8028  0.26
      L1  H    10    37       P1  8028  1.00

> <Gold.Chemscore.Hbond.Weighted>
-4.0426

> <Gold.Chemscore.Metal.Weighted>
-0.0000

> <Gold.Chemscore.Lipo.Weighted>
-11.5232

> <Gold.Chemscore.Internal_Hbond.Weighted>
0.0000

> <Gold.Chemscore.DEClash.Weighted>
0.0712

> <Gold.Chemscore.DEInternal.Weighted>
1.8232

> <Gold.Chemscore.Rot.Weighted>
4.7137

> <Gold.Chemscore.Internal.Correction.Weighted>
   9.000000E+99

> <Gold.Protein.RotatedTorsions>
[ 6907 6896 6895 6894 ] final   97.92 input  -60.11 | X-H torsion
[ 7974 7965 7964 7962 ] final  133.89 input  175.53 | X-H torsion
[ 8008 7997 7996 7995 ] final  158.23 input   59.86 | X-H torsion
[ 10167 10162 10161 10158 ] final -169.73 input  -65.29 | X-H torsion
[ 10718 10713 10712 10709 ] final -174.17 input   66.30 | X-H torsion
[ 10763 10752 10751 10750 ] final -133.63 input  -60.55 | X-H torsion
[ 11005 11000 10999 10996 ] final  -27.68 input  -57.11 | X-H torsion

> <Gold.Protein.ActiveResidues>
 VAL166  LYS551  ARG553  GLY616  TRP617  ASP618  TYR619  PRO620  LYS621  CYS622 
 ASP623  PHE694  ASN695  SER759  ASP760  ASP761  ALA762  ILE779  LEU786  VAL792 
 PHE793  MET794  SER795  GLU796  ALA797  LYS798  CYS799  TRP800  GLU811  SER814 

> <Gold.Protein.RotatedAtoms>
  152.5417  134.0660  159.8172 H   0  0  0  0  0  0  0  0  0  0  0  0  # atno 6907 bound_to 6896
  151.0781  133.5405  159.2630 H   0  0  0  0  0  0  0  0  0  0  0  0  # atno 6908 bound_to 6896
  151.2242  135.0538  159.9016 H   0  0  0  0  0  0  0  0  0  0  0  0  # atno 6909 bound_to 6896
  144.9819  139.4496  143.5382 H   0  0  0  0  0  0  0  0  0  0  0  0  # atno 7974 bound_to 7965
  156.2315  140.1864  156.7229 H   0  0  0  0  0  0  0  0  0  0  0  0  # atno 8008 bound_to 7997
  154.6031  140.0633  156.9423 H   0  0  0  0  0  0  0  0  0  0  0  0  # atno 8009 bound_to 7997
  155.2140  140.3302  155.4327 H   0  0  0  0  0  0  0  0  0  0  0  0  # atno 8010 bound_to 7997
  139.5905  144.1224  152.1628 H   0  0  0  0  0  0  0  0  0  0  0  0  # atno 10167 bound_to 10162
  156.7812  130.9484  151.3120 H   0  0  0  0  0  0  0  0  0  0  0  0  # atno 10718 bound_to 10713
  154.8730  135.3760  154.4604 H   0  0  0  0  0  0  0  0  0  0  0  0  # atno 10763 bound_to 10752
  153.5273  135.7028  153.5706 H   0  0  0  0  0  0  0  0  0  0  0  0  # atno 10764 bound_to 10752
  153.3926  135.3968  155.1899 H   0  0  0  0  0  0  0  0  0  0  0  0  # atno 10765 bound_to 10752
  140.9141  133.7441  156.0711 H   0  0  0  0  0  0  0  0  0  0  0  0  # atno 11005 bound_to 11000
  146.3410  139.9096  142.8782 LP  0  0  0  0  0  0  0  0  0  0  0  0  # atno 17320 bound_to 7965
  145.2409  141.0009  143.3936 LP  0  0  0  0  0  0  0  0  0  0  0  0  # atno 17321 bound_to 7965
  140.0798  144.5710  150.7131 LP  0  0  0  0  0  0  0  0  0  0  0  0  # atno 17342 bound_to 10162
  140.7168  143.2552  151.4407 LP  0  0  0  0  0  0  0  0  0  0  0  0  # atno 17343 bound_to 10162
  157.6645  130.8996  149.9903 LP  0  0  0  0  0  0  0  0  0  0  0  0  # atno 17370 bound_to 10713
  156.1217  130.3646  149.9876 LP  0  0  0  0  0  0  0  0  0  0  0  0  # atno 17371 bound_to 10713
  140.8072  134.3441  157.5422 LP  0  0  0  0  0  0  0  0  0  0  0  0  # atno 17394 bound_to 11000
  139.8763  134.9233  156.3321 LP  0  0  0  0  0  0  0  0  0  0  0  0  # atno 17395 bound_to 11000

$$$$
