AV-unprocessed.smi:1911|AV-procd|sdf|7742|dock1
  -GOLD-   22720 9483D 1   1.00000     0.00000
 Structure written by MMmdl.
 53 55  0  0  0  0  0  0  0  0  3 V2000
  147.0331  132.2794  151.2394 N   0  0  0  0  0  0  0  0  0  0  0  0
  145.8556  132.4366  150.6309 C   0  0  0  0  0  0  0  0  0  0  0  0
  145.6620  132.0705  149.4730 O   0  0  0  0  0  0  0  0  0  0  0  0
  144.7334  133.0827  151.4496 C   0  0  0  0  0  0  0  0  0  0  0  0
  145.0973  134.4265  151.9675 N   0  3  2  0  0  0  0  0  0  0  0  0
  144.1418  134.9381  152.9863 C   0  0  0  0  0  0  0  0  0  0  0  0
  144.6383  136.2586  153.5970 C   0  0  0  0  0  0  0  0  0  0  0  0
  144.8871  137.3182  152.5076 C   0  0  1  0  0  0  0  0  0  0  0  0
  145.4589  138.5306  153.0873 N   0  0  0  0  0  0  0  0  0  0  0  0
  146.5852  138.5820  153.8133 C   0  0  0  0  0  0  0  0  0  0  0  0
  147.2591  137.5893  154.0862 O   0  0  0  0  0  0  0  0  0  0  0  0
  146.8585  139.8410  154.1984 N   0  0  0  0  0  0  0  0  0  0  0  0
  147.9629  140.3285  154.9508 C   0  0  0  0  0  0  0  0  0  0  0  0
  148.9767  139.5117  155.5109 C   0  0  0  0  0  0  0  0  0  0  0  0
  150.0359  140.1083  156.2257 C   0  0  0  0  0  0  0  0  0  0  0  0
  150.0816  141.5143  156.3743 C   0  0  0  0  0  0  0  0  0  0  0  0
  151.1125  142.1774  157.0667 N   0  0  0  0  0  0  0  0  0  0  0  0
  151.3503  143.6067  156.9136 C   0  0  0  0  0  0  0  0  0  0  0  0
  151.9973  144.0579  158.2280 C   0  0  0  0  0  0  0  0  0  0  0  0
  152.5865  142.7736  158.8119 C   0  0  0  0  0  0  0  0  0  0  0  0
  151.6064  141.6971  158.3466 C   0  0  0  0  0  0  0  0  0  0  0  0
  149.0981  142.2544  155.8100 N   0  3  0  0  0  0  0  0  0  0  0  0
  148.0662  141.7247  155.1187 C   0  0  0  0  0  0  0  0  0  0  0  0
  145.8379  136.7489  151.4422 C   0  0  0  0  0  0  0  0  0  0  0  0
  145.3150  135.4154  150.8813 C   0  0  0  0  0  0  0  0  0  0  0  0
  147.8016  131.8562  150.7387 H   0  0  0  0  0  0  0  0  0  0  0  0
  147.1566  132.5796  152.1957 H   0  0  0  0  0  0  0  0  0  0  0  0
  143.8726  133.1659  150.7846 H   0  0  0  0  0  0  0  0  0  0  0  0
  144.4322  132.4322  152.2727 H   0  0  0  0  0  0  0  0  0  0  0  0
  143.1621  135.0829  152.5282 H   0  0  0  0  0  0  0  0  0  0  0  0
  144.0110  134.2048  153.7825 H   0  0  0  0  0  0  0  0  0  0  0  0
  143.9074  136.6238  154.3194 H   0  0  0  0  0  0  0  0  0  0  0  0
  145.5583  136.0751  154.1544 H   0  0  0  0  0  0  0  0  0  0  0  0
  143.9391  137.5627  152.0240 H   0  0  0  0  0  0  0  0  0  0  0  0
  144.9639  139.3940  152.9159 H   0  0  0  0  0  0  0  0  0  0  0  0
  146.1714  140.5365  153.9466 H   0  0  0  0  0  0  0  0  0  0  0  0
  148.9782  138.4394  155.3995 H   0  0  0  0  0  0  0  0  0  0  0  0
  150.8044  139.4766  156.6458 H   0  0  0  0  0  0  0  0  0  0  0  0
  152.0305  143.7606  156.0755 H   0  0  0  0  0  0  0  0  0  0  0  0
  150.4339  144.1648  156.7174 H   0  0  0  0  0  0  0  0  0  0  0  0
  152.7416  144.8420  158.0862 H   0  0  0  0  0  0  0  0  0  0  0  0
  151.2296  144.4432  158.9004 H   0  0  0  0  0  0  0  0  0  0  0  0
  153.5709  142.5911  158.3784 H   0  0  0  0  0  0  0  0  0  0  0  0
  152.6963  142.8078  159.8962 H   0  0  0  0  0  0  0  0  0  0  0  0
  150.7744  141.6056  159.0460 H   0  0  0  0  0  0  0  0  0  0  0  0
  152.0926  140.7256  158.2548 H   0  0  0  0  0  0  0  0  0  0  0  0
  147.3547  142.4359  154.7240 H   0  0  0  0  0  0  0  0  0  0  0  0
  145.9619  137.4661  150.6298 H   0  0  0  0  0  0  0  0  0  0  0  0
  146.8288  136.5946  151.8724 H   0  0  0  0  0  0  0  0  0  0  0  0
  146.0369  135.0229  150.1641 H   0  0  0  0  0  0  0  0  0  0  0  0
  144.3815  135.5734  150.3385 H   0  0  0  0  0  0  0  0  0  0  0  0
  145.9884  134.3123  152.4301 H   0  0  0  0  0  0  0  0  0  0  0  0
  149.1384  143.2685  155.9121 H   0  0  0  0  0  0  0  0  0  0  0  0
  1  2  1  0  0  0  0
  1 26  1  0  0  0  0
  1 27  1  0  0  0  0
  2  3  2  0  0  0  0
  2  4  1  0  0  0  0
  4  5  1  0  0  0  0
  4 28  1  0  0  0  0
  4 29  1  0  0  0  0
  5 25  1  0  0  0  0
  5  6  1  0  0  0  0
  5 52  1  0  0  0  0
  6  7  1  0  0  0  0
  6 30  1  0  0  0  0
  6 31  1  0  0  0  0
  7  8  1  0  0  0  0
  7 32  1  0  0  0  0
  7 33  1  0  0  0  0
  8  9  1  0  0  0  0
  8 24  1  0  0  0  0
  8 34  1  0  0  0  0
  9 10  1  0  0  0  0
  9 35  1  0  0  0  0
 10 11  2  0  0  0  0
 10 12  1  0  0  0  0
 12 13  1  0  0  0  0
 12 36  1  0  0  0  0
 13 23  1  0  0  0  0
 13 14  2  0  0  0  0
 14 15  1  0  0  0  0
 14 37  1  0  0  0  0
 15 16  2  0  0  0  0
 15 38  1  0  0  0  0
 16 17  1  0  0  0  0
 16 22  1  0  0  0  0
 17 21  1  0  0  0  0
 17 18  1  0  0  0  0
 18 19  1  0  0  0  0
 18 39  1  0  0  0  0
 18 40  1  0  0  0  0
 19 20  1  0  0  0  0
 19 41  1  0  0  0  0
 19 42  1  0  0  0  0
 20 21  1  0  0  0  0
 20 43  1  0  0  0  0
 20 44  1  0  0  0  0
 21 45  1  0  0  0  0
 21 46  1  0  0  0  0
 22 23  2  0  0  0  0
 22 53  1  0  0  0  0
 23 47  1  0  0  0  0
 24 25  1  0  0  0  0
 24 48  1  0  0  0  0
 24 49  1  0  0  0  0
 25 50  1  0  0  0  0
 25 51  1  0  0  0  0
M  CHG  1   5   1
M  CHG  1  22   1
M  END
> <s_m_source_file>
AV-unprocessed.smi

> <i_m_source_file_index>
1911

> <i_lp_mmshare_version>
43012

> <i_f3d_flags>
0

> <s_epik_input>
W05IMl1DKD1PKVtDSDJdTjFbQ0gyXVtDSDJdW0NIXShbQ0gyXVtDSDJdMSlbTkhdQyg9TylbTkhdYzJbY0hdW2NIXWMobltjSF0yKU4zW0NIMl1bQ0gyXVtDSDJdW0NIMl0z

> <s_epik_cmdline>
J2VwaWtfcHl0aG9uJywgJy1waCcsICc3LjAnLCAnLXRuJywgJzgnLCAnLW1hJywgJzIwMCcsICctbWV0YWxfYmluZGluZycsICctaW1hZScsICc8aW5maWxlLm1hZT4nLCAnLW9tYWUnLCAnPG91dGZpbGUubWFlPic=

> <r_lp_tautomer_probability>
0.999994

> <r_epik_Ionization_Penalty>
2.11361

> <r_epik_Ionization_Penalty_Charging>
2.11355

> <r_epik_Ionization_Penalty_Neutral>
5.99226e-05

> <r_epik_State_Penalty>
2.13444

> <r_epik_Charging_Adjusted_Penalty>
4.24799

> <i_epik_Tot_Q>
2

> <i_epik_Tot_abs_Q>
2

> <r_epik_Metal_State_Penalty>
2.23538

> <b_epik_Metal_Only>
0

> <s_lp_Force_Field>
OPLS_2005

> <r_lp_Energy>
45.5026

> <b_lp_Chiralities_Consistent>
1

> <s_lp_Variant>
AV-unprocessed.smi:1911-5

> <Gold.Version>
5.8.1

> <Gold.Id.Protein>
6NUR|6NUR_protein|mol2

> <Gold.PLP.Fitness>
48.2424

> <Gold.PLP.PLP>
-36.9997

> <Gold.PLP.part.hbond>
-2.9304

> <Gold.PLP.part.metal>
0.0000

> <Gold.PLP.part.buried>
-3.7943

> <Gold.PLP.part.nonpolar>
-31.5307

> <Gold.PLP.part.repulsive>
0.6019

> <Gold.PLP.ligand.clash>
0.0000

> <Gold.PLP.ligand.torsion>
0.4962

> <Gold.PLP.Chemscore.Hbond>
4.0000

> <Gold.PLP.Chemscore.CHOScore>
0.0000

> <Gold.PLP.Chemscore.Metal>
0.0000

> <Gold.Chemscore.Hbonds>
donor molecule, donor type, donor heavy atom, donor atom, acceptor molecule, acceptor atom, score
      L1  H     1    26       P1 10747  1.00
      L1  H     9    35       P1 10175  1.00
      L1  H    22    53       P1  8028  1.82

> <Gold.PLP.Chemscore.Internal.Correction>
0.2350

> <Gold.Rescore>
     Score         DG    S(hbond)    S(metal)    S(lipo)     H(rot)  DE(clash)    DE(int)     intcor
     17.64     -20.52       2.94        0.00      86.85       1.93       0.09       2.78       ----

> <Gold.Chemscore.Fitness>
17.6430

> <Gold.Chemscore.DG>
-20.5153

> <Gold.Chemscore.ZeroCoef>
-5.4800

> <Gold.Chemscore.Hbond>
2.9355

> <Gold.Chemscore.Metal>
0.0000

> <Gold.Chemscore.Lipo>
86.8493

> <Gold.Chemscore.Internal_Hbond>
0.0000

> <Gold.Chemscore.DEClash>
0.0902

> <Gold.Chemscore.DEInternal>
2.7820

> <Gold.Chemscore.Rot>
1.9261

> <Gold.Chemscore.Internal.Correction>
   9.000000E+99

> <Gold.Chemscore.Hbonds>
donor molecule, donor type, donor heavy atom, donor atom, acceptor molecule, acceptor atom, score
      L1  H     1    26       P1 10747  0.99
      L1  H     9    35       P1 10175  0.99
      L1  H    22    53       P1  8028  0.87

> <Gold.Chemscore.Hbond.Weighted>
-9.8046

> <Gold.Chemscore.Metal.Weighted>
-0.0000

> <Gold.Chemscore.Lipo.Weighted>
-10.1614

> <Gold.Chemscore.Internal_Hbond.Weighted>
0.0000

> <Gold.Chemscore.DEClash.Weighted>
0.0902

> <Gold.Chemscore.DEInternal.Weighted>
2.7820

> <Gold.Chemscore.Rot.Weighted>
4.9307

> <Gold.Chemscore.Internal.Correction.Weighted>
   9.000000E+99

> <Gold.Protein.RotatedTorsions>
[ 6907 6896 6895 6894 ] final  -94.73 input  -60.11 | X-H torsion
[ 7974 7965 7964 7962 ] final  101.19 input  175.53 | X-H torsion
[ 8008 7997 7996 7995 ] final  -73.55 input   59.86 | X-H torsion
[ 10167 10162 10161 10158 ] final  132.02 input  -65.29 | X-H torsion
[ 10718 10713 10712 10709 ] final -107.58 input   66.30 | X-H torsion
[ 10763 10752 10751 10750 ] final  131.46 input  -60.55 | X-H torsion
[ 11005 11000 10999 10996 ] final  -78.38 input  -57.11 | X-H torsion

> <Gold.Protein.ActiveResidues>
 VAL166  LYS551  ARG553  GLY616  TRP617  ASP618  TYR619  PRO620  LYS621  CYS622 
 ASP623  PHE694  ASN695  SER759  ASP760  ASP761  ALA762  ILE779  LEU786  VAL792 
 PHE793  MET794  SER795  GLU796  ALA797  LYS798  CYS799  TRP800  GLU811  SER814 

> <Gold.Protein.RotatedAtoms>
  150.6948  134.1768  159.4232 H   0  0  0  0  0  0  0  0  0  0  0  0  # atno 6907 bound_to 6896
  151.9744  135.0058  160.0563 H   0  0  0  0  0  0  0  0  0  0  0  0  # atno 6908 bound_to 6896
  152.1813  133.4674  159.4996 H   0  0  0  0  0  0  0  0  0  0  0  0  # atno 6909 bound_to 6896
  145.3756  139.2389  143.3431 H   0  0  0  0  0  0  0  0  0  0  0  0  # atno 7974 bound_to 7965
  154.5257  140.0777  156.8254 H   0  0  0  0  0  0  0  0  0  0  0  0  # atno 8008 bound_to 7997
  155.3481  140.3411  155.4221 H   0  0  0  0  0  0  0  0  0  0  0  0  # atno 8009 bound_to 7997
  156.1729  140.1626  156.8402 H   0  0  0  0  0  0  0  0  0  0  0  0  # atno 8010 bound_to 7997
  139.5358  144.6680  151.4792 H   0  0  0  0  0  0  0  0  0  0  0  0  # atno 10167 bound_to 10162
  156.0443  130.5670  150.7841 H   0  0  0  0  0  0  0  0  0  0  0  0  # atno 10718 bound_to 10713
  153.7747  135.3177  155.3357 H   0  0  0  0  0  0  0  0  0  0  0  0  # atno 10763 bound_to 10752
  154.8183  135.4621  154.0710 H   0  0  0  0  0  0  0  0  0  0  0  0  # atno 10764 bound_to 10752
  153.1980  135.6918  153.8352 H   0  0  0  0  0  0  0  0  0  0  0  0  # atno 10765 bound_to 10752
  141.1664  133.7061  156.7964 H   0  0  0  0  0  0  0  0  0  0  0  0  # atno 11005 bound_to 11000
  146.2865  140.4415  142.8756 LP  0  0  0  0  0  0  0  0  0  0  0  0  # atno 17320 bound_to 7965
  144.8544  140.7049  143.6147 LP  0  0  0  0  0  0  0  0  0  0  0  0  # atno 17321 bound_to 7965
  140.6563  143.8592  150.6839 LP  0  0  0  0  0  0  0  0  0  0  0  0  # atno 17342 bound_to 10162
  140.1973  143.3988  152.1818 LP  0  0  0  0  0  0  0  0  0  0  0  0  # atno 17343 bound_to 10162
  157.5301  131.0936  150.9967 LP  0  0  0  0  0  0  0  0  0  0  0  0  # atno 17370 bound_to 10713
  157.0275  130.5698  149.5339 LP  0  0  0  0  0  0  0  0  0  0  0  0  # atno 17371 bound_to 10713
  140.2288  134.8701  157.3455 LP  0  0  0  0  0  0  0  0  0  0  0  0  # atno 17394 bound_to 11000
  140.1912  134.4369  155.7715 LP  0  0  0  0  0  0  0  0  0  0  0  0  # atno 17395 bound_to 11000

$$$$
