AV-unprocessed.smi:3348|AV-procd|sdf|12929|dock8
  -GOLD-   2272019353D 1   1.00000     0.00000
 Structure written by MMmdl.
 46 47  0  0  0  0  0  0  0  0  1 V2000
  147.9952  140.4111  153.8288 C   0  0  0  0  0  0  0  0  0  0  0  0
  147.6990  141.7049  154.5998 C   0  0  2  0  0  0  0  0  0  0  0  0
  146.9121  142.6865  153.6973 C   0  0  0  0  0  0  0  0  0  0  0  0
  146.0871  143.6355  154.4225 N   0  0  0  0  0  0  0  0  0  0  0  0
  145.1152  144.4794  153.9251 C   0  0  0  0  0  0  0  0  0  0  0  0
  144.6096  145.1826  154.9807 C   0  0  0  0  0  0  0  0  0  0  0  0
  145.3400  144.6875  156.0973 C   0  0  0  0  0  0  0  0  0  0  0  0
  146.2215  143.7593  155.7609 N   0  0  0  0  0  0  0  0  0  0  0  0
  148.9640  142.2827  155.0641 N   0  0  0  0  0  0  0  0  0  0  0  0
  149.8280  141.3718  155.8153 C   0  0  0  0  0  0  0  0  0  0  0  0
  151.1187  142.0720  156.2464 C   0  0  0  0  0  0  0  0  0  0  0  0
  151.3107  141.8091  157.6285 O   0  0  0  0  0  0  0  0  0  0  0  0
  152.1086  142.7639  158.3154 C   0  0  1  0  0  0  0  0  0  0  0  0
  151.4913  144.1695  158.1557 C   0  0  0  0  0  0  0  0  0  0  0  0
  152.2344  145.2131  159.0029 C   0  0  0  0  0  0  0  0  0  0  0  0
  152.2725  144.7976  160.4800 C   0  0  0  0  0  0  0  0  0  0  0  0
  152.8972  143.4039  160.6442 C   0  0  0  0  0  0  0  0  0  0  0  0
  152.1593  142.3435  159.8022 C   0  0  2  0  0  0  0  0  0  0  0  0
  152.8076  140.9605  159.9817 C   0  0  0  0  0  0  0  0  0  0  0  0
  147.0732  139.9303  153.5008 H   0  0  0  0  0  0  0  0  0  0  0  0
  148.5319  139.6956  154.4524 H   0  0  0  0  0  0  0  0  0  0  0  0
  148.6027  140.6041  152.9436 H   0  0  0  0  0  0  0  0  0  0  0  0
  147.0834  141.4325  155.4583 H   0  0  0  0  0  0  0  0  0  0  0  0
  147.5987  143.2431  153.0575 H   0  0  0  0  0  0  0  0  0  0  0  0
  146.2571  142.1287  153.0265 H   0  0  0  0  0  0  0  0  0  0  0  0
  144.8740  144.5148  152.8728 H   0  0  0  0  0  0  0  0  0  0  0  0
  143.8366  145.9363  154.9579 H   0  0  0  0  0  0  0  0  0  0  0  0
  145.2560  144.9732  157.1356 H   0  0  0  0  0  0  0  0  0  0  0  0
  149.4807  142.6547  154.2737 H   0  0  0  0  0  0  0  0  0  0  0  0
  149.3320  140.9647  156.6932 H   0  0  0  0  0  0  0  0  0  0  0  0
  150.0755  140.5174  155.1847 H   0  0  0  0  0  0  0  0  0  0  0  0
  151.9562  141.6600  155.6817 H   0  0  0  0  0  0  0  0  0  0  0  0
  151.0734  143.1407  156.0354 H   0  0  0  0  0  0  0  0  0  0  0  0
  153.1259  142.7611  157.9185 H   0  0  0  0  0  0  0  0  0  0  0  0
  151.5081  144.4802  157.1115 H   0  0  0  0  0  0  0  0  0  0  0  0
  150.4418  144.1428  158.4523 H   0  0  0  0  0  0  0  0  0  0  0  0
  153.2521  145.3309  158.6287 H   0  0  0  0  0  0  0  0  0  0  0  0
  151.7524  146.1860  158.9020 H   0  0  0  0  0  0  0  0  0  0  0  0
  152.8379  145.5296  161.0576 H   0  0  0  0  0  0  0  0  0  0  0  0
  151.2606  144.7961  160.8876 H   0  0  0  0  0  0  0  0  0  0  0  0
  153.9475  143.4413  160.3510 H   0  0  0  0  0  0  0  0  0  0  0  0
  152.8813  143.1207  161.6972 H   0  0  0  0  0  0  0  0  0  0  0  0
  151.1343  142.2782  160.1709 H   0  0  0  0  0  0  0  0  0  0  0  0
  153.8331  140.9526  159.6112 H   0  0  0  0  0  0  0  0  0  0  0  0
  152.2551  140.1893  159.4447 H   0  0  0  0  0  0  0  0  0  0  0  0
  152.8311  140.6712  161.0326 H   0  0  0  0  0  0  0  0  0  0  0  0
  1  2  1  0  0  0  0
  1 20  1  0  0  0  0
  1 21  1  0  0  0  0
  1 22  1  0  0  0  0
  2  3  1  0  0  0  0
  2  9  1  0  0  0  0
  2 23  1  0  0  0  0
  3  4  1  0  0  0  0
  3 24  1  0  0  0  0
  3 25  1  0  0  0  0
  4  8  1  0  0  0  0
  4  5  1  0  0  0  0
  5  6  2  0  0  0  0
  5 26  1  0  0  0  0
  6  7  1  0  0  0  0
  6 27  1  0  0  0  0
  7  8  2  0  0  0  0
  7 28  1  0  0  0  0
  9 10  1  0  0  0  0
  9 29  1  0  0  0  0
 10 11  1  0  0  0  0
 10 30  1  0  0  0  0
 10 31  1  0  0  0  0
 11 12  1  0  0  0  0
 11 32  1  0  0  0  0
 11 33  1  0  0  0  0
 12 13  1  0  0  0  0
 13 18  1  0  0  0  0
 13 14  1  0  0  0  0
 13 34  1  0  0  0  0
 14 15  1  0  0  0  0
 14 35  1  0  0  0  0
 14 36  1  0  0  0  0
 15 16  1  0  0  0  0
 15 37  1  0  0  0  0
 15 38  1  0  0  0  0
 16 17  1  0  0  0  0
 16 39  1  0  0  0  0
 16 40  1  0  0  0  0
 17 18  1  0  0  0  0
 17 41  1  0  0  0  0
 17 42  1  0  0  0  0
 18 19  1  0  0  0  0
 18 43  1  0  0  0  0
 19 44  1  0  0  0  0
 19 45  1  0  0  0  0
 19 46  1  0  0  0  0
M  END
> <s_m_source_file>
AV-unprocessed.smi

> <i_m_source_file_index>
3348

> <i_lp_mmshare_version>
43012

> <i_f3d_flags>
0

> <s_epik_input>
bjFbY0hdW2NIXVtjSF1uMVtDSDJdW0NAQEhdKFtDSDNdKVtOSF1bQ0gyXVtDSDJdT1tDQEBIXTJbQ0gyXVtDSDJdW0NIMl1bQ0gyXVtDQEhdMltDSDNd

> <s_epik_cmdline>
J2VwaWtfcHl0aG9uJywgJy1waCcsICc3LjAnLCAnLXRuJywgJzgnLCAnLW1hJywgJzIwMCcsICctbWV0YWxfYmluZGluZycsICctaW1hZScsICc8aW5maWxlLm1hZT4nLCAnLW9tYWUnLCAnPG91dGZpbGUubWFlPic=

> <r_lp_tautomer_probability>
1

> <r_epik_Ionization_Penalty>
2.46945

> <r_epik_Ionization_Penalty_Charging>
0

> <r_epik_Ionization_Penalty_Neutral>
2.46945

> <r_epik_State_Penalty>
2.6322

> <r_epik_Charging_Adjusted_Penalty>
2.6322

> <i_epik_Tot_Q>
0

> <i_epik_Tot_abs_Q>
0

> <r_epik_Metal_State_Penalty>
2.63217

> <b_epik_Metal_Only>
0

> <s_lp_Force_Field>
OPLS_2005

> <r_lp_Energy>
18.1963

> <b_lp_Chiralities_Consistent>
1

> <s_lp_Variant>
AV-unprocessed.smi:3348-15

> <Gold.Version>
5.8.1

> <Gold.Id.Protein>
6NUR|6NUR_protein|mol2

> <Gold.PLP.Fitness>
46.5375

> <Gold.PLP.PLP>
-45.4000

> <Gold.PLP.part.hbond>
-1.0000

> <Gold.PLP.part.metal>
0.0000

> <Gold.PLP.part.buried>
-6.4383

> <Gold.PLP.part.nonpolar>
-38.2469

> <Gold.PLP.part.repulsive>
0.2080

> <Gold.PLP.ligand.clash>
0.0000

> <Gold.PLP.ligand.torsion>
0.8969

> <Gold.PLP.Chemscore.Hbond>
0.0000

> <Gold.PLP.Chemscore.CHOScore>
0.9444

> <Gold.PLP.Chemscore.Metal>
0.0000

> <Gold.Chemscore.Hbonds>
donor molecule, donor type, donor heavy atom, donor atom, acceptor molecule, acceptor atom, score
      L1  C     7    28       P1  8029  0.07

> <Gold.PLP.Chemscore.Internal.Correction>
0.0982

> <Gold.Rescore>
     Score         DG    S(hbond)    S(metal)    S(lipo)     H(rot)  DE(clash)    DE(int)     intcor
     14.87     -15.60       0.00        0.00     124.17       1.72       0.04       0.69       ----

> <Gold.Chemscore.Fitness>
14.8713

> <Gold.Chemscore.DG>
-15.5957

> <Gold.Chemscore.ZeroCoef>
-5.4800

> <Gold.Chemscore.Hbond>
0.0002

> <Gold.Chemscore.Metal>
0.0000

> <Gold.Chemscore.Lipo>
124.1687

> <Gold.Chemscore.Internal_Hbond>
0.0000

> <Gold.Chemscore.DEClash>
0.0379

> <Gold.Chemscore.DEInternal>
0.6864

> <Gold.Chemscore.Rot>
1.7237

> <Gold.Chemscore.Internal.Correction>
   9.000000E+99

> <Gold.Chemscore.Hbond.Weighted>
-0.0005

> <Gold.Chemscore.Metal.Weighted>
-0.0000

> <Gold.Chemscore.Lipo.Weighted>
-14.5277

> <Gold.Chemscore.Internal_Hbond.Weighted>
0.0000

> <Gold.Chemscore.DEClash.Weighted>
0.0379

> <Gold.Chemscore.DEInternal.Weighted>
0.6864

> <Gold.Chemscore.Rot.Weighted>
4.4126

> <Gold.Chemscore.Internal.Correction.Weighted>
   9.000000E+99

> <Gold.Protein.RotatedTorsions>
[ 6907 6896 6895 6894 ] final -164.02 input  -60.11 | X-H torsion
[ 7974 7965 7964 7962 ] final -143.99 input  175.53 | X-H torsion
[ 8008 7997 7996 7995 ] final    2.73 input   59.86 | X-H torsion
[ 10167 10162 10161 10158 ] final   64.79 input  -65.29 | X-H torsion
[ 10718 10713 10712 10709 ] final  -29.88 input   66.30 | X-H torsion
[ 10763 10752 10751 10750 ] final  -95.57 input  -60.55 | X-H torsion
[ 11005 11000 10999 10996 ] final  101.66 input  -57.11 | X-H torsion

> <Gold.Protein.ActiveResidues>
 VAL166  LYS551  ARG553  GLY616  TRP617  ASP618  TYR619  PRO620  LYS621  CYS622 
 ASP623  PHE694  ASN695  SER759  ASP760  ASP761  ALA762  ILE779  LEU786  VAL792 
 PHE793  MET794  SER795  GLU796  ALA797  LYS798  CYS799  TRP800  GLU811  SER814 

> <Gold.Protein.RotatedAtoms>
  151.4052  133.3744  159.2736 H   0  0  0  0  0  0  0  0  0  0  0  0  # atno 6907 bound_to 6896
  150.9403  134.8814  159.7619 H   0  0  0  0  0  0  0  0  0  0  0  0  # atno 6908 bound_to 6896
  152.5068  134.4003  159.9466 H   0  0  0  0  0  0  0  0  0  0  0  0  # atno 6909 bound_to 6896
  144.8329  140.5765  143.5503 H   0  0  0  0  0  0  0  0  0  0  0  0  # atno 7974 bound_to 7965
  154.6951  140.2661  155.6774 H   0  0  0  0  0  0  0  0  0  0  0  0  # atno 8008 bound_to 7997
  156.2746  140.2783  156.1466 H   0  0  0  0  0  0  0  0  0  0  0  0  # atno 8009 bound_to 7997
  155.0842  140.0373  157.2639 H   0  0  0  0  0  0  0  0  0  0  0  0  # atno 8010 bound_to 7997
  140.1184  144.4754  150.6935 H   0  0  0  0  0  0  0  0  0  0  0  0  # atno 10167 bound_to 10162
  156.4068  130.4400  149.7281 H   0  0  0  0  0  0  0  0  0  0  0  0  # atno 10718 bound_to 10713
  154.7161  135.5115  153.8739 H   0  0  0  0  0  0  0  0  0  0  0  0  # atno 10763 bound_to 10752
  153.0821  135.6634  154.0032 H   0  0  0  0  0  0  0  0  0  0  0  0  # atno 10764 bound_to 10752
  153.9865  135.3024  155.3395 H   0  0  0  0  0  0  0  0  0  0  0  0  # atno 10765 bound_to 10752
  139.8774  134.9192  156.4940 H   0  0  0  0  0  0  0  0  0  0  0  0  # atno 11005 bound_to 11000
  145.4857  139.1492  143.3737 LP  0  0  0  0  0  0  0  0  0  0  0  0  # atno 17320 bound_to 7965
  146.2630  140.4994  142.8845 LP  0  0  0  0  0  0  0  0  0  0  0  0  # atno 17321 bound_to 7965
  140.6886  143.2363  151.5192 LP  0  0  0  0  0  0  0  0  0  0  0  0  # atno 17342 bound_to 10162
  139.5582  144.2223  152.1647 LP  0  0  0  0  0  0  0  0  0  0  0  0  # atno 17343 bound_to 10162
  156.4276  130.7799  151.2818 LP  0  0  0  0  0  0  0  0  0  0  0  0  # atno 17370 bound_to 10713
  157.7506  131.0164  150.3542 LP  0  0  0  0  0  0  0  0  0  0  0  0  # atno 17371 bound_to 10713
  140.8638  133.8040  155.9292 LP  0  0  0  0  0  0  0  0  0  0  0  0  # atno 17394 bound_to 11000
  140.9023  134.2363  157.5034 LP  0  0  0  0  0  0  0  0  0  0  0  0  # atno 17395 bound_to 11000

$$$$
