#       Name:                AV-unprocessed.smi:2061
#       Creating user name   scv26
#       Creation time:       Fri Mar 27 11:07:03 2020


#       File generated by GOLD software.
#

@<TRIPOS>MOLECULE
AV-unprocessed.smi:2061
    53    54     1
SMALL
NO_CHARGES


@<TRIPOS>ATOM
      1 ****        -6.5365   5.4311  -0.2532 C.3            1 S1                 0.0000
      2 ****        -5.4963   4.3683  -0.3518 C.2            1 S1                 0.0000
      3 ****        -4.2810   4.3114  -0.9738 C.2            1 S1                 0.0000
      4 ****        -3.8209   3.0044  -0.6618 C.2            1 S1                 0.0000
      5 ****        -2.5606   2.5486  -1.1315 N.am           1 S1                 0.0000
      6 ****        -1.9717   1.3545  -0.9376 C.2            1 S1                 0.0000
      7 ****        -2.5497   0.4698  -0.2947 O.2            1 S1                 0.0000
      8 ****        -0.7381   1.2861  -1.5110 N.pl3          1 S1                -1.0000
      9 ****         0.1363   0.1121  -1.4743 C.3            1 S1                 0.0000
     10 ****         0.8829   0.0089  -0.1145 C.3            1 S1                 0.0000
     11 ****         1.9010   1.1490   0.1387 C.3            1 S1                 0.0000
     12 ****         1.4771  -1.3537   0.0540 N.4            1 S1                 1.0000
     13 ****         2.8446  -1.5590  -0.4988 C.3            1 S1                 0.0000
     14 ****         3.2355  -3.0446  -0.4038 C.3            1 S1                 0.0000
     15 ****         4.6607  -3.3014  -0.9047 C.3            1 S1                 0.0000
     16 ****         3.1643  -3.4531   0.9585 O.3            1 S1                 0.0000
     17 ****         1.8519  -3.3375   1.4982 C.3            1 S1                 0.0000
     18 ****         1.8724  -3.8837   2.9299 C.3            1 S1                 0.0000
     19 ****         1.4069  -1.8635   1.4456 C.3            1 S1                 0.0000
     20 ****        -4.6797   2.3255   0.0846 N.2            1 S1                 0.0000
     21 ****        -5.7577   3.1954   0.2860 O.3            1 S1                 0.0000
     22 ****        -6.1199   6.4071  -0.5029 H              1 S1                 0.0000
     23 ****        -6.9413   5.4857   0.7574 H              1 S1                 0.0000
     24 ****        -7.3602   5.2286  -0.9378 H              1 S1                 0.0000
     25 ****        -3.7998   5.0817  -1.5577 H              1 S1                 0.0000
     26 ****        -2.0318   3.2138  -1.6760 H              1 S1                 0.0000
     27 ****        -0.4282  -0.8076  -1.6371 H              1 S1                 0.0000
     28 ****         0.8702   0.1388  -2.2801 H              1 S1                 0.0000
     29 ****         0.1168   0.1035   0.6565 H              1 S1                 0.0000
     30 ****         1.4156   2.1263   0.1664 H              1 S1                 0.0000
     31 ****         2.6808   1.1969  -0.6235 H              1 S1                 0.0000
     32 ****         2.3934   1.0216   1.1027 H              1 S1                 0.0000
     33 ****         2.8877  -1.2356  -1.5392 H              1 S1                 0.0000
     34 ****         3.5673  -0.9584   0.0554 H              1 S1                 0.0000
     35 ****         2.5453  -3.6462  -0.9980 H              1 S1                 0.0000
     36 ****         4.7674  -3.0102  -1.9499 H              1 S1                 0.0000
     37 ****         4.9167  -4.3584  -0.8267 H              1 S1                 0.0000
     38 ****         5.3915  -2.7384  -0.3234 H              1 S1                 0.0000
     39 ****         1.1677  -3.9474   0.9054 H              1 S1                 0.0000
     40 ****         0.8826  -3.8305   3.3840 H              1 S1                 0.0000
     41 ****         2.5606  -3.3184   3.5590 H              1 S1                 0.0000
     42 ****         2.1884  -4.9270   2.9448 H              1 S1                 0.0000
     43 ****         2.0358  -1.2496   2.0924 H              1 S1                 0.0000
     44 ****         0.3856  -1.7845   1.8204 H              1 S1                 0.0000
     45 ****         0.8674  -1.9591  -0.4773 H              1 S1                 0.0000
     46 ****        -3.4594   0.6402   0.0840 LP             1 S1                 0.0000
     47 ****        -2.1073  -0.4159  -0.1536 LP             1 S1                 0.0000
     48 ****        -0.4052   2.0970  -1.9922 LP             1 S1                 0.0000
     49 ****         3.7832  -2.8813   1.4969 LP             1 S1                 0.0000
     50 ****         3.4533  -4.4084   1.0217 LP             1 S1                 0.0000
     51 ****        -4.5794   1.3923   0.4298 LP             1 S1                 0.0000
     52 ****        -6.5923   2.7888  -0.0858 LP             1 S1                 0.0000
     53 ****        -5.8762   3.3635   1.2646 LP             1 S1                 0.0000
@<TRIPOS>BOND
    1    1    2 1     
    2    1   22 1     
    3    1   23 1     
    4    1   24 1     
    5    2   21 1     
    6    2    3 2     
    7    3    4 1     
    8    3   25 1     
    9    4    5 1     
   10    4   20 2     
   11    5    6 am    
   12    5   26 1     
   13    6    7 2     
   14    6    8 1     
   15    8    9 1     
   16    9   10 1     
   17    9   27 1     
   18    9   28 1     
   19   10   11 1     
   20   10   12 1     
   21   10   29 1     
   22   11   30 1     
   23   11   31 1     
   24   11   32 1     
   25   12   19 1     
   26   12   13 1     
   27   12   45 1     
   28   13   14 1     
   29   13   33 1     
   30   13   34 1     
   31   14   15 1     
   32   14   16 1     
   33   14   35 1     
   34   15   36 1     
   35   15   37 1     
   36   15   38 1     
   37   16   17 1     
   38   17   18 1     
   39   17   19 1     
   40   17   39 1     
   41   18   40 1     
   42   18   41 1     
   43   18   42 1     
   44   19   43 1     
   45   19   44 1     
   46   20   21 1     
   47    7   46 1     
   48    7   47 1     
   49    8   48 1     
   50   16   49 1     
   51   16   50 1     
   52   20   51 1     
   53   21   52 1     
   54   21   53 1     
@<TRIPOS>SUBSTRUCTURE
      1 S1             1
@<TRIPOS>SET
LONE_PAIRS      STATIC     ATOMS    <user>   **** ""
8 46 47 48 49 50 51 52 53
DONOR_HYDROGENS      STATIC     ATOMS    <user>   **** ""
2 26 45
ATOM$BLUE        STATIC     ATOMS    COLORGROUP SYSTEM
8 46 47 48 49 50 51 52 53
ATOM$RED        STATIC     ATOMS    COLORGROUP SYSTEM
2 26 45
