AV-unprocessed.smi:2574|AV-procd|sdf|10114|dock8
  -GOLD-   2272014133D 1   1.00000     0.00000
 Structure written by MMmdl.
 38 40  0  0  0  0  0  0  0  0  1 V2000
  153.3500  139.4782  158.3337 O   0  0  0  0  0  0  0  0  0  0  0  0
  153.0192  140.5368  158.8688 C   0  0  0  0  0  0  0  0  0  0  0  0
  153.5945  141.0191  160.1338 C   0  0  0  0  0  0  0  0  0  0  0  0
  154.6543  140.1560  160.8134 C   0  0  0  0  0  0  0  0  0  0  0  0
  155.8178  140.1991  160.1624 F   0  0  0  0  0  0  0  0  0  0  0  0
  154.8710  140.5721  162.0617 F   0  0  0  0  0  0  0  0  0  0  0  0
  154.2597  138.8832  160.8606 F   0  0  0  0  0  0  0  0  0  0  0  0
  153.1773  142.1937  160.6663 C   0  0  0  0  0  0  0  0  0  0  0  0
  152.1636  142.9822  159.9952 C   0  0  0  0  0  0  0  0  0  0  0  0
  151.6480  144.2866  160.5327 C   0  0  0  0  0  0  0  0  0  0  0  0
  150.5126  145.0374  159.8752 C   0  0  0  0  0  0  0  0  0  0  0  0
  151.9161  145.5957  159.8275 C   0  0  0  0  0  0  0  0  0  0  0  0
  151.6650  142.5602  158.8825 N   0  0  0  0  0  0  0  0  0  0  0  0
  152.0780  141.3645  158.3270 N   0  0  0  0  0  0  0  0  0  0  0  0
  151.3911  141.0231  157.0746 C   0  0  0  0  0  0  0  0  0  0  0  0
  150.1257  141.8807  156.8557 C   0  0  2  0  0  0  0  0  0  0  0  0
  149.3869  141.9312  158.0608 O   0  0  0  0  0  0  0  0  0  0  0  0
  149.2846  141.3258  155.7155 C   0  0  0  0  0  0  0  0  0  0  0  0
  148.1212  142.0103  155.3025 C   0  0  0  0  0  0  0  0  0  0  0  0
  147.3425  141.5110  154.2405 C   0  0  0  0  0  0  0  0  0  0  0  0
  147.7232  140.3250  153.5840 C   0  0  0  0  0  0  0  0  0  0  0  0
  148.8846  139.6395  153.9887 C   0  0  0  0  0  0  0  0  0  0  0  0
  149.6643  140.1389  155.0501 C   0  0  0  0  0  0  0  0  0  0  0  0
  153.5877  142.5639  161.5937 H   0  0  0  0  0  0  0  0  0  0  0  0
  151.6786  144.2940  161.6207 H   0  0  0  0  0  0  0  0  0  0  0  0
  150.1021  144.6465  158.9459 H   0  0  0  0  0  0  0  0  0  0  0  0
  149.7968  145.5336  160.5273 H   0  0  0  0  0  0  0  0  0  0  0  0
  152.1329  146.4642  160.4460 H   0  0  0  0  0  0  0  0  0  0  0  0
  152.4346  145.5637  158.8709 H   0  0  0  0  0  0  0  0  0  0  0  0
  152.0935  141.2170  156.2613 H   0  0  0  0  0  0  0  0  0  0  0  0
  151.1638  139.9585  156.9948 H   0  0  0  0  0  0  0  0  0  0  0  0
  150.4105  142.9028  156.6019 H   0  0  0  0  0  0  0  0  0  0  0  0
  149.3263  142.8326  158.3376 H   0  0  0  0  0  0  0  0  0  0  0  0
  147.8222  142.9231  155.7969 H   0  0  0  0  0  0  0  0  0  0  0  0
  146.4536  142.0392  153.9285 H   0  0  0  0  0  0  0  0  0  0  0  0
  147.1266  139.9430  152.7689 H   0  0  0  0  0  0  0  0  0  0  0  0
  149.1787  138.7315  153.4834 H   0  0  0  0  0  0  0  0  0  0  0  0
  150.5569  139.6090  155.3500 H   0  0  0  0  0  0  0  0  0  0  0  0
  1  2  2  0  0  0  0
  2 14  1  0  0  0  0
  2  3  1  0  0  0  0
  3  4  1  0  0  0  0
  3  8  2  0  0  0  0
  4  5  1  0  0  0  0
  4  6  1  0  0  0  0
  4  7  1  0  0  0  0
  8  9  1  0  0  0  0
  8 24  1  0  0  0  0
  9 10  1  0  0  0  0
  9 13  2  0  0  0  0
 10 12  1  0  0  0  0
 10 11  1  0  0  0  0
 10 25  1  0  0  0  0
 11 12  1  0  0  0  0
 11 26  1  0  0  0  0
 11 27  1  0  0  0  0
 12 28  1  0  0  0  0
 12 29  1  0  0  0  0
 13 14  1  0  0  0  0
 14 15  1  0  0  0  0
 15 16  1  0  0  0  0
 15 30  1  0  0  0  0
 15 31  1  0  0  0  0
 16 17  1  0  0  0  0
 16 18  1  0  0  0  0
 16 32  1  0  0  0  0
 17 33  1  0  0  0  0
 18 23  1  0  0  0  0
 18 19  2  0  0  0  0
 19 20  1  0  0  0  0
 19 34  1  0  0  0  0
 20 21  2  0  0  0  0
 20 35  1  0  0  0  0
 21 22  1  0  0  0  0
 21 36  1  0  0  0  0
 22 23  2  0  0  0  0
 22 37  1  0  0  0  0
 23 38  1  0  0  0  0
M  END
> <s_m_source_file>
AV-unprocessed.smi

> <i_m_source_file_index>
2574

> <i_lp_mmshare_version>
43012

> <i_f3d_flags>
0

> <s_epik_input>
Tz1jMWMoQyhGKShGKUYpW2NIXWMoW0NIXTJbQ0gyXVtDSDJdMilubjFbQ0gyXVtDQEhdKFtPSF0pYzNbY0hdW2NIXVtjSF1bY0hdW2NIXTM=

> <s_epik_cmdline>
J2VwaWtfcHl0aG9uJywgJy1waCcsICc3LjAnLCAnLXRuJywgJzgnLCAnLW1hJywgJzIwMCcsICctbWV0YWxfYmluZGluZycsICctaW1hZScsICc8aW5maWxlLm1hZT4nLCAnLW9tYWUnLCAnPG91dGZpbGUubWFlPic=

> <r_lp_tautomer_probability>
1

> <r_epik_Ionization_Penalty>
7.26807e-08

> <r_epik_Ionization_Penalty_Charging>
9.677e-10

> <r_epik_Ionization_Penalty_Neutral>
7.1713e-08

> <r_epik_State_Penalty>
-0

> <r_epik_Charging_Adjusted_Penalty>
9.677e-10

> <i_epik_Tot_Q>
0

> <i_epik_Tot_abs_Q>
0

> <r_epik_Metal_State_Penalty>
-0

> <b_epik_Metal_Only>
0

> <s_lp_Force_Field>
OPLS_2005

> <r_lp_Energy>
33.7887

> <b_lp_Chiralities_Consistent>
1

> <s_lp_Variant>
AV-unprocessed.smi:2574-1

> <Gold.Version>
5.8.1

> <Gold.Id.Protein>
6NUR|6NUR_protein|mol2

> <Gold.PLP.Fitness>
49.7845

> <Gold.PLP.PLP>
-48.4985

> <Gold.PLP.part.hbond>
-1.0000

> <Gold.PLP.part.metal>
0.0000

> <Gold.PLP.part.buried>
1.5388

> <Gold.PLP.part.nonpolar>
-49.1896

> <Gold.PLP.part.repulsive>
0.0102

> <Gold.PLP.ligand.clash>
0.7748

> <Gold.PLP.ligand.torsion>
0.7881

> <Gold.PLP.Chemscore.Hbond>
1.0000

> <Gold.PLP.Chemscore.CHOScore>
0.0000

> <Gold.PLP.Chemscore.Metal>
0.0000

> <Gold.Chemscore.Hbonds>
donor molecule, donor type, donor heavy atom, donor atom, acceptor molecule, acceptor atom, score
      P1  H  7997  8009       L1     1  1.00

> <Gold.PLP.Chemscore.Internal.Correction>
0.6368

> <Gold.Rescore>
     Score         DG    S(hbond)    S(metal)    S(lipo)     H(rot)  DE(clash)    DE(int)     intcor
     14.21     -17.11       0.92        0.00     118.80       2.09       0.75       2.14       ----

> <Gold.Chemscore.Fitness>
14.2103

> <Gold.Chemscore.DG>
-17.1092

> <Gold.Chemscore.ZeroCoef>
-5.4800

> <Gold.Chemscore.Hbond>
0.9226

> <Gold.Chemscore.Metal>
0.0000

> <Gold.Chemscore.Lipo>
118.8011

> <Gold.Chemscore.Internal_Hbond>
0.0000

> <Gold.Chemscore.DEClash>
0.7544

> <Gold.Chemscore.DEInternal>
2.1445

> <Gold.Chemscore.Rot>
2.0906

> <Gold.Chemscore.Internal.Correction>
   9.000000E+99

> <Gold.Chemscore.Hbonds>
donor molecule, donor type, donor heavy atom, donor atom, acceptor molecule, acceptor atom, score
      P1  H  7997  8009       L1     1  0.40

> <Gold.Chemscore.Hbond.Weighted>
-3.0814

> <Gold.Chemscore.Metal.Weighted>
-0.0000

> <Gold.Chemscore.Lipo.Weighted>
-13.8997

> <Gold.Chemscore.Internal_Hbond.Weighted>
0.0000

> <Gold.Chemscore.DEClash.Weighted>
0.7544

> <Gold.Chemscore.DEInternal.Weighted>
2.1445

> <Gold.Chemscore.Rot.Weighted>
5.3520

> <Gold.Chemscore.Internal.Correction.Weighted>
   9.000000E+99

> <Gold.Protein.RotatedTorsions>
[ 6907 6896 6895 6894 ] final   94.80 input  -60.11 | X-H torsion
[ 7974 7965 7964 7962 ] final    8.68 input  175.53 | X-H torsion
[ 8008 7997 7996 7995 ] final  147.18 input   59.86 | X-H torsion
[ 10167 10162 10161 10158 ] final  -47.89 input  -65.29 | X-H torsion
[ 10718 10713 10712 10709 ] final  -90.54 input   66.30 | X-H torsion
[ 10763 10752 10751 10750 ] final -122.64 input  -60.55 | X-H torsion
[ 11005 11000 10999 10996 ] final -122.52 input  -57.11 | X-H torsion

> <Gold.Protein.ActiveResidues>
 VAL166  LYS551  ARG553  GLY616  TRP617  ASP618  TYR619  PRO620  LYS621  CYS622 
 ASP623  PHE694  ASN695  SER759  ASP760  ASP761  ALA762  ILE779  LEU786  VAL792 
 PHE793  MET794  SER795  GLU796  ALA797  LYS798  CYS799  TRP800  GLU811  SER814 

> <Gold.Protein.RotatedAtoms>
  152.5447  134.1137  159.8369 H   0  0  0  0  0  0  0  0  0  0  0  0  # atno 6907 bound_to 6896
  151.1201  133.5103  159.2610 H   0  0  0  0  0  0  0  0  0  0  0  0  # atno 6908 bound_to 6896
  151.1788  135.0361  159.8838 H   0  0  0  0  0  0  0  0  0  0  0  0  # atno 6909 bound_to 6896
  146.2413  139.9897  142.8427 H   0  0  0  0  0  0  0  0  0  0  0  0  # atno 7974 bound_to 7965
  156.2832  140.2162  156.5497 H   0  0  0  0  0  0  0  0  0  0  0  0  # atno 8008 bound_to 7997
  154.7301  140.0496  157.0741 H   0  0  0  0  0  0  0  0  0  0  0  0  # atno 8009 bound_to 7997
  155.0364  140.3141  155.4743 H   0  0  0  0  0  0  0  0  0  0  0  0  # atno 8010 bound_to 7997
  140.6755  143.2764  151.3992 H   0  0  0  0  0  0  0  0  0  0  0  0  # atno 10167 bound_to 10162
  155.9988  130.4914  150.5339 H   0  0  0  0  0  0  0  0  0  0  0  0  # atno 10718 bound_to 10713
  154.8693  135.4126  154.2815 H   0  0  0  0  0  0  0  0  0  0  0  0  # atno 10763 bound_to 10752
  153.3707  135.7007  153.6646 H   0  0  0  0  0  0  0  0  0  0  0  0  # atno 10764 bound_to 10752
  153.5509  135.3629  155.2731 H   0  0  0  0  0  0  0  0  0  0  0  0  # atno 10765 bound_to 10752
  140.9989  134.0431  157.3562 H   0  0  0  0  0  0  0  0  0  0  0  0  # atno 11005 bound_to 11000
  145.1514  140.9625  143.4430 LP  0  0  0  0  0  0  0  0  0  0  0  0  # atno 17320 bound_to 7965
  145.0201  139.3431  143.6076 LP  0  0  0  0  0  0  0  0  0  0  0  0  # atno 17321 bound_to 7965
  139.6045  144.1225  152.2234 LP  0  0  0  0  0  0  0  0  0  0  0  0  # atno 17342 bound_to 10162
  140.0620  144.5849  150.7256 LP  0  0  0  0  0  0  0  0  0  0  0  0  # atno 17343 bound_to 10162
  157.3284  131.0695  151.1879 LP  0  0  0  0  0  0  0  0  0  0  0  0  # atno 17370 bound_to 10713
  157.2768  130.6731  149.6046 LP  0  0  0  0  0  0  0  0  0  0  0  0  # atno 17371 bound_to 10713
  139.9028  135.0170  156.7351 LP  0  0  0  0  0  0  0  0  0  0  0  0  # atno 17394 bound_to 11000
  140.6921  133.9381  155.7972 LP  0  0  0  0  0  0  0  0  0  0  0  0  # atno 17395 bound_to 11000

$$$$
