AV-unprocessed.smi:2063|AV-procd|sdf|8412|dock7
  -GOLD-   2272011103D 1   1.00000     0.00000
 Structure written by MMmdl.
 38 39  0  0  0  0  0  0  0  0  2 V2000
  153.5675  142.4018  161.0698 C   0  0  0  0  0  0  0  0  0  0  0  0
  152.9762  142.5073  159.6565 C   0  0  0  0  0  0  0  0  0  0  0  0
  152.0554  143.7230  159.4777 C   0  0  0  0  0  0  0  0  0  0  0  0
  152.3201  141.2336  159.2230 C   0  0  0  0  0  0  0  0  0  0  0  0
  152.9513  140.0554  159.2060 N   0  0  0  0  0  0  0  0  0  0  0  0
  152.1322  139.0277  158.7623 N   0  0  0  0  0  0  0  0  0  0  0  0
  150.8924  139.4374  158.4594 C   0  0  0  0  0  0  0  0  0  0  0  0
  149.9455  138.5996  158.0061 N   0  5  0  0  0  0  0  0  0  0  0  0
  149.6675  137.4625  158.6838 C   0  0  0  0  0  0  0  0  0  0  0  0
  150.4887  136.7007  159.1989 O   0  0  0  0  0  0  0  0  0  0  0  0
  148.3559  137.1979  158.7718 N   0  0  0  0  0  0  0  0  0  0  0  0
  147.7408  136.0644  159.4608 C   0  0  2  0  0  0  0  0  0  0  0  0
  146.2119  136.2169  159.4424 C   0  0  0  0  0  0  0  0  0  0  0  0
  148.2949  135.9692  160.8949 C   0  0  2  0  0  0  0  0  0  0  0  0
  147.9834  134.6524  161.6125 C   0  0  0  0  0  0  0  0  0  0  0  0
  147.9556  135.0323  163.0857 C   0  0  0  0  0  0  0  0  0  0  0  0
  147.9896  136.5622  163.0793 C   0  0  0  0  0  0  0  0  0  0  0  0
  147.6784  136.9260  161.7428 O   0  0  0  0  0  0  0  0  0  0  0  0
  150.6486  141.1684  158.6879 S   0  0  0  0  0  0  0  0  0  0  0  0
  154.2750  141.5746  161.1375 H   0  0  0  0  0  0  0  0  0  0  0  0
  152.7881  142.2355  161.8141 H   0  0  0  0  0  0  0  0  0  0  0  0
  154.0982  143.3141  161.3430 H   0  0  0  0  0  0  0  0  0  0  0  0
  153.8204  142.6614  158.9831 H   0  0  0  0  0  0  0  0  0  0  0  0
  151.7262  143.8163  158.4423 H   0  0  0  0  0  0  0  0  0  0  0  0
  152.5684  144.6468  159.7454 H   0  0  0  0  0  0  0  0  0  0  0  0
  151.1664  143.6427  160.1040 H   0  0  0  0  0  0  0  0  0  0  0  0
  147.7273  137.8517  158.3287 H   0  0  0  0  0  0  0  0  0  0  0  0
  147.9987  135.1387  158.9438 H   0  0  0  0  0  0  0  0  0  0  0  0
  145.7263  135.3732  159.9336 H   0  0  0  0  0  0  0  0  0  0  0  0
  145.8343  136.2617  158.4204 H   0  0  0  0  0  0  0  0  0  0  0  0
  145.8975  137.1269  159.9544 H   0  0  0  0  0  0  0  0  0  0  0  0
  149.3732  136.1419  160.8976 H   0  0  0  0  0  0  0  0  0  0  0  0
  147.0015  134.2818  161.3145 H   0  0  0  0  0  0  0  0  0  0  0  0
  148.7142  133.8744  161.3894 H   0  0  0  0  0  0  0  0  0  0  0  0
  147.0472  134.6576  163.5584 H   0  0  0  0  0  0  0  0  0  0  0  0
  148.8093  134.6246  163.6280 H   0  0  0  0  0  0  0  0  0  0  0  0
  147.2840  137.0015  163.7848 H   0  0  0  0  0  0  0  0  0  0  0  0
  148.9887  136.9249  163.3254 H   0  0  0  0  0  0  0  0  0  0  0  0
  1  2  1  0  0  0  0
  1 20  1  0  0  0  0
  1 21  1  0  0  0  0
  1 22  1  0  0  0  0
  2  3  1  0  0  0  0
  2  4  1  0  0  0  0
  2 23  1  0  0  0  0
  3 24  1  0  0  0  0
  3 25  1  0  0  0  0
  3 26  1  0  0  0  0
  4 19  1  0  0  0  0
  4  5  2  0  0  0  0
  5  6  1  0  0  0  0
  6  7  2  0  0  0  0
  7  8  1  0  0  0  0
  7 19  1  0  0  0  0
  8  9  1  0  0  0  0
  9 10  2  0  0  0  0
  9 11  1  0  0  0  0
 11 12  1  0  0  0  0
 11 27  1  0  0  0  0
 12 13  1  0  0  0  0
 12 14  1  0  0  0  0
 12 28  1  0  0  0  0
 13 29  1  0  0  0  0
 13 30  1  0  0  0  0
 13 31  1  0  0  0  0
 14 18  1  0  0  0  0
 14 15  1  0  0  0  0
 14 32  1  0  0  0  0
 15 16  1  0  0  0  0
 15 33  1  0  0  0  0
 15 34  1  0  0  0  0
 16 17  1  0  0  0  0
 16 35  1  0  0  0  0
 16 36  1  0  0  0  0
 17 18  1  0  0  0  0
 17 37  1  0  0  0  0
 17 38  1  0  0  0  0
M  CHG  1   8  -1
M  END
> <s_m_source_file>
AV-unprocessed.smi

> <i_m_source_file_index>
2063

> <i_lp_mmshare_version>
43012

> <i_f3d_flags>
0

> <s_epik_input>
W0NIM11bQ0hdKFtDSDNdKWMxbm5jKHMxKVtOSF1DKD1PKVtOSF1bQ0BIXShbQ0gzXSlbQ0BASF0yW0NIMl1bQ0gyXVtDSDJdTzI=

> <s_epik_cmdline>
J2VwaWtfcHl0aG9uJywgJy1waCcsICc3LjAnLCAnLXRuJywgJzgnLCAnLW1hJywgJzIwMCcsICctbWV0YWxfYmluZGluZycsICctaW1hZScsICc8aW5maWxlLm1hZT4nLCAnLW9tYWUnLCAnPG91dGZpbGUubWFlPic=

> <r_lp_tautomer_probability>
1

> <r_epik_Ionization_Penalty>
4.37022

> <r_epik_Ionization_Penalty_Charging>
4.21437

> <r_epik_Ionization_Penalty_Neutral>
0.15585

> <r_epik_State_Penalty>
4.21389

> <r_epik_Charging_Adjusted_Penalty>
8.42826

> <i_epik_Tot_Q>
-1

> <i_epik_Tot_abs_Q>
1

> <r_epik_Metal_State_Penalty>
0.693772

> <b_epik_Metal_Only>
1

> <s_lp_Force_Field>
OPLS_2005

> <r_lp_Energy>
9.58619

> <b_lp_Chiralities_Consistent>
1

> <s_lp_Variant>
AV-unprocessed.smi:2063-5

> <Gold.Version>
5.8.1

> <Gold.Id.Protein>
6NUR|6NUR_protein|mol2

> <Gold.PLP.Fitness>
41.7563

> <Gold.PLP.PLP>
-37.9874

> <Gold.PLP.part.hbond>
-3.0000

> <Gold.PLP.part.metal>
0.0000

> <Gold.PLP.part.buried>
-5.0444

> <Gold.PLP.part.nonpolar>
-29.4129

> <Gold.PLP.part.repulsive>
0.1370

> <Gold.PLP.ligand.clash>
0.0000

> <Gold.PLP.ligand.torsion>
1.1064

> <Gold.PLP.Chemscore.Hbond>
1.9520

> <Gold.PLP.Chemscore.CHOScore>
0.0000

> <Gold.PLP.Chemscore.Metal>
0.0000

> <Gold.Chemscore.Hbonds>
donor molecule, donor type, donor heavy atom, donor atom, acceptor molecule, acceptor atom, score
      P1  H  6896  6908       L1    10  1.00
      P1  H  6931  6943       L1    18  0.30
      P1  H  6934  6947       L1    18  0.26

> <Gold.PLP.Chemscore.Internal.Correction>
0.1257

> <Gold.Rescore>
     Score         DG    S(hbond)    S(metal)    S(lipo)     H(rot)  DE(clash)    DE(int)     intcor
     14.39     -17.88       1.82        0.00      84.35       1.39       0.10       3.39       ----

> <Gold.Chemscore.Fitness>
14.3875

> <Gold.Chemscore.DG>
-17.8815

> <Gold.Chemscore.ZeroCoef>
-5.4800

> <Gold.Chemscore.Hbond>
1.8230

> <Gold.Chemscore.Metal>
0.0000

> <Gold.Chemscore.Lipo>
84.3537

> <Gold.Chemscore.Internal_Hbond>
0.0000

> <Gold.Chemscore.DEClash>
0.1019

> <Gold.Chemscore.DEInternal>
3.3921

> <Gold.Chemscore.Rot>
1.3893

> <Gold.Chemscore.Internal.Correction>
   9.000000E+99

> <Gold.Chemscore.Hbonds>
donor molecule, donor type, donor heavy atom, donor atom, acceptor molecule, acceptor atom, score
      P1  H  6896  6908       L1    10  0.96
      P1  H  6934  6947       L1    18  0.24

> <Gold.Chemscore.Hbond.Weighted>
-6.0888

> <Gold.Chemscore.Metal.Weighted>
-0.0000

> <Gold.Chemscore.Lipo.Weighted>
-9.8694

> <Gold.Chemscore.Internal_Hbond.Weighted>
0.0000

> <Gold.Chemscore.DEClash.Weighted>
0.1019

> <Gold.Chemscore.DEInternal.Weighted>
3.3921

> <Gold.Chemscore.Rot.Weighted>
3.5567

> <Gold.Chemscore.Internal.Correction.Weighted>
   9.000000E+99

> <Gold.Protein.RotatedTorsions>
[ 6907 6896 6895 6894 ] final -168.10 input  -60.11 | X-H torsion
[ 7974 7965 7964 7962 ] final  162.56 input  175.53 | X-H torsion
[ 8008 7997 7996 7995 ] final  -60.18 input   59.86 | X-H torsion
[ 10167 10162 10161 10158 ] final  -75.17 input  -65.29 | X-H torsion
[ 10718 10713 10712 10709 ] final  140.76 input   66.30 | X-H torsion
[ 10763 10752 10751 10750 ] final  -74.66 input  -60.55 | X-H torsion
[ 11005 11000 10999 10996 ] final   94.95 input  -57.11 | X-H torsion

> <Gold.Protein.ActiveResidues>
 VAL166  LYS551  ARG553  GLY616  TRP617  ASP618  TYR619  PRO620  LYS621  CYS622 
 ASP623  PHE694  ASN695  SER759  ASP760  ASP761  ALA762  ILE779  LEU786  VAL792 
 PHE793  MET794  SER795  GLU796  ALA797  LYS798  CYS799  TRP800  GLU811  SER814 

> <Gold.Protein.RotatedAtoms>
  151.4702  133.3571  159.2822 H   0  0  0  0  0  0  0  0  0  0  0  0  # atno 6907 bound_to 6896
  150.8966  134.8376  159.7341 H   0  0  0  0  0  0  0  0  0  0  0  0  # atno 6908 bound_to 6896
  152.4855  134.4618  159.9659 H   0  0  0  0  0  0  0  0  0  0  0  0  # atno 6909 bound_to 6896
  144.7631  139.8057  143.6325 H   0  0  0  0  0  0  0  0  0  0  0  0  # atno 7974 bound_to 7965
  154.4386  140.1045  156.6232 H   0  0  0  0  0  0  0  0  0  0  0  0  # atno 8008 bound_to 7997
  155.5685  140.3489  155.4490 H   0  0  0  0  0  0  0  0  0  0  0  0  # atno 8009 bound_to 7997
  156.0407  140.1281  157.0147 H   0  0  0  0  0  0  0  0  0  0  0  0  # atno 8010 bound_to 7997
  140.4965  143.2369  151.7822 H   0  0  0  0  0  0  0  0  0  0  0  0  # atno 10167 bound_to 10162
  157.3996  131.1015  151.0565 H   0  0  0  0  0  0  0  0  0  0  0  0  # atno 10718 bound_to 10713
  154.4761  135.5857  153.6356 H   0  0  0  0  0  0  0  0  0  0  0  0  # atno 10763 bound_to 10752
  152.9841  135.6078  154.3305 H   0  0  0  0  0  0  0  0  0  0  0  0  # atno 10764 bound_to 10752
  154.3192  135.2844  155.2507 H   0  0  0  0  0  0  0  0  0  0  0  0  # atno 10765 bound_to 10752
  139.8793  134.8873  156.3939 H   0  0  0  0  0  0  0  0  0  0  0  0  # atno 11005 bound_to 11000
  146.1713  139.4865  142.9925 LP  0  0  0  0  0  0  0  0  0  0  0  0  # atno 17320 bound_to 7965
  145.6556  141.0253  143.1737 LP  0  0  0  0  0  0  0  0  0  0  0  0  # atno 17321 bound_to 7965
  139.4862  144.4579  151.9576 LP  0  0  0  0  0  0  0  0  0  0  0  0  # atno 17342 bound_to 10162
  140.3667  144.2906  150.5925 LP  0  0  0  0  0  0  0  0  0  0  0  0  # atno 17343 bound_to 10162
  157.1568  130.6208  149.5599 LP  0  0  0  0  0  0  0  0  0  0  0  0  # atno 17370 bound_to 10713
  155.9820  130.4830  150.6856 LP  0  0  0  0  0  0  0  0  0  0  0  0  # atno 17371 bound_to 10713
  140.9313  133.7577  156.0029 LP  0  0  0  0  0  0  0  0  0  0  0  0  # atno 17394 bound_to 11000
  140.8327  134.3160  157.5343 LP  0  0  0  0  0  0  0  0  0  0  0  0  # atno 17395 bound_to 11000

$$$$
