AV-unprocessed.smi:1744|AV-procd|sdf|7025|dock3
  -GOLD-   22720 8243D 1   1.00000     0.00000
 Structure written by MMmdl.
 44 45  0  0  0  0  0  0  0  0  2 V2000
  151.7713  144.9656  159.7055 C   0  0  0  0  0  0  0  0  0  0  0  0
  152.3310  144.6404  158.3155 C   0  0  0  0  0  0  0  0  0  0  0  0
  151.7393  143.4355  157.7678 N   0  0  0  0  0  0  0  0  0  0  0  0
  151.0168  143.2950  156.5998 C   0  0  0  0  0  0  0  0  0  0  0  0
  150.6904  141.9748  156.5213 C   0  0  0  0  0  0  0  0  0  0  0  0
  149.9448  141.3883  155.4687 N   0  0  0  0  0  0  0  0  0  0  0  0
  148.9432  140.5007  155.5782 C   0  0  0  0  0  0  0  0  0  0  0  0
  148.5024  140.0551  156.6375 O   0  0  0  0  0  0  0  0  0  0  0  0
  148.4747  140.1454  154.3733 N   0  0  0  0  0  0  0  0  0  0  0  0
  147.3948  139.1919  154.1377 C   0  0  2  0  0  0  0  0  0  0  0  0
  147.7672  137.7978  154.6769 C   0  0  0  0  0  0  0  0  0  0  0  0
  146.6904  136.7565  154.3287 C   0  0  0  0  0  0  0  0  0  0  0  0
  146.4493  136.7054  152.8642 N   0  3  1  0  0  0  0  0  0  0  0  0
  145.5249  135.6086  152.4773 C   0  0  0  0  0  0  0  0  0  0  0  0
  145.7100  135.1543  151.0254 C   0  0  0  0  0  0  0  0  0  0  0  0
  145.3127  136.0017  150.0733 N   0  0  0  0  0  0  0  0  0  0  0  0
  146.1899  134.0527  150.7635 O   0  0  0  0  0  0  0  0  0  0  0  0
  146.0371  138.0327  152.3345 C   0  0  0  0  0  0  0  0  0  0  0  0
  147.1023  139.1006  152.6312 C   0  0  0  0  0  0  0  0  0  0  0  0
  151.2460  141.3670  157.6827 C   0  0  0  0  0  0  0  0  0  0  0  0
  151.8792  142.2598  158.4289 N   0  0  0  0  0  0  0  0  0  0  0  0
  152.2350  145.8659  160.1092 H   0  0  0  0  0  0  0  0  0  0  0  0
  151.9596  144.1513  160.4059 H   0  0  0  0  0  0  0  0  0  0  0  0
  150.6946  145.1343  159.6684 H   0  0  0  0  0  0  0  0  0  0  0  0
  152.1485  145.4676  157.6282 H   0  0  0  0  0  0  0  0  0  0  0  0
  153.4118  144.5046  158.3683 H   0  0  0  0  0  0  0  0  0  0  0  0
  150.8079  144.1264  155.9426 H   0  0  0  0  0  0  0  0  0  0  0  0
  150.2101  141.6649  154.5349 H   0  0  0  0  0  0  0  0  0  0  0  0
  148.8978  140.5657  153.5586 H   0  0  0  0  0  0  0  0  0  0  0  0
  146.4915  139.5414  154.6422 H   0  0  0  0  0  0  0  0  0  0  0  0
  148.7235  137.4817  154.2576 H   0  0  0  0  0  0  0  0  0  0  0  0
  147.9023  137.8344  155.7586 H   0  0  0  0  0  0  0  0  0  0  0  0
  147.0138  135.7775  154.6842 H   0  0  0  0  0  0  0  0  0  0  0  0
  145.7579  136.9901  154.8451 H   0  0  0  0  0  0  0  0  0  0  0  0
  145.7113  134.7344  153.1026 H   0  0  0  0  0  0  0  0  0  0  0  0
  144.4912  135.9085  152.6574 H   0  0  0  0  0  0  0  0  0  0  0  0
  145.4152  135.7574  149.0986 H   0  0  0  0  0  0  0  0  0  0  0  0
  144.9130  136.8925  150.3323 H   0  0  0  0  0  0  0  0  0  0  0  0
  145.8797  137.9768  151.2571 H   0  0  0  0  0  0  0  0  0  0  0  0
  145.0825  138.3225  152.7767 H   0  0  0  0  0  0  0  0  0  0  0  0
  146.7678  140.0686  152.2557 H   0  0  0  0  0  0  0  0  0  0  0  0
  148.0170  138.8576  152.0881 H   0  0  0  0  0  0  0  0  0  0  0  0
  151.2185  140.3382  158.0094 H   0  0  0  0  0  0  0  0  0  0  0  0
  147.3380  136.4817  152.4384 H   0  0  0  0  0  0  0  0  0  0  0  0
  1  2  1  0  0  0  0
  1 22  1  0  0  0  0
  1 23  1  0  0  0  0
  1 24  1  0  0  0  0
  2  3  1  0  0  0  0
  2 25  1  0  0  0  0
  2 26  1  0  0  0  0
  3 21  1  0  0  0  0
  3  4  1  0  0  0  0
  4  5  2  0  0  0  0
  4 27  1  0  0  0  0
  5  6  1  0  0  0  0
  5 20  1  0  0  0  0
  6  7  1  0  0  0  0
  6 28  1  0  0  0  0
  7  8  2  0  0  0  0
  7  9  1  0  0  0  0
  9 10  1  0  0  0  0
  9 29  1  0  0  0  0
 10 19  1  0  0  0  0
 10 11  1  0  0  0  0
 10 30  1  0  0  0  0
 11 12  1  0  0  0  0
 11 31  1  0  0  0  0
 11 32  1  0  0  0  0
 12 13  1  0  0  0  0
 12 33  1  0  0  0  0
 12 34  1  0  0  0  0
 13 14  1  0  0  0  0
 13 18  1  0  0  0  0
 13 44  1  0  0  0  0
 14 15  1  0  0  0  0
 14 35  1  0  0  0  0
 14 36  1  0  0  0  0
 15 16  1  0  0  0  0
 15 17  2  0  0  0  0
 16 37  1  0  0  0  0
 16 38  1  0  0  0  0
 18 19  1  0  0  0  0
 18 39  1  0  0  0  0
 18 40  1  0  0  0  0
 19 41  1  0  0  0  0
 19 42  1  0  0  0  0
 20 21  2  0  0  0  0
 20 43  1  0  0  0  0
M  CHG  1  13   1
M  END
> <s_m_source_file>
AV-unprocessed.smi

> <i_m_source_file_index>
1744

> <i_lp_mmshare_version>
43012

> <i_f3d_flags>
0

> <s_epik_input>
W0NIM11bQ0gyXW4xW2NIXWMoW2NIXW4xKVtOSF1DKD1PKVtOSF1bQ0hdMltDSDJdW0NIMl1OKFtDSDJdW0NIMl0yKVtDSDJdQyg9TylbTkgyXQ==

> <s_epik_cmdline>
J2VwaWtfcHl0aG9uJywgJy1waCcsICc3LjAnLCAnLXRuJywgJzgnLCAnLW1hJywgJzIwMCcsICctbWV0YWxfYmluZGluZycsICctaW1hZScsICc8aW5maWxlLm1hZT4nLCAnLW9tYWUnLCAnPG91dGZpbGUubWFlPic=

> <r_lp_tautomer_probability>
1

> <r_epik_Ionization_Penalty>
0.839033

> <r_epik_Ionization_Penalty_Charging>
0.838844

> <r_epik_Ionization_Penalty_Neutral>
0.000189439

> <r_epik_State_Penalty>
0.8734

> <r_epik_Charging_Adjusted_Penalty>
1.71224

> <i_epik_Tot_Q>
1

> <i_epik_Tot_abs_Q>
1

> <r_epik_Metal_State_Penalty>
0.89072

> <b_epik_Metal_Only>
0

> <s_lp_Force_Field>
OPLS_2005

> <r_lp_Energy>
16.914

> <b_lp_Chiralities_Consistent>
1

> <s_lp_Variant>
AV-unprocessed.smi:1744-2

> <Gold.Version>
5.8.1

> <Gold.Id.Protein>
6NUR|6NUR_protein|mol2

> <Gold.PLP.Fitness>
46.5328

> <Gold.PLP.PLP>
-33.4150

> <Gold.PLP.part.hbond>
-3.0000

> <Gold.PLP.part.metal>
0.0000

> <Gold.PLP.part.buried>
-2.5180

> <Gold.PLP.part.nonpolar>
-29.4166

> <Gold.PLP.part.repulsive>
0.5922

> <Gold.PLP.ligand.clash>
0.0000

> <Gold.PLP.ligand.torsion>
0.6656

> <Gold.PLP.Chemscore.Hbond>
3.9760

> <Gold.PLP.Chemscore.CHOScore>
0.8284

> <Gold.PLP.Chemscore.Metal>
0.0000

> <Gold.Chemscore.Hbonds>
donor molecule, donor type, donor heavy atom, donor atom, acceptor molecule, acceptor atom, score
      L1  H    13    44       P1  7948  2.00
      L1  H    16    37       P1  7921  1.00
      L1  H    16    38       P1 10171  0.94
      L1  C     4    27       P1  8028  0.77

> <Gold.PLP.Chemscore.Internal.Correction>
0.0357

> <Gold.Rescore>
     Score         DG    S(hbond)    S(metal)    S(lipo)     H(rot)  DE(clash)    DE(int)     intcor
     16.69     -18.66       2.91        0.00      78.15       2.22       1.39       0.58       ----

> <Gold.Chemscore.Fitness>
16.6862

> <Gold.Chemscore.DG>
-18.6575

> <Gold.Chemscore.ZeroCoef>
-5.4800

> <Gold.Chemscore.Hbond>
2.9103

> <Gold.Chemscore.Metal>
0.0000

> <Gold.Chemscore.Lipo>
78.1460

> <Gold.Chemscore.Internal_Hbond>
0.0000

> <Gold.Chemscore.DEClash>
1.3898

> <Gold.Chemscore.DEInternal>
0.5815

> <Gold.Chemscore.Rot>
2.2211

> <Gold.Chemscore.Internal.Correction>
   9.000000E+99

> <Gold.Chemscore.Hbonds>
donor molecule, donor type, donor heavy atom, donor atom, acceptor molecule, acceptor atom, score
      L1  H    13    44       P1  7948  1.00
      L1  H    16    37       P1  7921  0.98
      L1  H    16    38       P1 10171  0.85

> <Gold.Chemscore.Hbond.Weighted>
-9.7205

> <Gold.Chemscore.Metal.Weighted>
-0.0000

> <Gold.Chemscore.Lipo.Weighted>
-9.1431

> <Gold.Chemscore.Internal_Hbond.Weighted>
0.0000

> <Gold.Chemscore.DEClash.Weighted>
1.3898

> <Gold.Chemscore.DEInternal.Weighted>
0.5815

> <Gold.Chemscore.Rot.Weighted>
5.6860

> <Gold.Chemscore.Internal.Correction.Weighted>
   9.000000E+99

> <Gold.Protein.RotatedTorsions>
[ 6907 6896 6895 6894 ] final -100.15 input  -60.11 | X-H torsion
[ 7974 7965 7964 7962 ] final  -38.39 input  175.53 | X-H torsion
[ 8008 7997 7996 7995 ] final  164.65 input   59.86 | X-H torsion
[ 10167 10162 10161 10158 ] final  -79.73 input  -65.29 | X-H torsion
[ 10718 10713 10712 10709 ] final    0.06 input   66.30 | X-H torsion
[ 10763 10752 10751 10750 ] final -177.27 input  -60.55 | X-H torsion
[ 11005 11000 10999 10996 ] final -159.57 input  -57.11 | X-H torsion

> <Gold.Protein.ActiveResidues>
 VAL166  LYS551  ARG553  GLY616  TRP617  ASP618  TYR619  PRO620  LYS621  CYS622 
 ASP623  PHE694  ASN695  SER759  ASP760  ASP761  ALA762  ILE779  LEU786  VAL792 
 PHE793  MET794  SER795  GLU796  ALA797  LYS798  CYS799  TRP800  GLU811  SER814 

> <Gold.Protein.RotatedAtoms>
  150.7105  134.0931  159.3938 H   0  0  0  0  0  0  0  0  0  0  0  0  # atno 6907 bound_to 6896
  151.8916  135.0412  160.0507 H   0  0  0  0  0  0  0  0  0  0  0  0  # atno 6908 bound_to 6896
  152.2486  133.5161  159.5349 H   0  0  0  0  0  0  0  0  0  0  0  0  # atno 6909 bound_to 6896
  146.0491  140.6506  142.9050 H   0  0  0  0  0  0  0  0  0  0  0  0  # atno 7974 bound_to 7965
  156.1863  140.1691  156.8179 H   0  0  0  0  0  0  0  0  0  0  0  0  # atno 8008 bound_to 7997
  154.5418  140.0735  156.8555 H   0  0  0  0  0  0  0  0  0  0  0  0  # atno 8009 bound_to 7997
  155.3200  140.3373  155.4244 H   0  0  0  0  0  0  0  0  0  0  0  0  # atno 8010 bound_to 7997
  140.4567  143.2466  151.8409 H   0  0  0  0  0  0  0  0  0  0  0  0  # atno 10167 bound_to 10162
  156.8277  130.5478  149.5690 H   0  0  0  0  0  0  0  0  0  0  0  0  # atno 10718 bound_to 10713
  154.5622  135.2821  155.0908 H   0  0  0  0  0  0  0  0  0  0  0  0  # atno 10763 bound_to 10752
  154.2313  135.6373  153.5180 H   0  0  0  0  0  0  0  0  0  0  0  0  # atno 10764 bound_to 10752
  153.0032  135.5538  154.6220 H   0  0  0  0  0  0  0  0  0  0  0  0  # atno 10765 bound_to 10752
  140.6411  134.4550  157.5233 H   0  0  0  0  0  0  0  0  0  0  0  0  # atno 11005 bound_to 11000
  144.7113  140.4049  143.7078 LP  0  0  0  0  0  0  0  0  0  0  0  0  # atno 17320 bound_to 7965
  145.6755  139.1608  143.2730 LP  0  0  0  0  0  0  0  0  0  0  0  0  # atno 17321 bound_to 7965
  139.4802  144.5056  151.9001 LP  0  0  0  0  0  0  0  0  0  0  0  0  # atno 17342 bound_to 10162
  140.4143  144.2328  150.5888 LP  0  0  0  0  0  0  0  0  0  0  0  0  # atno 17343 bound_to 10162
  156.0952  130.5926  150.9801 LP  0  0  0  0  0  0  0  0  0  0  0  0  # atno 17370 bound_to 10713
  157.6423  131.0908  150.8226 LP  0  0  0  0  0  0  0  0  0  0  0  0  # atno 17371 bound_to 10713
  139.9080  134.8407  156.1634 LP  0  0  0  0  0  0  0  0  0  0  0  0  # atno 17394 bound_to 11000
  141.0606  133.6844  156.1944 LP  0  0  0  0  0  0  0  0  0  0  0  0  # atno 17395 bound_to 11000

$$$$
