AV-unprocessed.smi:221|AV-procd|sdf|1693|dock3
  -GOLD-   2262020143D 1   1.00000     0.00000
 Structure written by MMmdl.
 50 53  0  0  0  0  0  0  0  0  1 V2000
  146.2034  131.8498  154.1648 N   0  0  0  0  0  0  0  0  0  0  0  0
  146.8452  132.3855  153.1242 C   0  0  0  0  0  0  0  0  0  0  0  0
  148.0731  132.4294  153.0655 O   0  0  0  0  0  0  0  0  0  0  0  0
  145.9751  132.9678  151.9988 C   0  0  1  0  0  0  0  0  0  0  0  0
  145.0281  131.9045  151.4182 C   0  0  0  0  0  0  0  0  0  0  0  0
  143.8430  132.7144  150.9018 C   0  0  2  0  0  0  0  0  0  0  0  0
  144.1354  133.2129  149.6995 F   0  0  0  0  0  0  0  0  0  0  0  0
  143.7299  133.8553  151.9127 C   0  0  0  0  0  0  0  0  0  0  0  0
  145.0669  134.0177  152.4718 N   0  0  0  0  0  0  0  0  0  0  0  0
  145.4989  135.2600  152.8176 C   0  0  0  0  0  0  0  0  0  0  0  0
  144.9678  136.3489  152.1998 N   0  0  0  0  0  0  0  0  0  0  0  0
  145.3765  137.5792  152.5215 C   0  0  0  0  0  0  0  0  0  0  0  0
  146.2952  137.9453  153.4162 N   0  0  0  0  0  0  0  0  0  0  0  0
  146.8405  136.8595  154.0347 C   0  0  0  0  0  0  0  0  0  0  0  0
  146.5039  135.4953  153.8005 C   0  0  0  0  0  0  0  0  0  0  0  0
  147.2816  134.6752  154.6111 N   0  0  0  0  0  0  0  0  0  0  0  0
  148.0330  135.5044  155.2822 C   0  0  0  0  0  0  0  0  0  0  0  0
  147.8372  136.8351  154.9943 N   0  0  0  0  0  0  0  0  0  0  0  0
  148.5416  137.9604  155.5823 C   0  0  0  0  0  0  0  0  0  0  0  0
  150.0780  137.9262  155.3634 C   0  0  1  0  0  0  0  0  0  0  0  0
  150.4895  138.4908  153.9789 C   0  0  0  0  0  0  0  0  0  0  0  0
  150.0235  139.8114  153.7905 O   0  0  0  0  0  0  0  0  0  0  0  0
  150.7985  138.6757  156.5151 C   0  0  2  0  0  0  0  0  0  0  0  0
  150.3195  140.0974  156.7636 C   0  0  0  0  0  0  0  0  0  0  0  0
  151.4733  140.6997  157.5575 C   0  0  0  0  0  0  0  0  0  0  0  0
  152.6463  140.0472  157.0876 O   0  0  0  0  0  0  0  0  0  0  0  0
  152.2907  138.9351  156.2734 C   0  0  0  0  0  0  0  0  0  0  0  0
  146.6023  133.3653  151.1983 H   0  0  0  0  0  0  0  0  0  0  0  0
  142.9267  132.1318  150.8036 H   0  0  0  0  0  0  0  0  0  0  0  0
  146.7320  131.4492  154.9260 H   0  0  0  0  0  0  0  0  0  0  0  0
  145.1941  131.8414  154.1848 H   0  0  0  0  0  0  0  0  0  0  0  0
  145.4972  131.3034  150.6384 H   0  0  0  0  0  0  0  0  0  0  0  0
  144.6812  131.2232  152.1974 H   0  0  0  0  0  0  0  0  0  0  0  0
  143.3488  134.7639  151.4434 H   0  0  0  0  0  0  0  0  0  0  0  0
  143.0512  133.5806  152.7209 H   0  0  0  0  0  0  0  0  0  0  0  0
  144.9000  138.3856  151.9841 H   0  0  0  0  0  0  0  0  0  0  0  0
  148.7616  135.1664  156.0046 H   0  0  0  0  0  0  0  0  0  0  0  0
  148.1258  138.8816  155.1722 H   0  0  0  0  0  0  0  0  0  0  0  0
  148.3045  137.9664  156.6462 H   0  0  0  0  0  0  0  0  0  0  0  0
  150.4015  136.8848  155.4081 H   0  0  0  0  0  0  0  0  0  0  0  0
  151.5724  138.4614  153.8540 H   0  0  0  0  0  0  0  0  0  0  0  0
  150.0667  137.9045  153.1653 H   0  0  0  0  0  0  0  0  0  0  0  0
  149.5744  139.8565  152.9602 H   0  0  0  0  0  0  0  0  0  0  0  0
  150.6908  138.1082  157.4412 H   0  0  0  0  0  0  0  0  0  0  0  0
  150.1978  140.6298  155.8191 H   0  0  0  0  0  0  0  0  0  0  0  0
  149.3788  140.1528  157.3111 H   0  0  0  0  0  0  0  0  0  0  0  0
  151.5419  141.7811  157.4379 H   0  0  0  0  0  0  0  0  0  0  0  0
  151.3578  140.4826  158.6201 H   0  0  0  0  0  0  0  0  0  0  0  0
  152.9098  138.0695  156.5099 H   0  0  0  0  0  0  0  0  0  0  0  0
  152.4728  139.2052  155.2323 H   0  0  0  0  0  0  0  0  0  0  0  0
  1  2  1  0  0  0  0
  1 30  1  0  0  0  0
  1 31  1  0  0  0  0
  2  3  2  0  0  0  0
  2  4  1  0  0  0  0
  4 28  1  0  0  0  0
  4  9  1  0  0  0  0
  4  5  1  0  0  0  0
  5  6  1  0  0  0  0
  5 32  1  0  0  0  0
  5 33  1  0  0  0  0
  6 29  1  0  0  0  0
  6  7  1  0  0  0  0
  6  8  1  0  0  0  0
  8  9  1  0  0  0  0
  8 34  1  0  0  0  0
  8 35  1  0  0  0  0
  9 10  1  0  0  0  0
 10 15  1  0  0  0  0
 10 11  2  0  0  0  0
 11 12  1  0  0  0  0
 12 13  2  0  0  0  0
 12 36  1  0  0  0  0
 13 14  1  0  0  0  0
 14 18  1  0  0  0  0
 14 15  2  0  0  0  0
 15 16  1  0  0  0  0
 16 17  2  0  0  0  0
 17 18  1  0  0  0  0
 17 37  1  0  0  0  0
 18 19  1  0  0  0  0
 19 20  1  0  0  0  0
 19 38  1  0  0  0  0
 19 39  1  0  0  0  0
 20 21  1  0  0  0  0
 20 23  1  0  0  0  0
 20 40  1  0  0  0  0
 21 22  1  0  0  0  0
 21 41  1  0  0  0  0
 21 42  1  0  0  0  0
 22 43  1  0  0  0  0
 23 27  1  0  0  0  0
 23 24  1  0  0  0  0
 23 44  1  0  0  0  0
 24 25  1  0  0  0  0
 24 45  1  0  0  0  0
 24 46  1  0  0  0  0
 25 26  1  0  0  0  0
 25 47  1  0  0  0  0
 25 48  1  0  0  0  0
 26 27  1  0  0  0  0
 27 49  1  0  0  0  0
 27 50  1  0  0  0  0
M  END
> <s_m_source_file>
AV-unprocessed.smi

> <i_m_source_file_index>
221

> <i_lp_mmshare_version>
43012

> <i_f3d_flags>
0

> <s_epik_input>
W05IMl1DKD1PKVtDQEBIXTFbQ0gyXVtDQEBIXShGKVtDSDJdTjFjKG5bY0hdbjIpYyhjMjMpbltjSF1uM1tDSDJdW0NASF0oW0NIMl1bT0hdKVtDQEBIXTRbQ0gyXVtDSDJdT1tDSDJdNA==

> <s_epik_cmdline>
J2VwaWtfcHl0aG9uJywgJy1waCcsICc3LjAnLCAnLXRuJywgJzgnLCAnLW1hJywgJzIwMCcsICctbWV0YWxfYmluZGluZycsICctaW1hZScsICc8aW5maWxlLm1hZT4nLCAnLW9tYWUnLCAnPG91dGZpbGUubWFlPic=

> <r_lp_tautomer_probability>
1

> <r_epik_Ionization_Penalty>
0.000818822

> <r_epik_Ionization_Penalty_Charging>
0

> <r_epik_Ionization_Penalty_Neutral>
0.000818822

> <r_epik_State_Penalty>
0.000440551

> <r_epik_Charging_Adjusted_Penalty>
0.000440551

> <i_epik_Tot_Q>
0

> <i_epik_Tot_abs_Q>
0

> <r_epik_Metal_State_Penalty>
-0

> <b_epik_Metal_Only>
0

> <s_lp_Force_Field>
OPLS_2005

> <r_lp_Energy>
48.2465

> <b_lp_Chiralities_Consistent>
1

> <s_lp_Variant>
AV-unprocessed.smi:221-8

> <Gold.Version>
5.8.1

> <Gold.Id.Protein>
6NUR|6NUR_protein|mol2

> <Gold.PLP.Fitness>
44.2621

> <Gold.PLP.PLP>
-31.3614

> <Gold.PLP.part.hbond>
-3.0000

> <Gold.PLP.part.metal>
0.0000

> <Gold.PLP.part.buried>
-5.7793

> <Gold.PLP.part.nonpolar>
-23.7790

> <Gold.PLP.part.repulsive>
0.5676

> <Gold.PLP.ligand.clash>
0.0000

> <Gold.PLP.ligand.torsion>
1.0998

> <Gold.PLP.Chemscore.Hbond>
2.9040

> <Gold.PLP.Chemscore.CHOScore>
2.0000

> <Gold.PLP.Chemscore.Metal>
0.0000

> <Gold.Chemscore.Hbonds>
donor molecule, donor type, donor heavy atom, donor atom, acceptor molecule, acceptor atom, score
      L1  H    22    43       P1  7957  1.00
      P1  H  7989  7998       L1    22  0.86
      P1  H  7997  8008       L1    26  1.00
      L1  C    12    36       P1 10171  1.00
      L1  C    12    36       P1 10175  1.00

> <Gold.PLP.Chemscore.Internal.Correction>
0.3884

> <Gold.Rescore>
     Score         DG    S(hbond)    S(metal)    S(lipo)     H(rot)  DE(clash)    DE(int)     intcor
      6.63     -11.66       2.26        0.00      60.86       3.31       0.15       4.89       ----

> <Gold.Chemscore.Fitness>
6.6260

> <Gold.Chemscore.DG>
-11.6629

> <Gold.Chemscore.ZeroCoef>
-5.4800

> <Gold.Chemscore.Hbond>
2.2555

> <Gold.Chemscore.Metal>
0.0000

> <Gold.Chemscore.Lipo>
60.8571

> <Gold.Chemscore.Internal_Hbond>
0.0000

> <Gold.Chemscore.DEClash>
0.1460

> <Gold.Chemscore.DEInternal>
4.8909

> <Gold.Chemscore.Rot>
3.3089

> <Gold.Chemscore.Internal.Correction>
   9.000000E+99

> <Gold.Chemscore.Hbonds>
donor molecule, donor type, donor heavy atom, donor atom, acceptor molecule, acceptor atom, score
      L1  H    22    43       P1  7957  0.94
      P1  H  7989  7998       L1    22  0.15
      P1  H  7997  8008       L1    26  0.24

> <Gold.Chemscore.Hbond.Weighted>
-7.5335

> <Gold.Chemscore.Metal.Weighted>
-0.0000

> <Gold.Chemscore.Lipo.Weighted>
-7.1203

> <Gold.Chemscore.Internal_Hbond.Weighted>
0.0000

> <Gold.Chemscore.DEClash.Weighted>
0.1460

> <Gold.Chemscore.DEInternal.Weighted>
4.8909

> <Gold.Chemscore.Rot.Weighted>
8.4709

> <Gold.Chemscore.Internal.Correction.Weighted>
   9.000000E+99

> <Gold.Protein.RotatedTorsions>
[ 6907 6896 6895 6894 ] final  -83.12 input  -60.11 | X-H torsion
[ 7974 7965 7964 7962 ] final  166.71 input  175.53 | X-H torsion
[ 8008 7997 7996 7995 ] final  -71.00 input   59.86 | X-H torsion
[ 10167 10162 10161 10158 ] final  -29.04 input  -65.29 | X-H torsion
[ 10718 10713 10712 10709 ] final   82.20 input   66.30 | X-H torsion
[ 10763 10752 10751 10750 ] final  106.58 input  -60.55 | X-H torsion
[ 11005 11000 10999 10996 ] final  177.41 input  -57.11 | X-H torsion

> <Gold.Protein.ActiveResidues>
 VAL166  LYS551  ARG553  GLY616  TRP617  ASP618  TYR619  PRO620  LYS621  CYS622 
 ASP623  PHE694  ASN695  SER759  ASP760  ASP761  ALA762  ILE779  LEU786  VAL792 
 PHE793  MET794  SER795  GLU796  ALA797  LYS798  CYS799  TRP800  GLU811  SER814 

> <Gold.Protein.RotatedAtoms>
  150.6889  134.3561  159.4929 H   0  0  0  0  0  0  0  0  0  0  0  0  # atno 6907 bound_to 6896
  152.1396  134.9070  160.0563 H   0  0  0  0  0  0  0  0  0  0  0  0  # atno 6908 bound_to 6896
  152.0209  133.3863  159.4295 H   0  0  0  0  0  0  0  0  0  0  0  0  # atno 6909 bound_to 6896
  144.7452  139.8655  143.6384 H   0  0  0  0  0  0  0  0  0  0  0  0  # atno 7974 bound_to 7965
  154.5054  140.0824  156.7884 H   0  0  0  0  0  0  0  0  0  0  0  0  # atno 8008 bound_to 7997
  155.3905  140.3432  155.4233 H   0  0  0  0  0  0  0  0  0  0  0  0  # atno 8009 bound_to 7997
  156.1509  140.1558  156.8759 H   0  0  0  0  0  0  0  0  0  0  0  0  # atno 8010 bound_to 7997
  140.7264  143.3961  151.1345 H   0  0  0  0  0  0  0  0  0  0  0  0  # atno 10167 bound_to 10162
  157.6851  131.0037  150.2339 H   0  0  0  0  0  0  0  0  0  0  0  0  # atno 10718 bound_to 10713
  153.3950  135.3872  155.1949 H   0  0  0  0  0  0  0  0  0  0  0  0  # atno 10763 bound_to 10752
  154.8723  135.3757  154.4690 H   0  0  0  0  0  0  0  0  0  0  0  0  # atno 10764 bound_to 10752
  153.5181  135.7087  153.5807 H   0  0  0  0  0  0  0  0  0  0  0  0  # atno 10765 bound_to 10752
  140.3838  134.6922  157.4467 H   0  0  0  0  0  0  0  0  0  0  0  0  # atno 11005 bound_to 11000
  146.1318  139.4355  143.0164 LP  0  0  0  0  0  0  0  0  0  0  0  0  # atno 17320 bound_to 7965
  145.7152  141.0093  143.1432 LP  0  0  0  0  0  0  0  0  0  0  0  0  # atno 17321 bound_to 7965
  139.7574  143.8687  152.3092 LP  0  0  0  0  0  0  0  0  0  0  0  0  # atno 17342 bound_to 10162
  139.8561  144.7140  150.9155 LP  0  0  0  0  0  0  0  0  0  0  0  0  # atno 17343 bound_to 10162
  156.2966  130.3753  149.7790 LP  0  0  0  0  0  0  0  0  0  0  0  0  # atno 17370 bound_to 10713
  156.5433  130.8309  151.3276 LP  0  0  0  0  0  0  0  0  0  0  0  0  # atno 17371 bound_to 10713
  140.0458  134.6202  155.8923 LP  0  0  0  0  0  0  0  0  0  0  0  0  # atno 17394 bound_to 11000
  141.1914  133.6571  156.5456 LP  0  0  0  0  0  0  0  0  0  0  0  0  # atno 17395 bound_to 11000

$$$$
