AV-unprocessed.smi:234|AV-procd|sdf|1800|dock5
  -GOLD-   2262020373D 1   1.00000     0.00000
 Structure written by MMmdl.
 59 62  0  0  0  0  0  0  0  0  1 V2000
  147.4683  136.6495  162.9745 C   0  0  0  0  0  0  0  0  0  0  0  0
  147.5700  136.2013  161.5150 C   0  0  0  0  0  0  0  0  0  0  0  0
  147.3323  137.3184  160.6747 O   0  0  0  0  0  0  0  0  0  0  0  0
  146.7958  136.9574  159.4114 C   0  0  1  0  0  0  0  0  0  0  0  0
  146.4357  138.1788  158.5674 C   0  0  0  0  0  0  0  0  0  0  0  0
  147.0117  137.4299  157.3499 C   0  0  2  0  0  0  0  0  0  0  0  0
  146.0455  136.6985  156.5102 N   0  0  0  0  0  0  0  0  0  0  0  0
  144.9582  135.9521  157.1273 C   0  0  0  0  0  0  0  0  0  0  0  0
  145.9636  136.8479  155.1696 C   0  0  0  0  0  0  0  0  0  0  0  0
  146.6053  137.8906  154.5842 N   0  0  0  0  0  0  0  0  0  0  0  0
  146.5297  138.0616  153.2608 C   0  0  0  0  0  0  0  0  0  0  0  0
  145.8690  137.3298  152.3606 N   0  0  0  0  0  0  0  0  0  0  0  0
  145.2078  136.2934  152.9518 C   0  0  0  0  0  0  0  0  0  0  0  0
  145.2006  135.9835  154.3398 C   0  0  0  0  0  0  0  0  0  0  0  0
  144.4168  134.8611  154.5750 N   0  0  0  0  0  0  0  0  0  0  0  0
  143.9894  134.5216  153.3893 C   0  0  0  0  0  0  0  0  0  0  0  0
  144.4066  135.3338  152.3579 N   0  0  0  0  0  0  0  0  0  0  0  0
  144.0745  135.1930  150.9479 C   0  0  0  0  0  0  0  0  0  0  0  0
  144.3077  133.7603  150.3997 C   0  0  2  0  0  0  0  0  0  0  0  0
  144.1007  133.7845  148.9975 O   0  0  0  0  0  0  0  0  0  0  0  0
  143.3580  132.7214  150.9947 C   0  0  0  0  0  0  0  0  0  0  0  0
  144.1872  131.4464  150.9890 C   0  0  0  0  0  0  0  0  0  0  0  0
  145.4700  131.9222  151.3536 O   0  0  0  0  0  0  0  0  0  0  0  0
  145.7112  133.1415  150.6579 C   0  0  2  0  0  0  0  0  0  0  0  0
  146.7020  133.9769  151.4837 C   0  0  0  0  0  0  0  0  0  0  0  0
  147.8380  136.5499  158.3388 C   0  0  0  0  0  0  0  0  0  0  0  0
  149.2657  137.0672  158.5668 C   0  0  0  0  0  0  0  0  0  0  0  0
  147.9726  135.0468  158.0651 C   0  0  0  0  0  0  0  0  0  0  0  0
  147.6409  135.8126  163.6514 H   0  0  0  0  0  0  0  0  0  0  0  0
  146.4808  137.0571  163.1910 H   0  0  0  0  0  0  0  0  0  0  0  0
  148.2065  137.4198  163.1982 H   0  0  0  0  0  0  0  0  0  0  0  0
  148.5588  135.7834  161.3256 H   0  0  0  0  0  0  0  0  0  0  0  0
  146.8373  135.4187  161.3136 H   0  0  0  0  0  0  0  0  0  0  0  0
  145.9542  136.2661  159.4852 H   0  0  0  0  0  0  0  0  0  0  0  0
  145.3779  138.4323  158.5626 H   0  0  0  0  0  0  0  0  0  0  0  0
  147.0314  139.0543  158.8294 H   0  0  0  0  0  0  0  0  0  0  0  0
  147.6500  138.0819  156.7526 H   0  0  0  0  0  0  0  0  0  0  0  0
  144.8821  134.9571  156.6877 H   0  0  0  0  0  0  0  0  0  0  0  0
  144.0047  136.4625  156.9896 H   0  0  0  0  0  0  0  0  0  0  0  0
  145.1289  135.8357  158.1978 H   0  0  0  0  0  0  0  0  0  0  0  0
  147.0757  138.9063  152.8670 H   0  0  0  0  0  0  0  0  0  0  0  0
  143.3478  133.6663  153.2345 H   0  0  0  0  0  0  0  0  0  0  0  0
  143.0340  135.4911  150.8111 H   0  0  0  0  0  0  0  0  0  0  0  0
  144.6779  135.9140  150.3962 H   0  0  0  0  0  0  0  0  0  0  0  0
  144.7253  134.3798  148.6121 H   0  0  0  0  0  0  0  0  0  0  0  0
  143.1238  132.9756  152.0291 H   0  0  0  0  0  0  0  0  0  0  0  0
  142.4143  132.6226  150.4558 H   0  0  0  0  0  0  0  0  0  0  0  0
  143.8191  130.6986  151.6917 H   0  0  0  0  0  0  0  0  0  0  0  0
  144.2239  131.0022  149.9930 H   0  0  0  0  0  0  0  0  0  0  0  0
  146.1896  132.8827  149.7112 H   0  0  0  0  0  0  0  0  0  0  0  0
  146.9305  134.9229  150.9927 H   0  0  0  0  0  0  0  0  0  0  0  0
  147.6426  133.4403  151.6094 H   0  0  0  0  0  0  0  0  0  0  0  0
  146.3150  134.1912  152.4799 H   0  0  0  0  0  0  0  0  0  0  0  0
  149.8898  136.9130  157.6861 H   0  0  0  0  0  0  0  0  0  0  0  0
  149.7509  136.5629  159.4028 H   0  0  0  0  0  0  0  0  0  0  0  0
  149.2820  138.1349  158.7863 H   0  0  0  0  0  0  0  0  0  0  0  0
  148.5053  134.8552  157.1333 H   0  0  0  0  0  0  0  0  0  0  0  0
  147.0032  134.5550  157.9970 H   0  0  0  0  0  0  0  0  0  0  0  0
  148.5213  134.5406  158.8596 H   0  0  0  0  0  0  0  0  0  0  0  0
  1  2  1  0  0  0  0
  1 29  1  0  0  0  0
  1 30  1  0  0  0  0
  1 31  1  0  0  0  0
  2  3  1  0  0  0  0
  2 32  1  0  0  0  0
  2 33  1  0  0  0  0
  3  4  1  0  0  0  0
  4 26  1  0  0  0  0
  4  5  1  0  0  0  0
  4 34  1  0  0  0  0
  5  6  1  0  0  0  0
  5 35  1  0  0  0  0
  5 36  1  0  0  0  0
  6  7  1  0  0  0  0
  6 26  1  0  0  0  0
  6 37  1  0  0  0  0
  7  8  1  0  0  0  0
  7  9  1  0  0  0  0
  8 38  1  0  0  0  0
  8 39  1  0  0  0  0
  8 40  1  0  0  0  0
  9 14  1  0  0  0  0
  9 10  2  0  0  0  0
 10 11  1  0  0  0  0
 11 12  2  0  0  0  0
 11 41  1  0  0  0  0
 12 13  1  0  0  0  0
 13 17  1  0  0  0  0
 13 14  2  0  0  0  0
 14 15  1  0  0  0  0
 15 16  2  0  0  0  0
 16 17  1  0  0  0  0
 16 42  1  0  0  0  0
 17 18  1  0  0  0  0
 18 19  1  0  0  0  0
 18 43  1  0  0  0  0
 18 44  1  0  0  0  0
 19 24  1  0  0  0  0
 19 20  1  0  0  0  0
 19 21  1  0  0  0  0
 20 45  1  0  0  0  0
 21 22  1  0  0  0  0
 21 46  1  0  0  0  0
 21 47  1  0  0  0  0
 22 23  1  0  0  0  0
 22 48  1  0  0  0  0
 22 49  1  0  0  0  0
 23 24  1  0  0  0  0
 24 25  1  0  0  0  0
 24 50  1  0  0  0  0
 25 51  1  0  0  0  0
 25 52  1  0  0  0  0
 25 53  1  0  0  0  0
 26 27  1  0  0  0  0
 26 28  1  0  0  0  0
 27 54  1  0  0  0  0
 27 55  1  0  0  0  0
 27 56  1  0  0  0  0
 28 57  1  0  0  0  0
 28 58  1  0  0  0  0
 28 59  1  0  0  0  0
M  END
> <s_m_source_file>
AV-unprocessed.smi

> <i_m_source_file_index>
234

> <i_lp_mmshare_version>
43012

> <i_f3d_flags>
0

> <s_epik_input>
W0NIM11bQ0gyXU9bQ0BASF0oQzEoW0NIM10pW0NIM10pW0NIMl1bQ0BIXTFOKFtDSDNdKWMobltjSF1uMiljKGMyMyluW2NIXW4zW0NIMl1bQ0BAXTQoW09IXSlbQ0gyXVtDSDJdT1tDQEhdNFtDSDNd

> <s_epik_cmdline>
J2VwaWtfcHl0aG9uJywgJy1waCcsICc3LjAnLCAnLXRuJywgJzgnLCAnLW1hJywgJzIwMCcsICctbWV0YWxfYmluZGluZycsICctaW1hZScsICc8aW5maWxlLm1hZT4nLCAnLW9tYWUnLCAnPG91dGZpbGUubWFlPic=

> <r_lp_tautomer_probability>
1

> <r_epik_Ionization_Penalty>
0.00349132

> <r_epik_Ionization_Penalty_Charging>
0

> <r_epik_Ionization_Penalty_Neutral>
0.00349132

> <r_epik_State_Penalty>
0.00242418

> <r_epik_Charging_Adjusted_Penalty>
0.00242418

> <i_epik_Tot_Q>
0

> <i_epik_Tot_abs_Q>
0

> <r_epik_Metal_State_Penalty>
-0

> <b_epik_Metal_Only>
0

> <s_lp_Force_Field>
OPLS_2005

> <r_lp_Energy>
53.0859

> <b_lp_Chiralities_Consistent>
1

> <s_lp_Variant>
AV-unprocessed.smi:234-16

> <Gold.Version>
5.8.1

> <Gold.Id.Protein>
6NUR|6NUR_protein|mol2

> <Gold.PLP.Fitness>
42.9755

> <Gold.PLP.PLP>
-34.5952

> <Gold.PLP.part.hbond>
-3.1580

> <Gold.PLP.part.metal>
0.0000

> <Gold.PLP.part.buried>
-6.3923

> <Gold.PLP.part.nonpolar>
-25.6953

> <Gold.PLP.part.repulsive>
0.5139

> <Gold.PLP.ligand.clash>
0.0000

> <Gold.PLP.ligand.torsion>
0.8023

> <Gold.PLP.Chemscore.Hbond>
2.1161

> <Gold.PLP.Chemscore.CHOScore>
0.9950

> <Gold.PLP.Chemscore.Metal>
0.0000

> <Gold.Chemscore.Hbonds>
donor molecule, donor type, donor heavy atom, donor atom, acceptor molecule, acceptor atom, score
      L1  H    20    45       P1  7921  1.00
      P1  H  6931  6943       L1     3  0.05
      P1  H  6934  6947       L1     3  1.00
      L1  C    16    42       P1 10957  0.97

> <Gold.PLP.Chemscore.Internal.Correction>
0.6518

> <Gold.Rescore>
     Score         DG    S(hbond)    S(metal)    S(lipo)     H(rot)  DE(clash)    DE(int)     intcor
      9.96     -15.07       1.96        0.00      77.68       2.37       0.01       5.10       ----

> <Gold.Chemscore.Fitness>
9.9602

> <Gold.Chemscore.DG>
-15.0685

> <Gold.Chemscore.ZeroCoef>
-5.4800

> <Gold.Chemscore.Hbond>
1.9643

> <Gold.Chemscore.Metal>
0.0000

> <Gold.Chemscore.Lipo>
77.6819

> <Gold.Chemscore.Internal_Hbond>
0.0000

> <Gold.Chemscore.DEClash>
0.0098

> <Gold.Chemscore.DEInternal>
5.0985

> <Gold.Chemscore.Rot>
2.3676

> <Gold.Chemscore.Internal.Correction>
   9.000000E+99

> <Gold.Chemscore.Hbonds>
donor molecule, donor type, donor heavy atom, donor atom, acceptor molecule, acceptor atom, score
      L1  H    20    45       P1  7921  0.98
      P1  H  6934  6947       L1     3  0.73

> <Gold.Chemscore.Hbond.Weighted>
-6.5607

> <Gold.Chemscore.Metal.Weighted>
-0.0000

> <Gold.Chemscore.Lipo.Weighted>
-9.0888

> <Gold.Chemscore.Internal_Hbond.Weighted>
0.0000

> <Gold.Chemscore.DEClash.Weighted>
0.0098

> <Gold.Chemscore.DEInternal.Weighted>
5.0985

> <Gold.Chemscore.Rot.Weighted>
6.0610

> <Gold.Chemscore.Internal.Correction.Weighted>
   9.000000E+99

> <Gold.Protein.RotatedTorsions>
[ 6907 6896 6895 6894 ] final  -22.58 input  -60.11 | X-H torsion
[ 7974 7965 7964 7962 ] final   50.40 input  175.53 | X-H torsion
[ 8008 7997 7996 7995 ] final -123.16 input   59.86 | X-H torsion
[ 10167 10162 10161 10158 ] final  -30.31 input  -65.29 | X-H torsion
[ 10718 10713 10712 10709 ] final -104.93 input   66.30 | X-H torsion
[ 10763 10752 10751 10750 ] final   82.58 input  -60.55 | X-H torsion
[ 11005 11000 10999 10996 ] final   99.52 input  -57.11 | X-H torsion

> <Gold.Protein.ActiveResidues>
 VAL166  LYS551  ARG553  GLY616  TRP617  ASP618  TYR619  PRO620  LYS621  CYS622 
 ASP623  PHE694  ASN695  SER759  ASP760  ASP761  ALA762  ILE779  LEU786  VAL792 
 PHE793  MET794  SER795  GLU796  ALA797  LYS798  CYS799  TRP800  GLU811  SER814 

> <Gold.Protein.RotatedAtoms>
  151.2165  135.0502  159.8932 H   0  0  0  0  0  0  0  0  0  0  0  0  # atno 6907 bound_to 6896
  152.5419  134.0687  159.8194 H   0  0  0  0  0  0  0  0  0  0  0  0  # atno 6908 bound_to 6896
  151.0847  133.5314  159.2650 H   0  0  0  0  0  0  0  0  0  0  0  0  # atno 6909 bound_to 6896
  146.0016  139.4445  143.0012 H   0  0  0  0  0  0  0  0  0  0  0  0  # atno 7974 bound_to 7965
  155.1760  140.0409  157.2872 H   0  0  0  0  0  0  0  0  0  0  0  0  # atno 8008 bound_to 7997
  154.6236  140.2507  155.7491 H   0  0  0  0  0  0  0  0  0  0  0  0  # atno 8009 bound_to 7997
  156.2447  140.2890  156.0556 H   0  0  0  0  0  0  0  0  0  0  0  0  # atno 8010 bound_to 7997
  140.7251  143.3859  151.1516 H   0  0  0  0  0  0  0  0  0  0  0  0  # atno 10167 bound_to 10162
  156.0325  130.5539  150.7467 H   0  0  0  0  0  0  0  0  0  0  0  0  # atno 10718 bound_to 10713
  153.1215  135.4723  154.9203 H   0  0  0  0  0  0  0  0  0  0  0  0  # atno 10763 bound_to 10752
  154.7580  135.3123  154.8436 H   0  0  0  0  0  0  0  0  0  0  0  0  # atno 10764 bound_to 10752
  153.8999  135.6876  153.4809 H   0  0  0  0  0  0  0  0  0  0  0  0  # atno 10765 bound_to 10752
  139.8771  134.9099  156.4618 H   0  0  0  0  0  0  0  0  0  0  0  0  # atno 11005 bound_to 11000
  145.7479  140.9983  143.1266 LP  0  0  0  0  0  0  0  0  0  0  0  0  # atno 17320 bound_to 7965
  144.6921  139.9179  143.7466 LP  0  0  0  0  0  0  0  0  0  0  0  0  # atno 17321 bound_to 7965
  139.7456  143.8857  152.3062 LP  0  0  0  0  0  0  0  0  0  0  0  0  # atno 17342 bound_to 10162
  139.8693  144.7076  150.9006 LP  0  0  0  0  0  0  0  0  0  0  0  0  # atno 17343 bound_to 10162
  157.5022  131.0919  151.0300 LP  0  0  0  0  0  0  0  0  0  0  0  0  # atno 17370 bound_to 10713
  157.0678  130.5852  149.5397 LP  0  0  0  0  0  0  0  0  0  0  0  0  # atno 17371 bound_to 10713
  140.8859  133.7884  155.9517 LP  0  0  0  0  0  0  0  0  0  0  0  0  # atno 17394 bound_to 11000
  140.8805  134.2617  157.5146 LP  0  0  0  0  0  0  0  0  0  0  0  0  # atno 17395 bound_to 11000

$$$$
