#       Name:                AV-unprocessed.smi:1239
#       Creating user name   scv26
#       Creation time:       Fri Mar 27 04:27:22 2020


#       File generated by GOLD software.
#

@<TRIPOS>MOLECULE
AV-unprocessed.smi:1239
    53    54     1
SMALL
NO_CHARGES


@<TRIPOS>ATOM
      1 ****        -1.6732   2.3997  -2.1616 C.3            1 S1                 0.0000
      2 ****        -2.3800   1.3117  -1.3169 C.3            1 S1                 0.0000
      3 ****        -1.9607  -0.0989  -1.8098 C.3            1 S1                 0.0000
      4 ****        -0.5179  -0.3196  -1.7514 N.am           1 S1                 0.0000
      5 ****         0.1669  -0.5967  -0.6327 C.2            1 S1                 0.0000
      6 ****        -0.3598  -0.6842   0.4762 O.2            1 S1                 0.0000
      7 ****         1.4800  -0.7402  -0.8832 N.am           1 S1                 0.0000
      8 ****         2.5217  -1.0739   0.0251 C.ar           1 S1                 0.0000
      9 ****         3.8497  -0.8015  -0.3647 C.ar           1 S1                 0.0000
     10 ****         4.9164  -1.1300   0.4969 C.ar           1 S1                 0.0000
     11 ****         4.6507  -1.7419   1.7465 C.ar           1 S1                 0.0000
     12 ****         5.6629  -2.1011   2.6630 N.pl3          1 S1                 0.0000
     13 ****         5.3052  -2.7420   3.9237 C.3            1 S1                 0.0000
     14 ****         7.0609  -1.8605   2.3302 C.3            1 S1                 0.0000
     15 ****         3.3593  -1.9958   2.0711 N.pl3          1 S1                 1.0000
     16 ****         2.3081  -1.6961   1.2781 C.ar           1 S1                 0.0000
     17 ****        -3.8747   1.4368  -1.3077 N.4            1 S1                 1.0000
     18 ****        -4.4975   0.7225  -0.1595 C.3            1 S1                 0.0000
     19 ****        -6.0314   0.7919  -0.2289 C.3            1 S1                 0.0000
     20 ****        -6.4426   2.1508  -0.2446 O.3            1 S1                 0.0000
     21 ****        -5.9441   2.8328  -1.3859 C.3            1 S1                 0.0000
     22 ****        -4.4056   2.8268  -1.3710 C.3            1 S1                 0.0000
     23 ****        -0.5918   2.2654  -2.1697 H              1 S1                 0.0000
     24 ****        -1.8406   3.4004  -1.7630 H              1 S1                 0.0000
     25 ****        -2.0111   2.3826  -3.1984 H              1 S1                 0.0000
     26 ****        -2.0370   1.4428  -0.2893 H              1 S1                 0.0000
     27 ****        -2.4465  -0.8924  -1.2430 H              1 S1                 0.0000
     28 ****        -2.2779  -0.2350  -2.8441 H              1 S1                 0.0000
     29 ****        -0.0103  -0.2602  -2.6225 H              1 S1                 0.0000
     30 ****         1.7742  -0.5568  -1.8314 H              1 S1                 0.0000
     31 ****         4.0555  -0.3377  -1.3185 H              1 S1                 0.0000
     32 ****         5.9244  -0.9073   0.1814 H              1 S1                 0.0000
     33 ****         4.8028  -3.6926   3.7413 H              1 S1                 0.0000
     34 ****         4.6389  -2.1025   4.5039 H              1 S1                 0.0000
     35 ****         6.1872  -2.9422   4.5323 H              1 S1                 0.0000
     36 ****         7.2425  -0.7952   2.1852 H              1 S1                 0.0000
     37 ****         7.3338  -2.3889   1.4163 H              1 S1                 0.0000
     38 ****         7.7231  -2.2063   3.1242 H              1 S1                 0.0000
     39 ****         1.3463  -1.9794   1.6781 H              1 S1                 0.0000
     40 ****        -4.2001  -0.3241  -0.1360 H              1 S1                 0.0000
     41 ****        -4.1531   1.1671   0.7757 H              1 S1                 0.0000
     42 ****        -6.4084   0.2703  -1.1101 H              1 S1                 0.0000
     43 ****        -6.4680   0.3021   0.6418 H              1 S1                 0.0000
     44 ****        -6.3263   2.3705  -2.2976 H              1 S1                 0.0000
     45 ****        -6.3140   3.8580  -1.3719 H              1 S1                 0.0000
     46 ****        -4.0371   3.3997  -0.5185 H              1 S1                 0.0000
     47 ****        -4.0699   3.3317  -2.2763 H              1 S1                 0.0000
     48 ****         3.1679  -2.4434   2.9676 H              1 S1                 0.0000
     49 ****        -4.2011   0.9823  -2.1488 H              1 S1                 0.0000
     50 ****        -1.3453  -0.5461   0.5739 LP             1 S1                 0.0000
     51 ****         0.1979  -0.8934   1.2795 LP             1 S1                 0.0000
     52 ****        -6.1007   2.6032   0.5791 LP             1 S1                 0.0000
     53 ****        -7.4418   2.1877  -0.2549 LP             1 S1                 0.0000
@<TRIPOS>BOND
    1    1    2 1     
    2    1   23 1     
    3    1   24 1     
    4    1   25 1     
    5    2    3 1     
    6    2   17 1     
    7    2   26 1     
    8    3    4 1     
    9    3   27 1     
   10    3   28 1     
   11    4    5 am    
   12    4   29 1     
   13    5    6 2     
   14    5    7 am    
   15    7    8 1     
   16    7   30 1     
   17    8   16 ar    
   18    8    9 ar    
   19    9   10 ar    
   20    9   31 1     
   21   10   11 ar    
   22   10   32 1     
   23   11   12 1     
   24   11   15 ar    
   25   12   13 1     
   26   12   14 1     
   27   13   33 1     
   28   13   34 1     
   29   13   35 1     
   30   14   36 1     
   31   14   37 1     
   32   14   38 1     
   33   15   16 ar    
   34   15   48 1     
   35   16   39 1     
   36   17   22 1     
   37   17   18 1     
   38   17   49 1     
   39   18   19 1     
   40   18   40 1     
   41   18   41 1     
   42   19   20 1     
   43   19   42 1     
   44   19   43 1     
   45   20   21 1     
   46   21   22 1     
   47   21   44 1     
   48   21   45 1     
   49   22   46 1     
   50   22   47 1     
   51    6   50 1     
   52    6   51 1     
   53   20   52 1     
   54   20   53 1     
@<TRIPOS>SUBSTRUCTURE
      1 S1             1
@<TRIPOS>SET
LONE_PAIRS      STATIC     ATOMS    <user>   **** ""
4 50 51 52 53
DONOR_HYDROGENS      STATIC     ATOMS    <user>   **** ""
4 29 30 48 49
ATOM$BLUE        STATIC     ATOMS    COLORGROUP SYSTEM
4 50 51 52 53
ATOM$RED        STATIC     ATOMS    COLORGROUP SYSTEM
4 29 30 48 49
