AV-unprocessed.smi:3112|AV-procd|sdf|11842|dock9
  -GOLD-   2272017223D 1   1.00000     0.00000
 Structure written by MMmdl.
 37 37  0  0  0  0  0  0  0  0  2 V2000
  152.1570  144.0528  160.5812 C   0  0  0  0  0  0  0  0  0  0  0  0
  152.2080  144.8706  159.2833 C   0  0  0  0  0  0  0  0  0  0  0  0
  151.0420  144.5708  158.3233 C   0  0  2  0  0  0  0  0  0  0  0  0
  149.8232  144.6944  159.0301 O   0  0  0  0  0  0  0  0  0  0  0  0
  151.1243  143.1476  157.7463 C   0  0  0  0  0  0  0  0  0  0  0  0
  149.7931  142.6679  157.3168 N   0  3  0  0  0  0  0  0  0  0  0  0
  149.7873  141.3866  156.5739 C   0  0  1  0  0  0  0  0  0  0  0  0
  149.8561  141.6540  155.0553 C   0  0  0  0  0  0  0  0  0  0  0  0
  150.9421  140.4845  157.0832 C   0  0  1  0  0  0  0  0  0  0  0  0
  150.5651  139.7020  158.3554 C   0  0  0  0  0  0  0  0  0  0  0  0
  151.4104  139.5613  156.0563 N   0  0  0  0  0  0  0  0  0  0  0  0
  150.6770  138.6832  155.2824 C   0  0  0  0  0  0  0  0  0  0  0  0
  151.5511  138.0408  154.4534 C   0  0  0  0  0  0  0  0  0  0  0  0
  152.8137  138.6003  154.7950 C   0  0  0  0  0  0  0  0  0  0  0  0
  152.7258  139.5101  155.7517 N   0  0  0  0  0  0  0  0  0  0  0  0
  152.9777  144.3283  161.2440 H   0  0  0  0  0  0  0  0  0  0  0  0
  152.2391  142.9838  160.3835 H   0  0  0  0  0  0  0  0  0  0  0  0
  151.2243  144.2246  161.1195 H   0  0  0  0  0  0  0  0  0  0  0  0
  152.1908  145.9288  159.5471 H   0  0  0  0  0  0  0  0  0  0  0  0
  153.1610  144.6998  158.7807 H   0  0  0  0  0  0  0  0  0  0  0  0
  151.0516  145.2964  157.5083 H   0  0  0  0  0  0  0  0  0  0  0  0
  149.1251  144.8271  158.4061 H   0  0  0  0  0  0  0  0  0  0  0  0
  151.7850  143.1427  156.8783 H   0  0  0  0  0  0  0  0  0  0  0  0
  151.5592  142.4695  158.4809 H   0  0  0  0  0  0  0  0  0  0  0  0
  149.1961  142.5799  158.1270 H   0  0  0  0  0  0  0  0  0  0  0  0
  148.8475  140.8734  156.7850 H   0  0  0  0  0  0  0  0  0  0  0  0
  149.7749  140.7338  154.4769 H   0  0  0  0  0  0  0  0  0  0  0  0
  150.7973  142.1333  154.7829 H   0  0  0  0  0  0  0  0  0  0  0  0
  149.0468  142.3014  154.7191 H   0  0  0  0  0  0  0  0  0  0  0  0
  151.7821  141.1336  157.3397 H   0  0  0  0  0  0  0  0  0  0  0  0
  150.3190  140.3707  159.1803 H   0  0  0  0  0  0  0  0  0  0  0  0
  151.3928  139.0739  158.6867 H   0  0  0  0  0  0  0  0  0  0  0  0
  149.7044  139.0540  158.1873 H   0  0  0  0  0  0  0  0  0  0  0  0
  149.6058  138.5898  155.3839 H   0  0  0  0  0  0  0  0  0  0  0  0
  151.3234  137.2866  153.7148 H   0  0  0  0  0  0  0  0  0  0  0  0
  153.7843  138.3746  154.3782 H   0  0  0  0  0  0  0  0  0  0  0  0
  149.4038  143.3757  156.7105 H   0  0  0  0  0  0  0  0  0  0  0  0
  1  2  1  0  0  0  0
  1 16  1  0  0  0  0
  1 17  1  0  0  0  0
  1 18  1  0  0  0  0
  2  3  1  0  0  0  0
  2 19  1  0  0  0  0
  2 20  1  0  0  0  0
  3  4  1  0  0  0  0
  3  5  1  0  0  0  0
  3 21  1  0  0  0  0
  4 22  1  0  0  0  0
  5  6  1  0  0  0  0
  5 23  1  0  0  0  0
  5 24  1  0  0  0  0
  6  7  1  0  0  0  0
  6 25  1  0  0  0  0
  6 37  1  0  0  0  0
  7  8  1  0  0  0  0
  7  9  1  0  0  0  0
  7 26  1  0  0  0  0
  8 27  1  0  0  0  0
  8 28  1  0  0  0  0
  8 29  1  0  0  0  0
  9 10  1  0  0  0  0
  9 11  1  0  0  0  0
  9 30  1  0  0  0  0
 10 31  1  0  0  0  0
 10 32  1  0  0  0  0
 10 33  1  0  0  0  0
 11 15  1  0  0  0  0
 11 12  1  0  0  0  0
 12 13  2  0  0  0  0
 12 34  1  0  0  0  0
 13 14  1  0  0  0  0
 13 35  1  0  0  0  0
 14 15  2  0  0  0  0
 14 36  1  0  0  0  0
M  CHG  1   6   1
M  END
> <s_m_source_file>
AV-unprocessed.smi

> <i_m_source_file_index>
3112

> <i_lp_mmshare_version>
43012

> <i_f3d_flags>
0

> <s_epik_input>
W0NIM11bQ0gyXVtDQEhdKFtPSF0pW0NIMl1bTkhdW0NASF0oW0NIM10pW0NASF0oW0NIM10pbjFbY0hdW2NIXVtjSF1uMQ==

> <s_epik_cmdline>
J2VwaWtfcHl0aG9uJywgJy1waCcsICc3LjAnLCAnLXRuJywgJzgnLCAnLW1hJywgJzIwMCcsICctbWV0YWxfYmluZGluZycsICctaW1hZScsICc8aW5maWxlLm1hZT4nLCAnLW9tYWUnLCAnPG91dGZpbGUubWFlPic=

> <r_lp_tautomer_probability>
1

> <r_epik_Ionization_Penalty>
0.0154842

> <r_epik_Ionization_Penalty_Charging>
0.0154724

> <r_epik_Ionization_Penalty_Neutral>
1.17979e-05

> <r_epik_State_Penalty>
0.0121607

> <r_epik_Charging_Adjusted_Penalty>
0.0276331

> <i_epik_Tot_Q>
1

> <i_epik_Tot_abs_Q>
1

> <r_epik_Metal_State_Penalty>
0.0121863

> <b_epik_Metal_Only>
0

> <s_lp_Force_Field>
OPLS_2005

> <r_lp_Energy>
13.0446

> <b_lp_Chiralities_Consistent>
1

> <s_lp_Variant>
AV-unprocessed.smi:3112-7

> <Gold.Version>
5.8.1

> <Gold.Id.Protein>
6NUR|6NUR_protein|mol2

> <Gold.PLP.Fitness>
45.8313

> <Gold.PLP.PLP>
-36.7559

> <Gold.PLP.part.hbond>
-3.0000

> <Gold.PLP.part.metal>
0.0000

> <Gold.PLP.part.buried>
-4.3656

> <Gold.PLP.part.nonpolar>
-29.6747

> <Gold.PLP.part.repulsive>
0.0186

> <Gold.PLP.ligand.clash>
0.0000

> <Gold.PLP.ligand.torsion>
1.5305

> <Gold.PLP.Chemscore.Hbond>
4.0000

> <Gold.PLP.Chemscore.CHOScore>
0.0000

> <Gold.PLP.Chemscore.Metal>
0.0000

> <Gold.Chemscore.Hbonds>
donor molecule, donor type, donor heavy atom, donor atom, acceptor molecule, acceptor atom, score
      L1  H     4    22       P1  8029  1.00
      L1  H     6    37       P1  8028  2.00
      P1  H  7997  8009       L1    15  1.00

> <Gold.PLP.Chemscore.Internal.Correction>
0.1364

> <Gold.Rescore>
     Score         DG    S(hbond)    S(metal)    S(lipo)     H(rot)  DE(clash)    DE(int)     intcor
     17.57     -19.24       2.65        0.00      94.56       2.41       0.56       1.11       ----

> <Gold.Chemscore.Fitness>
17.5695

> <Gold.Chemscore.DG>
-19.2424

> <Gold.Chemscore.ZeroCoef>
-5.4800

> <Gold.Chemscore.Hbond>
2.6542

> <Gold.Chemscore.Metal>
0.0000

> <Gold.Chemscore.Lipo>
94.5648

> <Gold.Chemscore.Internal_Hbond>
0.0000

> <Gold.Chemscore.DEClash>
0.5642

> <Gold.Chemscore.DEInternal>
1.1088

> <Gold.Chemscore.Rot>
2.4089

> <Gold.Chemscore.Internal.Correction>
   9.000000E+99

> <Gold.Chemscore.Hbonds>
donor molecule, donor type, donor heavy atom, donor atom, acceptor molecule, acceptor atom, score
      L1  H     4    22       P1  8029  0.61
      L1  H     6    37       P1  8028  0.99
      P1  H  7997  8009       L1    15  0.82

> <Gold.Chemscore.Hbond.Weighted>
-8.8650

> <Gold.Chemscore.Metal.Weighted>
-0.0000

> <Gold.Chemscore.Lipo.Weighted>
-11.0641

> <Gold.Chemscore.Internal_Hbond.Weighted>
0.0000

> <Gold.Chemscore.DEClash.Weighted>
0.5642

> <Gold.Chemscore.DEInternal.Weighted>
1.1088

> <Gold.Chemscore.Rot.Weighted>
6.1667

> <Gold.Chemscore.Internal.Correction.Weighted>
   9.000000E+99

> <Gold.Protein.RotatedTorsions>
[ 6907 6896 6895 6894 ] final  165.82 input  -60.11 | X-H torsion
[ 7974 7965 7964 7962 ] final   26.64 input  175.53 | X-H torsion
[ 8008 7997 7996 7995 ] final -156.75 input   59.86 | X-H torsion
[ 10167 10162 10161 10158 ] final  -14.67 input  -65.29 | X-H torsion
[ 10718 10713 10712 10709 ] final  -46.53 input   66.30 | X-H torsion
[ 10763 10752 10751 10750 ] final  -15.26 input  -60.55 | X-H torsion
[ 11005 11000 10999 10996 ] final  169.21 input  -57.11 | X-H torsion

> <Gold.Protein.ActiveResidues>
 VAL166  LYS551  ARG553  GLY616  TRP617  ASP618  TYR619  PRO620  LYS621  CYS622 
 ASP623  PHE694  ASN695  SER759  ASP760  ASP761  ALA762  ILE779  LEU786  VAL792 
 PHE793  MET794  SER795  GLU796  ALA797  LYS798  CYS799  TRP800  GLU811  SER814 

> <Gold.Protein.RotatedAtoms>
  151.8885  133.3511  159.3790 H   0  0  0  0  0  0  0  0  0  0  0  0  # atno 6907 bound_to 6896
  150.7109  134.4947  159.5542 H   0  0  0  0  0  0  0  0  0  0  0  0  # atno 6908 bound_to 6896
  152.2513  134.8130  160.0496 H   0  0  0  0  0  0  0  0  0  0  0  0  # atno 6909 bound_to 6896
  146.1827  139.7300  142.8889 H   0  0  0  0  0  0  0  0  0  0  0  0  # atno 7974 bound_to 7965
  155.7219  140.0791  157.2327 H   0  0  0  0  0  0  0  0  0  0  0  0  # atno 8008 bound_to 7997
  154.4044  140.1611  156.2466 H   0  0  0  0  0  0  0  0  0  0  0  0  # atno 8009 bound_to 7997
  155.9188  140.3399  155.6159 H   0  0  0  0  0  0  0  0  0  0  0  0  # atno 8010 bound_to 7997
  140.7205  143.5297  150.9535 H   0  0  0  0  0  0  0  0  0  0  0  0  # atno 10167 bound_to 10162
  156.2173  130.4164  149.9037 H   0  0  0  0  0  0  0  0  0  0  0  0  # atno 10718 bound_to 10713
  153.5406  135.7013  153.5638 H   0  0  0  0  0  0  0  0  0  0  0  0  # atno 10763 bound_to 10752
  153.3606  135.3971  155.1715 H   0  0  0  0  0  0  0  0  0  0  0  0  # atno 10764 bound_to 10752
  154.8674  135.3787  154.4910 H   0  0  0  0  0  0  0  0  0  0  0  0  # atno 10765 bound_to 10752
  140.2953  134.7639  157.3872 H   0  0  0  0  0  0  0  0  0  0  0  0  # atno 11005 bound_to 11000
  145.4030  141.0387  143.3060 LP  0  0  0  0  0  0  0  0  0  0  0  0  # atno 17320 bound_to 7965
  144.8342  139.5577  143.6930 LP  0  0  0  0  0  0  0  0  0  0  0  0  # atno 17321 bound_to 7965
  139.9017  143.6828  152.3130 LP  0  0  0  0  0  0  0  0  0  0  0  0  # atno 17342 bound_to 10162
  139.7180  144.7608  151.1003 LP  0  0  0  0  0  0  0  0  0  0  0  0  # atno 17343 bound_to 10162
  156.6695  130.8814  151.3560 LP  0  0  0  0  0  0  0  0  0  0  0  0  # atno 17370 bound_to 10713
  157.7070  130.9396  150.0962 LP  0  0  0  0  0  0  0  0  0  0  0  0  # atno 17371 bound_to 10713
  140.1158  134.5285  155.8226 LP  0  0  0  0  0  0  0  0  0  0  0  0  # atno 17394 bound_to 11000
  141.2138  133.6739  156.6774 LP  0  0  0  0  0  0  0  0  0  0  0  0  # atno 17395 bound_to 11000

$$$$
