AV-unprocessed.smi:2561|AV-procd|sdf|10040|dock8
  -GOLD-   2272014 83D 1   1.00000     0.00000
 Structure written by MMmdl.
 32 33  0  0  0  0  0  0  0  0  1 V2000
  146.5651  138.7384  151.7974 C   0  0  0  0  0  0  0  0  0  0  0  0
  147.8193  138.6986  152.5339 N   0  0  0  0  0  0  0  0  0  0  0  0
  148.1567  139.5703  153.4931 C   0  0  0  0  0  0  0  0  0  0  0  0
  147.4331  140.5016  153.8455 O   0  0  0  0  0  0  0  0  0  0  0  0
  149.3760  139.2994  153.9899 N   0  0  0  0  0  0  0  0  0  0  0  0
  150.0896  139.9878  155.0080 C   0  0  0  0  0  0  0  0  0  0  0  0
  151.2166  139.4644  155.6853 C   0  0  0  0  0  0  0  0  0  0  0  0
  151.8479  140.2532  156.6661 C   0  0  0  0  0  0  0  0  0  0  0  0
  151.3433  141.5422  156.9343 C   0  0  0  0  0  0  0  0  0  0  0  0
  151.9738  142.3244  157.9139 N   0  0  0  0  0  0  0  0  0  0  0  0
  151.5065  143.6973  158.0160 C   0  0  0  0  0  0  0  0  0  0  0  0
  152.0357  144.2085  159.3582 C   0  0  0  0  0  0  0  0  0  0  0  0
  152.2953  142.9438  160.1858 C   0  0  0  0  0  0  0  0  0  0  0  0
  151.9150  141.7836  159.2618 C   0  0  0  0  0  0  0  0  0  0  0  0
  150.2730  142.0536  156.2804 N   0  0  0  0  0  0  0  0  0  0  0  0
  149.6719  141.2926  155.3418 C   0  0  0  0  0  0  0  0  0  0  0  0
  146.5327  137.9239  151.0738 H   0  0  0  0  0  0  0  0  0  0  0  0
  146.4617  139.6799  151.2562 H   0  0  0  0  0  0  0  0  0  0  0  0
  145.7152  138.6296  152.4723 H   0  0  0  0  0  0  0  0  0  0  0  0
  148.4702  137.9638  152.2972 H   0  0  0  0  0  0  0  0  0  0  0  0
  149.8793  138.5469  153.5432 H   0  0  0  0  0  0  0  0  0  0  0  0
  151.6162  138.4870  155.4649 H   0  0  0  0  0  0  0  0  0  0  0  0
  152.7086  139.8747  157.1982 H   0  0  0  0  0  0  0  0  0  0  0  0
  151.8725  144.2998  157.1841 H   0  0  0  0  0  0  0  0  0  0  0  0
  150.4163  143.7356  158.0065 H   0  0  0  0  0  0  0  0  0  0  0  0
  152.9685  144.7546  159.2135 H   0  0  0  0  0  0  0  0  0  0  0  0
  151.3266  144.8829  159.8392 H   0  0  0  0  0  0  0  0  0  0  0  0
  153.3508  142.8859  160.4539 H   0  0  0  0  0  0  0  0  0  0  0  0
  151.7167  142.9263  161.1099 H   0  0  0  0  0  0  0  0  0  0  0  0
  150.9059  141.4378  159.4909 H   0  0  0  0  0  0  0  0  0  0  0  0
  152.5953  140.9395  159.3771 H   0  0  0  0  0  0  0  0  0  0  0  0
  148.8241  141.7407  154.8444 H   0  0  0  0  0  0  0  0  0  0  0  0
  1  2  1  0  0  0  0
  1 17  1  0  0  0  0
  1 18  1  0  0  0  0
  1 19  1  0  0  0  0
  2  3  1  0  0  0  0
  2 20  1  0  0  0  0
  3  4  2  0  0  0  0
  3  5  1  0  0  0  0
  5  6  1  0  0  0  0
  5 21  1  0  0  0  0
  6 16  1  0  0  0  0
  6  7  2  0  0  0  0
  7  8  1  0  0  0  0
  7 22  1  0  0  0  0
  8  9  2  0  0  0  0
  8 23  1  0  0  0  0
  9 10  1  0  0  0  0
  9 15  1  0  0  0  0
 10 14  1  0  0  0  0
 10 11  1  0  0  0  0
 11 12  1  0  0  0  0
 11 24  1  0  0  0  0
 11 25  1  0  0  0  0
 12 13  1  0  0  0  0
 12 26  1  0  0  0  0
 12 27  1  0  0  0  0
 13 14  1  0  0  0  0
 13 28  1  0  0  0  0
 13 29  1  0  0  0  0
 14 30  1  0  0  0  0
 14 31  1  0  0  0  0
 15 16  2  0  0  0  0
 16 32  1  0  0  0  0
M  END
> <s_m_source_file>
AV-unprocessed.smi

> <i_m_source_file_index>
2561

> <i_lp_mmshare_version>
43012

> <i_f3d_flags>
0

> <s_epik_input>
W0NIM11bTkhdQyg9TylbTkhdYzFbY0hdW2NIXWMobltjSF0xKU4yW0NIMl1bQ0gyXVtDSDJdW0NIMl0y

> <s_epik_cmdline>
J2VwaWtfcHl0aG9uJywgJy1waCcsICc3LjAnLCAnLXRuJywgJzgnLCAnLW1hJywgJzIwMCcsICctbWV0YWxfYmluZGluZycsICctaW1hZScsICc8aW5maWxlLm1hZT4nLCAnLW9tYWUnLCAnPG91dGZpbGUubWFlPic=

> <r_lp_tautomer_probability>
1

> <r_epik_Ionization_Penalty>
0.281536

> <r_epik_Ionization_Penalty_Charging>
0

> <r_epik_Ionization_Penalty_Neutral>
0.281536

> <r_epik_State_Penalty>
0.27354

> <r_epik_Charging_Adjusted_Penalty>
0.27354

> <i_epik_Tot_Q>
0

> <i_epik_Tot_abs_Q>
0

> <r_epik_Metal_State_Penalty>
0.184484

> <b_epik_Metal_Only>
0

> <s_lp_Force_Field>
OPLS_2005

> <r_lp_Energy>
32.7589

> <b_lp_Chiralities_Consistent>
1

> <s_lp_Variant>
AV-unprocessed.smi:2561-1

> <Gold.Version>
5.8.1

> <Gold.Id.Protein>
6NUR|6NUR_protein|mol2

> <Gold.PLP.Fitness>
35.4963

> <Gold.PLP.PLP>
-32.7381

> <Gold.PLP.part.hbond>
-3.0000

> <Gold.PLP.part.metal>
0.0000

> <Gold.PLP.part.buried>
-1.2696

> <Gold.PLP.part.nonpolar>
-30.0148

> <Gold.PLP.part.repulsive>
0.8421

> <Gold.PLP.ligand.clash>
0.0000

> <Gold.PLP.ligand.torsion>
0.1285

> <Gold.PLP.Chemscore.Hbond>
1.0000

> <Gold.PLP.Chemscore.CHOScore>
0.0000

> <Gold.PLP.Chemscore.Metal>
0.0000

> <Gold.Chemscore.Hbonds>
donor molecule, donor type, donor heavy atom, donor atom, acceptor molecule, acceptor atom, score
      L1  H     2    20       P1  7948  1.00

> <Gold.PLP.Chemscore.Internal.Correction>
0.0152

> <Gold.Rescore>
     Score         DG    S(hbond)    S(metal)    S(lipo)     H(rot)  DE(clash)    DE(int)     intcor
     13.80     -15.26       0.95        0.00      78.33       1.00       0.01       1.46       ----

> <Gold.Chemscore.Fitness>
13.7986

> <Gold.Chemscore.DG>
-15.2636

> <Gold.Chemscore.ZeroCoef>
-5.4800

> <Gold.Chemscore.Hbond>
0.9518

> <Gold.Chemscore.Metal>
0.0000

> <Gold.Chemscore.Lipo>
78.3303

> <Gold.Chemscore.Internal_Hbond>
0.0000

> <Gold.Chemscore.DEClash>
0.0064

> <Gold.Chemscore.DEInternal>
1.4587

> <Gold.Chemscore.Rot>
1.0000

> <Gold.Chemscore.Internal.Correction>
   9.000000E+99

> <Gold.Chemscore.Hbonds>
donor molecule, donor type, donor heavy atom, donor atom, acceptor molecule, acceptor atom, score
      L1  H     2    20       P1  7948  0.99

> <Gold.Chemscore.Hbond.Weighted>
-3.1790

> <Gold.Chemscore.Metal.Weighted>
-0.0000

> <Gold.Chemscore.Lipo.Weighted>
-9.1646

> <Gold.Chemscore.Internal_Hbond.Weighted>
0.0000

> <Gold.Chemscore.DEClash.Weighted>
0.0064

> <Gold.Chemscore.DEInternal.Weighted>
1.4587

> <Gold.Chemscore.Rot.Weighted>
2.5600

> <Gold.Chemscore.Internal.Correction.Weighted>
   9.000000E+99

> <Gold.Protein.RotatedTorsions>
[ 6907 6896 6895 6894 ] final -160.42 input  -60.11 | X-H torsion
[ 7974 7965 7964 7962 ] final -159.67 input  175.53 | X-H torsion
[ 8008 7997 7996 7995 ] final   69.39 input   59.86 | X-H torsion
[ 10167 10162 10161 10158 ] final   -1.67 input  -65.29 | X-H torsion
[ 10718 10713 10712 10709 ] final -149.92 input   66.30 | X-H torsion
[ 10763 10752 10751 10750 ] final  -42.90 input  -60.55 | X-H torsion
[ 11005 11000 10999 10996 ] final   22.17 input  -57.11 | X-H torsion

> <Gold.Protein.ActiveResidues>
 VAL166  LYS551  ARG553  GLY616  TRP617  ASP618  TYR619  PRO620  LYS621  CYS622 
 ASP623  PHE694  ASN695  SER759  ASP760  ASP761  ALA762  ILE779  LEU786  VAL792 
 PHE793  MET794  SER795  GLU796  ALA797  LYS798  CYS799  TRP800  GLU811  SER814 

> <Gold.Protein.RotatedAtoms>
  151.3489  133.3933  159.2678 H   0  0  0  0  0  0  0  0  0  0  0  0  # atno 6907 bound_to 6896
  150.9817  134.9172  159.7859 H   0  0  0  0  0  0  0  0  0  0  0  0  # atno 6908 bound_to 6896
  152.5219  134.3453  159.9284 H   0  0  0  0  0  0  0  0  0  0  0  0  # atno 6909 bound_to 6896
  144.7456  140.3651  143.6088 H   0  0  0  0  0  0  0  0  0  0  0  0  # atno 7974 bound_to 7965
  155.7229  140.3493  155.5024 H   0  0  0  0  0  0  0  0  0  0  0  0  # atno 8008 bound_to 7997
  155.9253  140.1074  157.1197 H   0  0  0  0  0  0  0  0  0  0  0  0  # atno 8009 bound_to 7997
  154.4076  140.1241  156.4719 H   0  0  0  0  0  0  0  0  0  0  0  0  # atno 8010 bound_to 7997
  140.6820  143.6748  150.8155 H   0  0  0  0  0  0  0  0  0  0  0  0  # atno 10167 bound_to 10162
  156.4393  130.8114  151.2343 H   0  0  0  0  0  0  0  0  0  0  0  0  # atno 10718 bound_to 10713
  153.9867  135.6710  153.4752 H   0  0  0  0  0  0  0  0  0  0  0  0  # atno 10763 bound_to 10752
  153.0723  135.4967  154.8328 H   0  0  0  0  0  0  0  0  0  0  0  0  # atno 10764 bound_to 10752
  154.7133  135.3102  154.9125 H   0  0  0  0  0  0  0  0  0  0  0  0  # atno 10765 bound_to 10752
  140.3835  134.1895  155.7663 H   0  0  0  0  0  0  0  0  0  0  0  0  # atno 11005 bound_to 11000
  145.7136  139.1691  143.2524 LP  0  0  0  0  0  0  0  0  0  0  0  0  # atno 17320 bound_to 7965
  146.1329  140.7162  142.9404 LP  0  0  0  0  0  0  0  0  0  0  0  0  # atno 17321 bound_to 7965
  140.0449  143.5308  152.2701 LP  0  0  0  0  0  0  0  0  0  0  0  0  # atno 17342 bound_to 10162
  139.6149  144.7617  151.2869 LP  0  0  0  0  0  0  0  0  0  0  0  0  # atno 17343 bound_to 10162
  157.7506  131.0173  150.3580 LP  0  0  0  0  0  0  0  0  0  0  0  0  # atno 17370 bound_to 10713
  156.3934  130.3902  149.7012 LP  0  0  0  0  0  0  0  0  0  0  0  0  # atno 17371 bound_to 10713
  141.1915  133.8193  157.0876 LP  0  0  0  0  0  0  0  0  0  0  0  0  # atno 17394 bound_to 11000
  140.0460  134.9830  157.1050 LP  0  0  0  0  0  0  0  0  0  0  0  0  # atno 17395 bound_to 11000

$$$$
