#       Name:                AV-unprocessed.smi:1918
#       Creating user name   scv26
#       Creation time:       Fri Mar 27 09:51:37 2020


#       File generated by GOLD software.
#

@<TRIPOS>MOLECULE
AV-unprocessed.smi:1918
    38    40     1
SMALL
NO_CHARGES


@<TRIPOS>ATOM
      1 ****        -2.3861   0.7382  -2.3797 C.3            1 S1                 0.0000
      2 ****        -1.9493   1.4939  -1.1650 C.2            1 S1                 0.0000
      3 ****        -2.2899   2.7666  -0.9599 N.2            1 S1                 0.0000
      4 ****        -1.6844   3.0514   0.2489 C.ar           1 S1                 0.0000
      5 ****        -1.6677   4.2415   1.0111 C.ar           1 S1                 0.0000
      6 ****        -0.9685   4.2957   2.2349 C.ar           1 S1                 0.0000
      7 ****        -0.2779   3.1634   2.7137 C.ar           1 S1                 0.0000
      8 ****        -0.2828   1.9673   1.9706 C.ar           1 S1                 0.0000
      9 ****        -0.9819   1.9188   0.7498 C.ar           1 S1                 0.0000
     10 ****        -1.1814   0.9252  -0.2029 N.pl3          1 S1                 0.0000
     11 ****        -0.6614  -0.4340  -0.1450 C.3            1 S1                 0.0000
     12 ****         0.8343  -0.5128  -0.5093 C.3            1 S1                 0.0000
     13 ****         1.0401  -0.0092  -1.8159 O.3            1 S1                 0.0000
     14 ****         1.3664  -1.9296  -0.3397 C.ar           1 S1                 0.0000
     15 ****         1.1948  -2.8861  -1.3658 C.ar           1 S1                 0.0000
     16 ****         1.6788  -4.1986  -1.2044 C.ar           1 S1                 0.0000
     17 ****         2.3339  -4.5662  -0.0141 C.ar           1 S1                 0.0000
     18 ****         2.7990  -5.8283   0.1415 F              1 S1                 0.0000
     19 ****         2.5018  -3.6212   1.0156 C.ar           1 S1                 0.0000
     20 ****         2.0183  -2.3077   0.8565 C.ar           1 S1                 0.0000
     21 ****         2.1808  -1.4141   1.8619 F              1 S1                 0.0000
     22 ****        -2.9226   1.3938  -3.0663 H              1 S1                 0.0000
     23 ****        -3.0496  -0.0790  -2.0964 H              1 S1                 0.0000
     24 ****        -1.5225   0.3281  -2.9032 H              1 S1                 0.0000
     25 ****        -2.1938   5.1141   0.6531 H              1 S1                 0.0000
     26 ****        -0.9616   5.2109   2.8088 H              1 S1                 0.0000
     27 ****         0.2560   3.2135   3.6514 H              1 S1                 0.0000
     28 ****         0.2454   1.0979   2.3333 H              1 S1                 0.0000
     29 ****        -0.8146  -0.8049   0.8692 H              1 S1                 0.0000
     30 ****        -1.2502  -1.0812  -0.7949 H              1 S1                 0.0000
     31 ****         1.3928   0.1458   0.1565 H              1 S1                 0.0000
     32 ****         1.9704   0.0520  -1.9704 H              1 S1                 0.0000
     33 ****         0.6877  -2.6182  -2.2812 H              1 S1                 0.0000
     34 ****         1.5456  -4.9242  -1.9934 H              1 S1                 0.0000
     35 ****         3.0005  -3.9044   1.9308 H              1 S1                 0.0000
     36 ****        -2.8451   3.3656  -1.5370 LP             1 S1                 0.0000
     37 ****         0.6242   0.8966  -1.8978 LP             1 S1                 0.0000
     38 ****         0.6270  -0.6273  -2.4847 LP             1 S1                 0.0000
@<TRIPOS>BOND
    1    1    2 1     
    2    1   22 1     
    3    1   23 1     
    4    1   24 1     
    5    2   10 1     
    6    2    3 2     
    7    3    4 1     
    8    4    9 ar    
    9    4    5 ar    
   10    5    6 ar    
   11    5   25 1     
   12    6    7 ar    
   13    6   26 1     
   14    7    8 ar    
   15    7   27 1     
   16    8    9 ar    
   17    8   28 1     
   18    9   10 1     
   19   10   11 1     
   20   11   12 1     
   21   11   29 1     
   22   11   30 1     
   23   12   13 1     
   24   12   14 1     
   25   12   31 1     
   26   13   32 1     
   27   14   20 ar    
   28   14   15 ar    
   29   15   16 ar    
   30   15   33 1     
   31   16   17 ar    
   32   16   34 1     
   33   17   18 1     
   34   17   19 ar    
   35   19   20 ar    
   36   19   35 1     
   37   20   21 1     
   38    3   36 1     
   39   13   37 1     
   40   13   38 1     
@<TRIPOS>SUBSTRUCTURE
      1 S1             1
@<TRIPOS>SET
LONE_PAIRS      STATIC     ATOMS    <user>   **** ""
3 36 37 38
DONOR_HYDROGENS      STATIC     ATOMS    <user>   **** ""
1 32
ATOM$BLUE        STATIC     ATOMS    COLORGROUP SYSTEM
3 36 37 38
ATOM$RED        STATIC     ATOMS    COLORGROUP SYSTEM
1 32
