AV-unprocessed.smi:1821|AV-procd|sdf|7386|dock7
  -GOLD-   22720 9 53D 1   1.00000     0.00000
 Structure written by MMmdl.
 35 37  0  0  0  0  0  0  0  0  1 V2000
  152.8830  137.2716  158.7324 C   0  0  0  0  0  0  0  0  0  0  0  0
  152.1092  138.0770  157.7374 C   0  0  0  0  0  0  0  0  0  0  0  0
  151.7664  137.5920  156.5437 N   0  0  0  0  0  0  0  0  0  0  0  0
  151.0825  138.6482  155.9731 C   0  0  0  0  0  0  0  0  0  0  0  0
  150.4643  138.7663  154.7077 C   0  0  0  0  0  0  0  0  0  0  0  0
  149.8149  139.9629  154.3392 C   0  0  0  0  0  0  0  0  0  0  0  0
  149.7740  141.0563  155.2288 C   0  0  0  0  0  0  0  0  0  0  0  0
  150.3826  140.9595  156.4949 C   0  0  0  0  0  0  0  0  0  0  0  0
  151.0296  139.7629  156.8573 C   0  0  0  0  0  0  0  0  0  0  0  0
  151.7115  139.3474  157.9961 N   0  0  0  0  0  0  0  0  0  0  0  0
  151.9330  140.1361  159.2005 C   0  0  0  0  0  0  0  0  0  0  0  0
  152.9552  141.2714  158.9874 C   0  0  2  0  0  0  0  0  0  0  0  0
  154.2745  140.7617  159.0380 O   0  0  0  0  0  0  0  0  0  0  0  0
  152.7324  142.4132  159.9735 C   0  0  0  0  0  0  0  0  0  0  0  0
  153.0983  142.2766  161.3344 C   0  0  0  0  0  0  0  0  0  0  0  0
  153.6507  141.1257  161.7880 F   0  0  0  0  0  0  0  0  0  0  0  0
  152.8864  143.3366  162.2370 C   0  0  0  0  0  0  0  0  0  0  0  0
  152.3029  144.5376  161.7934 C   0  0  0  0  0  0  0  0  0  0  0  0
  151.9268  144.6772  160.4449 C   0  0  0  0  0  0  0  0  0  0  0  0
  152.1376  143.6205  159.5378 C   0  0  0  0  0  0  0  0  0  0  0  0
  151.7605  143.7753  158.2457 F   0  0  0  0  0  0  0  0  0  0  0  0
  153.1877  136.3184  158.2991 H   0  0  0  0  0  0  0  0  0  0  0  0
  152.2700  137.0697  159.6111 H   0  0  0  0  0  0  0  0  0  0  0  0
  153.7795  137.8085  159.0423 H   0  0  0  0  0  0  0  0  0  0  0  0
  150.4897  137.9345  154.0193 H   0  0  0  0  0  0  0  0  0  0  0  0
  149.3455  140.0417  153.3695 H   0  0  0  0  0  0  0  0  0  0  0  0
  149.2748  141.9692  154.9386 H   0  0  0  0  0  0  0  0  0  0  0  0
  150.3533  141.7944  157.1791 H   0  0  0  0  0  0  0  0  0  0  0  0
  150.9737  140.5562  159.5054 H   0  0  0  0  0  0  0  0  0  0  0  0
  152.2461  139.4810  160.0130 H   0  0  0  0  0  0  0  0  0  0  0  0
  152.8316  141.6567  157.9753 H   0  0  0  0  0  0  0  0  0  0  0  0
  154.4209  140.3917  159.8951 H   0  0  0  0  0  0  0  0  0  0  0  0
  153.1705  143.2264  163.2733 H   0  0  0  0  0  0  0  0  0  0  0  0
  152.1407  145.3489  162.4874 H   0  0  0  0  0  0  0  0  0  0  0  0
  151.4743  145.5970  160.1050 H   0  0  0  0  0  0  0  0  0  0  0  0
  1  2  1  0  0  0  0
  1 22  1  0  0  0  0
  1 23  1  0  0  0  0
  1 24  1  0  0  0  0
  2 10  1  0  0  0  0
  2  3  2  0  0  0  0
  3  4  1  0  0  0  0
  4  9  2  0  0  0  0
  4  5  1  0  0  0  0
  5  6  2  0  0  0  0
  5 25  1  0  0  0  0
  6  7  1  0  0  0  0
  6 26  1  0  0  0  0
  7  8  2  0  0  0  0
  7 27  1  0  0  0  0
  8  9  1  0  0  0  0
  8 28  1  0  0  0  0
  9 10  1  0  0  0  0
 10 11  1  0  0  0  0
 11 12  1  0  0  0  0
 11 29  1  0  0  0  0
 11 30  1  0  0  0  0
 12 13  1  0  0  0  0
 12 14  1  0  0  0  0
 12 31  1  0  0  0  0
 13 32  1  0  0  0  0
 14 20  1  0  0  0  0
 14 15  2  0  0  0  0
 15 16  1  0  0  0  0
 15 17  1  0  0  0  0
 17 18  2  0  0  0  0
 17 33  1  0  0  0  0
 18 19  1  0  0  0  0
 18 34  1  0  0  0  0
 19 20  2  0  0  0  0
 19 35  1  0  0  0  0
 20 21  1  0  0  0  0
M  END
> <s_m_source_file>
AV-unprocessed.smi

> <i_m_source_file_index>
1821

> <i_lp_mmshare_version>
43012

> <i_f3d_flags>
0

> <s_epik_input>
W2NIXTFbY0hdW2NIXVtjSF1jKGMxMiluKGMobjIpW0NIM10pW0NIMl1bQ0BIXShbT0hdKWMzYyhGKVtjSF1bY0hdW2NIXWMzRg==

> <s_epik_cmdline>
J2VwaWtfcHl0aG9uJywgJy1waCcsICc3LjAnLCAnLXRuJywgJzgnLCAnLW1hJywgJzIwMCcsICctbWV0YWxfYmluZGluZycsICctaW1hZScsICc8aW5maWxlLm1hZT4nLCAnLW9tYWUnLCAnPG91dGZpbGUubWFlPic=

> <r_epik_Ionization_Penalty>
0.129663

> <r_epik_Ionization_Penalty_Charging>
0

> <r_epik_Ionization_Penalty_Neutral>
0.129663

> <r_epik_State_Penalty>
0.119073

> <r_epik_Charging_Adjusted_Penalty>
0.119073

> <i_epik_Tot_Q>
0

> <i_epik_Tot_abs_Q>
0

> <r_epik_Metal_State_Penalty>
0.000131867

> <b_epik_Metal_Only>
0

> <s_lp_Force_Field>
OPLS_2005

> <r_lp_Energy>
13.297

> <b_lp_Chiralities_Consistent>
1

> <s_lp_Variant>
AV-unprocessed.smi:1821-1

> <Gold.Version>
5.8.1

> <Gold.Id.Protein>
6NUR|6NUR_protein|mol2

> <Gold.PLP.Fitness>
44.6649

> <Gold.PLP.PLP>
-44.0530

> <Gold.PLP.part.hbond>
-1.0000

> <Gold.PLP.part.metal>
0.0000

> <Gold.PLP.part.buried>
0.6180

> <Gold.PLP.part.nonpolar>
-43.0643

> <Gold.PLP.part.repulsive>
0.0000

> <Gold.PLP.ligand.clash>
0.0000

> <Gold.PLP.ligand.torsion>
0.6223

> <Gold.PLP.Chemscore.Hbond>
0.6080

> <Gold.PLP.Chemscore.CHOScore>
0.0000

> <Gold.PLP.Chemscore.Metal>
0.0000

> <Gold.Chemscore.Hbonds>
donor molecule, donor type, donor heavy atom, donor atom, acceptor molecule, acceptor atom, score
      P1  H  7997  8010       L1    13  0.61

> <Gold.PLP.Chemscore.Internal.Correction>
0.0326

> <Gold.Rescore>
     Score         DG    S(hbond)    S(metal)    S(lipo)     H(rot)  DE(clash)    DE(int)     intcor
     15.14     -17.83       0.73        0.00     125.86       1.88       0.99       1.70       ----

> <Gold.Chemscore.Fitness>
15.1388

> <Gold.Chemscore.DG>
-17.8310

> <Gold.Chemscore.ZeroCoef>
-5.4800

> <Gold.Chemscore.Hbond>
0.7330

> <Gold.Chemscore.Metal>
0.0000

> <Gold.Chemscore.Lipo>
125.8609

> <Gold.Chemscore.Internal_Hbond>
0.0000

> <Gold.Chemscore.DEClash>
0.9916

> <Gold.Chemscore.DEInternal>
1.7007

> <Gold.Chemscore.Rot>
1.8839

> <Gold.Chemscore.Internal.Correction>
   9.000000E+99

> <Gold.Chemscore.Hbonds>
donor molecule, donor type, donor heavy atom, donor atom, acceptor molecule, acceptor atom, score
      P1  H  7997  8010       L1    13  0.52

> <Gold.Chemscore.Hbond.Weighted>
-2.4481

> <Gold.Chemscore.Metal.Weighted>
-0.0000

> <Gold.Chemscore.Lipo.Weighted>
-14.7257

> <Gold.Chemscore.Internal_Hbond.Weighted>
0.0000

> <Gold.Chemscore.DEClash.Weighted>
0.9916

> <Gold.Chemscore.DEInternal.Weighted>
1.7007

> <Gold.Chemscore.Rot.Weighted>
4.8227

> <Gold.Chemscore.Internal.Correction.Weighted>
   9.000000E+99

> <Gold.Protein.RotatedTorsions>
[ 6907 6896 6895 6894 ] final  -73.28 input  -60.11 | X-H torsion
[ 7974 7965 7964 7962 ] final  106.43 input  175.53 | X-H torsion
[ 8008 7997 7996 7995 ] final    9.19 input   59.86 | X-H torsion
[ 10167 10162 10161 10158 ] final  -46.90 input  -65.29 | X-H torsion
[ 10718 10713 10712 10709 ] final -122.00 input   66.30 | X-H torsion
[ 10763 10752 10751 10750 ] final  111.12 input  -60.55 | X-H torsion
[ 11005 11000 10999 10996 ] final -179.85 input  -57.11 | X-H torsion

> <Gold.Protein.ActiveResidues>
 VAL166  LYS551  ARG553  GLY616  TRP617  ASP618  TYR619  PRO620  LYS621  CYS622 
 ASP623  PHE694  ASN695  SER759  ASP760  ASP761  ALA762  ILE779  LEU786  VAL792 
 PHE793  MET794  SER795  GLU796  ALA797  LYS798  CYS799  TRP800  GLU811  SER814 

> <Gold.Protein.RotatedAtoms>
  150.7136  134.5039  159.5574 H   0  0  0  0  0  0  0  0  0  0  0  0  # atno 6907 bound_to 6896
  152.2631  134.8010  160.0436 H   0  0  0  0  0  0  0  0  0  0  0  0  # atno 6908 bound_to 6896
  151.8717  133.3442  159.3774 H   0  0  0  0  0  0  0  0  0  0  0  0  # atno 6909 bound_to 6896
  145.3067  139.2553  143.3785 H   0  0  0  0  0  0  0  0  0  0  0  0  # atno 7974 bound_to 7965
  154.7768  140.2812  155.6095 H   0  0  0  0  0  0  0  0  0  0  0  0  # atno 8008 bound_to 7997
  156.2943  140.2631  156.2511 H   0  0  0  0  0  0  0  0  0  0  0  0  # atno 8009 bound_to 7997
  154.9833  140.0374  157.2277 H   0  0  0  0  0  0  0  0  0  0  0  0  # atno 8010 bound_to 7997
  140.6798  143.2809  151.3849 H   0  0  0  0  0  0  0  0  0  0  0  0  # atno 10167 bound_to 10162
  156.1383  130.6447  150.9731 H   0  0  0  0  0  0  0  0  0  0  0  0  # atno 10718 bound_to 10713
  153.4587  135.3727  155.2326 H   0  0  0  0  0  0  0  0  0  0  0  0  # atno 10763 bound_to 10752
  154.8757  135.3903  154.3951 H   0  0  0  0  0  0  0  0  0  0  0  0  # atno 10764 bound_to 10752
  153.4521  135.7085  153.6167 H   0  0  0  0  0  0  0  0  0  0  0  0  # atno 10765 bound_to 10752
  140.4141  134.6665  157.4629 H   0  0  0  0  0  0  0  0  0  0  0  0  # atno 11005 bound_to 11000
  146.3133  140.3593  142.8663 LP  0  0  0  0  0  0  0  0  0  0  0  0  # atno 17320 bound_to 7965
  144.9049  140.7688  143.5843 LP  0  0  0  0  0  0  0  0  0  0  0  0  # atno 17321 bound_to 7965
  139.6113  144.1093  152.2301 LP  0  0  0  0  0  0  0  0  0  0  0  0  # atno 17342 bound_to 10162
  140.0508  144.5934  150.7338 LP  0  0  0  0  0  0  0  0  0  0  0  0  # atno 17343 bound_to 10162
  157.6552  131.0890  150.7962 LP  0  0  0  0  0  0  0  0  0  0  0  0  # atno 17370 bound_to 10713
  156.8040  130.4930  149.5365 LP  0  0  0  0  0  0  0  0  0  0  0  0  # atno 17371 bound_to 10713
  140.0247  134.6495  155.9190 LP  0  0  0  0  0  0  0  0  0  0  0  0  # atno 17394 bound_to 11000
  141.1810  133.6546  156.5019 LP  0  0  0  0  0  0  0  0  0  0  0  0  # atno 17395 bound_to 11000

$$$$
