AV-unprocessed.smi:250|AV-procd|sdf|1932|dock10
  -GOLD-   2262021 53D 1   1.00000     0.00000
 Structure written by MMmdl.
 56 60  0  0  0  0  0  0  0  0  1 V2000
  152.5434  143.8131  161.1379 C   0  0  0  0  0  0  0  0  0  0  0  0
  151.8631  143.6631  159.8581 N   0  0  0  0  0  0  0  0  0  0  0  0
  151.0389  144.5486  159.2595 C   0  0  0  0  0  0  0  0  0  0  0  0
  150.7388  145.6648  159.6788 O   0  0  0  0  0  0  0  0  0  0  0  0
  150.5911  144.0028  158.1154 N   0  0  0  0  0  0  0  0  0  0  0  0
  151.3459  142.8094  157.8094 C   0  0  2  0  0  0  0  0  0  0  0  0
  150.7060  141.6223  157.0935 C   0  0  0  0  0  0  0  0  0  0  0  0
  151.7166  140.5528  157.0238 N   0  0  0  0  0  0  0  0  0  0  0  0
  151.4260  139.5480  156.1574 C   0  0  0  0  0  0  0  0  0  0  0  0
  150.9180  139.8431  154.9306 N   0  0  0  0  0  0  0  0  0  0  0  0
  150.6349  138.8681  154.0622 C   0  0  0  0  0  0  0  0  0  0  0  0
  150.7793  137.5508  154.2119 N   0  0  0  0  0  0  0  0  0  0  0  0
  151.2824  137.2445  155.4416 C   0  0  0  0  0  0  0  0  0  0  0  0
  151.6252  138.1717  156.4670 C   0  0  0  0  0  0  0  0  0  0  0  0
  152.0793  137.4857  157.5874 N   0  0  0  0  0  0  0  0  0  0  0  0
  152.0186  136.2294  157.2406 C   0  0  0  0  0  0  0  0  0  0  0  0
  151.5678  135.9934  155.9614 N   0  0  0  0  0  0  0  0  0  0  0  0
  151.4001  134.6956  155.3220 C   0  0  0  0  0  0  0  0  0  0  0  0
  149.9985  134.0437  155.5182 C   0  0  0  0  0  0  0  0  0  0  0  0
  149.6984  133.8144  157.0276 C   0  0  0  0  0  0  0  0  0  0  0  0
  150.7370  133.1110  157.6795 O   0  0  0  0  0  0  0  0  0  0  0  0
  148.9370  134.9655  154.8666 C   0  0  0  0  0  0  0  0  0  0  0  0
  147.5569  134.2965  154.7355 C   0  0  0  0  0  0  0  0  0  0  0  0
  147.6735  133.0866  153.9986 O   0  0  0  0  0  0  0  0  0  0  0  0
  148.5119  132.1318  154.6359 C   0  0  0  0  0  0  0  0  0  0  0  0
  149.9417  132.6883  154.7691 C   0  0  0  0  0  0  0  0  0  0  0  0
  152.4257  140.1900  158.2704 C   0  0  0  0  0  0  0  0  0  0  0  0
  152.9355  141.4217  159.0669 C   0  0  0  0  0  0  0  0  0  0  0  0
  151.7498  142.3777  159.1983 C   0  0  1  0  0  0  0  0  0  0  0  0
  152.2156  143.1379  157.2342 H   0  0  0  0  0  0  0  0  0  0  0  0
  150.9290  141.8515  159.6932 H   0  0  0  0  0  0  0  0  0  0  0  0
  152.4368  144.8203  161.5426 H   0  0  0  0  0  0  0  0  0  0  0  0
  153.6078  143.6083  161.0226 H   0  0  0  0  0  0  0  0  0  0  0  0
  152.1367  143.1101  161.8650 H   0  0  0  0  0  0  0  0  0  0  0  0
  149.9755  144.4599  157.4585 H   0  0  0  0  0  0  0  0  0  0  0  0
  149.8298  141.2644  157.6358 H   0  0  0  0  0  0  0  0  0  0  0  0
  150.3692  141.9310  156.1052 H   0  0  0  0  0  0  0  0  0  0  0  0
  150.2375  139.1896  153.1107 H   0  0  0  0  0  0  0  0  0  0  0  0
  152.3078  135.4341  157.9121 H   0  0  0  0  0  0  0  0  0  0  0  0
  151.6149  134.8166  154.2595 H   0  0  0  0  0  0  0  0  0  0  0  0
  152.1794  134.0334  155.7017 H   0  0  0  0  0  0  0  0  0  0  0  0
  149.5587  134.7550  157.5575 H   0  0  0  0  0  0  0  0  0  0  0  0
  148.7698  133.2593  157.1600 H   0  0  0  0  0  0  0  0  0  0  0  0
  150.4302  132.2395  157.8791 H   0  0  0  0  0  0  0  0  0  0  0  0
  148.8438  135.9003  155.4202 H   0  0  0  0  0  0  0  0  0  0  0  0
  149.2679  135.2466  153.8658 H   0  0  0  0  0  0  0  0  0  0  0  0
  147.1074  134.1052  155.7103 H   0  0  0  0  0  0  0  0  0  0  0  0
  146.8744  134.9604  154.2047 H   0  0  0  0  0  0  0  0  0  0  0  0
  148.0965  131.8521  155.6042 H   0  0  0  0  0  0  0  0  0  0  0  0
  148.5242  131.2247  154.0315 H   0  0  0  0  0  0  0  0  0  0  0  0
  150.3472  132.8125  153.7642 H   0  0  0  0  0  0  0  0  0  0  0  0
  150.5736  131.9486  155.2618 H   0  0  0  0  0  0  0  0  0  0  0  0
  151.7473  139.6138  158.9015 H   0  0  0  0  0  0  0  0  0  0  0  0
  153.2693  139.5391  158.0368 H   0  0  0  0  0  0  0  0  0  0  0  0
  153.3025  141.1145  160.0465 H   0  0  0  0  0  0  0  0  0  0  0  0
  153.7665  141.9008  158.5476 H   0  0  0  0  0  0  0  0  0  0  0  0
  1  2  1  0  0  0  0
  1 32  1  0  0  0  0
  1 33  1  0  0  0  0
  1 34  1  0  0  0  0
  2 29  1  0  0  0  0
  2  3  1  0  0  0  0
  3  4  2  0  0  0  0
  3  5  1  0  0  0  0
  5  6  1  0  0  0  0
  5 35  1  0  0  0  0
  6 30  1  0  0  0  0
  6 29  1  0  0  0  0
  6  7  1  0  0  0  0
  7  8  1  0  0  0  0
  7 36  1  0  0  0  0
  7 37  1  0  0  0  0
  8  9  1  0  0  0  0
  8 27  1  0  0  0  0
  9 14  1  0  0  0  0
  9 10  2  0  0  0  0
 10 11  1  0  0  0  0
 11 12  2  0  0  0  0
 11 38  1  0  0  0  0
 12 13  1  0  0  0  0
 13 17  1  0  0  0  0
 13 14  2  0  0  0  0
 14 15  1  0  0  0  0
 15 16  2  0  0  0  0
 16 17  1  0  0  0  0
 16 39  1  0  0  0  0
 17 18  1  0  0  0  0
 18 19  1  0  0  0  0
 18 40  1  0  0  0  0
 18 41  1  0  0  0  0
 19 26  1  0  0  0  0
 19 20  1  0  0  0  0
 19 22  1  0  0  0  0
 20 21  1  0  0  0  0
 20 42  1  0  0  0  0
 20 43  1  0  0  0  0
 21 44  1  0  0  0  0
 22 23  1  0  0  0  0
 22 45  1  0  0  0  0
 22 46  1  0  0  0  0
 23 24  1  0  0  0  0
 23 47  1  0  0  0  0
 23 48  1  0  0  0  0
 24 25  1  0  0  0  0
 25 26  1  0  0  0  0
 25 49  1  0  0  0  0
 25 50  1  0  0  0  0
 26 51  1  0  0  0  0
 26 52  1  0  0  0  0
 27 28  1  0  0  0  0
 27 53  1  0  0  0  0
 27 54  1  0  0  0  0
 28 29  1  0  0  0  0
 28 55  1  0  0  0  0
 28 56  1  0  0  0  0
 29 31  1  0  0  0  0
M  END
> <s_m_source_file>
AV-unprocessed.smi

> <i_m_source_file_index>
250

> <i_lp_mmshare_version>
43012

> <i_f3d_flags>
0

> <s_epik_input>
Tz1DKFtOSF0xKU4oW0NIM10pW0NASF0oW0NASF0xMilbQ0gyXVtDSDJdTihbQ0gyXTIpYyhuW2NIXW4zKWMoYzM0KW5bY0hdbjRbQ0gyXUM1KFtDSDJdW09IXSlbQ0gyXVtDSDJdT1tDSDJdW0NIMl01

> <s_epik_cmdline>
J2VwaWtfcHl0aG9uJywgJy1waCcsICc3LjAnLCAnLXRuJywgJzgnLCAnLW1hJywgJzIwMCcsICctbWV0YWxfYmluZGluZycsICctaW1hZScsICc8aW5maWxlLm1hZT4nLCAnLW9tYWUnLCAnPG91dGZpbGUubWFlPic=

> <r_lp_tautomer_probability>
1

> <r_epik_Ionization_Penalty>
0.00229024

> <r_epik_Ionization_Penalty_Charging>
0

> <r_epik_Ionization_Penalty_Neutral>
0.00229024

> <r_epik_State_Penalty>
0.0013961

> <r_epik_Charging_Adjusted_Penalty>
0.0013961

> <i_epik_Tot_Q>
0

> <i_epik_Tot_abs_Q>
0

> <r_epik_Metal_State_Penalty>
-0

> <b_epik_Metal_Only>
0

> <s_lp_Force_Field>
OPLS_2005

> <r_lp_Energy>
71.8921

> <b_lp_Chiralities_Consistent>
1

> <s_lp_Variant>
AV-unprocessed.smi:250-3

> <Gold.Version>
5.8.1

> <Gold.Id.Protein>
6NUR|6NUR_protein|mol2

> <Gold.PLP.Fitness>
50.5291

> <Gold.PLP.PLP>
-40.8468

> <Gold.PLP.part.hbond>
-5.0000

> <Gold.PLP.part.metal>
0.0000

> <Gold.PLP.part.buried>
-5.5426

> <Gold.PLP.part.nonpolar>
-32.0903

> <Gold.PLP.part.repulsive>
0.6352

> <Gold.PLP.ligand.clash>
0.0000

> <Gold.PLP.ligand.torsion>
0.7851

> <Gold.PLP.Chemscore.Hbond>
2.6500

> <Gold.PLP.Chemscore.CHOScore>
1.0000

> <Gold.PLP.Chemscore.Metal>
0.0000

> <Gold.Chemscore.Hbonds>
donor molecule, donor type, donor heavy atom, donor atom, acceptor molecule, acceptor atom, score
      L1  H     5    35       P1  8028  0.86
      P1  H  6896  6909       L1    21  0.85
      P1  H  7989  7998       L1    10  0.45
      L1  C    11    38       P1  7957  1.00

> <Gold.PLP.Chemscore.Internal.Correction>
0.3024

> <Gold.Rescore>
     Score         DG    S(hbond)    S(metal)    S(lipo)     H(rot)  DE(clash)    DE(int)     intcor
     12.42     -15.18       1.76        0.00      81.31       2.22       0.53       2.23       ----

> <Gold.Chemscore.Fitness>
12.4220

> <Gold.Chemscore.DG>
-15.1796

> <Gold.Chemscore.ZeroCoef>
-5.4800

> <Gold.Chemscore.Hbond>
1.7551

> <Gold.Chemscore.Metal>
0.0000

> <Gold.Chemscore.Lipo>
81.3103

> <Gold.Chemscore.Internal_Hbond>
0.0000

> <Gold.Chemscore.DEClash>
0.5315

> <Gold.Chemscore.DEInternal>
2.2261

> <Gold.Chemscore.Rot>
2.2170

> <Gold.Chemscore.Internal.Correction>
   9.000000E+99

> <Gold.Chemscore.Hbonds>
donor molecule, donor type, donor heavy atom, donor atom, acceptor molecule, acceptor atom, score
      L1  H     5    35       P1  8028  0.21
      P1  H  6896  6909       L1    21  0.13
      P1  H  7989  7998       L1    10  0.02

> <Gold.Chemscore.Hbond.Weighted>
-5.8619

> <Gold.Chemscore.Metal.Weighted>
-0.0000

> <Gold.Chemscore.Lipo.Weighted>
-9.5133

> <Gold.Chemscore.Internal_Hbond.Weighted>
0.0000

> <Gold.Chemscore.DEClash.Weighted>
0.5315

> <Gold.Chemscore.DEInternal.Weighted>
2.2261

> <Gold.Chemscore.Rot.Weighted>
5.6756

> <Gold.Chemscore.Internal.Correction.Weighted>
   9.000000E+99

> <Gold.Protein.RotatedTorsions>
[ 6907 6896 6895 6894 ] final  -17.51 input  -60.11 | X-H torsion
[ 7974 7965 7964 7962 ] final  -39.51 input  175.53 | X-H torsion
[ 8008 7997 7996 7995 ] final    8.29 input   59.86 | X-H torsion
[ 10167 10162 10161 10158 ] final  174.56 input  -65.29 | X-H torsion
[ 10718 10713 10712 10709 ] final   71.92 input   66.30 | X-H torsion
[ 10763 10752 10751 10750 ] final -177.41 input  -60.55 | X-H torsion
[ 11005 11000 10999 10996 ] final -117.58 input  -57.11 | X-H torsion

> <Gold.Protein.ActiveResidues>
 VAL166  LYS551  ARG553  GLY616  TRP617  ASP618  TYR619  PRO620  LYS621  CYS622 
 ASP623  PHE694  ASN695  SER759  ASP760  ASP761  ALA762  ILE779  LEU786  VAL792 
 PHE793  MET794  SER795  GLU796  ALA797  LYS798  CYS799  TRP800  GLU811  SER814 

> <Gold.Protein.RotatedAtoms>
  151.2923  135.0745  159.9208 H   0  0  0  0  0  0  0  0  0  0  0  0  # atno 6907 bound_to 6896
  152.5314  133.9919  159.7865 H   0  0  0  0  0  0  0  0  0  0  0  0  # atno 6908 bound_to 6896
  151.0191  133.5842  159.2704 H   0  0  0  0  0  0  0  0  0  0  0  0  # atno 6909 bound_to 6896
  146.0390  140.6634  142.9096 H   0  0  0  0  0  0  0  0  0  0  0  0  # atno 7974 bound_to 7965
  154.7650  140.2791  155.6184 H   0  0  0  0  0  0  0  0  0  0  0  0  # atno 8008 bound_to 7997
  156.2923  140.2652  156.2365 H   0  0  0  0  0  0  0  0  0  0  0  0  # atno 8009 bound_to 7997
  154.9971  140.0373  157.2334 H   0  0  0  0  0  0  0  0  0  0  0  0  # atno 8010 bound_to 7997
  139.5146  144.3132  152.0272 H   0  0  0  0  0  0  0  0  0  0  0  0  # atno 10167 bound_to 10162
  157.6476  130.9553  150.0857 H   0  0  0  0  0  0  0  0  0  0  0  0  # atno 10718 bound_to 10713
  154.5605  135.2820  155.0923 H   0  0  0  0  0  0  0  0  0  0  0  0  # atno 10763 bound_to 10752
  154.2334  135.6370  153.5186 H   0  0  0  0  0  0  0  0  0  0  0  0  # atno 10764 bound_to 10752
  153.0028  135.5542  154.6198 H   0  0  0  0  0  0  0  0  0  0  0  0  # atno 10765 bound_to 10752
  141.0345  133.9931  157.3093 H   0  0  0  0  0  0  0  0  0  0  0  0  # atno 11005 bound_to 11000
  144.7065  140.3872  143.7114 LP  0  0  0  0  0  0  0  0  0  0  0  0  # atno 17320 bound_to 7965
  145.6916  139.1640  143.2643 LP  0  0  0  0  0  0  0  0  0  0  0  0  # atno 17321 bound_to 7965
  140.2576  144.4101  150.6197 LP  0  0  0  0  0  0  0  0  0  0  0  0  # atno 17342 bound_to 10162
  140.6180  143.2174  151.6752 LP  0  0  0  0  0  0  0  0  0  0  0  0  # atno 17343 bound_to 10162
  156.1820  130.3650  149.9022 LP  0  0  0  0  0  0  0  0  0  0  0  0  # atno 17370 bound_to 10713
  156.6972  130.8919  151.3595 LP  0  0  0  0  0  0  0  0  0  0  0  0  # atno 17371 bound_to 10713
  139.9231  135.0201  156.8135 LP  0  0  0  0  0  0  0  0  0  0  0  0  # atno 17394 bound_to 11000
  140.6348  133.9873  155.7679 LP  0  0  0  0  0  0  0  0  0  0  0  0  # atno 17395 bound_to 11000

$$$$
