AV-unprocessed.smi:703|AV-procd|sdf|3431|dock5
  -GOLD-   22720 0413D 1   1.00000     0.00000
 Structure written by MMmdl.
 38 39  0  0  0  0  0  0  0  0  2 V2000
  143.5303  136.7499  152.6344 C   0  0  0  0  0  0  0  0  0  0  0  0
  145.0201  136.8950  152.2960 C   0  0  0  0  0  0  0  0  0  0  0  0
  145.5937  138.1575  152.8186 N   0  3  2  0  0  0  0  0  0  0  0  0
  146.6942  138.7272  152.0132 C   0  0  0  0  0  0  0  0  0  0  0  0
  147.5101  139.5952  152.9746 C   0  0  1  0  0  0  0  0  0  0  0  0
  146.9534  141.0257  153.0659 C   0  0  0  0  0  0  0  0  0  0  0  0
  147.3948  138.8399  154.3056 C   0  0  2  0  0  0  0  0  0  0  0  0
  148.5171  137.9067  154.4473 N   0  0  0  0  0  0  0  0  0  0  0  0
  150.0300  138.5282  154.9976 S   0  0  0  0  0  0  0  0  0  0  0  0
  150.4141  139.6163  154.0859 O   0  0  0  0  0  0  0  0  0  0  0  0
  149.9111  138.7873  156.4407 O   0  0  0  0  0  0  0  0  0  0  0  0
  151.1668  137.1006  154.7487 C   0  0  0  0  0  0  0  0  0  0  0  0
  150.7116  135.9457  155.5942 C   0  0  0  0  0  0  0  0  0  0  0  0
  150.3773  134.6263  155.1820 C   0  0  0  0  0  0  0  0  0  0  0  0
  150.0387  134.0042  156.3490 C   0  0  0  0  0  0  0  0  0  0  0  0
  150.1485  134.8626  157.3941 O   0  0  0  0  0  0  0  0  0  0  0  0
  150.5775  136.1004  156.9018 N   0  0  0  0  0  0  0  0  0  0  0  0
  146.0583  138.0790  154.2225 C   0  0  0  0  0  0  0  0  0  0  0  0
  143.1495  135.7884  152.2896 H   0  0  0  0  0  0  0  0  0  0  0  0
  142.9313  137.5270  152.1593 H   0  0  0  0  0  0  0  0  0  0  0  0
  143.3623  136.8052  153.7103 H   0  0  0  0  0  0  0  0  0  0  0  0
  145.5611  136.0574  152.7384 H   0  0  0  0  0  0  0  0  0  0  0  0
  145.1736  136.8333  151.2176 H   0  0  0  0  0  0  0  0  0  0  0  0
  147.3246  137.9191  151.6380 H   0  0  0  0  0  0  0  0  0  0  0  0
  146.3213  139.2824  151.1517 H   0  0  0  0  0  0  0  0  0  0  0  0
  148.5467  139.6625  152.6399 H   0  0  0  0  0  0  0  0  0  0  0  0
  145.9133  141.0329  153.3933 H   0  0  0  0  0  0  0  0  0  0  0  0
  147.0016  141.5270  152.0988 H   0  0  0  0  0  0  0  0  0  0  0  0
  147.5282  141.6236  153.7738 H   0  0  0  0  0  0  0  0  0  0  0  0
  147.4104  139.5286  155.1519 H   0  0  0  0  0  0  0  0  0  0  0  0
  148.6413  137.3551  153.5984 H   0  0  0  0  0  0  0  0  0  0  0  0
  151.1688  136.8429  153.6893 H   0  0  0  0  0  0  0  0  0  0  0  0
  152.1761  137.4091  155.0196 H   0  0  0  0  0  0  0  0  0  0  0  0
  150.3890  134.2024  154.1888 H   0  0  0  0  0  0  0  0  0  0  0  0
  149.7144  133.0024  156.5890 H   0  0  0  0  0  0  0  0  0  0  0  0
  145.3076  138.5443  154.8618 H   0  0  0  0  0  0  0  0  0  0  0  0
  146.1624  137.0437  154.5519 H   0  0  0  0  0  0  0  0  0  0  0  0
  144.8546  138.8459  152.8152 H   0  0  0  0  0  0  0  0  0  0  0  0
  1  2  1  0  0  0  0
  1 19  1  0  0  0  0
  1 20  1  0  0  0  0
  1 21  1  0  0  0  0
  2  3  1  0  0  0  0
  2 22  1  0  0  0  0
  2 23  1  0  0  0  0
  3 18  1  0  0  0  0
  3  4  1  0  0  0  0
  3 38  1  0  0  0  0
  4  5  1  0  0  0  0
  4 24  1  0  0  0  0
  4 25  1  0  0  0  0
  5  6  1  0  0  0  0
  5  7  1  0  0  0  0
  5 26  1  0  0  0  0
  6 27  1  0  0  0  0
  6 28  1  0  0  0  0
  6 29  1  0  0  0  0
  7  8  1  0  0  0  0
  7 18  1  0  0  0  0
  7 30  1  0  0  0  0
  8  9  1  0  0  0  0
  8 31  1  0  0  0  0
  9 10  2  0  0  0  0
  9 11  2  0  0  0  0
  9 12  1  0  0  0  0
 12 13  1  0  0  0  0
 12 32  1  0  0  0  0
 12 33  1  0  0  0  0
 13 17  2  0  0  0  0
 13 14  1  0  0  0  0
 14 15  2  0  0  0  0
 14 34  1  0  0  0  0
 15 16  1  0  0  0  0
 15 35  1  0  0  0  0
 16 17  1  0  0  0  0
 18 36  1  0  0  0  0
 18 37  1  0  0  0  0
M  CHG  1   3   1
M  END
> <s_m_source_file>
AV-unprocessed.smi

> <i_m_source_file_index>
703

> <i_lp_mmshare_version>
43012

> <i_f3d_flags>
0

> <s_epik_input>
W0NIM11bQ0gyXU4xW0NIMl1bQ0BASF0oW0NIM10pW0NASF0oW0NIMl0xKVtOSF1TKD1PKSg9TylbQ0gyXWMyW2NIXVtjSF1vbjI=

> <s_epik_cmdline>
J2VwaWtfcHl0aG9uJywgJy1waCcsICc3LjAnLCAnLXRuJywgJzgnLCAnLW1hJywgJzIwMCcsICctbWV0YWxfYmluZGluZycsICctaW1hZScsICc8aW5maWxlLm1hZT4nLCAnLW9tYWUnLCAnPG91dGZpbGUubWFlPic=

> <r_epik_Ionization_Penalty>
0.00324529

> <r_epik_Ionization_Penalty_Charging>
0.0019384

> <r_epik_Ionization_Penalty_Neutral>
0.00130689

> <r_epik_State_Penalty>
0.00218682

> <r_epik_Charging_Adjusted_Penalty>
0.00412522

> <i_epik_Tot_Q>
1

> <i_epik_Tot_abs_Q>
1

> <r_epik_Metal_State_Penalty>
0.310831

> <b_epik_Metal_Only>
0

> <s_lp_Force_Field>
OPLS_2005

> <r_lp_Energy>
19.6136

> <b_lp_Chiralities_Consistent>
1

> <s_lp_Variant>
AV-unprocessed.smi:703-6

> <Gold.Version>
5.8.1

> <Gold.Id.Protein>
6NUR|6NUR_protein|mol2

> <Gold.PLP.Fitness>
36.8200

> <Gold.PLP.PLP>
-24.8634

> <Gold.PLP.part.hbond>
-3.7656

> <Gold.PLP.part.metal>
0.0000

> <Gold.PLP.part.buried>
-0.8884

> <Gold.PLP.part.nonpolar>
-20.7819

> <Gold.PLP.part.repulsive>
0.5604

> <Gold.PLP.ligand.clash>
0.0000

> <Gold.PLP.ligand.torsion>
0.7056

> <Gold.PLP.Chemscore.Hbond>
4.4037

> <Gold.PLP.Chemscore.CHOScore>
0.0000

> <Gold.PLP.Chemscore.Metal>
0.0000

> <Gold.Chemscore.Hbonds>
donor molecule, donor type, donor heavy atom, donor atom, acceptor molecule, acceptor atom, score
      L1  H     3    38       P1 10175  2.00
      L1  H     8    31       P1  7948  0.88
      P1  H  6896  6908       L1    16  0.53
      P1  H  7989  7998       L1    10  1.00

> <Gold.PLP.Chemscore.Internal.Correction>
0.1566

> <Gold.Rescore>
     Score         DG    S(hbond)    S(metal)    S(lipo)     H(rot)  DE(clash)    DE(int)     intcor
     16.04     -18.41       3.31        0.00      58.36       1.94       0.55       1.82       ----

> <Gold.Chemscore.Fitness>
16.0410

> <Gold.Chemscore.DG>
-18.4110

> <Gold.Chemscore.ZeroCoef>
-5.4800

> <Gold.Chemscore.Hbond>
3.3140

> <Gold.Chemscore.Metal>
0.0000

> <Gold.Chemscore.Lipo>
58.3641

> <Gold.Chemscore.Internal_Hbond>
0.0000

> <Gold.Chemscore.DEClash>
0.5503

> <Gold.Chemscore.DEInternal>
1.8197

> <Gold.Chemscore.Rot>
1.9400

> <Gold.Chemscore.Internal.Correction>
   9.000000E+99

> <Gold.Chemscore.Hbonds>
donor molecule, donor type, donor heavy atom, donor atom, acceptor molecule, acceptor atom, score
      L1  H     3    38       P1 10175  0.93
      L1  H     8    31       P1  7948  0.86
      P1  H  6896  6908       L1    16  0.50
      P1  H  7989  7998       L1    10  0.99

> <Gold.Chemscore.Hbond.Weighted>
-11.0689

> <Gold.Chemscore.Metal.Weighted>
-0.0000

> <Gold.Chemscore.Lipo.Weighted>
-6.8286

> <Gold.Chemscore.Internal_Hbond.Weighted>
0.0000

> <Gold.Chemscore.DEClash.Weighted>
0.5503

> <Gold.Chemscore.DEInternal.Weighted>
1.8197

> <Gold.Chemscore.Rot.Weighted>
4.9665

> <Gold.Chemscore.Internal.Correction.Weighted>
   9.000000E+99

> <Gold.Protein.RotatedTorsions>
[ 6907 6896 6895 6894 ] final  144.80 input  -60.11 | X-H torsion
[ 7974 7965 7964 7962 ] final  129.82 input  175.53 | X-H torsion
[ 8008 7997 7996 7995 ] final -170.51 input   59.86 | X-H torsion
[ 10167 10162 10161 10158 ] final  126.92 input  -65.29 | X-H torsion
[ 10718 10713 10712 10709 ] final   40.97 input   66.30 | X-H torsion
[ 10763 10752 10751 10750 ] final  171.52 input  -60.55 | X-H torsion
[ 11005 11000 10999 10996 ] final  154.39 input  -57.11 | X-H torsion

> <Gold.Protein.ActiveResidues>
 VAL166  LYS551  ARG553  GLY616  TRP617  ASP618  TYR619  PRO620  LYS621  CYS622 
 ASP623  PHE694  ASN695  SER759  ASP760  ASP761  ALA762  ILE779  LEU786  VAL792 
 PHE793  MET794  SER795  GLU796  ALA797  LYS798  CYS799  TRP800  GLU811  SER814 

> <Gold.Protein.RotatedAtoms>
  152.1890  133.4760  159.4997 H   0  0  0  0  0  0  0  0  0  0  0  0  # atno 6907 bound_to 6896
  150.6948  134.1736  159.4231 H   0  0  0  0  0  0  0  0  0  0  0  0  # atno 6908 bound_to 6896
  151.9650  135.0104  160.0600 H   0  0  0  0  0  0  0  0  0  0  0  0  # atno 6909 bound_to 6896
  145.0245  139.4102  143.5181 H   0  0  0  0  0  0  0  0  0  0  0  0  # atno 7974 bound_to 7965
  155.9193  140.1071  157.1219 H   0  0  0  0  0  0  0  0  0  0  0  0  # atno 8008 bound_to 7997
  154.4051  140.1259  156.4724 H   0  0  0  0  0  0  0  0  0  0  0  0  # atno 8009 bound_to 7997
  155.7215  140.3469  155.5020 H   0  0  0  0  0  0  0  0  0  0  0  0  # atno 8010 bound_to 7997
  139.5605  144.6878  151.4056 H   0  0  0  0  0  0  0  0  0  0  0  0  # atno 10167 bound_to 10162
  157.3882  130.7792  149.7248 H   0  0  0  0  0  0  0  0  0  0  0  0  # atno 10718 bound_to 10713
  154.4131  135.2756  155.2024 H   0  0  0  0  0  0  0  0  0  0  0  0  # atno 10763 bound_to 10752
  154.4001  135.6046  153.5896 H   0  0  0  0  0  0  0  0  0  0  0  0  # atno 10764 bound_to 10752
  152.9831  135.5924  154.4416 H   0  0  0  0  0  0  0  0  0  0  0  0  # atno 10765 bound_to 10752
  140.1485  134.8691  157.2424 H   0  0  0  0  0  0  0  0  0  0  0  0  # atno 11005 bound_to 11000
  146.3490  139.9761  142.8701 LP  0  0  0  0  0  0  0  0  0  0  0  0  # atno 17320 bound_to 7965
  145.1852  140.9786  143.4243 LP  0  0  0  0  0  0  0  0  0  0  0  0  # atno 17321 bound_to 7965
  140.6884  143.7919  150.7220 LP  0  0  0  0  0  0  0  0  0  0  0  0  # atno 17342 bound_to 10162
  140.1394  143.4455  152.2203 LP  0  0  0  0  0  0  0  0  0  0  0  0  # atno 17343 bound_to 10162
  155.9792  130.4043  150.3603 LP  0  0  0  0  0  0  0  0  0  0  0  0  # atno 17370 bound_to 10713
  157.1716  131.0370  151.2793 LP  0  0  0  0  0  0  0  0  0  0  0  0  # atno 17371 bound_to 10713
  140.2634  134.3544  155.7398 LP  0  0  0  0  0  0  0  0  0  0  0  0  # atno 17394 bound_to 11000
  141.2196  133.7382  156.9114 LP  0  0  0  0  0  0  0  0  0  0  0  0  # atno 17395 bound_to 11000

$$$$
