AV-unprocessed.smi:1443|AV-procd|sdf|5880|dock1
  -GOLD-   22720 5553D 1   1.00000     0.00000
 Structure written by MMmdl.
 27 28  0  0  0  0  0  0  0  0  1 V2000
  146.5084  138.6977  152.2998 C   0  0  0  0  0  0  0  0  0  0  0  0
  146.5505  140.4227  152.8595 S   0  0  0  0  0  0  0  0  0  0  0  0
  147.9246  140.5407  153.9590 C   0  0  0  0  0  0  0  0  0  0  0  0
  148.6113  139.4414  154.3198 N   0  0  0  0  0  0  0  0  0  0  0  0
  149.8515  139.9030  155.3726 S   0  0  0  0  0  0  0  0  0  0  0  0
  149.3673  141.5698  155.2613 C   0  0  0  0  0  0  0  0  0  0  0  0
  150.0388  142.6118  155.9650 N   0  0  0  0  0  0  0  0  0  0  0  0
  150.9179  142.5681  156.9896 C   0  0  0  0  0  0  0  0  0  0  0  0
  151.2696  141.4955  157.4779 O   0  0  0  0  0  0  0  0  0  0  0  0
  151.3706  143.7532  157.4286 N   0  0  0  0  0  0  0  0  0  0  0  0
  152.2883  143.9583  158.4997 C   0  0  1  0  0  0  0  0  0  0  0  0
  151.8176  144.8295  159.6440 C   0  0  0  0  0  0  0  0  0  0  0  0
  151.9506  143.3436  159.8430 C   0  0  2  0  0  0  0  0  0  0  0  0
  153.0361  142.7961  160.7440 C   0  0  0  0  0  0  0  0  0  0  0  0
  148.3142  141.7262  154.4594 N   0  0  0  0  0  0  0  0  0  0  0  0
  145.6788  138.5463  151.6093 H   0  0  0  0  0  0  0  0  0  0  0  0
  146.3796  138.0248  153.1480 H   0  0  0  0  0  0  0  0  0  0  0  0
  147.4358  138.4393  151.7883 H   0  0  0  0  0  0  0  0  0  0  0  0
  149.8335  143.5418  155.6295 H   0  0  0  0  0  0  0  0  0  0  0  0
  151.0270  144.5819  156.9644 H   0  0  0  0  0  0  0  0  0  0  0  0
  153.3458  144.0287  158.2481 H   0  0  0  0  0  0  0  0  0  0  0  0
  152.5559  145.4741  160.1171 H   0  0  0  0  0  0  0  0  0  0  0  0
  150.8099  145.2383  159.5935 H   0  0  0  0  0  0  0  0  0  0  0  0
  151.0170  142.7859  159.8969 H   0  0  0  0  0  0  0  0  0  0  0  0
  153.9509  143.3820  160.6500 H   0  0  0  0  0  0  0  0  0  0  0  0
  153.2568  141.7627  160.4763 H   0  0  0  0  0  0  0  0  0  0  0  0
  152.7091  142.8243  161.7835 H   0  0  0  0  0  0  0  0  0  0  0  0
  1  2  1  0  0  0  0
  1 16  1  0  0  0  0
  1 17  1  0  0  0  0
  1 18  1  0  0  0  0
  2  3  1  0  0  0  0
  3 15  1  0  0  0  0
  3  4  2  0  0  0  0
  4  5  1  0  0  0  0
  5  6  1  0  0  0  0
  6  7  1  0  0  0  0
  6 15  2  0  0  0  0
  7  8  1  0  0  0  0
  7 19  1  0  0  0  0
  8  9  2  0  0  0  0
  8 10  1  0  0  0  0
 10 11  1  0  0  0  0
 10 20  1  0  0  0  0
 11 13  1  0  0  0  0
 11 12  1  0  0  0  0
 11 21  1  0  0  0  0
 12 13  1  0  0  0  0
 12 22  1  0  0  0  0
 12 23  1  0  0  0  0
 13 14  1  0  0  0  0
 13 24  1  0  0  0  0
 14 25  1  0  0  0  0
 14 26  1  0  0  0  0
 14 27  1  0  0  0  0
M  END
> <s_m_source_file>
AV-unprocessed.smi

> <i_m_source_file_index>
1443

> <i_lp_mmshare_version>
43012

> <i_f3d_flags>
0

> <s_epik_input>
W0NIM11TYzFuc2MobjEpW05IXUMoPU8pW05IXVtDQEBIXTJbQ0gyXVtDQEhdMltDSDNd

> <s_epik_cmdline>
J2VwaWtfcHl0aG9uJywgJy1waCcsICc3LjAnLCAnLXRuJywgJzgnLCAnLW1hJywgJzIwMCcsICctbWV0YWxfYmluZGluZycsICctaW1hZScsICc8aW5maWxlLm1hZT4nLCAnLW9tYWUnLCAnPG91dGZpbGUubWFlPic=

> <r_lp_tautomer_probability>
1

> <r_epik_Ionization_Penalty>
2.74658e-05

> <r_epik_Ionization_Penalty_Charging>
0

> <r_epik_Ionization_Penalty_Neutral>
2.74658e-05

> <r_epik_State_Penalty>
-0

> <r_epik_Charging_Adjusted_Penalty>
0

> <i_epik_Tot_Q>
0

> <i_epik_Tot_abs_Q>
0

> <r_epik_Metal_State_Penalty>
-0

> <b_epik_Metal_Only>
0

> <s_lp_Force_Field>
OPLS_2005

> <r_lp_Energy>
20.7485

> <b_lp_Chiralities_Consistent>
1

> <s_lp_Variant>
AV-unprocessed.smi:1443-4

> <Gold.Version>
5.8.1

> <Gold.Id.Protein>
6NUR|6NUR_protein|mol2

> <Gold.PLP.Fitness>
36.7089

> <Gold.PLP.PLP>
-34.2491

> <Gold.PLP.part.hbond>
-1.8888

> <Gold.PLP.part.metal>
0.0000

> <Gold.PLP.part.buried>
-0.1426

> <Gold.PLP.part.nonpolar>
-33.0305

> <Gold.PLP.part.repulsive>
0.7022

> <Gold.PLP.ligand.clash>
0.0000

> <Gold.PLP.ligand.torsion>
0.1064

> <Gold.PLP.Chemscore.Hbond>
0.8800

> <Gold.PLP.Chemscore.CHOScore>
0.0000

> <Gold.PLP.Chemscore.Metal>
0.0000

> <Gold.Chemscore.Hbonds>
donor molecule, donor type, donor heavy atom, donor atom, acceptor molecule, acceptor atom, score
      L1  H     7    19       P1  8028  0.90

> <Gold.PLP.Chemscore.Internal.Correction>
0.0326

> <Gold.Rescore>
     Score         DG    S(hbond)    S(metal)    S(lipo)     H(rot)  DE(clash)    DE(int)     intcor
     12.47     -13.94       1.01        0.00      71.17       1.27       0.35       1.12       ----

> <Gold.Chemscore.Fitness>
12.4687

> <Gold.Chemscore.DG>
-13.9416

> <Gold.Chemscore.ZeroCoef>
-5.4800

> <Gold.Chemscore.Hbond>
1.0138

> <Gold.Chemscore.Metal>
0.0000

> <Gold.Chemscore.Lipo>
71.1674

> <Gold.Chemscore.Internal_Hbond>
0.0000

> <Gold.Chemscore.DEClash>
0.3545

> <Gold.Chemscore.DEInternal>
1.1185

> <Gold.Chemscore.Rot>
1.2699

> <Gold.Chemscore.Internal.Correction>
   9.000000E+99

> <Gold.Chemscore.Hbonds>
donor molecule, donor type, donor heavy atom, donor atom, acceptor molecule, acceptor atom, score
      L1  H     7    19       P1  8028  0.83
      L1  H    10    20       P1  8028  0.01

> <Gold.Chemscore.Hbond.Weighted>
-3.3860

> <Gold.Chemscore.Metal.Weighted>
-0.0000

> <Gold.Chemscore.Lipo.Weighted>
-8.3266

> <Gold.Chemscore.Internal_Hbond.Weighted>
0.0000

> <Gold.Chemscore.DEClash.Weighted>
0.3545

> <Gold.Chemscore.DEInternal.Weighted>
1.1185

> <Gold.Chemscore.Rot.Weighted>
3.2509

> <Gold.Chemscore.Internal.Correction.Weighted>
   9.000000E+99

> <Gold.Protein.RotatedTorsions>
[ 6907 6896 6895 6894 ] final   -7.61 input  -60.11 | X-H torsion
[ 7974 7965 7964 7962 ] final -110.19 input  175.53 | X-H torsion
[ 8008 7997 7996 7995 ] final  -26.44 input   59.86 | X-H torsion
[ 10167 10162 10161 10158 ] final   79.31 input  -65.29 | X-H torsion
[ 10718 10713 10712 10709 ] final -161.73 input   66.30 | X-H torsion
[ 10763 10752 10751 10750 ] final   36.82 input  -60.55 | X-H torsion
[ 11005 11000 10999 10996 ] final   68.94 input  -57.11 | X-H torsion

> <Gold.Protein.ActiveResidues>
 VAL166  LYS551  ARG553  GLY616  TRP617  ASP618  TYR619  PRO620  LYS621  CYS622 
 ASP623  PHE694  ASN695  SER759  ASP760  ASP761  ALA762  ILE779  LEU786  VAL792 
 PHE793  MET794  SER795  GLU796  ALA797  LYS798  CYS799  TRP800  GLU811  SER814 

> <Gold.Protein.RotatedAtoms>
  151.4469  135.1026  159.9686 H   0  0  0  0  0  0  0  0  0  0  0  0  # atno 6907 bound_to 6896
  152.4902  133.8476  159.7195 H   0  0  0  0  0  0  0  0  0  0  0  0  # atno 6908 bound_to 6896
  150.9049  133.7012  159.2897 H   0  0  0  0  0  0  0  0  0  0  0  0  # atno 6909 bound_to 6896
  145.1713  140.8927  143.3533 H   0  0  0  0  0  0  0  0  0  0  0  0  # atno 7974 bound_to 7965
  154.4425  140.1899  156.0775 H   0  0  0  0  0  0  0  0  0  0  0  0  # atno 8008 bound_to 7997
  156.0464  140.3314  155.7274 H   0  0  0  0  0  0  0  0  0  0  0  0  # atno 8009 bound_to 7997
  155.5623  140.0605  157.2816 H   0  0  0  0  0  0  0  0  0  0  0  0  # atno 8010 bound_to 7997
  139.9617  144.5956  150.8066 H   0  0  0  0  0  0  0  0  0  0  0  0  # atno 10167 bound_to 10162
  156.6004  130.8808  151.2912 H   0  0  0  0  0  0  0  0  0  0  0  0  # atno 10718 bound_to 10713
  153.0062  135.6295  154.2046 H   0  0  0  0  0  0  0  0  0  0  0  0  # atno 10763 bound_to 10752
  154.1789  135.2814  155.3060 H   0  0  0  0  0  0  0  0  0  0  0  0  # atno 10764 bound_to 10752
  154.5850  135.5635  153.7282 H   0  0  0  0  0  0  0  0  0  0  0  0  # atno 10765 bound_to 10752
  139.9682  134.6944  156.0501 H   0  0  0  0  0  0  0  0  0  0  0  0  # atno 11005 bound_to 11000
  145.0230  139.3407  143.6063 LP  0  0  0  0  0  0  0  0  0  0  0  0  # atno 17320 bound_to 7965
  146.3468  139.9538  142.8725 LP  0  0  0  0  0  0  0  0  0  0  0  0  # atno 17321 bound_to 7965
  140.7551  143.3039  151.3010 LP  0  0  0  0  0  0  0  0  0  0  0  0  # atno 17342 bound_to 10162
  139.6549  144.0295  152.2652 LP  0  0  0  0  0  0  0  0  0  0  0  0  # atno 17343 bound_to 10162
  157.7281  130.9652  150.1728 LP  0  0  0  0  0  0  0  0  0  0  0  0  # atno 17370 bound_to 10713
  156.2474  130.3697  149.8269 LP  0  0  0  0  0  0  0  0  0  0  0  0  # atno 17371 bound_to 10713
  141.1362  133.6574  156.3600 LP  0  0  0  0  0  0  0  0  0  0  0  0  # atno 17394 bound_to 11000
  140.5350  134.6176  157.5362 LP  0  0  0  0  0  0  0  0  0  0  0  0  # atno 17395 bound_to 11000

$$$$
