AV-unprocessed.smi:2012|AV-procd|sdf|8155|dock9
  -GOLD-   2272010393D 1   1.00000     0.00000
 Structure written by MMmdl.
 50 51  0  0  0  0  0  0  0  0  1 V2000
  146.7124  133.2223  155.2095 C   0  0  0  0  0  0  0  0  0  0  0  0
  146.9411  133.7861  153.8119 C   0  0  0  0  0  0  0  0  0  0  0  0
  148.0001  133.5668  153.2245 O   0  0  0  0  0  0  0  0  0  0  0  0
  145.9389  134.5146  153.2932 N   0  0  0  0  0  0  0  0  0  0  0  0
  145.9602  135.1848  151.9908 C   0  0  2  0  0  0  0  0  0  0  0  0
  145.5793  136.6600  152.2135 C   0  0  0  0  0  0  0  0  0  0  0  0
  144.4446  136.9646  152.5848 O   0  0  0  0  0  0  0  0  0  0  0  0
  146.5478  137.5629  151.9960 N   0  0  0  0  0  0  0  0  0  0  0  0
  146.4248  138.9968  152.2435 C   0  0  0  0  0  0  0  0  0  0  0  0
  147.4820  139.5812  153.1754 C   0  0  0  0  0  0  0  0  0  0  0  0
  147.4526  140.9550  153.4842 C   0  0  0  0  0  0  0  0  0  0  0  0
  148.4297  141.4693  154.3572 C   0  0  0  0  0  0  0  0  0  0  0  0
  149.3972  140.7121  154.9154 N   0  0  0  0  0  0  0  0  0  0  0  0
  149.4462  139.3898  154.6193 C   0  0  0  0  0  0  0  0  0  0  0  0
  150.4535  138.6034  155.2200 N   0  0  0  0  0  0  0  0  0  0  0  0
  151.8487  138.9908  155.0230 C   0  0  0  0  0  0  0  0  0  0  0  0
  152.7542  138.2460  156.0191 C   0  0  0  0  0  0  0  0  0  0  0  0
  152.5454  136.8420  155.9063 O   0  0  0  0  0  0  0  0  0  0  0  0
  151.2022  136.4792  156.2099 C   0  0  0  0  0  0  0  0  0  0  0  0
  150.2444  137.1574  155.2161 C   0  0  0  0  0  0  0  0  0  0  0  0
  148.5061  138.7927  153.7475 C   0  0  0  0  0  0  0  0  0  0  0  0
  144.9287  134.4978  151.0482 C   0  0  0  0  0  0  0  0  0  0  0  0
  143.5259  134.4359  151.6835 C   0  0  0  0  0  0  0  0  0  0  0  0
  145.3546  133.0758  150.6270 C   0  0  0  0  0  0  0  0  0  0  0  0
  146.6884  134.0285  155.9429 H   0  0  0  0  0  0  0  0  0  0  0  0
  147.5118  132.5336  155.4853 H   0  0  0  0  0  0  0  0  0  0  0  0
  145.7662  132.6824  155.2556 H   0  0  0  0  0  0  0  0  0  0  0  0
  145.1086  134.6428  153.8533 H   0  0  0  0  0  0  0  0  0  0  0  0
  146.9576  135.1148  151.5510 H   0  0  0  0  0  0  0  0  0  0  0  0
  147.4502  137.2277  151.6916 H   0  0  0  0  0  0  0  0  0  0  0  0
  146.4942  139.5109  151.2848 H   0  0  0  0  0  0  0  0  0  0  0  0
  145.4320  139.2161  152.6401 H   0  0  0  0  0  0  0  0  0  0  0  0
  146.6938  141.6016  153.0688 H   0  0  0  0  0  0  0  0  0  0  0  0
  148.4315  142.5174  154.6181 H   0  0  0  0  0  0  0  0  0  0  0  0
  152.1457  138.7591  153.9992 H   0  0  0  0  0  0  0  0  0  0  0  0
  151.9690  140.0657  155.1636 H   0  0  0  0  0  0  0  0  0  0  0  0
  153.8013  138.4673  155.8119 H   0  0  0  0  0  0  0  0  0  0  0  0
  152.5564  138.5717  157.0418 H   0  0  0  0  0  0  0  0  0  0  0  0
  151.1040  135.3957  156.1452 H   0  0  0  0  0  0  0  0  0  0  0  0
  150.9591  136.7599  157.2363 H   0  0  0  0  0  0  0  0  0  0  0  0
  149.2222  136.8876  155.4739 H   0  0  0  0  0  0  0  0  0  0  0  0
  150.4249  136.7802  154.2087 H   0  0  0  0  0  0  0  0  0  0  0  0
  148.5546  137.7357  153.5417 H   0  0  0  0  0  0  0  0  0  0  0  0
  144.8392  135.0919  150.1368 H   0  0  0  0  0  0  0  0  0  0  0  0
  143.5422  133.8803  152.6216 H   0  0  0  0  0  0  0  0  0  0  0  0
  142.8157  133.9421  151.0196 H   0  0  0  0  0  0  0  0  0  0  0  0
  143.1271  135.4289  151.8916 H   0  0  0  0  0  0  0  0  0  0  0  0
  145.5057  132.4359  151.4972 H   0  0  0  0  0  0  0  0  0  0  0  0
  146.2790  133.0763  150.0492 H   0  0  0  0  0  0  0  0  0  0  0  0
  144.5937  132.6083  150.0014 H   0  0  0  0  0  0  0  0  0  0  0  0
  1  2  1  0  0  0  0
  1 25  1  0  0  0  0
  1 26  1  0  0  0  0
  1 27  1  0  0  0  0
  2  3  2  0  0  0  0
  2  4  1  0  0  0  0
  4  5  1  0  0  0  0
  4 28  1  0  0  0  0
  5  6  1  0  0  0  0
  5 22  1  0  0  0  0
  5 29  1  0  0  0  0
  6  7  2  0  0  0  0
  6  8  1  0  0  0  0
  8  9  1  0  0  0  0
  8 30  1  0  0  0  0
  9 10  1  0  0  0  0
  9 31  1  0  0  0  0
  9 32  1  0  0  0  0
 10 21  1  0  0  0  0
 10 11  2  0  0  0  0
 11 12  1  0  0  0  0
 11 33  1  0  0  0  0
 12 13  2  0  0  0  0
 12 34  1  0  0  0  0
 13 14  1  0  0  0  0
 14 15  1  0  0  0  0
 14 21  2  0  0  0  0
 15 20  1  0  0  0  0
 15 16  1  0  0  0  0
 16 17  1  0  0  0  0
 16 35  1  0  0  0  0
 16 36  1  0  0  0  0
 17 18  1  0  0  0  0
 17 37  1  0  0  0  0
 17 38  1  0  0  0  0
 18 19  1  0  0  0  0
 19 20  1  0  0  0  0
 19 39  1  0  0  0  0
 19 40  1  0  0  0  0
 20 41  1  0  0  0  0
 20 42  1  0  0  0  0
 21 43  1  0  0  0  0
 22 23  1  0  0  0  0
 22 24  1  0  0  0  0
 22 44  1  0  0  0  0
 23 45  1  0  0  0  0
 23 46  1  0  0  0  0
 23 47  1  0  0  0  0
 24 48  1  0  0  0  0
 24 49  1  0  0  0  0
 24 50  1  0  0  0  0
M  END
> <s_m_source_file>
AV-unprocessed.smi

> <i_m_source_file_index>
2012

> <i_lp_mmshare_version>
43012

> <i_f3d_flags>
0

> <s_epik_input>
W0NIM11DKD1PKVtOSF1bQ0BASF0oW0NIXShbQ0gzXSlbQ0gzXSlDKD1PKVtOSF1bQ0gyXWMxW2NIXVtjSF1uYyhbY0hdMSlOMltDSDJdW0NIMl1PW0NIMl1bQ0gyXTI=

> <s_epik_cmdline>
J2VwaWtfcHl0aG9uJywgJy1waCcsICc3LjAnLCAnLXRuJywgJzgnLCAnLW1hJywgJzIwMCcsICctbWV0YWxfYmluZGluZycsICctaW1hZScsICc8aW5maWxlLm1hZT4nLCAnLW9tYWUnLCAnPG91dGZpbGUubWFlPic=

> <r_lp_tautomer_probability>
1

> <r_epik_Ionization_Penalty>
0.00518786

> <r_epik_Ionization_Penalty_Charging>
0

> <r_epik_Ionization_Penalty_Neutral>
0.00518786

> <r_epik_State_Penalty>
0.00378052

> <r_epik_Charging_Adjusted_Penalty>
0.00378052

> <i_epik_Tot_Q>
0

> <i_epik_Tot_abs_Q>
0

> <r_epik_Metal_State_Penalty>
-0

> <b_epik_Metal_Only>
0

> <s_lp_Force_Field>
OPLS_2005

> <r_lp_Energy>
14.5368

> <b_lp_Chiralities_Consistent>
1

> <s_lp_Variant>
AV-unprocessed.smi:2012-1

> <Gold.Version>
5.8.1

> <Gold.Id.Protein>
6NUR|6NUR_protein|mol2

> <Gold.PLP.Fitness>
42.6949

> <Gold.PLP.PLP>
-34.5695

> <Gold.PLP.part.hbond>
-2.0000

> <Gold.PLP.part.metal>
0.0000

> <Gold.PLP.part.buried>
-2.2125

> <Gold.PLP.part.nonpolar>
-31.9873

> <Gold.PLP.part.repulsive>
0.9343

> <Gold.PLP.ligand.clash>
0.0000

> <Gold.PLP.ligand.torsion>
0.4814

> <Gold.PLP.Chemscore.Hbond>
1.8640

> <Gold.PLP.Chemscore.CHOScore>
1.0000

> <Gold.PLP.Chemscore.Metal>
0.0000

> <Gold.Chemscore.Hbonds>
donor molecule, donor type, donor heavy atom, donor atom, acceptor molecule, acceptor atom, score
      L1  H     8    30       P1  7948  1.00
      P1  H 10752 10765       L1    18  0.88
      L1  C    12    34       P1  8028  1.00

> <Gold.PLP.Chemscore.Internal.Correction>
0.4963

> <Gold.Rescore>
     Score         DG    S(hbond)    S(metal)    S(lipo)     H(rot)  DE(clash)    DE(int)     intcor
     13.75     -16.01       1.87        0.00      84.49       2.18       0.44       1.83       ----

> <Gold.Chemscore.Fitness>
13.7453

> <Gold.Chemscore.DG>
-16.0147

> <Gold.Chemscore.ZeroCoef>
-5.4800

> <Gold.Chemscore.Hbond>
1.8663

> <Gold.Chemscore.Metal>
0.0000

> <Gold.Chemscore.Lipo>
84.4919

> <Gold.Chemscore.Internal_Hbond>
0.0000

> <Gold.Chemscore.DEClash>
0.4389

> <Gold.Chemscore.DEInternal>
1.8305

> <Gold.Chemscore.Rot>
2.1813

> <Gold.Chemscore.Internal.Correction>
   9.000000E+99

> <Gold.Chemscore.Hbonds>
donor molecule, donor type, donor heavy atom, donor atom, acceptor molecule, acceptor atom, score
      L1  H     8    30       P1  7948  0.98
      P1  H 10752 10765       L1    18  0.39

> <Gold.Chemscore.Hbond.Weighted>
-6.2333

> <Gold.Chemscore.Metal.Weighted>
-0.0000

> <Gold.Chemscore.Lipo.Weighted>
-9.8855

> <Gold.Chemscore.Internal_Hbond.Weighted>
0.0000

> <Gold.Chemscore.DEClash.Weighted>
0.4389

> <Gold.Chemscore.DEInternal.Weighted>
1.8305

> <Gold.Chemscore.Rot.Weighted>
5.5842

> <Gold.Chemscore.Internal.Correction.Weighted>
   9.000000E+99

> <Gold.Protein.RotatedTorsions>
[ 6907 6896 6895 6894 ] final   84.47 input  -60.11 | X-H torsion
[ 7974 7965 7964 7962 ] final   25.02 input  175.53 | X-H torsion
[ 8008 7997 7996 7995 ] final   38.61 input   59.86 | X-H torsion
[ 10167 10162 10161 10158 ] final -163.72 input  -65.29 | X-H torsion
[ 10718 10713 10712 10709 ] final   71.38 input   66.30 | X-H torsion
[ 10763 10752 10751 10750 ] final -152.19 input  -60.55 | X-H torsion
[ 11005 11000 10999 10996 ] final  -42.01 input  -57.11 | X-H torsion

> <Gold.Protein.ActiveResidues>
 VAL166  LYS551  ARG553  GLY616  TRP617  ASP618  TYR619  PRO620  LYS621  CYS622 
 ASP623  PHE694  ASN695  SER759  ASP760  ASP761  ALA762  ILE779  LEU786  VAL792 
 PHE793  MET794  SER795  GLU796  ALA797  LYS798  CYS799  TRP800  GLU811  SER814 

> <Gold.Protein.RotatedAtoms>
  152.5353  134.2736  159.8980 H   0  0  0  0  0  0  0  0  0  0  0  0  # atno 6907 bound_to 6896
  151.2692  133.4257  159.2628 H   0  0  0  0  0  0  0  0  0  0  0  0  # atno 6908 bound_to 6896
  151.0383  134.9604  159.8204 H   0  0  0  0  0  0  0  0  0  0  0  0  # atno 6909 bound_to 6896
  146.1909  139.7523  142.8832 H   0  0  0  0  0  0  0  0  0  0  0  0  # atno 7974 bound_to 7965
  155.2230  140.3332  155.4313 H   0  0  0  0  0  0  0  0  0  0  0  0  # atno 8008 bound_to 7997
  156.2325  140.1857  156.7251 H   0  0  0  0  0  0  0  0  0  0  0  0  # atno 8009 bound_to 7997
  154.6003  140.0624  156.9345 H   0  0  0  0  0  0  0  0  0  0  0  0  # atno 8010 bound_to 7997
  139.6300  144.0457  152.2008 H   0  0  0  0  0  0  0  0  0  0  0  0  # atno 10167 bound_to 10162
  157.6448  130.9525  150.0781 H   0  0  0  0  0  0  0  0  0  0  0  0  # atno 10718 bound_to 10713
  154.8010  135.3242  154.7550 H   0  0  0  0  0  0  0  0  0  0  0  0  # atno 10763 bound_to 10752
  153.8218  135.6887  153.4830 H   0  0  0  0  0  0  0  0  0  0  0  0  # atno 10764 bound_to 10752
  153.1727  135.4617  154.9867 H   0  0  0  0  0  0  0  0  0  0  0  0  # atno 10765 bound_to 10752
  141.0286  133.6830  156.2536 H   0  0  0  0  0  0  0  0  0  0  0  0  # atno 11005 bound_to 11000
  145.3795  141.0356  143.3185 LP  0  0  0  0  0  0  0  0  0  0  0  0  # atno 17320 bound_to 7965
  144.8485  139.5359  143.6867 LP  0  0  0  0  0  0  0  0  0  0  0  0  # atno 17321 bound_to 7965
  140.0120  144.6216  150.7639 LP  0  0  0  0  0  0  0  0  0  0  0  0  # atno 17342 bound_to 10162
  140.7434  143.2845  151.3503 LP  0  0  0  0  0  0  0  0  0  0  0  0  # atno 17343 bound_to 10162
  156.1765  130.3648  149.9093 LP  0  0  0  0  0  0  0  0  0  0  0  0  # atno 17370 bound_to 10713
  156.7055  130.8950  151.3604 LP  0  0  0  0  0  0  0  0  0  0  0  0  # atno 17371 bound_to 10713
  140.6447  134.5129  157.5572 LP  0  0  0  0  0  0  0  0  0  0  0  0  # atno 17394 bound_to 11000
  139.9192  134.8183  156.1265 LP  0  0  0  0  0  0  0  0  0  0  0  0  # atno 17395 bound_to 11000

$$$$
