AV-unprocessed.smi:158|AV-procd|sdf|1326|dock10
  -GOLD-   2262019 23D 1   1.00000     0.00000
 Structure written by MMmdl.
 31 33  0  0  0  0  0  0  0  0  1 V2000
  153.8229  135.2987  158.6090 N   0  0  0  0  0  0  0  0  0  0  0  0
  153.6324  136.5995  158.3486 C   0  0  0  0  0  0  0  0  0  0  0  0
  154.2532  137.5119  159.1325 N   0  0  0  0  0  0  0  0  0  0  0  0
  154.0901  138.8215  158.9062 C   0  0  0  0  0  0  0  0  0  0  0  0
  154.9261  139.8917  159.9687 Cl  0  0  0  0  0  0  0  0  0  0  0  0
  153.3502  139.3941  157.9500 N   0  0  0  0  0  0  0  0  0  0  0  0
  152.7220  138.4755  157.1605 C   0  0  0  0  0  0  0  0  0  0  0  0
  152.8115  137.0649  157.2927 C   0  0  0  0  0  0  0  0  0  0  0  0
  152.0420  136.4490  156.3152 N   0  0  0  0  0  0  0  0  0  0  0  0
  151.5278  137.4466  155.6460 C   0  0  0  0  0  0  0  0  0  0  0  0
  151.8804  138.7031  156.0945 N   0  0  0  0  0  0  0  0  0  0  0  0
  151.4838  140.0488  155.5729 C   0  0  1  0  0  0  0  0  0  0  0  0
  150.6314  139.8526  154.4826 O   0  0  0  0  0  0  0  0  0  0  0  0
  149.3030  140.2891  154.7759 C   0  0  1  0  0  0  0  0  0  0  0  0
  148.2516  139.3429  154.1691 C   0  0  0  0  0  0  0  0  0  0  0  0
  148.5728  139.0624  152.8239 O   0  0  0  0  0  0  0  0  0  0  0  0
  149.2507  140.4506  156.3030 C   0  0  1  0  0  0  0  0  0  0  0  0
  148.8464  139.2702  156.9735 O   0  0  0  0  0  0  0  0  0  0  0  0
  150.6869  140.8033  156.6420 C   0  0  2  0  0  0  0  0  0  0  0  0
  150.8874  142.1120  156.4804 F   0  0  0  0  0  0  0  0  0  0  0  0
  152.4248  140.5209  155.2878 H   0  0  0  0  0  0  0  0  0  0  0  0
  149.1919  141.2851  154.3431 H   0  0  0  0  0  0  0  0  0  0  0  0
  148.5625  141.2442  156.5957 H   0  0  0  0  0  0  0  0  0  0  0  0
  150.9928  140.5468  157.6574 H   0  0  0  0  0  0  0  0  0  0  0  0
  153.3691  134.6003  158.0377 H   0  0  0  0  0  0  0  0  0  0  0  0
  154.4164  135.0191  159.3764 H   0  0  0  0  0  0  0  0  0  0  0  0
  150.8716  137.2852  154.8043 H   0  0  0  0  0  0  0  0  0  0  0  0
  148.1656  138.4175  154.7382 H   0  0  0  0  0  0  0  0  0  0  0  0
  147.2708  139.8193  154.1733 H   0  0  0  0  0  0  0  0  0  0  0  0
  148.6071  138.1247  152.7115 H   0  0  0  0  0  0  0  0  0  0  0  0
  147.9114  139.1733  156.8764 H   0  0  0  0  0  0  0  0  0  0  0  0
  1  2  1  0  0  0  0
  1 25  1  0  0  0  0
  1 26  1  0  0  0  0
  2  8  1  0  0  0  0
  2  3  2  0  0  0  0
  3  4  1  0  0  0  0
  4  5  1  0  0  0  0
  4  6  2  0  0  0  0
  6  7  1  0  0  0  0
  7 11  1  0  0  0  0
  7  8  2  0  0  0  0
  8  9  1  0  0  0  0
  9 10  2  0  0  0  0
 10 11  1  0  0  0  0
 10 27  1  0  0  0  0
 11 12  1  0  0  0  0
 12 21  1  0  0  0  0
 12 19  1  0  0  0  0
 12 13  1  0  0  0  0
 13 14  1  0  0  0  0
 14 22  1  0  0  0  0
 14 15  1  0  0  0  0
 14 17  1  0  0  0  0
 15 16  1  0  0  0  0
 15 28  1  0  0  0  0
 15 29  1  0  0  0  0
 16 30  1  0  0  0  0
 17 23  1  0  0  0  0
 17 18  1  0  0  0  0
 17 19  1  0  0  0  0
 18 31  1  0  0  0  0
 19 24  1  0  0  0  0
 19 20  1  0  0  0  0
M  END
> <s_m_source_file>
AV-unprocessed.smi

> <i_m_source_file_index>
158

> <i_lp_mmshare_version>
43012

> <i_f3d_flags>
0

> <s_epik_input>
Q2xjKG4xKW5jKFtOSDJdKWMoYzEyKW5bY0hdbjJbQ0BASF0zT1tDQEhdKFtDSDJdW09IXSlbQ0BASF0oW09IXSlbQ0BASF0zRg==

> <s_epik_cmdline>
J2VwaWtfcHl0aG9uJywgJy1waCcsICc3LjAnLCAnLXRuJywgJzgnLCAnLW1hJywgJzIwMCcsICctbWV0YWxfYmluZGluZycsICctaW1hZScsICc8aW5maWxlLm1hZT4nLCAnLW9tYWUnLCAnPG91dGZpbGUubWFlPic=

> <r_lp_tautomer_probability>
1

> <r_epik_Ionization_Penalty>
6.51543e-05

> <r_epik_Ionization_Penalty_Charging>
0

> <r_epik_Ionization_Penalty_Neutral>
6.51543e-05

> <r_epik_State_Penalty>
-0

> <r_epik_Charging_Adjusted_Penalty>
0

> <i_epik_Tot_Q>
0

> <i_epik_Tot_abs_Q>
0

> <r_epik_Metal_State_Penalty>
-0

> <b_epik_Metal_Only>
0

> <s_epik_Chemistry_Notes>
This compound contains an acetal/aminal-like group ( X-CH(R)-Y where X, Y are N, S, or O) that may be acid/base labile, releasing an aldehyde.

> <s_lp_Force_Field>
OPLS_2005

> <r_lp_Energy>
31.9678

> <b_lp_Chiralities_Consistent>
1

> <s_lp_Variant>
AV-unprocessed.smi:158-4

> <Gold.Version>
5.8.1

> <Gold.Id.Protein>
6NUR|6NUR_protein|mol2

> <Gold.PLP.Fitness>
35.3756

> <Gold.PLP.PLP>
-23.5414

> <Gold.PLP.part.hbond>
-3.5597

> <Gold.PLP.part.metal>
0.0000

> <Gold.PLP.part.buried>
-2.2284

> <Gold.PLP.part.nonpolar>
-17.3533

> <Gold.PLP.part.repulsive>
0.2103

> <Gold.PLP.ligand.clash>
0.0000

> <Gold.PLP.ligand.torsion>
0.0896

> <Gold.PLP.Chemscore.Hbond>
4.0000

> <Gold.PLP.Chemscore.CHOScore>
0.0000

> <Gold.PLP.Chemscore.Metal>
0.0000

> <Gold.Chemscore.Hbonds>
donor molecule, donor type, donor heavy atom, donor atom, acceptor molecule, acceptor atom, score
      L1  H    16    30       P1  7948  0.88
      P1  H  7989  7998       L1    13  0.55
      P1  H  7997  8010       L1     6  0.65
      P1  H 10752 10763       L1     9  0.93

> <Gold.PLP.Chemscore.Internal.Correction>
0.0134

> <Gold.Rescore>
     Score         DG    S(hbond)    S(metal)    S(lipo)     H(rot)  DE(clash)    DE(int)     intcor
      8.75      -8.89       2.39        0.00      29.36       3.12       0.06       0.08       ----

> <Gold.Chemscore.Fitness>
8.7474

> <Gold.Chemscore.DG>
-8.8903

> <Gold.Chemscore.ZeroCoef>
-5.4800

> <Gold.Chemscore.Hbond>
2.3861

> <Gold.Chemscore.Metal>
0.0000

> <Gold.Chemscore.Lipo>
29.3637

> <Gold.Chemscore.Internal_Hbond>
0.0000

> <Gold.Chemscore.DEClash>
0.0628

> <Gold.Chemscore.DEInternal>
0.0801

> <Gold.Chemscore.Rot>
3.1230

> <Gold.Chemscore.Internal.Correction>
   9.000000E+99

> <Gold.Chemscore.Hbonds>
donor molecule, donor type, donor heavy atom, donor atom, acceptor molecule, acceptor atom, score
      L1  H    16    30       P1  7948  0.85
      P1  H  7989  7998       L1    13  0.03
      P1  H  7997  8010       L1     6  0.04
      P1  H 10752 10763       L1     9  0.26

> <Gold.Chemscore.Hbond.Weighted>
-7.9697

> <Gold.Chemscore.Metal.Weighted>
-0.0000

> <Gold.Chemscore.Lipo.Weighted>
-3.4355

> <Gold.Chemscore.Internal_Hbond.Weighted>
0.0000

> <Gold.Chemscore.DEClash.Weighted>
0.0628

> <Gold.Chemscore.DEInternal.Weighted>
0.0801

> <Gold.Chemscore.Rot.Weighted>
7.9950

> <Gold.Chemscore.Internal.Correction.Weighted>
   9.000000E+99

> <Gold.Protein.RotatedTorsions>
[ 6907 6896 6895 6894 ] final   93.56 input  -60.11 | X-H torsion
[ 7974 7965 7964 7962 ] final  100.68 input  175.53 | X-H torsion
[ 8008 7997 7996 7995 ] final   23.56 input   59.86 | X-H torsion
[ 10167 10162 10161 10158 ] final  -97.41 input  -65.29 | X-H torsion
[ 10718 10713 10712 10709 ] final   50.47 input   66.30 | X-H torsion
[ 10763 10752 10751 10750 ] final  113.13 input  -60.55 | X-H torsion
[ 11005 11000 10999 10996 ] final  173.26 input  -57.11 | X-H torsion

> <Gold.Protein.ActiveResidues>
 VAL166  LYS551  ARG553  GLY616  TRP617  ASP618  TYR619  PRO620  LYS621  CYS622 
 ASP623  PHE694  ASN695  SER759  ASP760  ASP761  ALA762  ILE779  LEU786  VAL792 
 PHE793  MET794  SER795  GLU796  ALA797  LYS798  CYS799  TRP800  GLU811  SER814 

> <Gold.Protein.RotatedAtoms>
  152.5452  134.1330  159.8446 H   0  0  0  0  0  0  0  0  0  0  0  0  # atno 6907 bound_to 6896
  151.1373  133.4988  159.2605 H   0  0  0  0  0  0  0  0  0  0  0  0  # atno 6908 bound_to 6896
  151.1610  135.0283  159.8765 H   0  0  0  0  0  0  0  0  0  0  0  0  # atno 6909 bound_to 6896
  145.3824  139.2377  143.3396 H   0  0  0  0  0  0  0  0  0  0  0  0  # atno 7974 bound_to 7965
  154.9827  140.3104  155.4939 H   0  0  0  0  0  0  0  0  0  0  0  0  # atno 8008 bound_to 7997
  156.2951  140.2263  156.4867 H   0  0  0  0  0  0  0  0  0  0  0  0  # atno 8009 bound_to 7997
  154.7774  140.0448  157.1088 H   0  0  0  0  0  0  0  0  0  0  0  0  # atno 8010 bound_to 7997
  140.2837  143.3266  152.0416 H   0  0  0  0  0  0  0  0  0  0  0  0  # atno 10167 bound_to 10162
  157.4887  130.8362  149.8177 H   0  0  0  0  0  0  0  0  0  0  0  0  # atno 10718 bound_to 10713
  153.4879  135.3665  155.2476 H   0  0  0  0  0  0  0  0  0  0  0  0  # atno 10763 bound_to 10752
  154.8753  135.3970  154.3623 H   0  0  0  0  0  0  0  0  0  0  0  0  # atno 10764 bound_to 10752
  153.4238  135.7081  153.6342 H   0  0  0  0  0  0  0  0  0  0  0  0  # atno 10765 bound_to 10752
  140.3385  134.7296  157.4186 H   0  0  0  0  0  0  0  0  0  0  0  0  # atno 11005 bound_to 11000
  146.2836  140.4494  142.8767 LP  0  0  0  0  0  0  0  0  0  0  0  0  # atno 17320 bound_to 7965
  144.8498  140.6984  143.6175 LP  0  0  0  0  0  0  0  0  0  0  0  0  # atno 17321 bound_to 7965
  139.4956  144.6574  151.6542 LP  0  0  0  0  0  0  0  0  0  0  0  0  # atno 17342 bound_to 10162
  140.5791  143.9978  150.6258 LP  0  0  0  0  0  0  0  0  0  0  0  0  # atno 17343 bound_to 10162
  156.0161  130.3813  150.2106 LP  0  0  0  0  0  0  0  0  0  0  0  0  # atno 17370 bound_to 10713
  157.0294  131.0003  151.3316 LP  0  0  0  0  0  0  0  0  0  0  0  0  # atno 17371 bound_to 10713
  140.0800  134.5744  155.8550 LP  0  0  0  0  0  0  0  0  0  0  0  0  # atno 17394 bound_to 11000
  141.2045  133.6639  156.6123 LP  0  0  0  0  0  0  0  0  0  0  0  0  # atno 17395 bound_to 11000

$$$$
