AV-unprocessed.smi:1576|AV-procd|sdf|6343|dock1
  -GOLD-   22720 6563D 1   1.00000     0.00000
 Structure written by MMmdl.
 45 47  0  0  0  0  0  0  0  0  1 V2000
  149.2720  135.5496  156.2548 O   0  0  0  0  0  0  0  0  0  0  0  0
  149.1515  135.8915  155.0789 C   0  0  0  0  0  0  0  0  0  0  0  0
  149.5157  137.0817  154.5722 N   0  0  0  0  0  0  0  0  0  0  0  0
  150.0276  138.2169  155.2570 C   0  0  0  0  0  0  0  0  0  0  0  0
  150.2549  138.1067  156.6424 C   0  0  0  0  0  0  0  0  0  0  0  0
  150.7844  139.2063  157.3434 C   0  0  0  0  0  0  0  0  0  0  0  0
  151.0842  140.3946  156.6374 C   0  0  0  0  0  0  0  0  0  0  0  0
  151.6180  141.5086  157.3206 N   0  0  0  0  0  0  0  0  0  0  0  0
  150.9671  142.8060  157.1187 C   0  0  0  0  0  0  0  0  0  0  0  0
  151.8639  143.9590  157.6004 C   0  0  0  0  0  0  0  0  0  0  0  0
  152.3079  143.7418  159.0543 C   0  0  0  0  0  0  0  0  0  0  0  0
  152.9869  142.3714  159.1970 C   0  0  0  0  0  0  0  0  0  0  0  0
  152.0725  141.2441  158.6872 C   0  0  0  0  0  0  0  0  0  0  0  0
  150.8812  140.4953  155.3010 N   0  0  0  0  0  0  0  0  0  0  0  0
  150.3700  139.4398  154.6326 C   0  0  0  0  0  0  0  0  0  0  0  0
  148.6519  135.0925  154.1255 N   0  0  0  0  0  0  0  0  0  0  0  0
  148.1668  133.7298  154.3356 C   0  0  2  0  0  0  0  0  0  0  0  0
  148.6962  132.7857  153.2351 C   0  0  0  0  0  0  0  0  0  0  0  0
  147.8612  132.9771  151.9624 C   0  0  0  0  0  0  0  0  0  0  0  0
  146.1784  133.4336  152.5268 S   0  0  0  0  0  0  0  0  0  0  0  0
  145.8026  134.7171  151.9146 O   0  0  0  0  0  0  0  0  0  0  0  0
  145.2925  132.2631  152.4358 O   0  0  0  0  0  0  0  0  0  0  0  0
  146.6314  133.7050  154.2830 C   0  0  0  0  0  0  0  0  0  0  0  0
  149.4439  137.1780  153.5699 H   0  0  0  0  0  0  0  0  0  0  0  0
  150.0279  137.1896  157.1663 H   0  0  0  0  0  0  0  0  0  0  0  0
  150.9695  139.1222  158.4040 H   0  0  0  0  0  0  0  0  0  0  0  0
  150.7380  142.9516  156.0621 H   0  0  0  0  0  0  0  0  0  0  0  0
  150.0199  142.8192  157.6596 H   0  0  0  0  0  0  0  0  0  0  0  0
  152.7424  144.0304  156.9574 H   0  0  0  0  0  0  0  0  0  0  0  0
  151.3338  144.9072  157.5067 H   0  0  0  0  0  0  0  0  0  0  0  0
  152.9891  144.5352  159.3636 H   0  0  0  0  0  0  0  0  0  0  0  0
  151.4423  143.7953  159.7156 H   0  0  0  0  0  0  0  0  0  0  0  0
  153.9207  142.3657  158.6329 H   0  0  0  0  0  0  0  0  0  0  0  0
  153.2530  142.1922  160.2390 H   0  0  0  0  0  0  0  0  0  0  0  0
  151.1975  141.1569  159.3325 H   0  0  0  0  0  0  0  0  0  0  0  0
  152.6063  140.2974  158.7579 H   0  0  0  0  0  0  0  0  0  0  0  0
  150.2621  139.5912  153.5702 H   0  0  0  0  0  0  0  0  0  0  0  0
  148.6001  135.4525  153.1836 H   0  0  0  0  0  0  0  0  0  0  0  0
  148.4987  133.3883  155.3179 H   0  0  0  0  0  0  0  0  0  0  0  0
  149.7612  132.9211  153.0431 H   0  0  0  0  0  0  0  0  0  0  0  0
  148.5725  131.7575  153.5770 H   0  0  0  0  0  0  0  0  0  0  0  0
  148.2513  133.8015  151.3652 H   0  0  0  0  0  0  0  0  0  0  0  0
  147.8220  132.0834  151.3395 H   0  0  0  0  0  0  0  0  0  0  0  0
  146.2471  132.8608  154.8561 H   0  0  0  0  0  0  0  0  0  0  0  0
  146.1622  134.6137  154.6612 H   0  0  0  0  0  0  0  0  0  0  0  0
  1  2  2  0  0  0  0
  2  3  1  0  0  0  0
  2 16  1  0  0  0  0
  3  4  1  0  0  0  0
  3 24  1  0  0  0  0
  4 15  1  0  0  0  0
  4  5  2  0  0  0  0
  5  6  1  0  0  0  0
  5 25  1  0  0  0  0
  6  7  2  0  0  0  0
  6 26  1  0  0  0  0
  7  8  1  0  0  0  0
  7 14  1  0  0  0  0
  8 13  1  0  0  0  0
  8  9  1  0  0  0  0
  9 10  1  0  0  0  0
  9 27  1  0  0  0  0
  9 28  1  0  0  0  0
 10 11  1  0  0  0  0
 10 29  1  0  0  0  0
 10 30  1  0  0  0  0
 11 12  1  0  0  0  0
 11 31  1  0  0  0  0
 11 32  1  0  0  0  0
 12 13  1  0  0  0  0
 12 33  1  0  0  0  0
 12 34  1  0  0  0  0
 13 35  1  0  0  0  0
 13 36  1  0  0  0  0
 14 15  2  0  0  0  0
 15 37  1  0  0  0  0
 16 17  1  0  0  0  0
 16 38  1  0  0  0  0
 17 23  1  0  0  0  0
 17 18  1  0  0  0  0
 17 39  1  0  0  0  0
 18 19  1  0  0  0  0
 18 40  1  0  0  0  0
 18 41  1  0  0  0  0
 19 20  1  0  0  0  0
 19 42  1  0  0  0  0
 19 43  1  0  0  0  0
 20 21  2  0  0  0  0
 20 22  2  0  0  0  0
 20 23  1  0  0  0  0
 23 44  1  0  0  0  0
 23 45  1  0  0  0  0
M  END
> <s_m_source_file>
AV-unprocessed.smi

> <i_m_source_file_index>
1576

> <i_lp_mmshare_version>
43012

> <i_f3d_flags>
0

> <s_epik_input>
Tz1TMSg9TylbQ0gyXVtDSDJdW0NASF0oW0NIMl0xKVtOSF1DKD1PKVtOSF1jMltjSF1bY0hdYyhuW2NIXTIpTjNbQ0gyXVtDSDJdW0NIMl1bQ0gyXVtDSDJdMw==

> <s_epik_cmdline>
J2VwaWtfcHl0aG9uJywgJy1waCcsICc3LjAnLCAnLXRuJywgJzgnLCAnLW1hJywgJzIwMCcsICctbWV0YWxfYmluZGluZycsICctaW1hZScsICc8aW5maWxlLm1hZT4nLCAnLW9tYWUnLCAnPG91dGZpbGUubWFlPic=

> <r_lp_tautomer_probability>
1

> <r_epik_Ionization_Penalty>
0.0900267

> <r_epik_Ionization_Penalty_Charging>
0

> <r_epik_Ionization_Penalty_Neutral>
0.0900267

> <r_epik_State_Penalty>
0.0748882

> <r_epik_Charging_Adjusted_Penalty>
0.0748882

> <i_epik_Tot_Q>
0

> <i_epik_Tot_abs_Q>
0

> <r_epik_Metal_State_Penalty>
0.0662821

> <b_epik_Metal_Only>
0

> <s_lp_Force_Field>
OPLS_2005

> <r_lp_Energy>
21.2293

> <b_lp_Chiralities_Consistent>
1

> <s_lp_Variant>
AV-unprocessed.smi:1576-1

> <Gold.Version>
5.8.1

> <Gold.Id.Protein>
6NUR|6NUR_protein|mol2

> <Gold.PLP.Fitness>
43.0411

> <Gold.PLP.PLP>
-34.3767

> <Gold.PLP.part.hbond>
-3.0000

> <Gold.PLP.part.metal>
0.0000

> <Gold.PLP.part.buried>
-0.8842

> <Gold.PLP.part.nonpolar>
-29.9746

> <Gold.PLP.part.repulsive>
0.3817

> <Gold.PLP.ligand.clash>
0.0000

> <Gold.PLP.ligand.torsion>
0.3918

> <Gold.PLP.Chemscore.Hbond>
2.0096

> <Gold.PLP.Chemscore.CHOScore>
1.0000

> <Gold.PLP.Chemscore.Metal>
0.0000

> <Gold.Chemscore.Hbonds>
donor molecule, donor type, donor heavy atom, donor atom, acceptor molecule, acceptor atom, score
      L1  H     3    24       P1  7948  0.91
      L1  H    16    38       P1  7948  1.00
      P1  H  7989  7998       L1    14  0.10
      L1  C    15    37       P1  7957  1.00

> <Gold.PLP.Chemscore.Internal.Correction>
0.4193

> <Gold.Rescore>
     Score         DG    S(hbond)    S(metal)    S(lipo)     H(rot)  DE(clash)    DE(int)     intcor
     17.04     -18.97       1.88        0.00      88.62       1.24       0.02       1.90       ----

> <Gold.Chemscore.Fitness>
17.0434

> <Gold.Chemscore.DG>
-18.9656

> <Gold.Chemscore.ZeroCoef>
-5.4800

> <Gold.Chemscore.Hbond>
1.8811

> <Gold.Chemscore.Metal>
0.0000

> <Gold.Chemscore.Lipo>
88.6186

> <Gold.Chemscore.Internal_Hbond>
0.0000

> <Gold.Chemscore.DEClash>
0.0234

> <Gold.Chemscore.DEInternal>
1.8988

> <Gold.Chemscore.Rot>
1.2366

> <Gold.Chemscore.Internal.Correction>
   9.000000E+99

> <Gold.Chemscore.Hbonds>
donor molecule, donor type, donor heavy atom, donor atom, acceptor molecule, acceptor atom, score
      L1  H     3    24       P1  7948  0.79
      L1  H    16    38       P1  7948  0.90

> <Gold.Chemscore.Hbond.Weighted>
-6.2830

> <Gold.Chemscore.Metal.Weighted>
-0.0000

> <Gold.Chemscore.Lipo.Weighted>
-10.3684

> <Gold.Chemscore.Internal_Hbond.Weighted>
0.0000

> <Gold.Chemscore.DEClash.Weighted>
0.0234

> <Gold.Chemscore.DEInternal.Weighted>
1.8988

> <Gold.Chemscore.Rot.Weighted>
3.1657

> <Gold.Chemscore.Internal.Correction.Weighted>
   9.000000E+99

> <Gold.Protein.RotatedTorsions>
[ 6907 6896 6895 6894 ] final  117.59 input  -60.11 | X-H torsion
[ 7974 7965 7964 7962 ] final   32.23 input  175.53 | X-H torsion
[ 8008 7997 7996 7995 ] final  149.24 input   59.86 | X-H torsion
[ 10167 10162 10161 10158 ] final  -44.37 input  -65.29 | X-H torsion
[ 10718 10713 10712 10709 ] final    3.88 input   66.30 | X-H torsion
[ 10763 10752 10751 10750 ] final   91.56 input  -60.55 | X-H torsion
[ 11005 11000 10999 10996 ] final  -33.85 input  -57.11 | X-H torsion

> <Gold.Protein.ActiveResidues>
 VAL166  LYS551  ARG553  GLY616  TRP617  ASP618  TYR619  PRO620  LYS621  CYS622 
 ASP623  PHE694  ASN695  SER759  ASP760  ASP761  ALA762  ILE779  LEU786  VAL792 
 PHE793  MET794  SER795  GLU796  ALA797  LYS798  CYS799  TRP800  GLU811  SER814 

> <Gold.Protein.RotatedAtoms>
  152.4601  133.7805  159.6847 H   0  0  0  0  0  0  0  0  0  0  0  0  # atno 6907 bound_to 6896
  150.8542  133.7730  159.3021 H   0  0  0  0  0  0  0  0  0  0  0  0  # atno 6908 bound_to 6896
  151.5316  135.1071  159.9956 H   0  0  0  0  0  0  0  0  0  0  0  0  # atno 6909 bound_to 6896
  146.1500  139.6554  142.9105 H   0  0  0  0  0  0  0  0  0  0  0  0  # atno 7974 bound_to 7965
  156.2762  140.2107  156.5827 H   0  0  0  0  0  0  0  0  0  0  0  0  # atno 8008 bound_to 7997
  154.7046  140.0517  157.0514 H   0  0  0  0  0  0  0  0  0  0  0  0  # atno 8009 bound_to 7997
  155.0688  140.3174  155.4640 H   0  0  0  0  0  0  0  0  0  0  0  0  # atno 8010 bound_to 7997
  140.6899  143.2933  151.3486 H   0  0  0  0  0  0  0  0  0  0  0  0  # atno 10167 bound_to 10162
  156.8844  130.5665  149.5652 H   0  0  0  0  0  0  0  0  0  0  0  0  # atno 10718 bound_to 10713
  153.2096  135.4393  155.0364 H   0  0  0  0  0  0  0  0  0  0  0  0  # atno 10763 bound_to 10752
  154.8192  135.3330  154.7089 H   0  0  0  0  0  0  0  0  0  0  0  0  # atno 10764 bound_to 10752
  153.7528  135.6997  153.4998 H   0  0  0  0  0  0  0  0  0  0  0  0  # atno 10765 bound_to 10752
  140.9669  133.7132  156.1459 H   0  0  0  0  0  0  0  0  0  0  0  0  # atno 11005 bound_to 11000
  145.4846  141.0438  143.2627 LP  0  0  0  0  0  0  0  0  0  0  0  0  # atno 17320 bound_to 7965
  144.7892  139.6363  143.7120 LP  0  0  0  0  0  0  0  0  0  0  0  0  # atno 17321 bound_to 7965
  139.6292  144.0754  152.2461 LP  0  0  0  0  0  0  0  0  0  0  0  0  # atno 17342 bound_to 10162
  140.0223  144.6143  150.7556 LP  0  0  0  0  0  0  0  0  0  0  0  0  # atno 17343 bound_to 10162
  156.0660  130.5703  150.9290 LP  0  0  0  0  0  0  0  0  0  0  0  0  # atno 17370 bound_to 10713
  157.6121  131.0935  150.8776 LP  0  0  0  0  0  0  0  0  0  0  0  0  # atno 17371 bound_to 10713
  140.7386  134.4175  157.5557 LP  0  0  0  0  0  0  0  0  0  0  0  0  # atno 17394 bound_to 11000
  139.8898  134.8822  156.2404 LP  0  0  0  0  0  0  0  0  0  0  0  0  # atno 17395 bound_to 11000

$$$$
