AV-unprocessed.smi:3106|AV-procd|sdf|11823|dock10
  -GOLD-   2272017193D 1   1.00000     0.00000
 Structure written by MMmdl.
 29 30  0  0  0  0  0  0  0  0  1 V2000
  151.5560  145.5910  159.7718 C   0  0  0  0  0  0  0  0  0  0  0  0
  152.1518  144.2479  160.1373 C   0  0  0  0  0  0  0  0  0  0  0  0
  152.2872  143.8578  161.4830 C   0  0  0  0  0  0  0  0  0  0  0  0
  152.8453  142.5975  161.7712 C   0  0  0  0  0  0  0  0  0  0  0  0
  153.2537  141.7581  160.7104 C   0  0  0  0  0  0  0  0  0  0  0  0
  153.8040  140.5113  161.1088 N   0  0  0  0  0  0  0  0  0  0  0  0
  154.5819  139.6728  160.3976 C   0  0  0  0  0  0  0  0  0  0  0  0
  154.9628  139.8849  159.2459 O   0  0  0  0  0  0  0  0  0  0  0  0
  155.0223  138.3886  161.1145 C   0  0  2  0  0  0  0  0  0  0  0  0
  153.8714  137.4499  161.4881 C   0  0  0  0  0  0  0  0  0  0  0  0
  154.4544  136.7065  162.6684 C   0  0  0  0  0  0  0  0  0  0  0  0
  155.2458  137.8034  163.3730 C   0  0  0  0  0  0  0  0  0  0  0  0
  155.6645  138.7045  162.3510 O   0  0  0  0  0  0  0  0  0  0  0  0
  153.1174  142.1424  159.4167 N   0  0  0  0  0  0  0  0  0  0  0  0
  152.5821  143.3502  159.1410 C   0  0  0  0  0  0  0  0  0  0  0  0
  151.7865  146.3369  160.5331 H   0  0  0  0  0  0  0  0  0  0  0  0
  150.4723  145.5103  159.6854 H   0  0  0  0  0  0  0  0  0  0  0  0
  151.9524  145.9452  158.8198 H   0  0  0  0  0  0  0  0  0  0  0  0
  151.9698  144.5106  162.2829 H   0  0  0  0  0  0  0  0  0  0  0  0
  152.9569  142.2827  162.7986 H   0  0  0  0  0  0  0  0  0  0  0  0
  153.5729  140.2118  162.0448 H   0  0  0  0  0  0  0  0  0  0  0  0
  155.7412  137.8581  160.4885 H   0  0  0  0  0  0  0  0  0  0  0  0
  152.9866  138.0092  161.7980 H   0  0  0  0  0  0  0  0  0  0  0  0
  153.5878  136.7832  160.6733 H   0  0  0  0  0  0  0  0  0  0  0  0
  153.6974  136.2491  163.3062 H   0  0  0  0  0  0  0  0  0  0  0  0
  155.1278  135.9225  162.3192 H   0  0  0  0  0  0  0  0  0  0  0  0
  154.6052  138.3460  164.0693 H   0  0  0  0  0  0  0  0  0  0  0  0
  156.0957  137.4100  163.9310 H   0  0  0  0  0  0  0  0  0  0  0  0
  152.4955  143.6049  158.0950 H   0  0  0  0  0  0  0  0  0  0  0  0
  1  2  1  0  0  0  0
  1 16  1  0  0  0  0
  1 17  1  0  0  0  0
  1 18  1  0  0  0  0
  2 15  1  0  0  0  0
  2  3  2  0  0  0  0
  3  4  1  0  0  0  0
  3 19  1  0  0  0  0
  4  5  2  0  0  0  0
  4 20  1  0  0  0  0
  5  6  1  0  0  0  0
  5 14  1  0  0  0  0
  6  7  1  0  0  0  0
  6 21  1  0  0  0  0
  7  8  2  0  0  0  0
  7  9  1  0  0  0  0
  9 13  1  0  0  0  0
  9 10  1  0  0  0  0
  9 22  1  0  0  0  0
 10 11  1  0  0  0  0
 10 23  1  0  0  0  0
 10 24  1  0  0  0  0
 11 12  1  0  0  0  0
 11 25  1  0  0  0  0
 11 26  1  0  0  0  0
 12 13  1  0  0  0  0
 12 27  1  0  0  0  0
 12 28  1  0  0  0  0
 14 15  2  0  0  0  0
 15 29  1  0  0  0  0
M  END
> <s_m_source_file>
AV-unprocessed.smi

> <i_m_source_file_index>
3106

> <i_lp_mmshare_version>
43012

> <i_f3d_flags>
0

> <s_epik_input>
W0NIM11jMVtjSF1bY0hdYyhuW2NIXTEpW05IXUMoPU8pW0NAQEhdMltDSDJdW0NIMl1bQ0gyXU8y

> <s_epik_cmdline>
J2VwaWtfcHl0aG9uJywgJy1waCcsICc3LjAnLCAnLXRuJywgJzgnLCAnLW1hJywgJzIwMCcsICctbWV0YWxfYmluZGluZycsICctaW1hZScsICc8aW5maWxlLm1hZT4nLCAnLW9tYWUnLCAnPG91dGZpbGUubWFlPic=

> <r_epik_Ionization_Penalty>
0.00356606

> <r_epik_Ionization_Penalty_Charging>
0

> <r_epik_Ionization_Penalty_Neutral>
0.00356606

> <r_epik_State_Penalty>
0.00372088

> <r_epik_Charging_Adjusted_Penalty>
0.00372088

> <i_epik_Tot_Q>
0

> <i_epik_Tot_abs_Q>
0

> <r_epik_Metal_State_Penalty>
-0

> <b_epik_Metal_Only>
0

> <s_lp_Force_Field>
OPLS_2005

> <r_lp_Energy>
20.8335

> <b_lp_Chiralities_Consistent>
1

> <s_lp_Variant>
AV-unprocessed.smi:3106-1

> <Gold.Version>
5.8.1

> <Gold.Id.Protein>
6NUR|6NUR_protein|mol2

> <Gold.PLP.Fitness>
40.0787

> <Gold.PLP.PLP>
-37.3077

> <Gold.PLP.part.hbond>
-1.0000

> <Gold.PLP.part.metal>
0.0000

> <Gold.PLP.part.buried>
-4.5172

> <Gold.PLP.part.nonpolar>
-31.9773

> <Gold.PLP.part.repulsive>
0.0423

> <Gold.PLP.ligand.clash>
0.0000

> <Gold.PLP.ligand.torsion>
0.1166

> <Gold.PLP.Chemscore.Hbond>
1.0000

> <Gold.PLP.Chemscore.CHOScore>
0.0000

> <Gold.PLP.Chemscore.Metal>
0.0000

> <Gold.Chemscore.Hbonds>
donor molecule, donor type, donor heavy atom, donor atom, acceptor molecule, acceptor atom, score
      P1  H  7997  8010       L1     8  1.00

> <Gold.PLP.Chemscore.Internal.Correction>
0.0042

> <Gold.Rescore>
     Score         DG    S(hbond)    S(metal)    S(lipo)     H(rot)  DE(clash)    DE(int)     intcor
     15.54     -16.95       0.99        0.00      91.64       1.00       0.08       1.32       ----

> <Gold.Chemscore.Fitness>
15.5443

> <Gold.Chemscore.DG>
-16.9468

> <Gold.Chemscore.ZeroCoef>
-5.4800

> <Gold.Chemscore.Hbond>
0.9896

> <Gold.Chemscore.Metal>
0.0000

> <Gold.Chemscore.Lipo>
91.6369

> <Gold.Chemscore.Internal_Hbond>
0.0000

> <Gold.Chemscore.DEClash>
0.0840

> <Gold.Chemscore.DEInternal>
1.3185

> <Gold.Chemscore.Rot>
1.0000

> <Gold.Chemscore.Internal.Correction>
   9.000000E+99

> <Gold.Chemscore.Hbonds>
donor molecule, donor type, donor heavy atom, donor atom, acceptor molecule, acceptor atom, score
      P1  H  7997  8010       L1     8  0.95

> <Gold.Chemscore.Hbond.Weighted>
-3.3053

> <Gold.Chemscore.Metal.Weighted>
-0.0000

> <Gold.Chemscore.Lipo.Weighted>
-10.7215

> <Gold.Chemscore.Internal_Hbond.Weighted>
0.0000

> <Gold.Chemscore.DEClash.Weighted>
0.0840

> <Gold.Chemscore.DEInternal.Weighted>
1.3185

> <Gold.Chemscore.Rot.Weighted>
2.5600

> <Gold.Chemscore.Internal.Correction.Weighted>
   9.000000E+99

> <Gold.Protein.RotatedTorsions>
[ 6907 6896 6895 6894 ] final  -93.29 input  -60.11 | X-H torsion
[ 7974 7965 7964 7962 ] final   78.77 input  175.53 | X-H torsion
[ 8008 7997 7996 7995 ] final  -17.17 input   59.86 | X-H torsion
[ 10167 10162 10161 10158 ] final  119.57 input  -65.29 | X-H torsion
[ 10718 10713 10712 10709 ] final  -26.35 input   66.30 | X-H torsion
[ 10763 10752 10751 10750 ] final  133.42 input  -60.55 | X-H torsion
[ 11005 11000 10999 10996 ] final  -32.40 input  -57.11 | X-H torsion

> <Gold.Protein.ActiveResidues>
 VAL166  LYS551  ARG553  GLY616  TRP617  ASP618  TYR619  PRO620  LYS621  CYS622 
 ASP623  PHE694  ASN695  SER759  ASP760  ASP761  ALA762  ILE779  LEU786  VAL792 
 PHE793  MET794  SER795  GLU796  ALA797  LYS798  CYS799  TRP800  GLU811  SER814 

> <Gold.Protein.RotatedAtoms>
  150.6920  134.1990  159.4314 H   0  0  0  0  0  0  0  0  0  0  0  0  # atno 6907 bound_to 6896
  151.9957  134.9953  160.0572 H   0  0  0  0  0  0  0  0  0  0  0  0  # atno 6908 bound_to 6896
  152.1626  133.4556  159.4905 H   0  0  0  0  0  0  0  0  0  0  0  0  # atno 6909 bound_to 6896
  145.6729  139.2502  143.1858 H   0  0  0  0  0  0  0  0  0  0  0  0  # atno 7974 bound_to 7965
  154.4998  140.2150  155.9371 H   0  0  0  0  0  0  0  0  0  0  0  0  # atno 8008 bound_to 7997
  156.1419  140.3178  155.8476 H   0  0  0  0  0  0  0  0  0  0  0  0  # atno 8009 bound_to 7997
  155.4105  140.0490  157.3022 H   0  0  0  0  0  0  0  0  0  0  0  0  # atno 8010 bound_to 7997
  139.6038  144.7064  151.3001 H   0  0  0  0  0  0  0  0  0  0  0  0  # atno 10167 bound_to 10162
  156.4523  130.4486  149.6982 H   0  0  0  0  0  0  0  0  0  0  0  0  # atno 10718 bound_to 10713
  153.8069  135.3134  155.3396 H   0  0  0  0  0  0  0  0  0  0  0  0  # atno 10763 bound_to 10752
  154.8067  135.4693  154.0413 H   0  0  0  0  0  0  0  0  0  0  0  0  # atno 10764 bound_to 10752
  153.1779  135.6888  153.8607 H   0  0  0  0  0  0  0  0  0  0  0  0  # atno 10765 bound_to 10752
  140.9548  133.7199  156.1277 H   0  0  0  0  0  0  0  0  0  0  0  0  # atno 11005 bound_to 11000
  146.1030  140.7521  142.9540 LP  0  0  0  0  0  0  0  0  0  0  0  0  # atno 17320 bound_to 7965
  144.7051  140.3818  143.7125 LP  0  0  0  0  0  0  0  0  0  0  0  0  # atno 17321 bound_to 7965
  140.7269  143.6977  150.7870 LP  0  0  0  0  0  0  0  0  0  0  0  0  # atno 17342 bound_to 10162
  140.0558  143.5204  152.2652 LP  0  0  0  0  0  0  0  0  0  0  0  0  # atno 17343 bound_to 10162
  156.3803  130.7575  151.2568 LP  0  0  0  0  0  0  0  0  0  0  0  0  # atno 17370 bound_to 10713
  157.7502  131.0297  150.4106 LP  0  0  0  0  0  0  0  0  0  0  0  0  # atno 17371 bound_to 10713
  140.7551  134.4002  157.5535 LP  0  0  0  0  0  0  0  0  0  0  0  0  # atno 17394 bound_to 11000
  139.8859  134.8925  156.2617 LP  0  0  0  0  0  0  0  0  0  0  0  0  # atno 17395 bound_to 11000

$$$$
