AV-unprocessed.smi:221|AV-procd|sdf|1688|dock5
  -GOLD-   2262020133D 1   1.00000     0.00000
 Structure written by MMmdl.
 50 53  0  0  0  0  0  0  0  0  1 V2000
  142.3218  134.2645  154.6414 N   0  0  0  0  0  0  0  0  0  0  0  0
  142.3300  135.1956  153.6848 C   0  0  0  0  0  0  0  0  0  0  0  0
  141.7434  136.2691  153.8118 O   0  0  0  0  0  0  0  0  0  0  0  0
  143.1268  134.8759  152.4121 C   0  0  2  0  0  0  0  0  0  0  0  0
  142.8441  133.4496  151.9021 C   0  0  0  0  0  0  0  0  0  0  0  0
  144.1657  133.0265  151.2759 C   0  0  2  0  0  0  0  0  0  0  0  0
  144.2933  131.7025  151.1921 F   0  0  0  0  0  0  0  0  0  0  0  0
  145.1806  133.6583  152.2198 C   0  0  0  0  0  0  0  0  0  0  0  0
  144.5763  134.9180  152.6491 N   0  0  0  0  0  0  0  0  0  0  0  0
  145.1648  136.0739  152.2538 C   0  0  0  0  0  0  0  0  0  0  0  0
  145.1844  136.4149  150.9378 N   0  0  0  0  0  0  0  0  0  0  0  0
  145.7342  137.5703  150.5525 C   0  0  0  0  0  0  0  0  0  0  0  0
  146.3055  138.5142  151.3034 N   0  0  0  0  0  0  0  0  0  0  0  0
  146.2838  138.1775  152.6251 C   0  0  0  0  0  0  0  0  0  0  0  0
  145.7315  136.9896  153.1809 C   0  0  0  0  0  0  0  0  0  0  0  0
  145.8792  136.9987  154.5614 N   0  0  0  0  0  0  0  0  0  0  0  0
  146.4822  138.1290  154.8089 C   0  0  0  0  0  0  0  0  0  0  0  0
  146.7910  138.8875  153.7007 N   0  0  0  0  0  0  0  0  0  0  0  0
  147.4457  140.1881  153.6843 C   0  0  0  0  0  0  0  0  0  0  0  0
  148.6293  140.3182  154.6849 C   0  0  2  0  0  0  0  0  0  0  0  0
  149.4780  141.5557  154.3086 C   0  0  0  0  0  0  0  0  0  0  0  0
  148.6555  142.6809  154.0762 O   0  0  0  0  0  0  0  0  0  0  0  0
  149.5359  139.0506  154.7632 C   0  0  2  0  0  0  0  0  0  0  0  0
  150.5272  138.9874  155.9174 C   0  0  0  0  0  0  0  0  0  0  0  0
  151.6843  139.8542  155.4327 C   0  0  0  0  0  0  0  0  0  0  0  0
  151.6703  139.7383  154.0141 O   0  0  0  0  0  0  0  0  0  0  0  0
  150.5417  138.9722  153.6043 C   0  0  0  0  0  0  0  0  0  0  0  0
  142.8594  135.5872  151.6266 H   0  0  0  0  0  0  0  0  0  0  0  0
  144.2649  133.4394  150.2711 H   0  0  0  0  0  0  0  0  0  0  0  0
  141.8037  134.4272  155.4927 H   0  0  0  0  0  0  0  0  0  0  0  0
  142.8245  133.3990  154.5087 H   0  0  0  0  0  0  0  0  0  0  0  0
  142.6018  132.7768  152.7272 H   0  0  0  0  0  0  0  0  0  0  0  0
  142.0178  133.4141  151.1918 H   0  0  0  0  0  0  0  0  0  0  0  0
  145.3091  133.0371  153.1072 H   0  0  0  0  0  0  0  0  0  0  0  0
  146.1644  133.7571  151.7590 H   0  0  0  0  0  0  0  0  0  0  0  0
  145.7122  137.7672  149.4908 H   0  0  0  0  0  0  0  0  0  0  0  0
  146.7242  138.4369  155.8156 H   0  0  0  0  0  0  0  0  0  0  0  0
  147.7813  140.4162  152.6721 H   0  0  0  0  0  0  0  0  0  0  0  0
  146.6676  140.9180  153.9080 H   0  0  0  0  0  0  0  0  0  0  0  0
  148.2318  140.5013  155.6836 H   0  0  0  0  0  0  0  0  0  0  0  0
  150.1741  141.8278  155.0999 H   0  0  0  0  0  0  0  0  0  0  0  0
  150.0786  141.3563  153.4205 H   0  0  0  0  0  0  0  0  0  0  0  0
  148.9643  143.3948  154.6132 H   0  0  0  0  0  0  0  0  0  0  0  0
  148.8971  138.1666  154.7807 H   0  0  0  0  0  0  0  0  0  0  0  0
  150.1365  139.2793  156.8871 H   0  0  0  0  0  0  0  0  0  0  0  0
  150.8776  137.9600  156.0279 H   0  0  0  0  0  0  0  0  0  0  0  0
  151.5252  140.8987  155.7019 H   0  0  0  0  0  0  0  0  0  0  0  0
  152.6408  139.5378  155.8493 H   0  0  0  0  0  0  0  0  0  0  0  0
  150.8650  137.9399  153.4611 H   0  0  0  0  0  0  0  0  0  0  0  0
  150.1622  139.3272  152.6475 H   0  0  0  0  0  0  0  0  0  0  0  0
  1  2  1  0  0  0  0
  1 30  1  0  0  0  0
  1 31  1  0  0  0  0
  2  3  2  0  0  0  0
  2  4  1  0  0  0  0
  4 28  1  0  0  0  0
  4  9  1  0  0  0  0
  4  5  1  0  0  0  0
  5  6  1  0  0  0  0
  5 32  1  0  0  0  0
  5 33  1  0  0  0  0
  6 29  1  0  0  0  0
  6  7  1  0  0  0  0
  6  8  1  0  0  0  0
  8  9  1  0  0  0  0
  8 34  1  0  0  0  0
  8 35  1  0  0  0  0
  9 10  1  0  0  0  0
 10 15  1  0  0  0  0
 10 11  2  0  0  0  0
 11 12  1  0  0  0  0
 12 13  2  0  0  0  0
 12 36  1  0  0  0  0
 13 14  1  0  0  0  0
 14 18  1  0  0  0  0
 14 15  2  0  0  0  0
 15 16  1  0  0  0  0
 16 17  2  0  0  0  0
 17 18  1  0  0  0  0
 17 37  1  0  0  0  0
 18 19  1  0  0  0  0
 19 20  1  0  0  0  0
 19 38  1  0  0  0  0
 19 39  1  0  0  0  0
 20 21  1  0  0  0  0
 20 23  1  0  0  0  0
 20 40  1  0  0  0  0
 21 22  1  0  0  0  0
 21 41  1  0  0  0  0
 21 42  1  0  0  0  0
 22 43  1  0  0  0  0
 23 27  1  0  0  0  0
 23 24  1  0  0  0  0
 23 44  1  0  0  0  0
 24 25  1  0  0  0  0
 24 45  1  0  0  0  0
 24 46  1  0  0  0  0
 25 26  1  0  0  0  0
 25 47  1  0  0  0  0
 25 48  1  0  0  0  0
 26 27  1  0  0  0  0
 27 49  1  0  0  0  0
 27 50  1  0  0  0  0
M  END
> <s_m_source_file>
AV-unprocessed.smi

> <i_m_source_file_index>
221

> <i_lp_mmshare_version>
43012

> <i_f3d_flags>
0

> <s_epik_input>
W05IMl1DKD1PKVtDQEBIXTFbQ0gyXVtDQEBIXShGKVtDSDJdTjFjKG5bY0hdbjIpYyhjMjMpbltjSF1uM1tDSDJdW0NASF0oW0NIMl1bT0hdKVtDQEBIXTRbQ0gyXVtDSDJdT1tDSDJdNA==

> <s_epik_cmdline>
J2VwaWtfcHl0aG9uJywgJy1waCcsICc3LjAnLCAnLXRuJywgJzgnLCAnLW1hJywgJzIwMCcsICctbWV0YWxfYmluZGluZycsICctaW1hZScsICc8aW5maWxlLm1hZT4nLCAnLW9tYWUnLCAnPG91dGZpbGUubWFlPic=

> <r_lp_tautomer_probability>
1

> <r_epik_Ionization_Penalty>
0.000818822

> <r_epik_Ionization_Penalty_Charging>
0

> <r_epik_Ionization_Penalty_Neutral>
0.000818822

> <r_epik_State_Penalty>
0.000440551

> <r_epik_Charging_Adjusted_Penalty>
0.000440551

> <i_epik_Tot_Q>
0

> <i_epik_Tot_abs_Q>
0

> <r_epik_Metal_State_Penalty>
-0

> <b_epik_Metal_Only>
0

> <s_lp_Force_Field>
OPLS_2005

> <r_lp_Energy>
54.2939

> <b_lp_Chiralities_Consistent>
1

> <s_lp_Variant>
AV-unprocessed.smi:221-3

> <Gold.Version>
5.8.1

> <Gold.Id.Protein>
6NUR|6NUR_protein|mol2

> <Gold.PLP.Fitness>
47.8746

> <Gold.PLP.PLP>
-38.0301

> <Gold.PLP.part.hbond>
-6.4733

> <Gold.PLP.part.metal>
0.0000

> <Gold.PLP.part.buried>
-0.8147

> <Gold.PLP.part.nonpolar>
-33.2742

> <Gold.PLP.part.repulsive>
1.5953

> <Gold.PLP.ligand.clash>
0.0000

> <Gold.PLP.ligand.torsion>
1.0844

> <Gold.PLP.Chemscore.Hbond>
3.9321

> <Gold.PLP.Chemscore.CHOScore>
0.0000

> <Gold.PLP.Chemscore.Metal>
0.0000

> <Gold.Chemscore.Hbonds>
donor molecule, donor type, donor heavy atom, donor atom, acceptor molecule, acceptor atom, score
      L1  H     1    30       P1 11000  1.00
      L1  H     1    31       P1 10957  0.80
      L1  H    22    43       P1  8028  1.00
      P1  H  7989  7998       L1    26  0.24
      L1  C    12    36       P1 10171  0.15

> <Gold.PLP.Chemscore.Internal.Correction>
0.2171

> <Gold.Rescore>
     Score         DG    S(hbond)    S(metal)    S(lipo)     H(rot)  DE(clash)    DE(int)     intcor
     10.02     -15.17       3.42        0.00      66.45       3.72       1.81       3.34       ----

> <Gold.Chemscore.Fitness>
10.0244

> <Gold.Chemscore.DG>
-15.1697

> <Gold.Chemscore.ZeroCoef>
-5.4800

> <Gold.Chemscore.Hbond>
3.4248

> <Gold.Chemscore.Metal>
0.0000

> <Gold.Chemscore.Lipo>
66.4498

> <Gold.Chemscore.Internal_Hbond>
0.0000

> <Gold.Chemscore.DEClash>
1.8060

> <Gold.Chemscore.DEInternal>
3.3392

> <Gold.Chemscore.Rot>
3.7202

> <Gold.Chemscore.Internal.Correction>
   9.000000E+99

> <Gold.Chemscore.Hbonds>
donor molecule, donor type, donor heavy atom, donor atom, acceptor molecule, acceptor atom, score
      L1  H     1    30       P1 11000  0.68
      L1  H     1    31       P1 10957  0.79
      L1  H    22    43       P1  8028  0.99
      P1  H  7989  7998       L1    26  0.15

> <Gold.Chemscore.Hbond.Weighted>
-11.4388

> <Gold.Chemscore.Metal.Weighted>
-0.0000

> <Gold.Chemscore.Lipo.Weighted>
-7.7746

> <Gold.Chemscore.Internal_Hbond.Weighted>
0.0000

> <Gold.Chemscore.DEClash.Weighted>
1.8060

> <Gold.Chemscore.DEInternal.Weighted>
3.3392

> <Gold.Chemscore.Rot.Weighted>
9.5237

> <Gold.Chemscore.Internal.Correction.Weighted>
   9.000000E+99

> <Gold.Protein.RotatedTorsions>
[ 6907 6896 6895 6894 ] final -108.37 input  -60.11 | X-H torsion
[ 7974 7965 7964 7962 ] final   71.56 input  175.53 | X-H torsion
[ 8008 7997 7996 7995 ] final   28.99 input   59.86 | X-H torsion
[ 10167 10162 10161 10158 ] final  -32.48 input  -65.29 | X-H torsion
[ 10718 10713 10712 10709 ] final   -8.48 input   66.30 | X-H torsion
[ 10763 10752 10751 10750 ] final   60.97 input  -60.55 | X-H torsion
[ 11005 11000 10999 10996 ] final  142.62 input  -57.11 | X-H torsion

> <Gold.Protein.ActiveResidues>
 VAL166  LYS551  ARG553  GLY616  TRP617  ASP618  TYR619  PRO620  LYS621  CYS622 
 ASP623  PHE694  ASN695  SER759  ASP760  ASP761  ALA762  ILE779  LEU786  VAL792 
 PHE793  MET794  SER795  GLU796  ALA797  LYS798  CYS799  TRP800  GLU811  SER814 

> <Gold.Protein.RotatedAtoms>
  150.7498  133.9687  159.3538 H   0  0  0  0  0  0  0  0  0  0  0  0  # atno 6907 bound_to 6896
  151.7619  135.0806  160.0356 H   0  0  0  0  0  0  0  0  0  0  0  0  # atno 6908 bound_to 6896
  152.3397  133.6016  159.5904 H   0  0  0  0  0  0  0  0  0  0  0  0  # atno 6909 bound_to 6896
  145.7643  139.2814  143.1358 H   0  0  0  0  0  0  0  0  0  0  0  0  # atno 7974 bound_to 7965
  155.0675  140.3196  155.4641 H   0  0  0  0  0  0  0  0  0  0  0  0  # atno 8008 bound_to 7997
  156.2798  140.2118  156.5747 H   0  0  0  0  0  0  0  0  0  0  0  0  # atno 8009 bound_to 7997
  154.7082  140.0500  157.0512 H   0  0  0  0  0  0  0  0  0  0  0  0  # atno 8010 bound_to 7997
  140.7220  143.3691  151.1812 H   0  0  0  0  0  0  0  0  0  0  0  0  # atno 10167 bound_to 10162
  156.7019  130.5096  149.5915 H   0  0  0  0  0  0  0  0  0  0  0  0  # atno 10718 bound_to 10713
  152.9936  135.5517  154.5959 H   0  0  0  0  0  0  0  0  0  0  0  0  # atno 10763 bound_to 10752
  154.5311  135.2813  155.1181 H   0  0  0  0  0  0  0  0  0  0  0  0  # atno 10764 bound_to 10752
  154.2496  135.6401  153.5288 H   0  0  0  0  0  0  0  0  0  0  0  0  # atno 10765 bound_to 10752
  140.0491  134.9265  157.0984 H   0  0  0  0  0  0  0  0  0  0  0  0  # atno 11005 bound_to 11000
  146.0233  140.8327  142.9912 LP  0  0  0  0  0  0  0  0  0  0  0  0  # atno 17320 bound_to 7965
  144.6824  140.2661  143.7312 LP  0  0  0  0  0  0  0  0  0  0  0  0  # atno 17321 bound_to 7965
  139.7259  143.9149  152.3002 LP  0  0  0  0  0  0  0  0  0  0  0  0  # atno 17342 bound_to 10162
  139.8922  144.6959  150.8758 LP  0  0  0  0  0  0  0  0  0  0  0  0  # atno 17343 bound_to 10162
  156.1722  130.6444  151.0851 LP  0  0  0  0  0  0  0  0  0  0  0  0  # atno 17370 bound_to 10713
  157.6969  131.0790  150.6940 LP  0  0  0  0  0  0  0  0  0  0  0  0  # atno 17371 bound_to 10713
  140.3946  134.2147  155.7165 LP  0  0  0  0  0  0  0  0  0  0  0  0  # atno 17394 bound_to 11000
  141.1921  133.8179  157.0851 LP  0  0  0  0  0  0  0  0  0  0  0  0  # atno 17395 bound_to 11000

$$$$
