AV-unprocessed.smi:1794|AV-procd|sdf|7236|dock8
  -GOLD-   22720 8483D 1   1.00000     0.00000
 Structure written by MMmdl.
 55 57  0  0  0  0  0  0  0  0  4 V2000
  148.5184  134.0658  154.7437 C   0  0  0  0  0  0  0  0  0  0  0  0
  147.3501  135.0943  154.7839 C   0  0  0  0  0  0  0  0  0  0  0  0
  146.3834  134.6271  155.9185 C   0  0  0  0  0  0  0  0  0  0  0  0
  147.8593  136.5446  155.1138 C   0  0  0  0  0  0  0  0  0  0  0  0
  148.7935  136.5606  156.2420 N   0  5  0  0  0  0  0  0  0  0  0  0
  149.7421  137.5118  156.4452 C   0  0  0  0  0  0  0  0  0  0  0  0
  150.9512  137.3458  156.6428 O   0  0  0  0  0  0  0  0  0  0  0  0
  149.2199  138.7498  156.4355 N   0  0  0  0  0  0  0  0  0  0  0  0
  149.8723  139.9940  156.6595 C   0  0  0  0  0  0  0  0  0  0  0  0
  151.1472  140.0495  157.2776 C   0  0  0  0  0  0  0  0  0  0  0  0
  151.7651  141.2938  157.5029 C   0  0  0  0  0  0  0  0  0  0  0  0
  151.1009  142.4649  157.1003 C   0  0  0  0  0  0  0  0  0  0  0  0
  149.8990  142.3774  156.4938 N   0  3  0  0  0  0  0  0  0  0  0  0
  149.2591  141.2089  156.2355 C   0  0  0  0  0  0  0  0  0  0  0  0
  148.0074  141.2760  155.5805 N   0  0  0  0  0  0  0  0  0  0  0  0
  146.8435  141.8296  156.2621 C   0  0  0  0  0  0  0  0  0  0  0  0
  145.8034  142.0360  155.1643 C   0  0  0  0  0  0  0  0  0  0  0  0
  146.6634  142.4266  153.9659 C   0  0  0  0  0  0  0  0  0  0  0  0
  147.9493  141.6166  154.1624 C   0  0  0  0  0  0  0  0  0  0  0  0
  146.6464  135.1580  153.4404 N   0  3  0  0  0  0  0  0  0  0  0  0
  146.2064  133.8497  152.8614 C   0  0  0  0  0  0  0  0  0  0  0  0
  145.7411  134.0263  151.4089 C   0  0  0  0  0  0  0  0  0  0  0  0
  144.6583  134.9438  151.3774 O   0  0  0  0  0  0  0  0  0  0  0  0
  145.0489  136.2266  151.8441 C   0  0  0  0  0  0  0  0  0  0  0  0
  145.5336  136.1425  153.3030 C   0  0  0  0  0  0  0  0  0  0  0  0
  148.9644  133.9128  155.7284 H   0  0  0  0  0  0  0  0  0  0  0  0
  149.3314  134.3537  154.0745 H   0  0  0  0  0  0  0  0  0  0  0  0
  148.1617  133.0886  154.4167 H   0  0  0  0  0  0  0  0  0  0  0  0
  146.8643  134.5951  156.8985 H   0  0  0  0  0  0  0  0  0  0  0  0
  146.0321  133.6086  155.7510 H   0  0  0  0  0  0  0  0  0  0  0  0
  145.5032  135.2660  156.0173 H   0  0  0  0  0  0  0  0  0  0  0  0
  148.3214  136.9664  154.2207 H   0  0  0  0  0  0  0  0  0  0  0  0
  146.9950  137.1798  155.3121 H   0  0  0  0  0  0  0  0  0  0  0  0
  148.2134  138.7896  156.3737 H   0  0  0  0  0  0  0  0  0  0  0  0
  151.6628  139.1496  157.5784 H   0  0  0  0  0  0  0  0  0  0  0  0
  152.7334  141.3469  157.9789 H   0  0  0  0  0  0  0  0  0  0  0  0
  151.4947  143.4618  157.2347 H   0  0  0  0  0  0  0  0  0  0  0  0
  146.4813  141.1587  157.0419 H   0  0  0  0  0  0  0  0  0  0  0  0
  147.0914  142.7888  156.7186 H   0  0  0  0  0  0  0  0  0  0  0  0
  145.2849  141.0979  154.9598 H   0  0  0  0  0  0  0  0  0  0  0  0
  145.0569  142.7884  155.4208 H   0  0  0  0  0  0  0  0  0  0  0  0
  146.1790  142.2263  153.0098 H   0  0  0  0  0  0  0  0  0  0  0  0
  146.8909  143.4925  154.0107 H   0  0  0  0  0  0  0  0  0  0  0  0
  148.8254  142.1799  153.8379 H   0  0  0  0  0  0  0  0  0  0  0  0
  147.9014  140.6944  153.5819 H   0  0  0  0  0  0  0  0  0  0  0  0
  147.0078  133.1117  152.8807 H   0  0  0  0  0  0  0  0  0  0  0  0
  145.3826  133.4380  153.4459 H   0  0  0  0  0  0  0  0  0  0  0  0
  146.5576  134.3732  150.7735 H   0  0  0  0  0  0  0  0  0  0  0  0
  145.4043  133.0718  151.0042 H   0  0  0  0  0  0  0  0  0  0  0  0
  145.8293  136.6360  151.2006 H   0  0  0  0  0  0  0  0  0  0  0  0
  144.1952  136.9008  151.7722 H   0  0  0  0  0  0  0  0  0  0  0  0
  144.7100  135.8599  153.9604 H   0  0  0  0  0  0  0  0  0  0  0  0
  145.8466  137.1474  153.5811 H   0  0  0  0  0  0  0  0  0  0  0  0
  147.3614  135.5016  152.8148 H   0  0  0  0  0  0  0  0  0  0  0  0
  149.4466  143.2443  156.2037 H   0  0  0  0  0  0  0  0  0  0  0  0
  1  2  1  0  0  0  0
  1 26  1  0  0  0  0
  1 27  1  0  0  0  0
  1 28  1  0  0  0  0
  2  3  1  0  0  0  0
  2  4  1  0  0  0  0
  2 20  1  0  0  0  0
  3 29  1  0  0  0  0
  3 30  1  0  0  0  0
  3 31  1  0  0  0  0
  4  5  1  0  0  0  0
  4 32  1  0  0  0  0
  4 33  1  0  0  0  0
  5  6  1  0  0  0  0
  6  7  2  0  0  0  0
  6  8  1  0  0  0  0
  8  9  1  0  0  0  0
  8 34  1  0  0  0  0
  9 14  1  0  0  0  0
  9 10  2  0  0  0  0
 10 11  1  0  0  0  0
 10 35  1  0  0  0  0
 11 12  2  0  0  0  0
 11 36  1  0  0  0  0
 12 13  1  0  0  0  0
 12 37  1  0  0  0  0
 13 14  2  0  0  0  0
 13 55  1  0  0  0  0
 14 15  1  0  0  0  0
 15 19  1  0  0  0  0
 15 16  1  0  0  0  0
 16 17  1  0  0  0  0
 16 38  1  0  0  0  0
 16 39  1  0  0  0  0
 17 18  1  0  0  0  0
 17 40  1  0  0  0  0
 17 41  1  0  0  0  0
 18 19  1  0  0  0  0
 18 42  1  0  0  0  0
 18 43  1  0  0  0  0
 19 44  1  0  0  0  0
 19 45  1  0  0  0  0
 20 25  1  0  0  0  0
 20 21  1  0  0  0  0
 20 54  1  0  0  0  0
 21 22  1  0  0  0  0
 21 46  1  0  0  0  0
 21 47  1  0  0  0  0
 22 23  1  0  0  0  0
 22 48  1  0  0  0  0
 22 49  1  0  0  0  0
 23 24  1  0  0  0  0
 24 25  1  0  0  0  0
 24 50  1  0  0  0  0
 24 51  1  0  0  0  0
 25 52  1  0  0  0  0
 25 53  1  0  0  0  0
M  CHG  1   5  -1
M  CHG  1  13   1
M  CHG  1  20   1
M  END
> <s_m_source_file>
AV-unprocessed.smi

> <i_m_source_file_index>
1794

> <i_lp_mmshare_version>
43012

> <i_f3d_flags>
0

> <s_epik_input>
W0NIMl0xW0NIMl1PW0NIMl1bQ0gyXU4xQyhbQ0gzXSkoW0NIM10pW0NIMl1bTkhdQyg9TylbTkhdYzJbY0hdW2NIXVtjSF1uYzJOM1tDSDJdW0NIMl1bQ0gyXVtDSDJdMw==

> <s_epik_cmdline>
J2VwaWtfcHl0aG9uJywgJy1waCcsICc3LjAnLCAnLXRuJywgJzgnLCAnLW1hJywgJzIwMCcsICctbWV0YWxfYmluZGluZycsICctaW1hZScsICc8aW5maWxlLm1hZT4nLCAnLW9tYWUnLCAnPG91dGZpbGUubWFlPic=

> <r_lp_tautomer_probability>
0.999994

> <r_epik_Ionization_Penalty>
8.57565

> <r_epik_Ionization_Penalty_Charging>
8.57565

> <r_epik_Ionization_Penalty_Neutral>
3.55275e-06

> <r_epik_State_Penalty>
8.56988

> <r_epik_Charging_Adjusted_Penalty>
17.1455

> <i_epik_Tot_Q>
1

> <i_epik_Tot_abs_Q>
3

> <r_epik_Metal_State_Penalty>
4.56715

> <b_epik_Metal_Only>
1

> <s_lp_Force_Field>
OPLS_2005

> <r_lp_Energy>
59.2957

> <b_lp_Chiralities_Consistent>
1

> <s_lp_Variant>
AV-unprocessed.smi:1794-5

> <Gold.Version>
5.8.1

> <Gold.Id.Protein>
6NUR|6NUR_protein|mol2

> <Gold.PLP.Fitness>
41.9588

> <Gold.PLP.PLP>
-31.5536

> <Gold.PLP.part.hbond>
-2.0000

> <Gold.PLP.part.metal>
0.0000

> <Gold.PLP.part.buried>
-5.0845

> <Gold.PLP.part.nonpolar>
-24.0705

> <Gold.PLP.part.repulsive>
0.3694

> <Gold.PLP.ligand.clash>
0.0000

> <Gold.PLP.ligand.torsion>
1.1019

> <Gold.PLP.Chemscore.Hbond>
4.0000

> <Gold.PLP.Chemscore.CHOScore>
0.0000

> <Gold.PLP.Chemscore.Metal>
0.0000

> <Gold.Chemscore.Hbonds>
donor molecule, donor type, donor heavy atom, donor atom, acceptor molecule, acceptor atom, score
      L1  H    13    55       P1  8028  2.00
      L1  H    20    54       P1  7948  2.00

> <Gold.PLP.Chemscore.Internal.Correction>
0.6089

> <Gold.Rescore>
     Score         DG    S(hbond)    S(metal)    S(lipo)     H(rot)  DE(clash)    DE(int)     intcor
     14.27     -16.75       2.00        0.00      74.42       1.60       0.07       2.41       ----

> <Gold.Chemscore.Fitness>
14.2731

> <Gold.Chemscore.DG>
-16.7500

> <Gold.Chemscore.ZeroCoef>
-5.4800

> <Gold.Chemscore.Hbond>
1.9969

> <Gold.Chemscore.Metal>
0.0000

> <Gold.Chemscore.Lipo>
74.4247

> <Gold.Chemscore.Internal_Hbond>
0.0000

> <Gold.Chemscore.DEClash>
0.0714

> <Gold.Chemscore.DEInternal>
2.4054

> <Gold.Chemscore.Rot>
1.6044

> <Gold.Chemscore.Internal.Correction>
   9.000000E+99

> <Gold.Chemscore.Hbonds>
donor molecule, donor type, donor heavy atom, donor atom, acceptor molecule, acceptor atom, score
      L1  H    13    55       P1  8028  1.00
      L1  H    20    54       P1  7948  0.98

> <Gold.Chemscore.Hbond.Weighted>
-6.6695

> <Gold.Chemscore.Metal.Weighted>
-0.0000

> <Gold.Chemscore.Lipo.Weighted>
-8.7077

> <Gold.Chemscore.Internal_Hbond.Weighted>
0.0000

> <Gold.Chemscore.DEClash.Weighted>
0.0714

> <Gold.Chemscore.DEInternal.Weighted>
2.4054

> <Gold.Chemscore.Rot.Weighted>
4.1072

> <Gold.Chemscore.Internal.Correction.Weighted>
   9.000000E+99

> <Gold.Protein.RotatedTorsions>
[ 6907 6896 6895 6894 ] final   34.75 input  -60.11 | X-H torsion
[ 7974 7965 7964 7962 ] final  -41.26 input  175.53 | X-H torsion
[ 8008 7997 7996 7995 ] final  -99.14 input   59.86 | X-H torsion
[ 10167 10162 10161 10158 ] final  -55.11 input  -65.29 | X-H torsion
[ 10718 10713 10712 10709 ] final -108.91 input   66.30 | X-H torsion
[ 10763 10752 10751 10750 ] final  134.21 input  -60.55 | X-H torsion
[ 11005 11000 10999 10996 ] final  -28.14 input  -57.11 | X-H torsion

> <Gold.Protein.ActiveResidues>
 VAL166  LYS551  ARG553  GLY616  TRP617  ASP618  TYR619  PRO620  LYS621  CYS622 
 ASP623  PHE694  ASN695  SER759  ASP760  ASP761  ALA762  ILE779  LEU786  VAL792 
 PHE793  MET794  SER795  GLU796  ALA797  LYS798  CYS799  TRP800  GLU811  SER814 

> <Gold.Protein.RotatedAtoms>
  152.1067  134.9303  160.0567 H   0  0  0  0  0  0  0  0  0  0  0  0  # atno 6907 bound_to 6896
  152.0496  133.4008  159.4380 H   0  0  0  0  0  0  0  0  0  0  0  0  # atno 6908 bound_to 6896
  150.6841  134.3243  159.4843 H   0  0  0  0  0  0  0  0  0  0  0  0  # atno 6909 bound_to 6896
  146.0228  140.6829  142.9170 H   0  0  0  0  0  0  0  0  0  0  0  0  # atno 7974 bound_to 7965
  154.8108  140.0450  157.1341 H   0  0  0  0  0  0  0  0  0  0  0  0  # atno 8008 bound_to 7997
  154.9371  140.3047  155.5119 H   0  0  0  0  0  0  0  0  0  0  0  0  # atno 8009 bound_to 7997
  156.2971  140.2312  156.4436 H   0  0  0  0  0  0  0  0  0  0  0  0  # atno 8010 bound_to 7997
  140.6393  143.2499  151.5032 H   0  0  0  0  0  0  0  0  0  0  0  0  # atno 10167 bound_to 10162
  156.0509  130.5737  150.8026 H   0  0  0  0  0  0  0  0  0  0  0  0  # atno 10718 bound_to 10713
  153.8199  135.3117  155.3409 H   0  0  0  0  0  0  0  0  0  0  0  0  # atno 10763 bound_to 10752
  154.8017  135.4722  154.0295 H   0  0  0  0  0  0  0  0  0  0  0  0  # atno 10764 bound_to 10752
  153.1700  135.6876  153.8711 H   0  0  0  0  0  0  0  0  0  0  0  0  # atno 10765 bound_to 10752
  140.9181  133.7416  156.0764 H   0  0  0  0  0  0  0  0  0  0  0  0  # atno 11005 bound_to 11000
  144.6997  140.3596  143.7166 LP  0  0  0  0  0  0  0  0  0  0  0  0  # atno 17320 bound_to 7965
  145.7166  139.1698  143.2508 LP  0  0  0  0  0  0  0  0  0  0  0  0  # atno 17321 bound_to 7965
  139.5603  144.2174  152.1680 LP  0  0  0  0  0  0  0  0  0  0  0  0  # atno 17342 bound_to 10162
  140.1440  144.5176  150.6727 LP  0  0  0  0  0  0  0  0  0  0  0  0  # atno 17343 bound_to 10162
  157.5435  131.0941  150.9795 LP  0  0  0  0  0  0  0  0  0  0  0  0  # atno 17370 bound_to 10713
  157.0072  130.5623  149.5317 LP  0  0  0  0  0  0  0  0  0  0  0  0  # atno 17371 bound_to 10713
  140.8023  134.3495  157.5436 LP  0  0  0  0  0  0  0  0  0  0  0  0  # atno 17394 bound_to 11000
  139.8770  134.9205  156.3252 LP  0  0  0  0  0  0  0  0  0  0  0  0  # atno 17395 bound_to 11000

$$$$
