AV-unprocessed.smi:2407|AV-procd|sdf|9518|dock1
  -GOLD-   2272013153D 1   1.00000     0.00000
 Structure written by MMmdl.
 38 39  0  0  0  0  0  0  0  0  1 V2000
  146.1781  137.1107  162.4642 C   0  0  0  0  0  0  0  0  0  0  0  0
  146.9698  136.4070  161.4022 C   0  0  0  0  0  0  0  0  0  0  0  0
  146.5463  135.1561  160.8024 C   0  0  0  0  0  0  0  0  0  0  0  0
  147.3184  134.5822  159.8547 C   0  0  0  0  0  0  0  0  0  0  0  0
  148.5735  135.1884  159.4154 C   0  0  0  0  0  0  0  0  0  0  0  0
  149.3029  134.6864  158.5606 O   0  0  0  0  0  0  0  0  0  0  0  0
  148.8653  136.3645  160.0454 N   0  0  0  0  0  0  0  0  0  0  0  0
  150.0864  137.1159  159.7304 C   0  0  0  0  0  0  0  0  0  0  0  0
  150.2546  137.3407  158.2114 C   0  0  2  0  0  0  0  0  0  0  0  0
  151.1453  136.3549  157.7265 O   0  0  0  0  0  0  0  0  0  0  0  0
  150.8806  138.7108  157.9005 C   0  0  0  0  0  0  0  0  0  0  0  0
  152.0009  138.9043  158.7541 O   0  0  0  0  0  0  0  0  0  0  0  0
  152.3010  140.1832  159.1763 C   0  0  0  0  0  0  0  0  0  0  0  0
  151.4806  141.3088  158.9066 C   0  0  0  0  0  0  0  0  0  0  0  0
  151.8450  142.5879  159.3657 C   0  0  0  0  0  0  0  0  0  0  0  0
  153.0313  142.7608  160.0986 C   0  0  0  0  0  0  0  0  0  0  0  0
  153.8529  141.6529  160.3727 C   0  0  0  0  0  0  0  0  0  0  0  0
  153.4962  140.3634  159.9165 C   0  0  0  0  0  0  0  0  0  0  0  0
  154.3929  139.1665  160.2178 C   0  0  0  0  0  0  0  0  0  0  0  0
  155.4565  139.5110  160.9452 F   0  0  0  0  0  0  0  0  0  0  0  0
  153.7064  138.2468  160.8964 F   0  0  0  0  0  0  0  0  0  0  0  0
  154.8269  138.6280  159.0779 F   0  0  0  0  0  0  0  0  0  0  0  0
  148.0765  136.9541  161.0187 N   0  0  0  0  0  0  0  0  0  0  0  0
  145.2339  136.6004  162.6559 H   0  0  0  0  0  0  0  0  0  0  0  0
  145.9488  138.1341  162.1653 H   0  0  0  0  0  0  0  0  0  0  0  0
  146.7339  137.1479  163.4015 H   0  0  0  0  0  0  0  0  0  0  0  0
  145.6212  134.6953  161.1161 H   0  0  0  0  0  0  0  0  0  0  0  0
  147.0020  133.6508  159.4087 H   0  0  0  0  0  0  0  0  0  0  0  0
  150.0423  138.0770  160.2458 H   0  0  0  0  0  0  0  0  0  0  0  0
  150.9671  136.6197  160.1437 H   0  0  0  0  0  0  0  0  0  0  0  0
  149.2929  137.2576  157.7033 H   0  0  0  0  0  0  0  0  0  0  0  0
  151.9355  136.7837  157.4349 H   0  0  0  0  0  0  0  0  0  0  0  0
  151.2359  138.7228  156.8690 H   0  0  0  0  0  0  0  0  0  0  0  0
  150.1435  139.5083  158.0105 H   0  0  0  0  0  0  0  0  0  0  0  0
  150.5622  141.2188  158.3471 H   0  0  0  0  0  0  0  0  0  0  0  0
  151.2127  143.4376  159.1543 H   0  0  0  0  0  0  0  0  0  0  0  0
  153.3117  143.7428  160.4506 H   0  0  0  0  0  0  0  0  0  0  0  0
  154.7605  141.8062  160.9373 H   0  0  0  0  0  0  0  0  0  0  0  0
  1  2  1  0  0  0  0
  1 24  1  0  0  0  0
  1 25  1  0  0  0  0
  1 26  1  0  0  0  0
  2 23  2  0  0  0  0
  2  3  1  0  0  0  0
  3  4  2  0  0  0  0
  3 27  1  0  0  0  0
  4  5  1  0  0  0  0
  4 28  1  0  0  0  0
  5  6  2  0  0  0  0
  5  7  1  0  0  0  0
  7  8  1  0  0  0  0
  7 23  1  0  0  0  0
  8  9  1  0  0  0  0
  8 29  1  0  0  0  0
  8 30  1  0  0  0  0
  9 10  1  0  0  0  0
  9 11  1  0  0  0  0
  9 31  1  0  0  0  0
 10 32  1  0  0  0  0
 11 12  1  0  0  0  0
 11 33  1  0  0  0  0
 11 34  1  0  0  0  0
 12 13  1  0  0  0  0
 13 18  1  0  0  0  0
 13 14  2  0  0  0  0
 14 15  1  0  0  0  0
 14 35  1  0  0  0  0
 15 16  2  0  0  0  0
 15 36  1  0  0  0  0
 16 17  1  0  0  0  0
 16 37  1  0  0  0  0
 17 18  2  0  0  0  0
 17 38  1  0  0  0  0
 18 19  1  0  0  0  0
 19 20  1  0  0  0  0
 19 21  1  0  0  0  0
 19 22  1  0  0  0  0
M  END
> <s_m_source_file>
AV-unprocessed.smi

> <i_m_source_file_index>
2407

> <i_lp_mmshare_version>
43012

> <i_f3d_flags>
0

> <s_epik_input>
W0NIM11jMVtjSF1bY0hdYyg9TyluKG4xKVtDSDJdW0NASF0oW09IXSlbQ0gyXU9jMltjSF1bY0hdW2NIXVtjSF1jMkMoRikoRilG

> <s_epik_cmdline>
J2VwaWtfcHl0aG9uJywgJy1waCcsICc3LjAnLCAnLXRuJywgJzgnLCAnLW1hJywgJzIwMCcsICctbWV0YWxfYmluZGluZycsICctaW1hZScsICc8aW5maWxlLm1hZT4nLCAnLW9tYWUnLCAnPG91dGZpbGUubWFlPic=

> <r_lp_tautomer_probability>
1

> <r_epik_Ionization_Penalty>
5.91655e-06

> <r_epik_Ionization_Penalty_Charging>
5.79937e-06

> <r_epik_Ionization_Penalty_Neutral>
1.17174e-07

> <r_epik_State_Penalty>
-0

> <r_epik_Charging_Adjusted_Penalty>
5.79937e-06

> <i_epik_Tot_Q>
0

> <i_epik_Tot_abs_Q>
0

> <r_epik_Metal_State_Penalty>
-0

> <b_epik_Metal_Only>
0

> <s_lp_Force_Field>
OPLS_2005

> <r_lp_Energy>
33.5011

> <b_lp_Chiralities_Consistent>
1

> <s_lp_Variant>
AV-unprocessed.smi:2407-1

> <Gold.Version>
5.8.1

> <Gold.Id.Protein>
6NUR|6NUR_protein|mol2

> <Gold.PLP.Fitness>
42.9397

> <Gold.PLP.PLP>
-37.3673

> <Gold.PLP.part.hbond>
-3.5630

> <Gold.PLP.part.metal>
0.0000

> <Gold.PLP.part.buried>
-2.6000

> <Gold.PLP.part.nonpolar>
-31.7292

> <Gold.PLP.part.repulsive>
0.0000

> <Gold.PLP.ligand.clash>
0.4997

> <Gold.PLP.ligand.torsion>
0.9235

> <Gold.PLP.Chemscore.Hbond>
2.4363

> <Gold.PLP.Chemscore.CHOScore>
0.0000

> <Gold.PLP.Chemscore.Metal>
0.0000

> <Gold.Chemscore.Hbonds>
donor molecule, donor type, donor heavy atom, donor atom, acceptor molecule, acceptor atom, score
      P1  H  6896  6908       L1     6  1.00
      P1  H  6931  6943       L1    23  1.00
      P1  H  6934  6947       L1    23  0.24

> <Gold.PLP.Chemscore.Internal.Correction>
0.6104

> <Gold.Rescore>
     Score         DG    S(hbond)    S(metal)    S(lipo)     H(rot)  DE(clash)    DE(int)     intcor
     10.64     -15.60       1.68        0.00      95.53       2.60       0.08       4.88       ----

> <Gold.Chemscore.Fitness>
10.6379

> <Gold.Chemscore.DG>
-15.6024

> <Gold.Chemscore.ZeroCoef>
-5.4800

> <Gold.Chemscore.Hbond>
1.6797

> <Gold.Chemscore.Metal>
0.0000

> <Gold.Chemscore.Lipo>
95.5296

> <Gold.Chemscore.Internal_Hbond>
0.0000

> <Gold.Chemscore.DEClash>
0.0820

> <Gold.Chemscore.DEInternal>
4.8825

> <Gold.Chemscore.Rot>
2.6035

> <Gold.Chemscore.Internal.Correction>
   9.000000E+99

> <Gold.Chemscore.Hbonds>
donor molecule, donor type, donor heavy atom, donor atom, acceptor molecule, acceptor atom, score
      P1  H  6896  6908       L1     6  0.63
      P1  H  6931  6943       L1    23  0.72
      P1  H  6934  6947       L1    23  0.02

> <Gold.Chemscore.Hbond.Weighted>
-5.6103

> <Gold.Chemscore.Metal.Weighted>
-0.0000

> <Gold.Chemscore.Lipo.Weighted>
-11.1770

> <Gold.Chemscore.Internal_Hbond.Weighted>
0.0000

> <Gold.Chemscore.DEClash.Weighted>
0.0820

> <Gold.Chemscore.DEInternal.Weighted>
4.8825

> <Gold.Chemscore.Rot.Weighted>
6.6649

> <Gold.Chemscore.Internal.Correction.Weighted>
   9.000000E+99

> <Gold.Protein.RotatedTorsions>
[ 6907 6896 6895 6894 ] final  135.13 input  -60.11 | X-H torsion
[ 7974 7965 7964 7962 ] final  -78.49 input  175.53 | X-H torsion
[ 8008 7997 7996 7995 ] final  145.29 input   59.86 | X-H torsion
[ 10167 10162 10161 10158 ] final   58.08 input  -65.29 | X-H torsion
[ 10718 10713 10712 10709 ] final  -56.00 input   66.30 | X-H torsion
[ 10763 10752 10751 10750 ] final  169.64 input  -60.55 | X-H torsion
[ 11005 11000 10999 10996 ] final   18.21 input  -57.11 | X-H torsion

> <Gold.Protein.ActiveResidues>
 VAL166  LYS551  ARG553  GLY616  TRP617  ASP618  TYR619  PRO620  LYS621  CYS622 
 ASP623  PHE694  ASN695  SER759  ASP760  ASP761  ALA762  ILE779  LEU786  VAL792 
 PHE793  MET794  SER795  GLU796  ALA797  LYS798  CYS799  TRP800  GLU811  SER814 

> <Gold.Protein.RotatedAtoms>
  152.3038  133.5682  159.5635 H   0  0  0  0  0  0  0  0  0  0  0  0  # atno 6907 bound_to 6896
  150.7290  134.0253  159.3724 H   0  0  0  0  0  0  0  0  0  0  0  0  # atno 6908 bound_to 6896
  151.8151  135.0669  160.0469 H   0  0  0  0  0  0  0  0  0  0  0  0  # atno 6909 bound_to 6896
  145.5858  140.9439  143.1319 H   0  0  0  0  0  0  0  0  0  0  0  0  # atno 7974 bound_to 7965
  156.2887  140.2213  156.5191 H   0  0  0  0  0  0  0  0  0  0  0  0  # atno 8008 bound_to 7997
  154.7544  140.0478  157.0942 H   0  0  0  0  0  0  0  0  0  0  0  0  # atno 8009 bound_to 7997
  155.0069  140.3108  155.4848 H   0  0  0  0  0  0  0  0  0  0  0  0  # atno 8010 bound_to 7997
  140.1911  144.4085  150.6571 H   0  0  0  0  0  0  0  0  0  0  0  0  # atno 10167 bound_to 10162
  156.1323  130.4159  150.0246 H   0  0  0  0  0  0  0  0  0  0  0  0  # atno 10718 bound_to 10713
  154.3861  135.2753  155.2182 H   0  0  0  0  0  0  0  0  0  0  0  0  # atno 10763 bound_to 10752
  154.4269  135.5987  153.6048 H   0  0  0  0  0  0  0  0  0  0  0  0  # atno 10764 bound_to 10752
  152.9833  135.5986  154.4110 H   0  0  0  0  0  0  0  0  0  0  0  0  # atno 10765 bound_to 10752
  140.4274  134.1456  155.7677 H   0  0  0  0  0  0  0  0  0  0  0  0  # atno 11005 bound_to 11000
  144.7373  139.7549  143.7324 LP  0  0  0  0  0  0  0  0  0  0  0  0  # atno 17320 bound_to 7965
  146.1683  139.4823  142.9944 LP  0  0  0  0  0  0  0  0  0  0  0  0  # atno 17321 bound_to 7965
  140.6455  143.2212  151.6195 LP  0  0  0  0  0  0  0  0  0  0  0  0  # atno 17342 bound_to 10162
  139.5256  144.3071  152.1025 LP  0  0  0  0  0  0  0  0  0  0  0  0  # atno 17343 bound_to 10162
  156.8155  130.9340  151.3643 LP  0  0  0  0  0  0  0  0  0  0  0  0  # atno 17370 bound_to 10713
  157.6500  130.8876  149.9614 LP  0  0  0  0  0  0  0  0  0  0  0  0  # atno 17371 bound_to 10713
  141.1760  133.8513  157.1420 LP  0  0  0  0  0  0  0  0  0  0  0  0  # atno 17394 bound_to 11000
  140.0158  134.9968  157.0490 LP  0  0  0  0  0  0  0  0  0  0  0  0  # atno 17395 bound_to 11000

$$$$
