#       Name:                AV-unprocessed.smi:1900
#       Creating user name   scv26
#       Creation time:       Fri Mar 27 09:45:07 2020


#       File generated by GOLD software.
#

@<TRIPOS>MOLECULE
AV-unprocessed.smi:1900
    49    50     1
SMALL
NO_CHARGES


@<TRIPOS>ATOM
      1 ****        -5.6308   0.8810  -0.7431 C.3            1 S1                 0.0000
      2 ****        -4.1296   0.7620  -1.0276 C.3            1 S1                 0.0000
      3 ****        -3.2780   1.0713   0.2209 C.3            1 S1                 0.0000
      4 ****        -1.8285   1.0407  -0.0930 N.4            1 S1                 1.0000
      5 ****        -1.2732  -0.3346  -0.2031 C.3            1 S1                 0.0000
      6 ****         0.2491  -0.3735   0.0128 C.3            1 S1                 0.0000
      7 ****         0.7985  -1.8099   0.0114 C.3            1 S1                 0.0000
      8 ****         2.2468  -1.8373   0.1809 N.am           1 S1                 0.0000
      9 ****         2.8882  -1.6815   1.3476 C.2            1 S1                 0.0000
     10 ****         2.3133  -1.4765   2.4170 O.2            1 S1                 0.0000
     11 ****         4.2185  -1.7794   1.1909 N.am           1 S1                 0.0000
     12 ****         5.2136  -1.6772   2.1957 C.2            1 S1                 0.0000
     13 ****         6.6085  -1.8325   1.9716 C.2            1 S1                 0.0000
     14 ****         7.2981  -1.6842   3.0935 N.2            1 S1                 0.0000
     15 ****         6.3567  -1.4344   4.0314 N.pl3          1 S1                 0.0000
     16 ****         5.0737  -1.4196   3.5307 C.2            1 S1                 0.0000
     17 ****        -1.5322   1.9300  -1.2452 C.3            1 S1                 0.0000
     18 ****        -2.4370   1.6151  -2.4559 C.3            1 S1                 0.0000
     19 ****        -2.2236   2.6061  -3.6053 C.3            1 S1                 0.0000
     20 ****        -3.8004   1.6924  -2.0534 O.3            1 S1                 0.0000
     21 ****         6.6028  -1.2777   4.9985 H              1 S1                 0.0000
     22 ****        -5.9387   0.1853   0.0378 H              1 S1                 0.0000
     23 ****        -6.2158   0.6578  -1.6358 H              1 S1                 0.0000
     24 ****        -5.8927   1.8879  -0.4170 H              1 S1                 0.0000
     25 ****        -3.9260  -0.2505  -1.3798 H              1 S1                 0.0000
     26 ****        -3.5243   2.0672   0.5916 H              1 S1                 0.0000
     27 ****        -3.5086   0.3793   1.0319 H              1 S1                 0.0000
     28 ****        -1.7334  -0.9605   0.5627 H              1 S1                 0.0000
     29 ****        -1.5351  -0.7848  -1.1606 H              1 S1                 0.0000
     30 ****         0.7589   0.1977  -0.7626 H              1 S1                 0.0000
     31 ****         0.4879   0.1097   0.9612 H              1 S1                 0.0000
     32 ****         0.3221  -2.4042   0.7930 H              1 S1                 0.0000
     33 ****         0.5620  -2.2962  -0.9353 H              1 S1                 0.0000
     34 ****         2.8001  -2.0032  -0.6473 H              1 S1                 0.0000
     35 ****         4.5559  -1.9567   0.2560 H              1 S1                 0.0000
     36 ****         7.1327  -2.0447   1.0514 H              1 S1                 0.0000
     37 ****         4.2117  -1.2328   4.1538 H              1 S1                 0.0000
     38 ****        -1.7054   2.9585  -0.9252 H              1 S1                 0.0000
     39 ****        -0.4810   1.8767  -1.5249 H              1 S1                 0.0000
     40 ****        -2.2312   0.6122  -2.8321 H              1 S1                 0.0000
     41 ****        -1.1926   2.5798  -3.9593 H              1 S1                 0.0000
     42 ****        -2.4452   3.6274  -3.2941 H              1 S1                 0.0000
     43 ****        -2.8704   2.3681  -4.4499 H              1 S1                 0.0000
     44 ****        -1.3663   1.4451   0.7093 H              1 S1                 0.0000
     45 ****         1.3154  -1.4185   2.4451 LP             1 S1                 0.0000
     46 ****         2.8443  -1.3680   3.2574 LP             1 S1                 0.0000
     47 ****         8.2886  -1.7435   3.2180 LP             1 S1                 0.0000
     48 ****        -3.9815   2.6163  -1.7162 LP             1 S1                 0.0000
     49 ****        -4.3785   1.5085  -2.8484 LP             1 S1                 0.0000
@<TRIPOS>BOND
    1    1    2 1     
    2    1   22 1     
    3    1   23 1     
    4    1   24 1     
    5    2   20 1     
    6    2    3 1     
    7    2   25 1     
    8    3    4 1     
    9    3   26 1     
   10    3   27 1     
   11    4    5 1     
   12    4   17 1     
   13    4   44 1     
   14    5    6 1     
   15    5   28 1     
   16    5   29 1     
   17    6    7 1     
   18    6   30 1     
   19    6   31 1     
   20    7    8 1     
   21    7   32 1     
   22    7   33 1     
   23    8    9 am    
   24    8   34 1     
   25    9   10 2     
   26    9   11 am    
   27   11   12 1     
   28   11   35 1     
   29   12   16 2     
   30   12   13 1     
   31   13   14 2     
   32   13   36 1     
   33   14   15 1     
   34   15   21 1     
   35   15   16 1     
   36   16   37 1     
   37   17   18 1     
   38   17   38 1     
   39   17   39 1     
   40   18   19 1     
   41   18   20 1     
   42   18   40 1     
   43   19   41 1     
   44   19   42 1     
   45   19   43 1     
   46   10   45 1     
   47   10   46 1     
   48   14   47 1     
   49   20   48 1     
   50   20   49 1     
@<TRIPOS>SUBSTRUCTURE
      1 S1             1
@<TRIPOS>SET
LONE_PAIRS      STATIC     ATOMS    <user>   **** ""
5 45 46 47 48 49
DONOR_HYDROGENS      STATIC     ATOMS    <user>   **** ""
4 44 34 35 21
ATOM$BLUE        STATIC     ATOMS    COLORGROUP SYSTEM
5 45 46 47 48 49
ATOM$RED        STATIC     ATOMS    COLORGROUP SYSTEM
4 44 34 35 21
