AV-unprocessed.smi:99|AV-procd|sdf|884|dock2
  -GOLD-   2262017363D 1   1.00000     0.00000
 Structure written by MMmdl.
 52 55  0  0  0  0  0  0  0  0  2 V2000
  143.5820  135.4553  154.0940 O   0  0  0  0  0  0  0  0  0  0  0  0
  144.5891  134.8532  153.7163 C   0  0  0  0  0  0  0  0  0  0  0  0
  145.8101  135.0296  154.2552 O   0  0  0  0  0  0  0  0  0  0  0  0
  145.9681  135.7952  155.4394 C   0  0  0  0  0  0  0  0  0  0  0  0
  147.4585  136.1169  155.6477 C   0  0  1  0  0  0  0  0  0  0  0  0
  147.8795  136.9550  154.5699 O   0  0  0  0  0  0  0  0  0  0  0  0
  148.2018  138.2460  155.0134 C   0  0  2  0  0  0  0  0  0  0  0  0
  149.7017  138.4510  154.9354 N   0  0  0  0  0  0  0  0  0  0  0  0
  150.5736  137.3757  154.8739 C   0  0  0  0  0  0  0  0  0  0  0  0
  151.9088  137.5558  154.8127 C   0  0  0  0  0  0  0  0  0  0  0  0
  152.4501  138.9116  154.8116 C   0  0  0  0  0  0  0  0  0  0  0  0
  153.6681  139.0661  154.7480 O   0  0  0  0  0  0  0  0  0  0  0  0
  151.5727  139.9536  154.8825 N   0  5  0  0  0  0  0  0  0  0  0  0
  150.2212  139.7746  154.9498 C   0  0  0  0  0  0  0  0  0  0  0  0
  149.4219  140.7077  155.0292 O   0  0  0  0  0  0  0  0  0  0  0  0
  147.7268  138.3696  156.4667 C   0  0  1  0  0  0  0  0  0  0  0  0
  146.4200  138.9103  156.5130 O   0  0  0  0  0  0  0  0  0  0  0  0
  147.7899  136.9182  156.9128 C   0  0  1  0  0  0  0  0  0  0  0  0
  146.9742  136.6382  158.0461 O   0  0  0  0  0  0  0  0  0  0  0  0
  147.1164  137.3201  159.2008 C   0  0  0  0  0  0  0  0  0  0  0  0
  147.4985  138.4901  159.2662 O   0  0  0  0  0  0  0  0  0  0  0  0
  146.7829  136.4946  160.3967 C   0  0  0  0  0  0  0  0  0  0  0  0
  146.4861  135.1216  160.2334 C   0  0  0  0  0  0  0  0  0  0  0  0
  146.1467  134.3248  161.3443 C   0  0  0  0  0  0  0  0  0  0  0  0
  146.1024  134.8909  162.6319 C   0  0  0  0  0  0  0  0  0  0  0  0
  146.4049  136.2535  162.8084 C   0  0  0  0  0  0  0  0  0  0  0  0
  146.7476  137.0502  161.6990 C   0  0  0  0  0  0  0  0  0  0  0  0
  144.5801  133.8283  152.6329 C   0  0  0  0  0  0  0  0  0  0  0  0
  145.7766  133.1444  152.3155 C   0  0  0  0  0  0  0  0  0  0  0  0
  145.8048  132.1923  151.2780 C   0  0  0  0  0  0  0  0  0  0  0  0
  144.6367  131.9119  150.5458 C   0  0  0  0  0  0  0  0  0  0  0  0
  143.4390  132.5828  150.8540 C   0  0  0  0  0  0  0  0  0  0  0  0
  143.4086  133.5346  151.8916 C   0  0  0  0  0  0  0  0  0  0  0  0
  145.3984  136.7191  155.3349 H   0  0  0  0  0  0  0  0  0  0  0  0
  145.5678  135.2628  156.3026 H   0  0  0  0  0  0  0  0  0  0  0  0
  148.0325  135.1898  155.6243 H   0  0  0  0  0  0  0  0  0  0  0  0
  147.7721  138.9829  154.3323 H   0  0  0  0  0  0  0  0  0  0  0  0
  150.1947  136.3654  154.8783 H   0  0  0  0  0  0  0  0  0  0  0  0
  152.5730  136.7054  154.7670 H   0  0  0  0  0  0  0  0  0  0  0  0
  148.3878  139.0095  157.0527 H   0  0  0  0  0  0  0  0  0  0  0  0
  145.9982  138.6069  157.3019 H   0  0  0  0  0  0  0  0  0  0  0  0
  148.8308  136.6911  157.1487 H   0  0  0  0  0  0  0  0  0  0  0  0
  146.5077  134.6670  159.2534 H   0  0  0  0  0  0  0  0  0  0  0  0
  145.9174  133.2784  161.2075 H   0  0  0  0  0  0  0  0  0  0  0  0
  145.8389  134.2805  163.4830 H   0  0  0  0  0  0  0  0  0  0  0  0
  146.3727  136.6905  163.7956 H   0  0  0  0  0  0  0  0  0  0  0  0
  146.9791  138.0911  161.8694 H   0  0  0  0  0  0  0  0  0  0  0  0
  146.6881  133.3479  152.8591 H   0  0  0  0  0  0  0  0  0  0  0  0
  146.7254  131.6794  151.0414 H   0  0  0  0  0  0  0  0  0  0  0  0
  144.6596  131.1841  149.7480 H   0  0  0  0  0  0  0  0  0  0  0  0
  142.5421  132.3705  150.2911 H   0  0  0  0  0  0  0  0  0  0  0  0
  142.4744  134.0371  152.0960 H   0  0  0  0  0  0  0  0  0  0  0  0
  1  2  2  0  0  0  0
  2  3  1  0  0  0  0
  2 28  1  0  0  0  0
  3  4  1  0  0  0  0
  4  5  1  0  0  0  0
  4 34  1  0  0  0  0
  4 35  1  0  0  0  0
  5 18  1  0  0  0  0
  5  6  1  0  0  0  0
  5 36  1  0  0  0  0
  6  7  1  0  0  0  0
  7  8  1  0  0  0  0
  7 16  1  0  0  0  0
  7 37  1  0  0  0  0
  8 14  1  0  0  0  0
  8  9  1  0  0  0  0
  9 10  2  0  0  0  0
  9 38  1  0  0  0  0
 10 11  1  0  0  0  0
 10 39  1  0  0  0  0
 11 12  2  0  0  0  0
 11 13  1  0  0  0  0
 13 14  1  0  0  0  0
 14 15  2  0  0  0  0
 16 17  1  0  0  0  0
 16 18  1  0  0  0  0
 16 40  1  0  0  0  0
 17 41  1  0  0  0  0
 18 19  1  0  0  0  0
 18 42  1  0  0  0  0
 19 20  1  0  0  0  0
 20 21  2  0  0  0  0
 20 22  1  0  0  0  0
 22 27  1  0  0  0  0
 22 23  2  0  0  0  0
 23 24  1  0  0  0  0
 23 43  1  0  0  0  0
 24 25  2  0  0  0  0
 24 44  1  0  0  0  0
 25 26  1  0  0  0  0
 25 45  1  0  0  0  0
 26 27  2  0  0  0  0
 26 46  1  0  0  0  0
 27 47  1  0  0  0  0
 28 33  1  0  0  0  0
 28 29  2  0  0  0  0
 29 30  1  0  0  0  0
 29 48  1  0  0  0  0
 30 31  2  0  0  0  0
 30 49  1  0  0  0  0
 31 32  1  0  0  0  0
 31 50  1  0  0  0  0
 32 33  2  0  0  0  0
 32 51  1  0  0  0  0
 33 52  1  0  0  0  0
M  CHG  1  13  -1
M  END
> <s_m_source_file>
AV-unprocessed.smi

> <i_m_source_file_index>
99

> <i_lp_mmshare_version>
43012

> <i_f3d_flags>
0

> <s_epik_input>
W2NIXTFbY0hdW2NIXVtjSF1bY0hdYzFDKD1PKU9bQ0gyXVtDQEBIXTJPW0NAQEhdKG4zW2NIXVtjSF1jKD1PKVtuSF1jMz1PKVtDQEBIXShbT0hdKVtDQEhdMk9DKD1PKWM0W2NIXVtjSF1bY0hdW2NIXVtjSF00

> <s_epik_cmdline>
J2VwaWtfcHl0aG9uJywgJy1waCcsICc3LjAnLCAnLXRuJywgJzgnLCAnLW1hJywgJzIwMCcsICctbWV0YWxfYmluZGluZycsICctaW1hZScsICc8aW5maWxlLm1hZT4nLCAnLW9tYWUnLCAnPG91dGZpbGUubWFlPic=

> <r_lp_tautomer_probability>
1

> <r_epik_Ionization_Penalty>
2.89159

> <r_epik_Ionization_Penalty_Charging>
2.1077e-08

> <r_epik_Ionization_Penalty_Neutral>
2.89159

> <r_epik_State_Penalty>
2.88671

> <r_epik_Charging_Adjusted_Penalty>
2.88671

> <i_epik_Tot_Q>
-1

> <i_epik_Tot_abs_Q>
1

> <r_epik_Metal_State_Penalty>
0.0727308

> <b_epik_Metal_Only>
1

> <s_epik_Chemistry_Notes>
This compound has an ester and may undergo hydrolysis at high or low pH. This compound contains an acetal/aminal-like group ( X-CH(R)-Y where X, Y are N, S, or O) that may be acid/base labile, releasing an aldehyde.

> <s_lp_Force_Field>
OPLS_2005

> <r_lp_Energy>
47.9834

> <b_lp_Chiralities_Consistent>
1

> <s_lp_Variant>
AV-unprocessed.smi:99-20

> <Gold.Version>
5.8.1

> <Gold.Id.Protein>
6NUR|6NUR_protein|mol2

> <Gold.PLP.Fitness>
53.7157

> <Gold.PLP.PLP>
-48.5256

> <Gold.PLP.part.hbond>
-3.8572

> <Gold.PLP.part.metal>
0.0000

> <Gold.PLP.part.buried>
-6.1608

> <Gold.PLP.part.nonpolar>
-40.9906

> <Gold.PLP.part.repulsive>
1.5096

> <Gold.PLP.ligand.clash>
0.0000

> <Gold.PLP.ligand.torsion>
1.1065

> <Gold.PLP.Chemscore.Hbond>
2.4124

> <Gold.PLP.Chemscore.CHOScore>
0.0000

> <Gold.PLP.Chemscore.Metal>
0.0000

> <Gold.Chemscore.Hbonds>
donor molecule, donor type, donor heavy atom, donor atom, acceptor molecule, acceptor atom, score
      P1  H  6934  6947       L1    21  0.24
      P1  H  7989  7998       L1    13  1.00
      P1  H  7997  8009       L1    12  1.00

> <Gold.PLP.Chemscore.Internal.Correction>
0.1660

> <Gold.Rescore>
     Score         DG    S(hbond)    S(metal)    S(lipo)     H(rot)  DE(clash)    DE(int)     intcor
     14.37     -17.11       2.48        0.00      97.12       3.13       0.21       2.53       ----

> <Gold.Chemscore.Fitness>
14.3744

> <Gold.Chemscore.DG>
-17.1127

> <Gold.Chemscore.ZeroCoef>
-5.4800

> <Gold.Chemscore.Hbond>
2.4833

> <Gold.Chemscore.Metal>
0.0000

> <Gold.Chemscore.Lipo>
97.1192

> <Gold.Chemscore.Internal_Hbond>
0.0000

> <Gold.Chemscore.DEClash>
0.2082

> <Gold.Chemscore.DEInternal>
2.5300

> <Gold.Chemscore.Rot>
3.1346

> <Gold.Chemscore.Internal.Correction>
   9.000000E+99

> <Gold.Chemscore.Hbonds>
donor molecule, donor type, donor heavy atom, donor atom, acceptor molecule, acceptor atom, score
      P1  H  6934  6947       L1    21  0.16
      P1  H  7989  7998       L1    13  0.19
      P1  H  7997  8009       L1    12  0.93

> <Gold.Chemscore.Hbond.Weighted>
-8.2943

> <Gold.Chemscore.Metal.Weighted>
-0.0000

> <Gold.Chemscore.Lipo.Weighted>
-11.3629

> <Gold.Chemscore.Internal_Hbond.Weighted>
0.0000

> <Gold.Chemscore.DEClash.Weighted>
0.2082

> <Gold.Chemscore.DEInternal.Weighted>
2.5300

> <Gold.Chemscore.Rot.Weighted>
8.0246

> <Gold.Chemscore.Internal.Correction.Weighted>
   9.000000E+99

> <Gold.Protein.RotatedTorsions>
[ 6907 6896 6895 6894 ] final   83.70 input  -60.11 | X-H torsion
[ 7974 7965 7964 7962 ] final  122.04 input  175.53 | X-H torsion
[ 8008 7997 7996 7995 ] final -135.19 input   59.86 | X-H torsion
[ 10167 10162 10161 10158 ] final  129.14 input  -65.29 | X-H torsion
[ 10718 10713 10712 10709 ] final -138.21 input   66.30 | X-H torsion
[ 10763 10752 10751 10750 ] final   44.93 input  -60.55 | X-H torsion
[ 11005 11000 10999 10996 ] final    8.50 input  -57.11 | X-H torsion

> <Gold.Protein.ActiveResidues>
 VAL166  LYS551  ARG553  GLY616  TRP617  ASP618  TYR619  PRO620  LYS621  CYS622 
 ASP623  PHE694  ASN695  SER759  ASP760  ASP761  ALA762  ILE779  LEU786  VAL792 
 PHE793  MET794  SER795  GLU796  ALA797  LYS798  CYS799  TRP800  GLU811  SER814 

> <Gold.Protein.RotatedAtoms>
  152.5334  134.2854  159.9022 H   0  0  0  0  0  0  0  0  0  0  0  0  # atno 6907 bound_to 6896
  151.2808  133.4204  159.2634 H   0  0  0  0  0  0  0  0  0  0  0  0  # atno 6908 bound_to 6896
  151.0286  134.9537  159.8155 H   0  0  0  0  0  0  0  0  0  0  0  0  # atno 6909 bound_to 6896
  145.1122  139.3445  143.4757 H   0  0  0  0  0  0  0  0  0  0  0  0  # atno 7974 bound_to 7965
  155.3746  140.0490  157.3045 H   0  0  0  0  0  0  0  0  0  0  0  0  # atno 8008 bound_to 7997
  154.5113  140.2192  155.9114 H   0  0  0  0  0  0  0  0  0  0  0  0  # atno 8009 bound_to 7997
  156.1585  140.3121  155.8773 H   0  0  0  0  0  0  0  0  0  0  0  0  # atno 8010 bound_to 7997
  139.5492  144.6799  151.4376 H   0  0  0  0  0  0  0  0  0  0  0  0  # atno 10167 bound_to 10162
  156.2968  130.7406  151.1447 H   0  0  0  0  0  0  0  0  0  0  0  0  # atno 10718 bound_to 10713
  152.9832  135.6055  154.3355 H   0  0  0  0  0  0  0  0  0  0  0  0  # atno 10763 bound_to 10752
  154.3055  135.2772  155.2593 H   0  0  0  0  0  0  0  0  0  0  0  0  # atno 10764 bound_to 10752
  154.4826  135.5913  153.6456 H   0  0  0  0  0  0  0  0  0  0  0  0  # atno 10765 bound_to 10752
  140.5362  134.0418  155.7889 H   0  0  0  0  0  0  0  0  0  0  0  0  # atno 11005 bound_to 11000
  146.3525  140.1046  142.8606 LP  0  0  0  0  0  0  0  0  0  0  0  0  # atno 17320 bound_to 7965
  145.0834  140.9236  143.4812 LP  0  0  0  0  0  0  0  0  0  0  0  0  # atno 17321 bound_to 7965
  140.6750  143.8210  150.7047 LP  0  0  0  0  0  0  0  0  0  0  0  0  # atno 17342 bound_to 10162
  140.1645  143.4246  152.2044 LP  0  0  0  0  0  0  0  0  0  0  0  0  # atno 17343 bound_to 10162
  157.7357  131.0569  150.5453 LP  0  0  0  0  0  0  0  0  0  0  0  0  # atno 17370 bound_to 10713
  156.5576  130.4247  149.6078 LP  0  0  0  0  0  0  0  0  0  0  0  0  # atno 17371 bound_to 10713
  141.1253  133.9393  157.2648 LP  0  0  0  0  0  0  0  0  0  0  0  0  # atno 17394 bound_to 11000
  139.9528  135.0172  156.9042 LP  0  0  0  0  0  0  0  0  0  0  0  0  # atno 17395 bound_to 11000

$$$$
