#       Name:                AV-unprocessed.smi:674
#       Creating user name   scv26
#       Creation time:       Fri Mar 27 00:26:08 2020


#       File generated by GOLD software.
#

@<TRIPOS>MOLECULE
AV-unprocessed.smi:674
    52    53     1
SMALL
NO_CHARGES


@<TRIPOS>ATOM
      1 ****        -5.3920   4.1221  -1.9422 C.3            1 S1                 0.0000
      2 ****        -4.8037   3.9264  -0.5401 C.3            1 S1                 0.0000
      3 ****        -4.1667   2.5745  -0.3819 C.2            1 S1                 0.0000
      4 ****        -2.7802   2.2489  -0.4350 C.2            1 S1                 0.0000
      5 ****        -2.7803   0.8935  -0.2473 C.2            1 S1                 0.0000
      6 ****        -1.7244   0.0371  -0.2213 N.am           1 S1                 0.0000
      7 ****        -0.4136   0.3149  -0.3310 C.2            1 S1                 0.0000
      8 ****         0.0732   1.4416  -0.4286 O.2            1 S1                 0.0000
      9 ****         0.3213  -0.8053  -0.3133 N.am           1 S1                 0.0000
     10 ****         1.7765  -0.8337  -0.4146 C.3            1 S1                 0.0000
     11 ****         2.3344  -2.2498  -0.5446 C.3            1 S1                 0.0000
     12 ****         3.5041  -1.7875   0.3461 C.3            1 S1                 0.0000
     13 ****         4.1684  -2.7897   1.2983 C.3            1 S1                 0.0000
     14 ****         4.4935  -1.1147  -0.4451 O.3            1 S1                 0.0000
     15 ****         5.3599  -1.9224  -1.2327 C.3            1 S1                 0.0000
     16 ****         2.5293  -0.7154   0.9352 C.3            1 S1                 0.0000
     17 ****         3.1300   0.6588   1.2502 C.3            1 S1                 0.0000
     18 ****         1.7523  -1.1308   2.1990 C.3            1 S1                 0.0000
     19 ****        -4.0818   0.4663  -0.0930 N.pl3          1 S1                 0.0000
     20 ****        -4.6094  -0.8675   0.1203 C.3            1 S1                 0.0000
     21 ****        -4.9344   1.5097  -0.1764 N.2            1 S1                 0.0000
     22 ****        -5.8458   5.1084  -2.0391 H              1 S1                 0.0000
     23 ****        -6.1618   3.3796  -2.1545 H              1 S1                 0.0000
     24 ****        -4.6205   4.0332  -2.7076 H              1 S1                 0.0000
     25 ****        -4.0677   4.7072  -0.3462 H              1 S1                 0.0000
     26 ****        -5.5888   4.0601   0.2049 H              1 S1                 0.0000
     27 ****        -1.9444   2.9133  -0.5942 H              1 S1                 0.0000
     28 ****        -1.9645  -0.9378  -0.1198 H              1 S1                 0.0000
     29 ****        -0.1517  -1.6928  -0.2271 H              1 S1                 0.0000
     30 ****         2.1792  -0.1721  -1.1855 H              1 S1                 0.0000
     31 ****         1.7140  -3.0111  -0.0681 H              1 S1                 0.0000
     32 ****         2.5894  -2.5369  -1.5642 H              1 S1                 0.0000
     33 ****         3.4490  -3.2363   1.9837 H              1 S1                 0.0000
     34 ****         4.9402  -2.3105   1.9009 H              1 S1                 0.0000
     35 ****         4.6287  -3.6189   0.7618 H              1 S1                 0.0000
     36 ****         5.9396  -1.2792  -1.8945 H              1 S1                 0.0000
     37 ****         4.8170  -2.6323  -1.8558 H              1 S1                 0.0000
     38 ****         6.0702  -2.4706  -0.6141 H              1 S1                 0.0000
     39 ****         3.8876   0.5921   2.0316 H              1 S1                 0.0000
     40 ****         2.3680   1.3624   1.5873 H              1 S1                 0.0000
     41 ****         3.6034   1.1078   0.3767 H              1 S1                 0.0000
     42 ****         2.4081  -1.1941   3.0678 H              1 S1                 0.0000
     43 ****         1.2724  -2.1031   2.0879 H              1 S1                 0.0000
     44 ****         0.9663  -0.4148   2.4417 H              1 S1                 0.0000
     45 ****        -3.8165  -1.5488   0.4290 H              1 S1                 0.0000
     46 ****        -5.0551  -1.2358  -0.8043 H              1 S1                 0.0000
     47 ****        -5.3724  -0.8446   0.8994 H              1 S1                 0.0000
     48 ****        -0.5222   2.2450  -0.4304 LP             1 S1                 0.0000
     49 ****         1.0639   1.5532  -0.5060 LP             1 S1                 0.0000
     50 ****         5.0648  -0.5813   0.1787 LP             1 S1                 0.0000
     51 ****         4.0117  -0.4969  -1.0665 LP             1 S1                 0.0000
     52 ****        -5.9312   1.4862  -0.0998 LP             1 S1                 0.0000
@<TRIPOS>BOND
    1    1    2 1     
    2    1   22 1     
    3    1   23 1     
    4    1   24 1     
    5    2    3 1     
    6    2   25 1     
    7    2   26 1     
    8    3   21 2     
    9    3    4 1     
   10    4    5 2     
   11    4   27 1     
   12    5    6 1     
   13    5   19 1     
   14    6    7 am    
   15    6   28 1     
   16    7    8 2     
   17    7    9 am    
   18    9   10 1     
   19    9   29 1     
   20   10   16 1     
   21   10   11 1     
   22   10   30 1     
   23   11   12 1     
   24   11   31 1     
   25   11   32 1     
   26   12   13 1     
   27   12   14 1     
   28   12   16 1     
   29   13   33 1     
   30   13   34 1     
   31   13   35 1     
   32   14   15 1     
   33   15   36 1     
   34   15   37 1     
   35   15   38 1     
   36   16   17 1     
   37   16   18 1     
   38   17   39 1     
   39   17   40 1     
   40   17   41 1     
   41   18   42 1     
   42   18   43 1     
   43   18   44 1     
   44   19   20 1     
   45   19   21 1     
   46   20   45 1     
   47   20   46 1     
   48   20   47 1     
   49    8   48 1     
   50    8   49 1     
   51   14   50 1     
   52   14   51 1     
   53   21   52 1     
@<TRIPOS>SUBSTRUCTURE
      1 S1             1
@<TRIPOS>SET
LONE_PAIRS      STATIC     ATOMS    <user>   **** ""
5 48 49 50 51 52
DONOR_HYDROGENS      STATIC     ATOMS    <user>   **** ""
2 28 29
ATOM$BLUE        STATIC     ATOMS    COLORGROUP SYSTEM
5 48 49 50 51 52
ATOM$RED        STATIC     ATOMS    COLORGROUP SYSTEM
2 28 29
