AV-unprocessed.smi:800|AV-procd|sdf|3788|dock4
  -GOLD-   22720 1223D 1   1.00000     0.00000
 Structure written by MMmdl.
 35 36  0  0  0  0  0  0  0  0  2 V2000
  146.8314  140.3183  153.9776 C   0  0  0  0  0  0  0  0  0  0  0  0
  146.9246  141.2567  155.1908 C   0  0  0  0  0  0  0  0  0  0  0  0
  146.2442  142.6041  154.9123 C   0  0  0  0  0  0  0  0  0  0  0  0
  148.3303  141.4930  155.5170 N   0  5  0  0  0  0  0  0  0  0  0  0
  149.3795  141.0195  154.7861 C   0  0  0  0  0  0  0  0  0  0  0  0
  149.4962  140.8785  153.5636 O   0  0  0  0  0  0  0  0  0  0  0  0
  150.5122  140.5579  155.6582 C   0  0  0  0  0  0  0  0  0  0  0  0
  150.8775  141.3918  156.6597 N   0  0  0  0  0  0  0  0  0  0  0  0
  151.8846  141.0272  157.4614 C   0  0  0  0  0  0  0  0  0  0  0  0
  152.2533  141.9141  158.4815 N   0  0  0  0  0  0  0  0  0  0  0  0
  152.0908  143.3643  158.3547 C   0  0  0  0  0  0  0  0  0  0  0  0
  151.7715  143.9980  159.7195 C   0  0  0  0  0  0  0  0  0  0  0  0
  152.7751  143.6442  160.6633 O   0  0  0  0  0  0  0  0  0  0  0  0
  152.8316  142.2369  160.8626 C   0  0  0  0  0  0  0  0  0  0  0  0
  153.1923  141.5374  159.5414 C   0  0  0  0  0  0  0  0  0  0  0  0
  152.5662  139.8794  157.3601 N   0  0  0  0  0  0  0  0  0  0  0  0
  152.2089  139.0230  156.3805 C   0  0  0  0  0  0  0  0  0  0  0  0
  151.1632  139.3086  155.4830 C   0  0  0  0  0  0  0  0  0  0  0  0
  150.7179  138.1462  154.2795 Cl  0  0  0  0  0  0  0  0  0  0  0  0
  145.7917  140.1310  153.7083 H   0  0  0  0  0  0  0  0  0  0  0  0
  147.2937  139.3530  154.1875 H   0  0  0  0  0  0  0  0  0  0  0  0
  147.3290  140.7432  153.1049 H   0  0  0  0  0  0  0  0  0  0  0  0
  146.3909  140.7883  156.0192 H   0  0  0  0  0  0  0  0  0  0  0  0
  145.1903  142.4657  154.6700 H   0  0  0  0  0  0  0  0  0  0  0  0
  146.7114  143.1228  154.0746 H   0  0  0  0  0  0  0  0  0  0  0  0
  146.2968  143.2596  155.7824 H   0  0  0  0  0  0  0  0  0  0  0  0
  153.0139  143.7839  157.9533 H   0  0  0  0  0  0  0  0  0  0  0  0
  151.2945  143.6308  157.6605 H   0  0  0  0  0  0  0  0  0  0  0  0
  151.7370  145.0837  159.6295 H   0  0  0  0  0  0  0  0  0  0  0  0
  150.7915  143.6776  160.0771 H   0  0  0  0  0  0  0  0  0  0  0  0
  153.5840  142.0171  161.6201 H   0  0  0  0  0  0  0  0  0  0  0  0
  151.8775  141.8725  161.2474 H   0  0  0  0  0  0  0  0  0  0  0  0
  153.2105  140.4622  159.7173 H   0  0  0  0  0  0  0  0  0  0  0  0
  154.1980  141.8220  159.2307 H   0  0  0  0  0  0  0  0  0  0  0  0
  152.7571  138.0944  156.3217 H   0  0  0  0  0  0  0  0  0  0  0  0
  1  2  1  0  0  0  0
  1 20  1  0  0  0  0
  1 21  1  0  0  0  0
  1 22  1  0  0  0  0
  2  3  1  0  0  0  0
  2  4  1  0  0  0  0
  2 23  1  0  0  0  0
  3 24  1  0  0  0  0
  3 25  1  0  0  0  0
  3 26  1  0  0  0  0
  4  5  1  0  0  0  0
  5  6  2  0  0  0  0
  5  7  1  0  0  0  0
  7 18  1  0  0  0  0
  7  8  2  0  0  0  0
  8  9  1  0  0  0  0
  9 10  1  0  0  0  0
  9 16  2  0  0  0  0
 10 15  1  0  0  0  0
 10 11  1  0  0  0  0
 11 12  1  0  0  0  0
 11 27  1  0  0  0  0
 11 28  1  0  0  0  0
 12 13  1  0  0  0  0
 12 29  1  0  0  0  0
 12 30  1  0  0  0  0
 13 14  1  0  0  0  0
 14 15  1  0  0  0  0
 14 31  1  0  0  0  0
 14 32  1  0  0  0  0
 15 33  1  0  0  0  0
 15 34  1  0  0  0  0
 16 17  1  0  0  0  0
 17 18  2  0  0  0  0
 17 35  1  0  0  0  0
 18 19  1  0  0  0  0
M  CHG  1   4  -1
M  END
> <s_m_source_file>
AV-unprocessed.smi

> <i_m_source_file_index>
800

> <i_lp_mmshare_version>
43012

> <i_f3d_flags>
0

> <s_epik_input>
W0NIM11bQ0hdKFtDSDNdKVtOSF1DKD1PKWMxbmMobltjSF1jMUNsKU4yW0NIMl1bQ0gyXU9bQ0gyXVtDSDJdMg==

> <s_epik_cmdline>
J2VwaWtfcHl0aG9uJywgJy1waCcsICc3LjAnLCAnLXRuJywgJzgnLCAnLW1hJywgJzIwMCcsICctbWV0YWxfYmluZGluZycsICctaW1hZScsICc8aW5maWxlLm1hZT4nLCAnLW9tYWUnLCAnPG91dGZpbGUubWFlPic=

> <r_lp_tautomer_probability>
1

> <r_epik_Ionization_Penalty>
6.38192

> <r_epik_Ionization_Penalty_Charging>
6.38189

> <r_epik_Ionization_Penalty_Neutral>
2.33077e-05

> <r_epik_State_Penalty>
6.38188

> <r_epik_Charging_Adjusted_Penalty>
12.7638

> <i_epik_Tot_Q>
-1

> <i_epik_Tot_abs_Q>
1

> <r_epik_Metal_State_Penalty>
2.31349

> <b_epik_Metal_Only>
1

> <s_lp_Force_Field>
OPLS_2005

> <r_lp_Energy>
18.4653

> <b_lp_Chiralities_Consistent>
1

> <s_lp_Variant>
AV-unprocessed.smi:800-2

> <Gold.Version>
5.8.1

> <Gold.Id.Protein>
6NUR|6NUR_protein|mol2

> <Gold.PLP.Fitness>
41.8206

> <Gold.PLP.PLP>
-37.8151

> <Gold.PLP.part.hbond>
-3.0000

> <Gold.PLP.part.metal>
0.0000

> <Gold.PLP.part.buried>
-4.6373

> <Gold.PLP.part.nonpolar>
-33.4178

> <Gold.PLP.part.repulsive>
4.5052

> <Gold.PLP.ligand.clash>
0.0000

> <Gold.PLP.ligand.torsion>
1.2750

> <Gold.PLP.Chemscore.Hbond>
2.1437

> <Gold.PLP.Chemscore.CHOScore>
0.0000

> <Gold.PLP.Chemscore.Metal>
0.0000

> <Gold.Chemscore.Hbonds>
donor molecule, donor type, donor heavy atom, donor atom, acceptor molecule, acceptor atom, score
      P1  H  7989  7998       L1     6  0.25
      P1  H  7997  8008       L1    16  0.90
      P1  H  8011  8017       L1     6  1.00

> <Gold.PLP.Chemscore.Internal.Correction>
0.1246

> <Gold.Rescore>
     Score         DG    S(hbond)    S(metal)    S(lipo)     H(rot)  DE(clash)    DE(int)     intcor
     13.93     -18.50       1.54        0.00      89.15       1.00       1.73       2.84       ----

> <Gold.Chemscore.Fitness>
13.9253

> <Gold.Chemscore.DG>
-18.5010

> <Gold.Chemscore.ZeroCoef>
-5.4800

> <Gold.Chemscore.Hbond>
1.5419

> <Gold.Chemscore.Metal>
0.0000

> <Gold.Chemscore.Lipo>
89.1550

> <Gold.Chemscore.Internal_Hbond>
0.0000

> <Gold.Chemscore.DEClash>
1.7343

> <Gold.Chemscore.DEInternal>
2.8414

> <Gold.Chemscore.Rot>
1.0000

> <Gold.Chemscore.Internal.Correction>
   9.000000E+99

> <Gold.Chemscore.Hbonds>
donor molecule, donor type, donor heavy atom, donor atom, acceptor molecule, acceptor atom, score
      P1  H  7989  7998       L1     6  0.05
      P1  H  7997  8008       L1    16  0.15
      P1  H  8011  8017       L1     6  0.94

> <Gold.Chemscore.Hbond.Weighted>
-5.1499

> <Gold.Chemscore.Metal.Weighted>
-0.0000

> <Gold.Chemscore.Lipo.Weighted>
-10.4311

> <Gold.Chemscore.Internal_Hbond.Weighted>
0.0000

> <Gold.Chemscore.DEClash.Weighted>
1.7343

> <Gold.Chemscore.DEInternal.Weighted>
2.8414

> <Gold.Chemscore.Rot.Weighted>
2.5600

> <Gold.Chemscore.Internal.Correction.Weighted>
   9.000000E+99

> <Gold.Protein.RotatedTorsions>
[ 6907 6896 6895 6894 ] final  166.44 input  -60.11 | X-H torsion
[ 7974 7965 7964 7962 ] final -137.66 input  175.53 | X-H torsion
[ 8008 7997 7996 7995 ] final  -76.05 input   59.86 | X-H torsion
[ 10167 10162 10161 10158 ] final  -53.26 input  -65.29 | X-H torsion
[ 10718 10713 10712 10709 ] final  -15.77 input   66.30 | X-H torsion
[ 10763 10752 10751 10750 ] final -133.17 input  -60.55 | X-H torsion
[ 11005 11000 10999 10996 ] final  130.13 input  -57.11 | X-H torsion

> <Gold.Protein.ActiveResidues>
 VAL166  LYS551  ARG553  GLY616  TRP617  ASP618  TYR619  PRO620  LYS621  CYS622 
 ASP623  PHE694  ASN695  SER759  ASP760  ASP761  ALA762  ILE779  LEU786  VAL792 
 PHE793  MET794  SER795  GLU796  ALA797  LYS798  CYS799  TRP800  GLU811  SER814 

> <Gold.Protein.RotatedAtoms>
  151.8789  133.3491  159.3759 H   0  0  0  0  0  0  0  0  0  0  0  0  # atno 6907 bound_to 6896
  150.7133  134.5038  159.5583 H   0  0  0  0  0  0  0  0  0  0  0  0  # atno 6908 bound_to 6896
  152.2586  134.8058  160.0485 H   0  0  0  0  0  0  0  0  0  0  0  0  # atno 6909 bound_to 6896
  144.8823  140.6525  143.5198 H   0  0  0  0  0  0  0  0  0  0  0  0  # atno 7974 bound_to 7965
  154.5471  140.0733  156.8606 H   0  0  0  0  0  0  0  0  0  0  0  0  # atno 8008 bound_to 7997
  155.3066  140.3387  155.4227 H   0  0  0  0  0  0  0  0  0  0  0  0  # atno 8009 bound_to 7997
  156.1928  140.1692  156.8045 H   0  0  0  0  0  0  0  0  0  0  0  0  # atno 8010 bound_to 7997
  140.6494  143.2556  151.4767 H   0  0  0  0  0  0  0  0  0  0  0  0  # atno 10167 bound_to 10162
  156.5971  130.4814  149.6255 H   0  0  0  0  0  0  0  0  0  0  0  0  # atno 10718 bound_to 10713
  154.8735  135.3774  154.4529 H   0  0  0  0  0  0  0  0  0  0  0  0  # atno 10763 bound_to 10752
  153.5204  135.7029  153.5739 H   0  0  0  0  0  0  0  0  0  0  0  0  # atno 10764 bound_to 10752
  153.3989  135.3953  155.1940 H   0  0  0  0  0  0  0  0  0  0  0  0  # atno 10765 bound_to 10752
  139.9654  134.9592  156.9249 H   0  0  0  0  0  0  0  0  0  0  0  0  # atno 11005 bound_to 11000
  145.3931  139.1612  143.4218 LP  0  0  0  0  0  0  0  0  0  0  0  0  # atno 17320 bound_to 7965
  146.3002  140.4022  142.8707 LP  0  0  0  0  0  0  0  0  0  0  0  0  # atno 17321 bound_to 7965
  139.5707  144.1934  152.1832 LP  0  0  0  0  0  0  0  0  0  0  0  0  # atno 17342 bound_to 10162
  140.1230  144.5356  150.6851 LP  0  0  0  0  0  0  0  0  0  0  0  0  # atno 17343 bound_to 10162
  156.2500  130.6902  151.1636 LP  0  0  0  0  0  0  0  0  0  0  0  0  # atno 17370 bound_to 10713
  157.7289  131.0628  150.5799 LP  0  0  0  0  0  0  0  0  0  0  0  0  # atno 17371 bound_to 10713
  140.5407  134.0722  155.7341 LP  0  0  0  0  0  0  0  0  0  0  0  0  # atno 17394 bound_to 11000
  141.1334  133.9263  157.2487 LP  0  0  0  0  0  0  0  0  0  0  0  0  # atno 17395 bound_to 11000

$$$$
