AV-unprocessed.smi:2822|AV-procd|sdf|10863|dock8
  -GOLD-   2272015303D 1   1.00000     0.00000
 Structure written by MMmdl.
 41 43  0  0  0  0  0  0  0  0  3 V2000
  148.7577  141.0795  154.2147 Cl  0  0  0  0  0  0  0  0  0  0  0  0
  149.6650  139.6535  154.5802 C   0  0  0  0  0  0  0  0  0  0  0  0
  150.2323  138.9070  153.5267 C   0  0  0  0  0  0  0  0  0  0  0  0
  150.9443  137.7923  153.7959 N   0  3  0  0  0  0  0  0  0  0  0  0
  151.1476  137.3426  155.0523 C   0  0  0  0  0  0  0  0  0  0  0  0
  150.6064  138.0463  156.1476 C   0  0  0  0  0  0  0  0  0  0  0  0
  149.8508  139.2229  155.9171 C   0  0  0  0  0  0  0  0  0  0  0  0
  149.2853  139.9702  156.9610 N   0  0  0  0  0  0  0  0  0  0  0  0
  149.8944  140.0267  158.2827 C   0  0  0  0  0  0  0  0  0  0  0  0
  151.1587  140.9030  158.3043 C   0  0  1  0  0  0  0  0  0  0  0  0
  150.8623  142.4141  158.2182 C   0  0  0  0  0  0  0  0  0  0  0  0
  152.1193  143.1980  158.3040 N   0  3  1  0  0  0  0  0  0  0  0  0
  151.9195  144.6669  158.1933 C   0  0  0  0  0  0  0  0  0  0  0  0
  151.3352  145.2753  159.4832 C   0  0  0  0  0  0  0  0  0  0  0  0
  152.1887  144.9075  160.7048 C   0  0  0  0  0  0  0  0  0  0  0  0
  152.3696  143.3855  160.7947 C   0  0  0  0  0  0  0  0  0  0  0  0
  152.9495  142.8179  159.4806 C   0  0  1  0  0  0  0  0  0  0  0  0
  153.1454  141.2896  159.5255 C   0  0  0  0  0  0  0  0  0  0  0  0
  151.8885  140.6240  159.4941 O   0  0  0  0  0  0  0  0  0  0  0  0
  150.1380  139.1675  152.4826 H   0  0  0  0  0  0  0  0  0  0  0  0
  151.7329  136.4391  155.1439 H   0  0  0  0  0  0  0  0  0  0  0  0
  150.7787  137.6704  157.1451 H   0  0  0  0  0  0  0  0  0  0  0  0
  148.4184  140.4654  156.8050 H   0  0  0  0  0  0  0  0  0  0  0  0
  149.1670  140.4179  158.9949 H   0  0  0  0  0  0  0  0  0  0  0  0
  150.1483  139.0157  158.6037 H   0  0  0  0  0  0  0  0  0  0  0  0
  151.7715  140.6148  157.4482 H   0  0  0  0  0  0  0  0  0  0  0  0
  150.3586  142.6395  157.2777 H   0  0  0  0  0  0  0  0  0  0  0  0
  150.1836  142.7125  159.0168 H   0  0  0  0  0  0  0  0  0  0  0  0
  152.8853  145.1278  157.9819 H   0  0  0  0  0  0  0  0  0  0  0  0
  151.2790  144.8926  157.3399 H   0  0  0  0  0  0  0  0  0  0  0  0
  151.2781  146.3598  159.3861 H   0  0  0  0  0  0  0  0  0  0  0  0
  150.3114  144.9317  159.6331 H   0  0  0  0  0  0  0  0  0  0  0  0
  153.1645  145.3887  160.6281 H   0  0  0  0  0  0  0  0  0  0  0  0
  151.7253  145.2863  161.6162 H   0  0  0  0  0  0  0  0  0  0  0  0
  153.0328  143.1464  161.6267 H   0  0  0  0  0  0  0  0  0  0  0  0
  151.4133  142.9145  161.0253 H   0  0  0  0  0  0  0  0  0  0  0  0
  153.9332  143.2679  159.3372 H   0  0  0  0  0  0  0  0  0  0  0  0
  153.7573  140.9573  158.6853 H   0  0  0  0  0  0  0  0  0  0  0  0
  153.6785  141.0002  160.4314 H   0  0  0  0  0  0  0  0  0  0  0  0
  152.6543  142.9296  157.4901 H   0  0  0  0  0  0  0  0  0  0  0  0
  151.3445  137.2681  153.0172 H   0  0  0  0  0  0  0  0  0  0  0  0
  1  2  1  0  0  0  0
  2  7  1  0  0  0  0
  2  3  2  0  0  0  0
  3  4  1  0  0  0  0
  3 20  1  0  0  0  0
  4  5  2  0  0  0  0
  4 41  1  0  0  0  0
  5  6  1  0  0  0  0
  5 21  1  0  0  0  0
  6  7  2  0  0  0  0
  6 22  1  0  0  0  0
  7  8  1  0  0  0  0
  8  9  1  0  0  0  0
  8 23  1  0  0  0  0
  9 10  1  0  0  0  0
  9 24  1  0  0  0  0
  9 25  1  0  0  0  0
 10 19  1  0  0  0  0
 10 11  1  0  0  0  0
 10 26  1  0  0  0  0
 11 12  1  0  0  0  0
 11 27  1  0  0  0  0
 11 28  1  0  0  0  0
 12 17  1  0  0  0  0
 12 13  1  0  0  0  0
 12 40  1  0  0  0  0
 13 14  1  0  0  0  0
 13 29  1  0  0  0  0
 13 30  1  0  0  0  0
 14 15  1  0  0  0  0
 14 31  1  0  0  0  0
 14 32  1  0  0  0  0
 15 16  1  0  0  0  0
 15 33  1  0  0  0  0
 15 34  1  0  0  0  0
 16 17  1  0  0  0  0
 16 35  1  0  0  0  0
 16 36  1  0  0  0  0
 17 18  1  0  0  0  0
 17 37  1  0  0  0  0
 18 19  1  0  0  0  0
 18 38  1  0  0  0  0
 18 39  1  0  0  0  0
M  CHG  1   4   1
M  CHG  1  12   1
M  END
> <s_m_source_file>
AV-unprocessed.smi

> <i_m_source_file_index>
2822

> <i_lp_mmshare_version>
43012

> <i_f3d_flags>
0

> <s_epik_input>
Q2xjMVtjSF1uW2NIXVtjSF1jMVtOSF1bQ0gyXVtDQEhdKFtDSDJdMilPW0NIMl1bQ0BASF0oTjIzKVtDSDJdW0NIMl1bQ0gyXVtDSDJdMw==

> <s_epik_cmdline>
J2VwaWtfcHl0aG9uJywgJy1waCcsICc3LjAnLCAnLXRuJywgJzgnLCAnLW1hJywgJzIwMCcsICctbWV0YWxfYmluZGluZycsICctaW1hZScsICc8aW5maWxlLm1hZT4nLCAnLW9tYWUnLCAnPG91dGZpbGUubWFlPic=

> <r_lp_tautomer_probability>
1

> <r_epik_Ionization_Penalty>
0.254999

> <r_epik_Ionization_Penalty_Charging>
0.254956

> <r_epik_Ionization_Penalty_Neutral>
4.33524e-05

> <r_epik_State_Penalty>
0.230978

> <r_epik_Charging_Adjusted_Penalty>
0.485934

> <i_epik_Tot_Q>
2

> <i_epik_Tot_abs_Q>
2

> <r_epik_Metal_State_Penalty>
3.47007

> <b_epik_Metal_Only>
0

> <s_lp_Force_Field>
OPLS_2005

> <r_lp_Energy>
41.3986

> <b_lp_Chiralities_Consistent>
1

> <s_lp_Variant>
AV-unprocessed.smi:2822-4

> <Gold.Version>
5.8.1

> <Gold.Id.Protein>
6NUR|6NUR_protein|mol2

> <Gold.PLP.Fitness>
42.5733

> <Gold.PLP.PLP>
-37.3227

> <Gold.PLP.part.hbond>
-1.6728

> <Gold.PLP.part.metal>
0.0000

> <Gold.PLP.part.buried>
-2.3898

> <Gold.PLP.part.nonpolar>
-32.2473

> <Gold.PLP.part.repulsive>
0.1660

> <Gold.PLP.ligand.clash>
0.0000

> <Gold.PLP.ligand.torsion>
0.3757

> <Gold.PLP.Chemscore.Hbond>
2.0000

> <Gold.PLP.Chemscore.CHOScore>
0.0000

> <Gold.PLP.Chemscore.Metal>
0.0000

> <Gold.Chemscore.Hbonds>
donor molecule, donor type, donor heavy atom, donor atom, acceptor molecule, acceptor atom, score
      L1  H     4    41       P1  7949  2.00

> <Gold.PLP.Chemscore.Internal.Correction>
0.0019

> <Gold.Rescore>
     Score         DG    S(hbond)    S(metal)    S(lipo)     H(rot)  DE(clash)    DE(int)     intcor
     18.27     -18.69       0.67        0.00     119.89       1.20       0.03       0.39       ----

> <Gold.Chemscore.Fitness>
18.2729

> <Gold.Chemscore.DG>
-18.6866

> <Gold.Chemscore.ZeroCoef>
-5.4800

> <Gold.Chemscore.Hbond>
0.6713

> <Gold.Chemscore.Metal>
0.0000

> <Gold.Chemscore.Lipo>
119.8872

> <Gold.Chemscore.Internal_Hbond>
0.0000

> <Gold.Chemscore.DEClash>
0.0258

> <Gold.Chemscore.DEInternal>
0.3878

> <Gold.Chemscore.Rot>
1.1962

> <Gold.Chemscore.Internal.Correction>
   9.000000E+99

> <Gold.Chemscore.Hbonds>
donor molecule, donor type, donor heavy atom, donor atom, acceptor molecule, acceptor atom, score
      L1  H     4    41       P1  7949  0.68

> <Gold.Chemscore.Hbond.Weighted>
-2.2420

> <Gold.Chemscore.Metal.Weighted>
-0.0000

> <Gold.Chemscore.Lipo.Weighted>
-14.0268

> <Gold.Chemscore.Internal_Hbond.Weighted>
0.0000

> <Gold.Chemscore.DEClash.Weighted>
0.0258

> <Gold.Chemscore.DEInternal.Weighted>
0.3878

> <Gold.Chemscore.Rot.Weighted>
3.0623

> <Gold.Chemscore.Internal.Correction.Weighted>
   9.000000E+99

> <Gold.Protein.RotatedTorsions>
[ 6907 6896 6895 6894 ] final   99.77 input  -60.11 | X-H torsion
[ 7974 7965 7964 7962 ] final   44.08 input  175.53 | X-H torsion
[ 8008 7997 7996 7995 ] final  -84.98 input   59.86 | X-H torsion
[ 10167 10162 10161 10158 ] final  -50.44 input  -65.29 | X-H torsion
[ 10718 10713 10712 10709 ] final -169.38 input   66.30 | X-H torsion
[ 10763 10752 10751 10750 ] final  119.70 input  -60.55 | X-H torsion
[ 11005 11000 10999 10996 ] final  131.46 input  -57.11 | X-H torsion

> <Gold.Protein.ActiveResidues>
 VAL166  LYS551  ARG553  GLY616  TRP617  ASP618  TYR619  PRO620  LYS621  CYS622 
 ASP623  PHE694  ASN695  SER759  ASP760  ASP761  ALA762  ILE779  LEU786  VAL792 
 PHE793  MET794  SER795  GLU796  ALA797  LYS798  CYS799  TRP800  GLU811  SER814 

> <Gold.Protein.RotatedAtoms>
  152.5385  134.0378  159.8053 H   0  0  0  0  0  0  0  0  0  0  0  0  # atno 6907 bound_to 6896
  151.0539  133.5593  159.2647 H   0  0  0  0  0  0  0  0  0  0  0  0  # atno 6908 bound_to 6896
  151.2517  135.0632  159.9118 H   0  0  0  0  0  0  0  0  0  0  0  0  # atno 6909 bound_to 6896
  146.0599  139.5114  142.9664 H   0  0  0  0  0  0  0  0  0  0  0  0  # atno 7974 bound_to 7965
  154.6357  140.0597  156.9786 H   0  0  0  0  0  0  0  0  0  0  0  0  # atno 8008 bound_to 7997
  155.1595  140.3281  155.4396 H   0  0  0  0  0  0  0  0  0  0  0  0  # atno 8009 bound_to 7997
  156.2506  140.1933  156.6703 H   0  0  0  0  0  0  0  0  0  0  0  0  # atno 8010 bound_to 7997
  140.6637  143.2658  151.4359 H   0  0  0  0  0  0  0  0  0  0  0  0  # atno 10167 bound_to 10162
  156.7107  130.9232  151.3089 H   0  0  0  0  0  0  0  0  0  0  0  0  # atno 10718 bound_to 10713
  153.5871  135.3473  155.2897 H   0  0  0  0  0  0  0  0  0  0  0  0  # atno 10763 bound_to 10752
  154.8658  135.4196  154.2557 H   0  0  0  0  0  0  0  0  0  0  0  0  # atno 10764 bound_to 10752
  153.3356  135.7047  153.6981 H   0  0  0  0  0  0  0  0  0  0  0  0  # atno 10765 bound_to 10752
  139.9732  134.9571  156.9442 H   0  0  0  0  0  0  0  0  0  0  0  0  # atno 11005 bound_to 11000
  145.6578  141.0248  143.1725 LP  0  0  0  0  0  0  0  0  0  0  0  0  # atno 17320 bound_to 7965
  144.7169  139.8165  143.7395 LP  0  0  0  0  0  0  0  0  0  0  0  0  # atno 17321 bound_to 7965
  139.5879  144.1563  152.2052 LP  0  0  0  0  0  0  0  0  0  0  0  0  # atno 17342 bound_to 10162
  140.0908  144.5622  150.7056 LP  0  0  0  0  0  0  0  0  0  0  0  0  # atno 17343 bound_to 10162
  157.6937  130.9260  150.0584 LP  0  0  0  0  0  0  0  0  0  0  0  0  # atno 17370 bound_to 10713
  156.1663  130.3645  149.9228 LP  0  0  0  0  0  0  0  0  0  0  0  0  # atno 17371 bound_to 10713
  140.5250  134.0870  155.7301 LP  0  0  0  0  0  0  0  0  0  0  0  0  # atno 17394 bound_to 11000
  141.1410  133.9137  157.2325 LP  0  0  0  0  0  0  0  0  0  0  0  0  # atno 17395 bound_to 11000

$$$$
