AV-unprocessed.smi:391|AV-procd|sdf|2479|dock10
  -GOLD-   2262022423D 1   1.00000     0.00000
 Structure written by MMmdl.
 36 37  0  0  0  0  0  0  0  0  1 V2000
  152.4036  143.2425  161.3203 C   0  0  0  0  0  0  0  0  0  0  0  0
  152.5914  142.0160  160.4177 C   0  0  0  0  0  0  0  0  0  0  0  0
  154.0708  141.6143  160.3075 C   0  0  0  0  0  0  0  0  0  0  0  0
  152.0397  142.2978  159.0959 N   0  0  0  0  0  0  0  0  0  0  0  0
  151.4115  141.4119  158.3080 C   0  0  0  0  0  0  0  0  0  0  0  0
  151.2182  140.2387  158.6308 O   0  0  0  0  0  0  0  0  0  0  0  0
  150.9299  141.9501  156.9521 C   0  0  0  0  0  0  0  0  0  0  0  0
  150.4358  140.8961  156.0390 N   0  0  0  0  0  0  0  0  0  0  0  0
  151.3322  139.8825  155.6139 C   0  0  0  0  0  0  0  0  0  0  0  0
  152.4996  139.8604  156.0070 O   0  0  0  0  0  0  0  0  0  0  0  0
  150.7765  138.9012  154.6845 C   0  0  0  0  0  0  0  0  0  0  0  0
  151.6541  137.8822  154.2123 C   0  0  0  0  0  0  0  0  0  0  0  0
  152.3556  137.0558  153.8065 N   0  0  0  0  0  0  0  0  0  0  0  0
  149.4877  138.9675  154.2920 C   0  0  0  0  0  0  0  0  0  0  0  0
  148.6236  139.9399  154.7456 N   0  0  0  0  0  0  0  0  0  0  0  0
  147.3060  140.0853  154.1942 C   0  0  0  0  0  0  0  0  0  0  0  0
  147.1042  140.1470  152.6925 C   0  0  0  0  0  0  0  0  0  0  0  0
  146.9303  141.3911  153.5290 C   0  0  0  0  0  0  0  0  0  0  0  0
  149.0929  140.9657  155.5949 C   0  0  0  0  0  0  0  0  0  0  0  0
  148.3616  141.9002  155.9330 O   0  0  0  0  0  0  0  0  0  0  0  0
  152.7814  143.0508  162.3250 H   0  0  0  0  0  0  0  0  0  0  0  0
  151.3492  143.5054  161.4103 H   0  0  0  0  0  0  0  0  0  0  0  0
  152.9323  144.1114  160.9268 H   0  0  0  0  0  0  0  0  0  0  0  0
  152.0384  141.1878  160.8646 H   0  0  0  0  0  0  0  0  0  0  0  0
  154.4916  141.3967  161.2896 H   0  0  0  0  0  0  0  0  0  0  0  0
  154.6662  142.4110  159.8602 H   0  0  0  0  0  0  0  0  0  0  0  0
  154.1949  140.7215  159.6938 H   0  0  0  0  0  0  0  0  0  0  0  0
  152.1500  143.2401  158.7500 H   0  0  0  0  0  0  0  0  0  0  0  0
  150.1669  142.7072  157.1391 H   0  0  0  0  0  0  0  0  0  0  0  0
  151.7438  142.5060  156.4832 H   0  0  0  0  0  0  0  0  0  0  0  0
  149.1136  138.2277  153.5988 H   0  0  0  0  0  0  0  0  0  0  0  0
  146.5127  139.5969  154.7573 H   0  0  0  0  0  0  0  0  0  0  0  0
  147.9824  140.0993  152.0511 H   0  0  0  0  0  0  0  0  0  0  0  0
  146.2078  139.6811  152.2891 H   0  0  0  0  0  0  0  0  0  0  0  0
  145.9171  141.7571  153.6811 H   0  0  0  0  0  0  0  0  0  0  0  0
  147.6949  142.1607  153.4402 H   0  0  0  0  0  0  0  0  0  0  0  0
  1  2  1  0  0  0  0
  1 21  1  0  0  0  0
  1 22  1  0  0  0  0
  1 23  1  0  0  0  0
  2  3  1  0  0  0  0
  2  4  1  0  0  0  0
  2 24  1  0  0  0  0
  3 25  1  0  0  0  0
  3 26  1  0  0  0  0
  3 27  1  0  0  0  0
  4  5  1  0  0  0  0
  4 28  1  0  0  0  0
  5  6  2  0  0  0  0
  5  7  1  0  0  0  0
  7  8  1  0  0  0  0
  7 29  1  0  0  0  0
  7 30  1  0  0  0  0
  8 19  1  0  0  0  0
  8  9  1  0  0  0  0
  9 10  2  0  0  0  0
  9 11  1  0  0  0  0
 11 12  1  0  0  0  0
 11 14  2  0  0  0  0
 12 13  3  0  0  0  0
 14 15  1  0  0  0  0
 14 31  1  0  0  0  0
 15 16  1  0  0  0  0
 15 19  1  0  0  0  0
 16 18  1  0  0  0  0
 16 17  1  0  0  0  0
 16 32  1  0  0  0  0
 17 18  1  0  0  0  0
 17 33  1  0  0  0  0
 17 34  1  0  0  0  0
 18 35  1  0  0  0  0
 18 36  1  0  0  0  0
 19 20  2  0  0  0  0
M  END
> <s_m_source_file>
AV-unprocessed.smi

> <i_m_source_file_index>
391

> <i_lp_mmshare_version>
43012

> <i_f3d_flags>
0

> <s_epik_input>
W0NIM11bQ0hdKFtDSDNdKVtOSF1DKD1PKVtDSDJdbjFjKD1PKWMoQyNOKVtjSF1uKGMxPU8pW0NIXTJbQ0gyXVtDSDJdMg==

> <s_epik_cmdline>
J2VwaWtfcHl0aG9uJywgJy1waCcsICc3LjAnLCAnLXRuJywgJzgnLCAnLW1hJywgJzIwMCcsICctbWV0YWxfYmluZGluZycsICctaW1hZScsICc8aW5maWxlLm1hZT4nLCAnLW9tYWUnLCAnPG91dGZpbGUubWFlPic=

> <r_lp_tautomer_probability>
1

> <r_epik_Ionization_Penalty>
2.07526e-08

> <r_epik_Ionization_Penalty_Charging>
8.22213e-11

> <r_epik_Ionization_Penalty_Neutral>
2.06703e-08

> <r_epik_State_Penalty>
-0

> <r_epik_Charging_Adjusted_Penalty>
8.22213e-11

> <i_epik_Tot_Q>
0

> <i_epik_Tot_abs_Q>
0

> <r_epik_Metal_State_Penalty>
-0

> <b_epik_Metal_Only>
0

> <s_lp_Force_Field>
OPLS_2005

> <r_lp_Energy>
27.641

> <b_lp_Chiralities_Consistent>
1

> <s_lp_Variant>
AV-unprocessed.smi:391-1

> <Gold.Version>
5.8.1

> <Gold.Id.Protein>
6NUR|6NUR_protein|mol2

> <Gold.PLP.Fitness>
45.4508

> <Gold.PLP.PLP>
-38.2872

> <Gold.PLP.part.hbond>
-1.6700

> <Gold.PLP.part.metal>
0.0000

> <Gold.PLP.part.buried>
-4.6397

> <Gold.PLP.part.nonpolar>
-36.1071

> <Gold.PLP.part.repulsive>
3.7421

> <Gold.PLP.ligand.clash>
0.0000

> <Gold.PLP.ligand.torsion>
0.5362

> <Gold.PLP.Chemscore.Hbond>
1.8960

> <Gold.PLP.Chemscore.CHOScore>
0.7774

> <Gold.PLP.Chemscore.Metal>
0.0000

> <Gold.Chemscore.Hbonds>
donor molecule, donor type, donor heavy atom, donor atom, acceptor molecule, acceptor atom, score
      P1  H  7997  8008       L1    10  1.00
      P1  H 10752 10763       L1    13  0.90
      L1  C    14    31       P1  7948  0.76

> <Gold.PLP.Chemscore.Internal.Correction>
0.2157

> <Gold.Rescore>
     Score         DG    S(hbond)    S(metal)    S(lipo)     H(rot)  DE(clash)    DE(int)     intcor
     12.32     -14.90       1.78        0.00      69.47       1.82       0.68       1.90       ----

> <Gold.Chemscore.Fitness>
12.3165

> <Gold.Chemscore.DG>
-14.8964

> <Gold.Chemscore.ZeroCoef>
-5.4800

> <Gold.Chemscore.Hbond>
1.7834

> <Gold.Chemscore.Metal>
0.0000

> <Gold.Chemscore.Lipo>
69.4691

> <Gold.Chemscore.Internal_Hbond>
0.0000

> <Gold.Chemscore.DEClash>
0.6821

> <Gold.Chemscore.DEInternal>
1.8978

> <Gold.Chemscore.Rot>
1.8234

> <Gold.Chemscore.Internal.Correction>
   9.000000E+99

> <Gold.Chemscore.Hbonds>
donor molecule, donor type, donor heavy atom, donor atom, acceptor molecule, acceptor atom, score
      P1  H  7997  8008       L1    10  0.96
      P1  H 10752 10763       L1    13  0.81

> <Gold.Chemscore.Hbond.Weighted>
-5.9565

> <Gold.Chemscore.Metal.Weighted>
-0.0000

> <Gold.Chemscore.Lipo.Weighted>
-8.1279

> <Gold.Chemscore.Internal_Hbond.Weighted>
0.0000

> <Gold.Chemscore.DEClash.Weighted>
0.6821

> <Gold.Chemscore.DEInternal.Weighted>
1.8978

> <Gold.Chemscore.Rot.Weighted>
4.6680

> <Gold.Chemscore.Internal.Correction.Weighted>
   9.000000E+99

> <Gold.Protein.RotatedTorsions>
[ 6907 6896 6895 6894 ] final  119.81 input  -60.11 | X-H torsion
[ 7974 7965 7964 7962 ] final -179.28 input  175.53 | X-H torsion
[ 8008 7997 7996 7995 ] final  -54.73 input   59.86 | X-H torsion
[ 10167 10162 10161 10158 ] final  -32.47 input  -65.29 | X-H torsion
[ 10718 10713 10712 10709 ] final  149.08 input   66.30 | X-H torsion
[ 10763 10752 10751 10750 ] final   14.11 input  -60.55 | X-H torsion
[ 11005 11000 10999 10996 ] final   -6.38 input  -57.11 | X-H torsion

> <Gold.Protein.ActiveResidues>
 VAL166  LYS551  ARG553  GLY616  TRP617  ASP618  TYR619  PRO620  LYS621  CYS622 
 ASP623  PHE694  ASN695  SER759  ASP760  ASP761  ALA762  ILE779  LEU786  VAL792 
 PHE793  MET794  SER795  GLU796  ALA797  LYS798  CYS799  TRP800  GLU811  SER814 

> <Gold.Protein.RotatedAtoms>
  152.4445  133.7510  159.6693 H   0  0  0  0  0  0  0  0  0  0  0  0  # atno 6907 bound_to 6896
  150.8342  133.8031  159.3092 H   0  0  0  0  0  0  0  0  0  0  0  0  # atno 6908 bound_to 6896
  151.5676  135.1066  160.0039 H   0  0  0  0  0  0  0  0  0  0  0  0  # atno 6909 bound_to 6896
  144.7135  140.0741  143.6428 H   0  0  0  0  0  0  0  0  0  0  0  0  # atno 7974 bound_to 7965
  154.4172  140.1169  156.5363 H   0  0  0  0  0  0  0  0  0  0  0  0  # atno 8008 bound_to 7997
  155.6553  140.3496  155.4744 H   0  0  0  0  0  0  0  0  0  0  0  0  # atno 8009 bound_to 7997
  155.9758  140.1150  157.0761 H   0  0  0  0  0  0  0  0  0  0  0  0  # atno 8010 bound_to 7997
  140.7220  143.3692  151.1811 H   0  0  0  0  0  0  0  0  0  0  0  0  # atno 10167 bound_to 10162
  157.3006  131.0870  151.1393 H   0  0  0  0  0  0  0  0  0  0  0  0  # atno 10718 bound_to 10713
  153.1654  135.6803  153.8682 H   0  0  0  0  0  0  0  0  0  0  0  0  # atno 10763 bound_to 10752
  153.8064  135.3149  155.3397 H   0  0  0  0  0  0  0  0  0  0  0  0  # atno 10764 bound_to 10752
  154.7962  135.4806  154.0256 H   0  0  0  0  0  0  0  0  0  0  0  0  # atno 10765 bound_to 10752
  140.7013  133.8987  155.8685 H   0  0  0  0  0  0  0  0  0  0  0  0  # atno 11005 bound_to 11000
  145.9758  139.2904  143.1071 LP  0  0  0  0  0  0  0  0  0  0  0  0  # atno 17320 bound_to 7965
  145.9065  140.9208  143.0476 LP  0  0  0  0  0  0  0  0  0  0  0  0  # atno 17321 bound_to 7965
  139.7260  143.9148  152.3002 LP  0  0  0  0  0  0  0  0  0  0  0  0  # atno 17342 bound_to 10162
  139.8921  144.6959  150.8759 LP  0  0  0  0  0  0  0  0  0  0  0  0  # atno 17343 bound_to 10162
  157.2753  130.6724  149.6039 LP  0  0  0  0  0  0  0  0  0  0  0  0  # atno 17370 bound_to 10713
  155.9671  130.4466  150.5548 LP  0  0  0  0  0  0  0  0  0  0  0  0  # atno 17371 bound_to 10713
  141.0161  134.0954  157.4170 LP  0  0  0  0  0  0  0  0  0  0  0  0  # atno 17394 bound_to 11000
  139.8896  135.0106  156.6687 LP  0  0  0  0  0  0  0  0  0  0  0  0  # atno 17395 bound_to 11000

$$$$
