#       Name:                AV-unprocessed.smi:2784
#       Creating user name   scv26
#       Creation time:       Fri Mar 27 15:18:12 2020


#       File generated by GOLD software.
#

@<TRIPOS>MOLECULE
AV-unprocessed.smi:2784
    38    39     1
SMALL
NO_CHARGES


@<TRIPOS>ATOM
      1 ****        -2.6364   3.1310   1.3083 C.3            1 S1                 0.0000
      2 ****        -1.8917   1.9469   1.5441 O.3            1 S1                 0.0000
      3 ****        -0.6526   1.9016   0.8482 C.3            1 S1                 0.0000
      4 ****         0.3885   2.8390   1.4778 C.3            1 S1                 0.0000
      5 ****         1.7237   2.1400   1.2511 C.3            1 S1                 0.0000
      6 ****         1.3956   0.6610   1.4426 C.3            1 S1                 0.0000
      7 ****        -0.0470   0.4826   0.9291 C.3            1 S1                 0.0000
      8 ****        -0.0637  -0.1592  -0.3843 N.am           1 S1                 0.0000
      9 ****         0.0781  -1.4711  -0.6225 C.2            1 S1                 0.0000
     10 ****         0.2433  -2.2521   0.3175 O.2            1 S1                 0.0000
     11 ****         0.0248  -1.7950  -1.9343 N.pl3          1 S1                -1.0000
     12 ****         0.1635  -3.0760  -2.3127 C.2            1 S1                 0.0000
     13 ****        -0.8195  -3.9105  -2.6554 N.2            1 S1                 0.0000
     14 ****        -0.2037  -5.1108  -2.9750 C.2            1 S1                 0.0000
     15 ****         1.1452  -4.9455  -2.8173 C.2            1 S1                 0.0000
     16 ****         1.3895  -3.6654  -2.4032 O.3            1 S1                 0.0000
     17 ****        -3.5771   3.0834   1.8567 H              1 S1                 0.0000
     18 ****        -2.8721   3.2447   0.2493 H              1 S1                 0.0000
     19 ****        -2.0993   4.0183   1.6451 H              1 S1                 0.0000
     20 ****        -0.8001   2.1791  -0.1979 H              1 S1                 0.0000
     21 ****         0.3630   3.8427   1.0528 H              1 S1                 0.0000
     22 ****         0.2088   2.9273   2.5503 H              1 S1                 0.0000
     23 ****         2.0633   2.3137   0.2290 H              1 S1                 0.0000
     24 ****         2.5030   2.4888   1.9290 H              1 S1                 0.0000
     25 ****         2.1201   0.0117   0.9490 H              1 S1                 0.0000
     26 ****         1.4270   0.4228   2.5065 H              1 S1                 0.0000
     27 ****        -0.6122  -0.1278   1.6362 H              1 S1                 0.0000
     28 ****        -0.1975   0.4433  -1.1831 H              1 S1                 0.0000
     29 ****        -0.7674  -5.9767  -3.2885 H              1 S1                 0.0000
     30 ****         2.0031  -5.5876  -2.9488 H              1 S1                 0.0000
     31 ****        -2.4439   1.1644   1.2565 LP             1 S1                 0.0000
     32 ****        -1.7056   1.8812   2.5244 LP             1 S1                 0.0000
     33 ****         0.2713  -1.9067   1.2555 LP             1 S1                 0.0000
     34 ****         0.3492  -3.2308   0.1417 LP             1 S1                 0.0000
     35 ****        -0.1176  -1.0822  -2.6211 LP             1 S1                 0.0000
     36 ****        -1.7992  -3.7111  -2.6772 LP             1 S1                 0.0000
     37 ****         1.8443  -3.6662  -1.5126 LP             1 S1                 0.0000
     38 ****         1.9607  -3.1850  -3.0687 LP             1 S1                 0.0000
@<TRIPOS>BOND
    1    1    2 1     
    2    1   17 1     
    3    1   18 1     
    4    1   19 1     
    5    2    3 1     
    6    3    7 1     
    7    3    4 1     
    8    3   20 1     
    9    4    5 1     
   10    4   21 1     
   11    4   22 1     
   12    5    6 1     
   13    5   23 1     
   14    5   24 1     
   15    6    7 1     
   16    6   25 1     
   17    6   26 1     
   18    7    8 1     
   19    7   27 1     
   20    8   28 1     
   21    8    9 am    
   22    9   11 1     
   23    9   10 2     
   24   11   12 1     
   25   12   16 1     
   26   12   13 2     
   27   13   14 1     
   28   14   29 1     
   29   14   15 2     
   30   15   30 1     
   31   15   16 1     
   32    2   31 1     
   33    2   32 1     
   34   10   33 1     
   35   10   34 1     
   36   11   35 1     
   37   13   36 1     
   38   16   37 1     
   39   16   38 1     
@<TRIPOS>SUBSTRUCTURE
      1 S1             1
@<TRIPOS>SET
LONE_PAIRS      STATIC     ATOMS    <user>   **** ""
8 31 32 33 34 35 36 37 38
DONOR_HYDROGENS      STATIC     ATOMS    <user>   **** ""
1 28
ATOM$BLUE        STATIC     ATOMS    COLORGROUP SYSTEM
8 31 32 33 34 35 36 37 38
ATOM$RED        STATIC     ATOMS    COLORGROUP SYSTEM
1 28
