AV-unprocessed.smi:725|AV-procd|sdf|3508|dock3
  -GOLD-   22720 0503D 1   1.00000     0.00000
 Structure written by MMmdl.
 47 48  0  0  0  0  0  0  0  0  1 V2000
  146.5307  138.7273  151.3965 C   0  0  0  0  0  0  0  0  0  0  0  0
  147.0883  139.0765  152.7808 C   0  0  0  0  0  0  0  0  0  0  0  0
  146.7825  140.5318  153.1857 C   0  0  0  0  0  0  0  0  0  0  0  0
  147.4678  141.0237  154.4868 C   0  0  1  0  0  0  0  0  0  0  0  0
  146.8667  142.3447  155.0079 C   0  0  0  0  0  0  0  0  0  0  0  0
  147.2665  140.0451  155.4880 O   0  0  0  0  0  0  0  0  0  0  0  0
  149.0026  141.1265  154.3061 C   0  0  0  0  0  0  0  0  0  0  0  0
  149.6849  141.6315  155.4949 N   0  0  0  0  0  0  0  0  0  0  0  0
  150.8534  141.1786  155.9763 C   0  0  0  0  0  0  0  0  0  0  0  0
  151.5064  140.2798  155.4454 O   0  0  0  0  0  0  0  0  0  0  0  0
  151.3437  141.8756  157.2185 C   0  0  0  0  0  0  0  0  0  0  0  0
  151.3677  143.2894  157.2544 C   0  0  0  0  0  0  0  0  0  0  0  0
  151.7766  143.9483  158.4271 C   0  0  0  0  0  0  0  0  0  0  0  0
  152.1425  143.1659  159.5352 C   0  0  0  0  0  0  0  0  0  0  0  0
  152.1245  141.8182  159.5235 N   0  0  0  0  0  0  0  0  0  0  0  0
  151.7353  141.1715  158.3963 C   0  0  0  0  0  0  0  0  0  0  0  0
  151.7787  139.7631  158.4330 N   0  0  0  0  0  0  0  0  0  0  0  0
  150.5186  139.0443  158.2767 C   0  0  0  0  0  0  0  0  0  0  0  0
  150.7961  137.5431  158.0890 C   0  0  0  0  0  0  0  0  0  0  0  0
  151.5691  137.0591  159.1840 O   0  0  0  0  0  0  0  0  0  0  0  0
  152.8290  137.7173  159.2842 C   0  0  0  0  0  0  0  0  0  0  0  0
  152.6101  139.2241  159.5022 C   0  0  0  0  0  0  0  0  0  0  0  0
  146.7568  137.6931  151.1364 H   0  0  0  0  0  0  0  0  0  0  0  0
  146.9628  139.3656  150.6254 H   0  0  0  0  0  0  0  0  0  0  0  0
  145.4477  138.8489  151.3659 H   0  0  0  0  0  0  0  0  0  0  0  0
  146.6639  138.3867  153.5101 H   0  0  0  0  0  0  0  0  0  0  0  0
  148.1650  138.9048  152.7805 H   0  0  0  0  0  0  0  0  0  0  0  0
  147.0714  141.1898  152.3644 H   0  0  0  0  0  0  0  0  0  0  0  0
  145.7014  140.6374  153.2832 H   0  0  0  0  0  0  0  0  0  0  0  0
  146.9028  143.1258  154.2483 H   0  0  0  0  0  0  0  0  0  0  0  0
  147.4111  142.7087  155.8800 H   0  0  0  0  0  0  0  0  0  0  0  0
  145.8250  142.2283  155.3072 H   0  0  0  0  0  0  0  0  0  0  0  0
  147.7562  140.2962  156.2563 H   0  0  0  0  0  0  0  0  0  0  0  0
  149.4186  140.1627  154.0065 H   0  0  0  0  0  0  0  0  0  0  0  0
  149.2325  141.8128  153.4902 H   0  0  0  0  0  0  0  0  0  0  0  0
  149.2299  142.3827  155.9927 H   0  0  0  0  0  0  0  0  0  0  0  0
  151.0650  143.8727  156.3965 H   0  0  0  0  0  0  0  0  0  0  0  0
  151.8012  145.0269  158.4780 H   0  0  0  0  0  0  0  0  0  0  0  0
  152.4585  143.6338  160.4558 H   0  0  0  0  0  0  0  0  0  0  0  0
  149.8947  139.1962  159.1586 H   0  0  0  0  0  0  0  0  0  0  0  0
  149.9717  139.4348  157.4177 H   0  0  0  0  0  0  0  0  0  0  0  0
  149.8580  136.9903  158.0430 H   0  0  0  0  0  0  0  0  0  0  0  0
  151.3215  137.3594  157.1502 H   0  0  0  0  0  0  0  0  0  0  0  0
  153.3866  137.2932  160.1191 H   0  0  0  0  0  0  0  0  0  0  0  0
  153.4178  137.5379  158.3832 H   0  0  0  0  0  0  0  0  0  0  0  0
  153.5715  139.7364  159.5430 H   0  0  0  0  0  0  0  0  0  0  0  0
  152.1162  139.3963  160.4592 H   0  0  0  0  0  0  0  0  0  0  0  0
  1  2  1  0  0  0  0
  1 23  1  0  0  0  0
  1 24  1  0  0  0  0
  1 25  1  0  0  0  0
  2  3  1  0  0  0  0
  2 26  1  0  0  0  0
  2 27  1  0  0  0  0
  3  4  1  0  0  0  0
  3 28  1  0  0  0  0
  3 29  1  0  0  0  0
  4  5  1  0  0  0  0
  4  6  1  0  0  0  0
  4  7  1  0  0  0  0
  5 30  1  0  0  0  0
  5 31  1  0  0  0  0
  5 32  1  0  0  0  0
  6 33  1  0  0  0  0
  7  8  1  0  0  0  0
  7 34  1  0  0  0  0
  7 35  1  0  0  0  0
  8  9  1  0  0  0  0
  8 36  1  0  0  0  0
  9 10  2  0  0  0  0
  9 11  1  0  0  0  0
 11 16  1  0  0  0  0
 11 12  2  0  0  0  0
 12 13  1  0  0  0  0
 12 37  1  0  0  0  0
 13 14  2  0  0  0  0
 13 38  1  0  0  0  0
 14 15  1  0  0  0  0
 14 39  1  0  0  0  0
 15 16  2  0  0  0  0
 16 17  1  0  0  0  0
 17 22  1  0  0  0  0
 17 18  1  0  0  0  0
 18 19  1  0  0  0  0
 18 40  1  0  0  0  0
 18 41  1  0  0  0  0
 19 20  1  0  0  0  0
 19 42  1  0  0  0  0
 19 43  1  0  0  0  0
 20 21  1  0  0  0  0
 21 22  1  0  0  0  0
 21 44  1  0  0  0  0
 21 45  1  0  0  0  0
 22 46  1  0  0  0  0
 22 47  1  0  0  0  0
M  END
> <s_m_source_file>
AV-unprocessed.smi

> <i_m_source_file_index>
725

> <i_lp_mmshare_version>
43012

> <i_f3d_flags>
0

> <s_epik_input>
W0NIM11bQ0gyXVtDSDJdW0NAQF0oW0NIM10pKFtPSF0pW0NIMl1bTkhdQyg9TyljMVtjSF1bY0hdW2NIXW5jMU4yW0NIMl1bQ0gyXU9bQ0gyXVtDSDJdMg==

> <s_epik_cmdline>
J2VwaWtfcHl0aG9uJywgJy1waCcsICc3LjAnLCAnLXRuJywgJzgnLCAnLW1hJywgJzIwMCcsICctbWV0YWxfYmluZGluZycsICctaW1hZScsICc8aW5maWxlLm1hZT4nLCAnLW9tYWUnLCAnPG91dGZpbGUubWFlPic=

> <r_lp_tautomer_probability>
1

> <r_epik_Ionization_Penalty>
1.23446e-05

> <r_epik_Ionization_Penalty_Charging>
0

> <r_epik_Ionization_Penalty_Neutral>
1.23446e-05

> <r_epik_State_Penalty>
-0

> <r_epik_Charging_Adjusted_Penalty>
0

> <i_epik_Tot_Q>
0

> <i_epik_Tot_abs_Q>
0

> <r_epik_Metal_State_Penalty>
-0

> <b_epik_Metal_Only>
0

> <s_lp_Force_Field>
OPLS_2005

> <r_lp_Energy>
26.7516

> <b_lp_Chiralities_Consistent>
1

> <s_lp_Variant>
AV-unprocessed.smi:725-1

> <Gold.Version>
5.8.1

> <Gold.Id.Protein>
6NUR|6NUR_protein|mol2

> <Gold.PLP.Fitness>
43.8996

> <Gold.PLP.PLP>
-40.5139

> <Gold.PLP.part.hbond>
-2.3852

> <Gold.PLP.part.metal>
0.0000

> <Gold.PLP.part.buried>
-3.0649

> <Gold.PLP.part.nonpolar>
-36.4517

> <Gold.PLP.part.repulsive>
0.1590

> <Gold.PLP.ligand.clash>
0.0000

> <Gold.PLP.ligand.torsion>
1.4593

> <Gold.PLP.Chemscore.Hbond>
1.9508

> <Gold.PLP.Chemscore.CHOScore>
0.0000

> <Gold.PLP.Chemscore.Metal>
0.0000

> <Gold.Chemscore.Hbonds>
donor molecule, donor type, donor heavy atom, donor atom, acceptor molecule, acceptor atom, score
      L1  H     8    36       P1  8028  0.08
      P1  H  6896  6908       L1    20  0.98
      P1  H  7989  7998       L1    10  0.91

> <Gold.PLP.Chemscore.Internal.Correction>
0.4518

> <Gold.Rescore>
     Score         DG    S(hbond)    S(metal)    S(lipo)     H(rot)  DE(clash)    DE(int)     intcor
     15.27     -16.91       1.55        0.00     101.47       2.19       0.01       1.63       ----

> <Gold.Chemscore.Fitness>
15.2737

> <Gold.Chemscore.DG>
-16.9142

> <Gold.Chemscore.ZeroCoef>
-5.4800

> <Gold.Chemscore.Hbond>
1.5501

> <Gold.Chemscore.Metal>
0.0000

> <Gold.Chemscore.Lipo>
101.4683

> <Gold.Chemscore.Internal_Hbond>
0.0000

> <Gold.Chemscore.DEClash>
0.0106

> <Gold.Chemscore.DEInternal>
1.6299

> <Gold.Chemscore.Rot>
2.1933

> <Gold.Chemscore.Internal.Correction>
   9.000000E+99

> <Gold.Chemscore.Hbonds>
donor molecule, donor type, donor heavy atom, donor atom, acceptor molecule, acceptor atom, score
      L1  H     8    36       P1  8028  0.10
      P1  H  6896  6908       L1    20  0.83
      P1  H  7989  7998       L1    10  0.33

> <Gold.Chemscore.Hbond.Weighted>
-5.1772

> <Gold.Chemscore.Metal.Weighted>
-0.0000

> <Gold.Chemscore.Lipo.Weighted>
-11.8718

> <Gold.Chemscore.Internal_Hbond.Weighted>
0.0000

> <Gold.Chemscore.DEClash.Weighted>
0.0106

> <Gold.Chemscore.DEInternal.Weighted>
1.6299

> <Gold.Chemscore.Rot.Weighted>
5.6149

> <Gold.Chemscore.Internal.Correction.Weighted>
   9.000000E+99

> <Gold.Protein.RotatedTorsions>
[ 6907 6896 6895 6894 ] final -126.49 input  -60.11 | X-H torsion
[ 7974 7965 7964 7962 ] final  -22.48 input  175.53 | X-H torsion
[ 8008 7997 7996 7995 ] final   58.42 input   59.86 | X-H torsion
[ 10167 10162 10161 10158 ] final -146.70 input  -65.29 | X-H torsion
[ 10718 10713 10712 10709 ] final  120.66 input   66.30 | X-H torsion
[ 10763 10752 10751 10750 ] final    1.69 input  -60.55 | X-H torsion
[ 11005 11000 10999 10996 ] final -109.33 input  -57.11 | X-H torsion

> <Gold.Protein.ActiveResidues>
 VAL166  LYS551  ARG553  GLY616  TRP617  ASP618  TYR619  PRO620  LYS621  CYS622 
 ASP623  PHE694  ASN695  SER759  ASP760  ASP761  ALA762  ILE779  LEU786  VAL792 
 PHE793  MET794  SER795  GLU796  ALA797  LYS798  CYS799  TRP800  GLU811  SER814 

> <Gold.Protein.RotatedAtoms>
  150.8975  133.7162  159.2887 H   0  0  0  0  0  0  0  0  0  0  0  0  # atno 6907 bound_to 6896
  151.4692  135.1043  159.9756 H   0  0  0  0  0  0  0  0  0  0  0  0  # atno 6908 bound_to 6896
  152.4857  133.8319  159.7163 H   0  0  0  0  0  0  0  0  0  0  0  0  # atno 6909 bound_to 6896
  146.1673  140.4484  142.8547 H   0  0  0  0  0  0  0  0  0  0  0  0  # atno 7974 bound_to 7965
  155.5497  140.3486  155.4465 H   0  0  0  0  0  0  0  0  0  0  0  0  # atno 8008 bound_to 7997
  156.0592  140.1336  156.9987 H   0  0  0  0  0  0  0  0  0  0  0  0  # atno 8009 bound_to 7997
  154.4471  140.0989  156.6476 H   0  0  0  0  0  0  0  0  0  0  0  0  # atno 8010 bound_to 7997
  139.7689  143.8267  152.2621 H   0  0  0  0  0  0  0  0  0  0  0  0  # atno 10167 bound_to 10162
  157.5875  131.1068  150.8066 H   0  0  0  0  0  0  0  0  0  0  0  0  # atno 10718 bound_to 10713
  153.3048  135.6958  153.7169 H   0  0  0  0  0  0  0  0  0  0  0  0  # atno 10763 bound_to 10752
  153.6069  135.3451  155.2966 H   0  0  0  0  0  0  0  0  0  0  0  0  # atno 10764 bound_to 10752
  154.8560  135.4354  154.2170 H   0  0  0  0  0  0  0  0  0  0  0  0  # atno 10765 bound_to 10752
  141.0853  133.9149  157.2198 H   0  0  0  0  0  0  0  0  0  0  0  0  # atno 11005 bound_to 11000
  144.8111  140.6387  143.6414 LP  0  0  0  0  0  0  0  0  0  0  0  0  # atno 17320 bound_to 7965
  145.4433  139.1533  143.3958 LP  0  0  0  0  0  0  0  0  0  0  0  0  # atno 17321 bound_to 7965
  139.8295  144.7260  150.9468 LP  0  0  0  0  0  0  0  0  0  0  0  0  # atno 17342 bound_to 10162
  140.7812  143.4083  151.1035 LP  0  0  0  0  0  0  0  0  0  0  0  0  # atno 17343 bound_to 10162
  156.8496  130.5076  149.5313 LP  0  0  0  0  0  0  0  0  0  0  0  0  # atno 17370 bound_to 10713
  156.0925  130.5907  150.9758 LP  0  0  0  0  0  0  0  0  0  0  0  0  # atno 17371 bound_to 10713
  139.9671  135.0139  156.9415 LP  0  0  0  0  0  0  0  0  0  0  0  0  # atno 17394 bound_to 11000
  140.5376  134.0752  155.7332 LP  0  0  0  0  0  0  0  0  0  0  0  0  # atno 17395 bound_to 11000

$$$$
