AV-unprocessed.smi:76|AV-procd|sdf|769|dock1
  -GOLD-   2262017113D 1   1.00000     0.00000
 Structure written by MMmdl.
 55 58  0  0  0  0  0  0  0  0  1 V2000
  152.7717  139.4865  159.6039 C   0  0  0  0  0  0  0  0  0  0  0  0
  152.6005  140.7578  158.7456 C   0  0  2  0  0  0  0  0  0  0  0  0
  152.2513  141.9556  159.6545 C   0  0  0  0  0  0  0  0  0  0  0  0
  152.0377  143.2535  158.8505 C   0  0  2  0  0  0  0  0  0  0  0  0
  151.6829  144.4500  159.7563 C   0  0  0  0  0  0  0  0  0  0  0  0
  150.3951  144.4205  160.1008 F   0  0  0  0  0  0  0  0  0  0  0  0
  152.4258  144.4202  160.8626 F   0  0  0  0  0  0  0  0  0  0  0  0
  151.9322  145.5935  159.1182 F   0  0  0  0  0  0  0  0  0  0  0  0
  150.9697  143.0030  157.7699 C   0  0  0  0  0  0  0  0  0  0  0  0
  151.3538  141.8066  156.8885 C   0  0  0  0  0  0  0  0  0  0  0  0
  151.5831  140.6088  157.6955 N   0  0  0  0  0  0  0  0  0  0  0  0
  151.7111  139.5066  156.9226 C   0  0  0  0  0  0  0  0  0  0  0  0
  152.4368  139.5601  155.7743 N   0  0  0  0  0  0  0  0  0  0  0  0
  152.5718  138.4637  155.0217 C   0  0  0  0  0  0  0  0  0  0  0  0
  152.0770  137.2411  155.2303 N   0  0  0  0  0  0  0  0  0  0  0  0
  151.3483  137.1893  156.3828 C   0  0  0  0  0  0  0  0  0  0  0  0
  151.1190  138.2679  157.2807 C   0  0  0  0  0  0  0  0  0  0  0  0
  150.3433  137.8437  158.3512 N   0  0  0  0  0  0  0  0  0  0  0  0
  150.1272  136.5809  158.1011 C   0  0  0  0  0  0  0  0  0  0  0  0
  150.6804  136.1075  156.9316 N   0  0  0  0  0  0  0  0  0  0  0  0
  150.6034  134.7478  156.4162 C   0  0  0  0  0  0  0  0  0  0  0  0
  149.3517  134.4422  155.5342 C   0  0  0  0  0  0  0  0  0  0  0  0
  148.7525  135.7884  155.0400 C   0  0  0  0  0  0  0  0  0  0  0  0
  147.7753  135.6324  154.0297 O   0  0  0  0  0  0  0  0  0  0  0  0
  149.7892  133.5748  154.3257 C   0  0  0  0  0  0  0  0  0  0  0  0
  150.1519  132.1325  154.7288 C   0  0  0  0  0  0  0  0  0  0  0  0
  149.0669  131.5286  155.4229 O   0  0  0  0  0  0  0  0  0  0  0  0
  148.7282  132.2047  156.6275 C   0  0  0  0  0  0  0  0  0  0  0  0
  148.2749  133.6413  156.3116 C   0  0  0  0  0  0  0  0  0  0  0  0
  153.4949  139.6513  160.4028 H   0  0  0  0  0  0  0  0  0  0  0  0
  153.1359  138.6425  159.0177 H   0  0  0  0  0  0  0  0  0  0  0  0
  151.8292  139.1906  160.0661 H   0  0  0  0  0  0  0  0  0  0  0  0
  153.5535  140.9692  158.2581 H   0  0  0  0  0  0  0  0  0  0  0  0
  151.3495  141.7280  160.2246 H   0  0  0  0  0  0  0  0  0  0  0  0
  153.0466  142.1019  160.3859 H   0  0  0  0  0  0  0  0  0  0  0  0
  152.9754  143.4902  158.3452 H   0  0  0  0  0  0  0  0  0  0  0  0
  150.0024  142.8147  158.2372 H   0  0  0  0  0  0  0  0  0  0  0  0
  150.8457  143.8890  157.1470 H   0  0  0  0  0  0  0  0  0  0  0  0
  150.5616  141.6181  156.1622 H   0  0  0  0  0  0  0  0  0  0  0  0
  152.2555  142.0445  156.3217 H   0  0  0  0  0  0  0  0  0  0  0  0
  153.1617  138.5826  154.1248 H   0  0  0  0  0  0  0  0  0  0  0  0
  149.5495  135.9562  158.7668 H   0  0  0  0  0  0  0  0  0  0  0  0
  151.5114  134.5597  155.8417 H   0  0  0  0  0  0  0  0  0  0  0  0
  150.6632  134.0769  157.2716 H   0  0  0  0  0  0  0  0  0  0  0  0
  148.2806  136.3275  155.8614 H   0  0  0  0  0  0  0  0  0  0  0  0
  149.5404  136.4332  154.6492 H   0  0  0  0  0  0  0  0  0  0  0  0
  148.2107  135.6110  153.1913 H   0  0  0  0  0  0  0  0  0  0  0  0
  148.9831  133.5129  153.5942 H   0  0  0  0  0  0  0  0  0  0  0  0
  150.6284  134.0394  153.8068 H   0  0  0  0  0  0  0  0  0  0  0  0
  150.3602  131.5431  153.8356 H   0  0  0  0  0  0  0  0  0  0  0  0
  151.0555  132.0963  155.3374 H   0  0  0  0  0  0  0  0  0  0  0  0
  147.9178  131.6603  157.1126 H   0  0  0  0  0  0  0  0  0  0  0  0
  149.5702  132.1897  157.3198 H   0  0  0  0  0  0  0  0  0  0  0  0
  147.9820  134.1561  157.2257 H   0  0  0  0  0  0  0  0  0  0  0  0
  147.3645  133.5709  155.7155 H   0  0  0  0  0  0  0  0  0  0  0  0
  1  2  1  0  0  0  0
  1 30  1  0  0  0  0
  1 31  1  0  0  0  0
  1 32  1  0  0  0  0
  2 11  1  0  0  0  0
  2  3  1  0  0  0  0
  2 33  1  0  0  0  0
  3  4  1  0  0  0  0
  3 34  1  0  0  0  0
  3 35  1  0  0  0  0
  4  5  1  0  0  0  0
  4  9  1  0  0  0  0
  4 36  1  0  0  0  0
  5  6  1  0  0  0  0
  5  7  1  0  0  0  0
  5  8  1  0  0  0  0
  9 10  1  0  0  0  0
  9 37  1  0  0  0  0
  9 38  1  0  0  0  0
 10 11  1  0  0  0  0
 10 39  1  0  0  0  0
 10 40  1  0  0  0  0
 11 12  1  0  0  0  0
 12 17  1  0  0  0  0
 12 13  2  0  0  0  0
 13 14  1  0  0  0  0
 14 15  2  0  0  0  0
 14 41  1  0  0  0  0
 15 16  1  0  0  0  0
 16 20  1  0  0  0  0
 16 17  2  0  0  0  0
 17 18  1  0  0  0  0
 18 19  2  0  0  0  0
 19 20  1  0  0  0  0
 19 42  1  0  0  0  0
 20 21  1  0  0  0  0
 21 22  1  0  0  0  0
 21 43  1  0  0  0  0
 21 44  1  0  0  0  0
 22 29  1  0  0  0  0
 22 23  1  0  0  0  0
 22 25  1  0  0  0  0
 23 24  1  0  0  0  0
 23 45  1  0  0  0  0
 23 46  1  0  0  0  0
 24 47  1  0  0  0  0
 25 26  1  0  0  0  0
 25 48  1  0  0  0  0
 25 49  1  0  0  0  0
 26 27  1  0  0  0  0
 26 50  1  0  0  0  0
 26 51  1  0  0  0  0
 27 28  1  0  0  0  0
 28 29  1  0  0  0  0
 28 52  1  0  0  0  0
 28 53  1  0  0  0  0
 29 54  1  0  0  0  0
 29 55  1  0  0  0  0
M  END
> <s_m_source_file>
AV-unprocessed.smi

> <i_m_source_file_index>
76

> <i_lp_mmshare_version>
43012

> <i_f3d_flags>
0

> <s_epik_input>
W0NIM11bQ0BASF0xW0NIMl1bQ0BASF0oQyhGKShGKUYpW0NIMl1bQ0gyXU4xYyhuW2NIXW4yKWMoYzIzKW5bY0hdbjNbQ0gyXUM0KFtDSDJdW09IXSlbQ0gyXVtDSDJdT1tDSDJdW0NIMl00

> <s_epik_cmdline>
J2VwaWtfcHl0aG9uJywgJy1waCcsICc3LjAnLCAnLXRuJywgJzgnLCAnLW1hJywgJzIwMCcsICctbWV0YWxfYmluZGluZycsICctaW1hZScsICc8aW5maWxlLm1hZT4nLCAnLW9tYWUnLCAnPG91dGZpbGUubWFlPic=

> <r_lp_tautomer_probability>
1

> <r_epik_Ionization_Penalty>
0.00244097

> <r_epik_Ionization_Penalty_Charging>
0

> <r_epik_Ionization_Penalty_Neutral>
0.00244097

> <r_epik_State_Penalty>
0.00151846

> <r_epik_Charging_Adjusted_Penalty>
0.00151846

> <i_epik_Tot_Q>
0

> <i_epik_Tot_abs_Q>
0

> <r_epik_Metal_State_Penalty>
-0

> <b_epik_Metal_Only>
0

> <s_lp_Force_Field>
OPLS_2005

> <r_lp_Energy>
38.0325

> <b_lp_Chiralities_Consistent>
1

> <s_lp_Variant>
AV-unprocessed.smi:76-3

> <Gold.Version>
5.8.1

> <Gold.Id.Protein>
6NUR|6NUR_protein|mol2

> <Gold.PLP.Fitness>
48.7052

> <Gold.PLP.PLP>
-44.8710

> <Gold.PLP.part.hbond>
-2.7850

> <Gold.PLP.part.metal>
0.0000

> <Gold.PLP.part.buried>
-7.1590

> <Gold.PLP.part.nonpolar>
-33.6927

> <Gold.PLP.part.repulsive>
0.0654

> <Gold.PLP.ligand.clash>
0.0000

> <Gold.PLP.ligand.torsion>
2.4264

> <Gold.PLP.Chemscore.Hbond>
2.7913

> <Gold.PLP.Chemscore.CHOScore>
0.0000

> <Gold.PLP.Chemscore.Metal>
0.0000

> <Gold.Chemscore.Hbonds>
donor molecule, donor type, donor heavy atom, donor atom, acceptor molecule, acceptor atom, score
      L1  H    24    47       P1  7948  1.00
      P1  H  7997  8010       L1    13  0.96
      P1  H 10752 10764       L1    15  0.78

> <Gold.PLP.Chemscore.Internal.Correction>
0.3134

> <Gold.Rescore>
     Score         DG    S(hbond)    S(metal)    S(lipo)     H(rot)  DE(clash)    DE(int)     intcor
     14.39     -17.20       2.10        0.00      94.08       2.47       0.16       2.65       ----

> <Gold.Chemscore.Fitness>
14.3912

> <Gold.Chemscore.DG>
-17.2036

> <Gold.Chemscore.ZeroCoef>
-5.4800

> <Gold.Chemscore.Hbond>
2.1048

> <Gold.Chemscore.Metal>
0.0000

> <Gold.Chemscore.Lipo>
94.0826

> <Gold.Chemscore.Internal_Hbond>
0.0000

> <Gold.Chemscore.DEClash>
0.1604

> <Gold.Chemscore.DEInternal>
2.6521

> <Gold.Chemscore.Rot>
2.4665

> <Gold.Chemscore.Internal.Correction>
   9.000000E+99

> <Gold.Chemscore.Hbonds>
donor molecule, donor type, donor heavy atom, donor atom, acceptor molecule, acceptor atom, score
      L1  H    24    47       P1  7948  0.99
      P1  H  7997  8010       L1    13  0.32
      P1  H 10752 10764       L1    15  0.76

> <Gold.Chemscore.Hbond.Weighted>
-7.0301

> <Gold.Chemscore.Metal.Weighted>
-0.0000

> <Gold.Chemscore.Lipo.Weighted>
-11.0077

> <Gold.Chemscore.Internal_Hbond.Weighted>
0.0000

> <Gold.Chemscore.DEClash.Weighted>
0.1604

> <Gold.Chemscore.DEInternal.Weighted>
2.6521

> <Gold.Chemscore.Rot.Weighted>
6.3142

> <Gold.Chemscore.Internal.Correction.Weighted>
   9.000000E+99

> <Gold.Protein.RotatedTorsions>
[ 6907 6896 6895 6894 ] final  -75.68 input  -60.11 | X-H torsion
[ 7974 7965 7964 7962 ] final -112.29 input  175.53 | X-H torsion
[ 8008 7997 7996 7995 ] final   89.44 input   59.86 | X-H torsion
[ 10167 10162 10161 10158 ] final  -71.79 input  -65.29 | X-H torsion
[ 10718 10713 10712 10709 ] final  102.31 input   66.30 | X-H torsion
[ 10763 10752 10751 10750 ] final  -70.44 input  -60.55 | X-H torsion
[ 11005 11000 10999 10996 ] final   26.63 input  -57.11 | X-H torsion

> <Gold.Protein.ActiveResidues>
 VAL166  LYS551  ARG553  GLY616  TRP617  ASP618  TYR619  PRO620  LYS621  CYS622 
 ASP623  PHE694  ASN695  SER759  ASP760  ASP761  ALA762  ILE779  LEU786  VAL792 
 PHE793  MET794  SER795  GLU796  ALA797  LYS798  CYS799  TRP800  GLU811  SER814 

> <Gold.Protein.RotatedAtoms>
  150.7051  134.4685  159.5413 H   0  0  0  0  0  0  0  0  0  0  0  0  # atno 6907 bound_to 6896
  152.2345  134.8286  160.0478 H   0  0  0  0  0  0  0  0  0  0  0  0  # atno 6908 bound_to 6896
  151.9090  133.3521  159.3894 H   0  0  0  0  0  0  0  0  0  0  0  0  # atno 6909 bound_to 6896
  145.1457  140.8802  143.3676 H   0  0  0  0  0  0  0  0  0  0  0  0  # atno 7974 bound_to 7965
  155.9999  140.3360  155.6836 H   0  0  0  0  0  0  0  0  0  0  0  0  # atno 8008 bound_to 7997
  155.6304  140.0684  157.2668 H   0  0  0  0  0  0  0  0  0  0  0  0  # atno 8009 bound_to 7997
  154.4246  140.1760  156.1454 H   0  0  0  0  0  0  0  0  0  0  0  0  # atno 8010 bound_to 7997
  140.5245  143.2328  151.7372 H   0  0  0  0  0  0  0  0  0  0  0  0  # atno 10167 bound_to 10162
  157.6806  131.0749  150.5384 H   0  0  0  0  0  0  0  0  0  0  0  0  # atno 10718 bound_to 10713
  154.4177  135.5994  153.5991 H   0  0  0  0  0  0  0  0  0  0  0  0  # atno 10763 bound_to 10752
  152.9792  135.5944  154.3993 H   0  0  0  0  0  0  0  0  0  0  0  0  # atno 10764 bound_to 10752
  154.3814  135.2841  155.2187 H   0  0  0  0  0  0  0  0  0  0  0  0  # atno 10765 bound_to 10752
  140.3350  134.2396  155.7697 H   0  0  0  0  0  0  0  0  0  0  0  0  # atno 11005 bound_to 11000
  145.0484  139.3202  143.5941 LP  0  0  0  0  0  0  0  0  0  0  0  0  # atno 17320 bound_to 7965
  146.3500  139.9883  142.8688 LP  0  0  0  0  0  0  0  0  0  0  0  0  # atno 17321 bound_to 7965
  139.4934  144.4207  151.9981 LP  0  0  0  0  0  0  0  0  0  0  0  0  # atno 17342 bound_to 10162
  140.3305  144.3322  150.5988 LP  0  0  0  0  0  0  0  0  0  0  0  0  # atno 17343 bound_to 10162
  156.5692  130.4275  149.6027 LP  0  0  0  0  0  0  0  0  0  0  0  0  # atno 17370 bound_to 10713
  156.2755  130.7041  151.1851 LP  0  0  0  0  0  0  0  0  0  0  0  0  # atno 17371 bound_to 10713
  141.2053  133.7862  157.0237 LP  0  0  0  0  0  0  0  0  0  0  0  0  # atno 17394 bound_to 11000
  140.0829  134.9638  157.1653 LP  0  0  0  0  0  0  0  0  0  0  0  0  # atno 17395 bound_to 11000

$$$$
