AV-unprocessed.smi:2947|AV-procd|sdf|11282|dock9
  -GOLD-   2272016173D 1   1.00000     0.00000
 Structure written by MMmdl.
 33 34  0  0  0  0  0  0  0  0  1 V2000
  150.8830  140.9541  156.7612 O   0  0  0  0  0  0  0  0  0  0  0  0
  150.3427  142.0046  156.4134 C   0  0  0  0  0  0  0  0  0  0  0  0
  149.4048  142.1177  155.4563 N   0  0  0  0  0  0  0  0  0  0  0  0
  148.8435  141.0909  154.6509 C   0  0  0  0  0  0  0  0  0  0  0  0
  147.7055  141.4712  153.9041 C   0  0  0  0  0  0  0  0  0  0  0  0
  147.0742  140.5255  153.0729 C   0  0  0  0  0  0  0  0  0  0  0  0
  147.5980  139.2220  153.0093 C   0  0  0  0  0  0  0  0  0  0  0  0
  148.7339  138.9255  153.7849 C   0  0  0  0  0  0  0  0  0  0  0  0
  149.3404  139.8302  154.5824 N   0  0  0  0  0  0  0  0  0  0  0  0
  150.6253  143.1973  156.9581 N   0  0  0  0  0  0  0  0  0  0  0  0
  151.5988  143.4300  158.0211 C   0  0  0  0  0  0  0  0  0  0  0  0
  151.5433  142.2977  159.0678 C   0  0  0  0  0  0  0  0  0  0  0  0
  152.5056  142.5646  160.2366 C   0  0  0  0  0  0  0  0  0  0  0  0
  152.2295  143.9293  160.8867 C   0  0  0  0  0  0  0  0  0  0  0  0
  152.2907  145.0602  159.8481 C   0  0  0  0  0  0  0  0  0  0  0  0
  151.3275  144.7964  158.6791 C   0  0  0  0  0  0  0  0  0  0  0  0
  149.0517  143.0470  155.2826 H   0  0  0  0  0  0  0  0  0  0  0  0
  147.3164  142.4772  153.9643 H   0  0  0  0  0  0  0  0  0  0  0  0
  146.2038  140.7969  152.4942 H   0  0  0  0  0  0  0  0  0  0  0  0
  147.1420  138.4692  152.3835 H   0  0  0  0  0  0  0  0  0  0  0  0
  149.1674  137.9365  153.7648 H   0  0  0  0  0  0  0  0  0  0  0  0
  150.1322  144.0068  156.6111 H   0  0  0  0  0  0  0  0  0  0  0  0
  152.5997  143.4581  157.5854 H   0  0  0  0  0  0  0  0  0  0  0  0
  150.5270  142.1990  159.4521 H   0  0  0  0  0  0  0  0  0  0  0  0
  151.7914  141.3422  158.6040 H   0  0  0  0  0  0  0  0  0  0  0  0
  152.4149  141.7727  160.9805 H   0  0  0  0  0  0  0  0  0  0  0  0
  153.5344  142.5331  159.8759 H   0  0  0  0  0  0  0  0  0  0  0  0
  151.2456  143.9179  161.3575 H   0  0  0  0  0  0  0  0  0  0  0  0
  152.9516  144.1153  161.6824 H   0  0  0  0  0  0  0  0  0  0  0  0
  152.0495  146.0126  160.3210 H   0  0  0  0  0  0  0  0  0  0  0  0
  153.3091  145.1529  159.4682 H   0  0  0  0  0  0  0  0  0  0  0  0
  151.4221  145.5931  157.9403 H   0  0  0  0  0  0  0  0  0  0  0  0
  150.3000  144.8342  159.0445 H   0  0  0  0  0  0  0  0  0  0  0  0
  1  2  2  0  0  0  0
  2  3  1  0  0  0  0
  2 10  1  0  0  0  0
  3  4  1  0  0  0  0
  3 17  1  0  0  0  0
  4  9  1  0  0  0  0
  4  5  2  0  0  0  0
  5  6  1  0  0  0  0
  5 18  1  0  0  0  0
  6  7  2  0  0  0  0
  6 19  1  0  0  0  0
  7  8  1  0  0  0  0
  7 20  1  0  0  0  0
  8  9  2  0  0  0  0
  8 21  1  0  0  0  0
 10 11  1  0  0  0  0
 10 22  1  0  0  0  0
 11 16  1  0  0  0  0
 11 12  1  0  0  0  0
 11 23  1  0  0  0  0
 12 13  1  0  0  0  0
 12 24  1  0  0  0  0
 12 25  1  0  0  0  0
 13 14  1  0  0  0  0
 13 26  1  0  0  0  0
 13 27  1  0  0  0  0
 14 15  1  0  0  0  0
 14 28  1  0  0  0  0
 14 29  1  0  0  0  0
 15 16  1  0  0  0  0
 15 30  1  0  0  0  0
 15 31  1  0  0  0  0
 16 32  1  0  0  0  0
 16 33  1  0  0  0  0
M  END
> <s_m_source_file>
AV-unprocessed.smi

> <i_m_source_file_index>
2947

> <i_lp_mmshare_version>
43012

> <i_f3d_flags>
0

> <s_epik_input>
W0NIMl0xW0NIMl1bQ0gyXVtDSDJdW0NIMl1bQ0hdMVtOSF1DKD1PKVtOSF1jMltjSF1bY0hdW2NIXVtjSF1uMg==

> <s_epik_cmdline>
J2VwaWtfcHl0aG9uJywgJy1waCcsICc3LjAnLCAnLXRuJywgJzgnLCAnLW1hJywgJzIwMCcsICctbWV0YWxfYmluZGluZycsICctaW1hZScsICc8aW5maWxlLm1hZT4nLCAnLW9tYWUnLCAnPG91dGZpbGUubWFlPic=

> <r_lp_tautomer_probability>
1

> <r_epik_Ionization_Penalty>
5.26121e-05

> <r_epik_Ionization_Penalty_Charging>
0

> <r_epik_Ionization_Penalty_Neutral>
5.26121e-05

> <r_epik_State_Penalty>
-0

> <r_epik_Charging_Adjusted_Penalty>
0

> <i_epik_Tot_Q>
0

> <i_epik_Tot_abs_Q>
0

> <r_epik_Metal_State_Penalty>
-0

> <b_epik_Metal_Only>
0

> <s_lp_Force_Field>
OPLS_2005

> <r_lp_Energy>
11.3585

> <b_lp_Chiralities_Consistent>
1

> <s_lp_Variant>
AV-unprocessed.smi:2947-1

> <Gold.Version>
5.8.1

> <Gold.Id.Protein>
6NUR|6NUR_protein|mol2

> <Gold.PLP.Fitness>
43.8039

> <Gold.PLP.PLP>
-35.6727

> <Gold.PLP.part.hbond>
-2.0000

> <Gold.PLP.part.metal>
0.0000

> <Gold.PLP.part.buried>
-0.6535

> <Gold.PLP.part.nonpolar>
-32.9699

> <Gold.PLP.part.repulsive>
0.3296

> <Gold.PLP.ligand.clash>
0.0048

> <Gold.PLP.ligand.torsion>
0.2947

> <Gold.PLP.Chemscore.Hbond>
2.0000

> <Gold.PLP.Chemscore.CHOScore>
0.9074

> <Gold.PLP.Chemscore.Metal>
0.0000

> <Gold.Chemscore.Hbonds>
donor molecule, donor type, donor heavy atom, donor atom, acceptor molecule, acceptor atom, score
      L1  H     3    17       P1  8028  1.00
      L1  H    10    22       P1  8028  1.00
      L1  C     8    21       P1  7948  0.90

> <Gold.PLP.Chemscore.Internal.Correction>
0.0031

> <Gold.Rescore>
     Score         DG    S(hbond)    S(metal)    S(lipo)     H(rot)  DE(clash)    DE(int)     intcor
     17.66     -20.59       1.96        0.00      95.15       1.00       0.12       2.81       ----

> <Gold.Chemscore.Fitness>
17.6606

> <Gold.Chemscore.DG>
-20.5857

> <Gold.Chemscore.ZeroCoef>
-5.4800

> <Gold.Chemscore.Hbond>
1.9560

> <Gold.Chemscore.Metal>
0.0000

> <Gold.Chemscore.Lipo>
95.1501

> <Gold.Chemscore.Internal_Hbond>
0.0000

> <Gold.Chemscore.DEClash>
0.1174

> <Gold.Chemscore.DEInternal>
2.8077

> <Gold.Chemscore.Rot>
1.0000

> <Gold.Chemscore.Internal.Correction>
   9.000000E+99

> <Gold.Chemscore.Hbonds>
donor molecule, donor type, donor heavy atom, donor atom, acceptor molecule, acceptor atom, score
      L1  H     3    17       P1  8028  0.98
      L1  H    10    22       P1  8028  0.97

> <Gold.Chemscore.Hbond.Weighted>
-6.5331

> <Gold.Chemscore.Metal.Weighted>
-0.0000

> <Gold.Chemscore.Lipo.Weighted>
-11.1326

> <Gold.Chemscore.Internal_Hbond.Weighted>
0.0000

> <Gold.Chemscore.DEClash.Weighted>
0.1174

> <Gold.Chemscore.DEInternal.Weighted>
2.8077

> <Gold.Chemscore.Rot.Weighted>
2.5600

> <Gold.Chemscore.Internal.Correction.Weighted>
   9.000000E+99

> <Gold.Protein.RotatedTorsions>
[ 6907 6896 6895 6894 ] final   63.60 input  -60.11 | X-H torsion
[ 7974 7965 7964 7962 ] final  -85.64 input  175.53 | X-H torsion
[ 8008 7997 7996 7995 ] final   18.39 input   59.86 | X-H torsion
[ 10167 10162 10161 10158 ] final   11.84 input  -65.29 | X-H torsion
[ 10718 10713 10712 10709 ] final  -62.02 input   66.30 | X-H torsion
[ 10763 10752 10751 10750 ] final    7.53 input  -60.55 | X-H torsion
[ 11005 11000 10999 10996 ] final -149.23 input  -57.11 | X-H torsion

> <Gold.Protein.ActiveResidues>
 VAL166  LYS551  ARG553  GLY616  TRP617  ASP618  TYR619  PRO620  LYS621  CYS622 
 ASP623  PHE694  ASN695  SER759  ASP760  ASP761  ALA762  ILE779  LEU786  VAL792 
 PHE793  MET794  SER795  GLU796  ALA797  LYS798  CYS799  TRP800  GLU811  SER814 

> <Gold.Protein.RotatedAtoms>
  152.4266  134.5857  159.9960 H   0  0  0  0  0  0  0  0  0  0  0  0  # atno 6907 bound_to 6896
  151.5992  133.3352  159.3052 H   0  0  0  0  0  0  0  0  0  0  0  0  # atno 6908 bound_to 6896
  150.8156  134.7372  159.6792 H   0  0  0  0  0  0  0  0  0  0  0  0  # atno 6909 bound_to 6896
  145.4905  140.9553  143.1814 H   0  0  0  0  0  0  0  0  0  0  0  0  # atno 7974 bound_to 7965
  154.9053  140.3006  155.5295 H   0  0  0  0  0  0  0  0  0  0  0  0  # atno 8008 bound_to 7997
  156.3017  140.2399  156.4021 H   0  0  0  0  0  0  0  0  0  0  0  0  # atno 8009 bound_to 7997
  154.8480  140.0410  157.1574 H   0  0  0  0  0  0  0  0  0  0  0  0  # atno 8010 bound_to 7997
  140.6106  143.8415  150.7062 H   0  0  0  0  0  0  0  0  0  0  0  0  # atno 10167 bound_to 10162
  156.0883  130.4204  150.1076 H   0  0  0  0  0  0  0  0  0  0  0  0  # atno 10718 bound_to 10713
  153.2352  135.6897  153.7844 H   0  0  0  0  0  0  0  0  0  0  0  0  # atno 10763 bound_to 10752
  153.6994  135.3300  155.3222 H   0  0  0  0  0  0  0  0  0  0  0  0  # atno 10764 bound_to 10752
  154.8332  135.4564  154.1253 H   0  0  0  0  0  0  0  0  0  0  0  0  # atno 10765 bound_to 10752
  140.7530  134.3385  157.5121 H   0  0  0  0  0  0  0  0  0  0  0  0  # atno 11005 bound_to 11000
  144.7836  139.6473  143.7143 LP  0  0  0  0  0  0  0  0  0  0  0  0  # atno 17320 bound_to 7965
  146.2287  139.5771  142.9570 LP  0  0  0  0  0  0  0  0  0  0  0  0  # atno 17321 bound_to 7965
  140.1982  143.3980  152.1811 LP  0  0  0  0  0  0  0  0  0  0  0  0  # atno 17342 bound_to 10162
  139.5359  144.7208  151.4897 LP  0  0  0  0  0  0  0  0  0  0  0  0  # atno 17343 bound_to 10162
  156.9091  130.9646  151.3565 LP  0  0  0  0  0  0  0  0  0  0  0  0  # atno 17370 bound_to 10713
  157.6024  130.8522  149.8823 LP  0  0  0  0  0  0  0  0  0  0  0  0  # atno 17371 bound_to 10713
  139.8784  134.9154  156.3129 LP  0  0  0  0  0  0  0  0  0  0  0  0  # atno 17394 bound_to 11000
  140.9734  133.7313  156.0567 LP  0  0  0  0  0  0  0  0  0  0  0  0  # atno 17395 bound_to 11000

$$$$
