AV-unprocessed.smi:1878|AV-procd|sdf|7630|dock10
  -GOLD-   22720 9353D 1   1.00000     0.00000
 Structure written by MMmdl.
 35 36  0  0  0  0  0  0  0  0  3 V2000
  152.1066  137.4844  154.4375 O   0  0  0  0  0  0  0  0  0  0  0  0
  150.9055  137.7544  154.4198 C   0  0  0  0  0  0  0  0  0  0  0  0
  150.0128  136.7628  154.5349 N   0  0  0  0  0  0  0  0  0  0  0  0
  150.3396  135.3491  154.6802 C   0  0  0  0  0  0  0  0  0  0  0  0
  150.5320  134.9732  156.1564 C   0  0  0  0  0  0  0  0  0  0  0  0
  149.3621  135.0573  156.7888 F   0  0  0  0  0  0  0  0  0  0  0  0
  150.9868  133.7244  156.2623 F   0  0  0  0  0  0  0  0  0  0  0  0
  151.3944  135.8061  156.7396 F   0  0  0  0  0  0  0  0  0  0  0  0
  150.3266  138.9756  154.2934 N   0  5  0  0  0  0  0  0  0  0  0  0
  150.4369  140.0209  155.1416 C   0  0  0  0  0  0  0  0  0  0  0  0
  151.3708  139.8952  156.1972 C   0  0  0  0  0  0  0  0  0  0  0  0
  151.5573  140.9298  157.1353 C   0  0  0  0  0  0  0  0  0  0  0  0
  150.7987  142.1132  157.0148 C   0  0  0  0  0  0  0  0  0  0  0  0
  150.9018  143.2029  157.8906 N   0  0  0  0  0  0  0  0  0  0  0  0
  151.8371  144.2375  157.4811 C   0  0  0  0  0  0  0  0  0  0  0  0
  152.0991  145.0730  158.7368 C   0  0  0  0  0  0  0  0  0  0  0  0
  151.7316  144.1523  159.9065 C   0  0  0  0  0  0  0  0  0  0  0  0
  151.2675  142.8486  159.2516 C   0  0  0  0  0  0  0  0  0  0  0  0
  149.9119  142.2155  156.0051 N   0  3  0  0  0  0  0  0  0  0  0  0
  149.7091  141.2415  155.0914 C   0  0  0  0  0  0  0  0  0  0  0  0
  149.0333  137.0069  154.5194 H   0  0  0  0  0  0  0  0  0  0  0  0
  149.5398  134.7477  154.2452 H   0  0  0  0  0  0  0  0  0  0  0  0
  151.2493  135.1289  154.1194 H   0  0  0  0  0  0  0  0  0  0  0  0
  151.9550  138.9911  156.2937 H   0  0  0  0  0  0  0  0  0  0  0  0
  152.2735  140.8063  157.9340 H   0  0  0  0  0  0  0  0  0  0  0  0
  152.7692  143.7984  157.1236 H   0  0  0  0  0  0  0  0  0  0  0  0
  151.4217  144.8446  156.6761 H   0  0  0  0  0  0  0  0  0  0  0  0
  153.1339  145.4134  158.7843 H   0  0  0  0  0  0  0  0  0  0  0  0
  151.4585  145.9558  158.7447 H   0  0  0  0  0  0  0  0  0  0  0  0
  152.5710  143.9844  160.5820 H   0  0  0  0  0  0  0  0  0  0  0  0
  150.9215  144.5951  160.4872 H   0  0  0  0  0  0  0  0  0  0  0  0
  150.4212  142.4125  159.7836 H   0  0  0  0  0  0  0  0  0  0  0  0
  152.0780  142.1182  159.2528 H   0  0  0  0  0  0  0  0  0  0  0  0
  148.9625  141.4921  154.3550 H   0  0  0  0  0  0  0  0  0  0  0  0
  149.3647  143.0725  155.9250 H   0  0  0  0  0  0  0  0  0  0  0  0
  1  2  2  0  0  0  0
  2  3  1  0  0  0  0
  2  9  1  0  0  0  0
  3  4  1  0  0  0  0
  3 21  1  0  0  0  0
  4  5  1  0  0  0  0
  4 22  1  0  0  0  0
  4 23  1  0  0  0  0
  5  6  1  0  0  0  0
  5  7  1  0  0  0  0
  5  8  1  0  0  0  0
  9 10  1  0  0  0  0
 10 20  1  0  0  0  0
 10 11  2  0  0  0  0
 11 12  1  0  0  0  0
 11 24  1  0  0  0  0
 12 13  2  0  0  0  0
 12 25  1  0  0  0  0
 13 14  1  0  0  0  0
 13 19  1  0  0  0  0
 14 18  1  0  0  0  0
 14 15  1  0  0  0  0
 15 16  1  0  0  0  0
 15 26  1  0  0  0  0
 15 27  1  0  0  0  0
 16 17  1  0  0  0  0
 16 28  1  0  0  0  0
 16 29  1  0  0  0  0
 17 18  1  0  0  0  0
 17 30  1  0  0  0  0
 17 31  1  0  0  0  0
 18 32  1  0  0  0  0
 18 33  1  0  0  0  0
 19 20  2  0  0  0  0
 19 35  1  0  0  0  0
 20 34  1  0  0  0  0
M  CHG  1   9  -1
M  CHG  1  19   1
M  END
> <s_m_source_file>
AV-unprocessed.smi

> <i_m_source_file_index>
1878

> <i_lp_mmshare_version>
43012

> <i_f3d_flags>
0

> <s_epik_input>
RkMoRikoRilbQ0gyXVtOSF1DKD1PKVtOSF1jMVtjSF1bY0hdYyhuW2NIXTEpTjJbQ0gyXVtDSDJdW0NIMl1bQ0gyXTI=

> <s_epik_cmdline>
J2VwaWtfcHl0aG9uJywgJy1waCcsICc3LjAnLCAnLXRuJywgJzgnLCAnLW1hJywgJzIwMCcsICctbWV0YWxfYmluZGluZycsICctaW1hZScsICc8aW5maWxlLm1hZT4nLCAnLW9tYWUnLCAnPG91dGZpbGUubWFlPic=

> <r_lp_tautomer_probability>
0.999994

> <r_epik_Ionization_Penalty>
6.00991

> <r_epik_Ionization_Penalty_Charging>
6.00991

> <r_epik_Ionization_Penalty_Neutral>
1.33916e-07

> <r_epik_State_Penalty>
7.27363

> <r_epik_Charging_Adjusted_Penalty>
13.2835

> <i_epik_Tot_Q>
0

> <i_epik_Tot_abs_Q>
2

> <r_epik_Metal_State_Penalty>
3.28277

> <b_epik_Metal_Only>
1

> <s_lp_Force_Field>
OPLS_2005

> <r_lp_Energy>
31.9355

> <b_lp_Chiralities_Consistent>
1

> <s_lp_Variant>
AV-unprocessed.smi:1878-5

> <Gold.Version>
5.8.1

> <Gold.Id.Protein>
6NUR|6NUR_protein|mol2

> <Gold.PLP.Fitness>
46.6291

> <Gold.PLP.PLP>
-41.2327

> <Gold.PLP.part.hbond>
-3.0000

> <Gold.PLP.part.metal>
0.0000

> <Gold.PLP.part.buried>
-5.6747

> <Gold.PLP.part.nonpolar>
-32.8107

> <Gold.PLP.part.repulsive>
0.6188

> <Gold.PLP.ligand.clash>
0.0000

> <Gold.PLP.ligand.torsion>
1.5794

> <Gold.PLP.Chemscore.Hbond>
2.8320

> <Gold.PLP.Chemscore.CHOScore>
0.0000

> <Gold.PLP.Chemscore.Metal>
0.0000

> <Gold.Chemscore.Hbonds>
donor molecule, donor type, donor heavy atom, donor atom, acceptor molecule, acceptor atom, score
      L1  H    19    35       P1  8028  2.00
      P1  H 10752 10764       L1     1  0.83

> <Gold.PLP.Chemscore.Internal.Correction>
0.0591

> <Gold.Rescore>
     Score         DG    S(hbond)    S(metal)    S(lipo)     H(rot)  DE(clash)    DE(int)     intcor
     16.06     -18.20       1.88        0.00      84.33       1.33       0.01       2.14       ----

> <Gold.Chemscore.Fitness>
16.0596

> <Gold.Chemscore.DG>
-18.2041

> <Gold.Chemscore.ZeroCoef>
-5.4800

> <Gold.Chemscore.Hbond>
1.8761

> <Gold.Chemscore.Metal>
0.0000

> <Gold.Chemscore.Lipo>
84.3348

> <Gold.Chemscore.Internal_Hbond>
0.0000

> <Gold.Chemscore.DEClash>
0.0073

> <Gold.Chemscore.DEInternal>
2.1372

> <Gold.Chemscore.Rot>
1.3317

> <Gold.Chemscore.Internal.Correction>
   9.000000E+99

> <Gold.Chemscore.Hbonds>
donor molecule, donor type, donor heavy atom, donor atom, acceptor molecule, acceptor atom, score
      L1  H    19    35       P1  8028  1.00
      P1  H 10752 10764       L1     1  0.78

> <Gold.Chemscore.Hbond.Weighted>
-6.2662

> <Gold.Chemscore.Metal.Weighted>
-0.0000

> <Gold.Chemscore.Lipo.Weighted>
-9.8672

> <Gold.Chemscore.Internal_Hbond.Weighted>
0.0000

> <Gold.Chemscore.DEClash.Weighted>
0.0073

> <Gold.Chemscore.DEInternal.Weighted>
2.1372

> <Gold.Chemscore.Rot.Weighted>
3.4092

> <Gold.Chemscore.Internal.Correction.Weighted>
   9.000000E+99

> <Gold.Protein.RotatedTorsions>
[ 6907 6896 6895 6894 ] final   95.86 input  -60.11 | X-H torsion
[ 7974 7965 7964 7962 ] final  -25.01 input  175.53 | X-H torsion
[ 8008 7997 7996 7995 ] final  135.15 input   59.86 | X-H torsion
[ 10167 10162 10161 10158 ] final  -65.64 input  -65.29 | X-H torsion
[ 10718 10713 10712 10709 ] final -124.95 input   66.30 | X-H torsion
[ 10763 10752 10751 10750 ] final  -77.55 input  -60.55 | X-H torsion
[ 11005 11000 10999 10996 ] final -115.01 input  -57.11 | X-H torsion

> <Gold.Protein.ActiveResidues>
 VAL166  LYS551  ARG553  GLY616  TRP617  ASP618  TYR619  PRO620  LYS621  CYS622 
 ASP623  PHE694  ASN695  SER759  ASP760  ASP761  ALA762  ILE779  LEU786  VAL792 
 PHE793  MET794  SER795  GLU796  ALA797  LYS798  CYS799  TRP800  GLU811  SER814 

> <Gold.Protein.RotatedAtoms>
  152.5440  134.0974  159.8302 H   0  0  0  0  0  0  0  0  0  0  0  0  # atno 6907 bound_to 6896
  151.1056  133.5203  159.2615 H   0  0  0  0  0  0  0  0  0  0  0  0  # atno 6908 bound_to 6896
  151.1941  135.0424  159.8899 H   0  0  0  0  0  0  0  0  0  0  0  0  # atno 6909 bound_to 6896
  146.1518  140.4829  142.8608 H   0  0  0  0  0  0  0  0  0  0  0  0  # atno 7974 bound_to 7965
  156.3002  140.2478  156.3534 H   0  0  0  0  0  0  0  0  0  0  0  0  # atno 8008 bound_to 7997
  154.8944  140.0408  157.1876 H   0  0  0  0  0  0  0  0  0  0  0  0  # atno 8009 bound_to 7997
  154.8564  140.2914  155.5570 H   0  0  0  0  0  0  0  0  0  0  0  0  # atno 8010 bound_to 7997
  140.5715  143.2318  151.6528 H   0  0  0  0  0  0  0  0  0  0  0  0  # atno 10167 bound_to 10162
  156.1633  130.6617  151.0079 H   0  0  0  0  0  0  0  0  0  0  0  0  # atno 10718 bound_to 10713
  154.5144  135.5760  153.6630 H   0  0  0  0  0  0  0  0  0  0  0  0  # atno 10763 bound_to 10752
  152.9904  135.6166  154.2836 H   0  0  0  0  0  0  0  0  0  0  0  0  # atno 10764 bound_to 10752
  154.2753  135.2852  155.2700 H   0  0  0  0  0  0  0  0  0  0  0  0  # atno 10765 bound_to 10752
  141.0515  133.9679  157.2828 H   0  0  0  0  0  0  0  0  0  0  0  0  # atno 11005 bound_to 11000
  144.7914  140.6039  143.6539 LP  0  0  0  0  0  0  0  0  0  0  0  0  # atno 17320 bound_to 7965
  145.4804  139.1496  143.3765 LP  0  0  0  0  0  0  0  0  0  0  0  0  # atno 17321 bound_to 7965
  139.5120  144.3490  152.0670 LP  0  0  0  0  0  0  0  0  0  0  0  0  # atno 17342 bound_to 10162
  140.2628  144.4048  150.6179 LP  0  0  0  0  0  0  0  0  0  0  0  0  # atno 17343 bound_to 10162
  157.6749  131.0853  150.7520 LP  0  0  0  0  0  0  0  0  0  0  0  0  # atno 17370 bound_to 10713
  156.7582  130.4790  149.5442 LP  0  0  0  0  0  0  0  0  0  0  0  0  # atno 17371 bound_to 10713
  139.9354  135.0197  156.8540 LP  0  0  0  0  0  0  0  0  0  0  0  0  # atno 17394 bound_to 11000
  140.6046  134.0140  155.7551 LP  0  0  0  0  0  0  0  0  0  0  0  0  # atno 17395 bound_to 11000

$$$$
