AV-unprocessed.smi:2640|AV-procd|sdf|10270|dock3
  -GOLD-   2272014283D 1   1.00000     0.00000
 Structure written by MMmdl.
 41 42  0  0  0  0  0  0  0  0  1 V2000
  146.5940  139.6379  154.0995 O   0  0  0  0  0  0  0  0  0  0  0  0
  147.1248  138.9159  153.2561 C   0  0  0  0  0  0  0  0  0  0  0  0
  146.3742  138.5565  151.9760 C   0  0  0  0  0  0  0  0  0  0  0  0
  145.1944  137.7355  152.2600 N   0  0  0  0  0  0  0  0  0  0  0  0
  145.5370  136.3206  152.2489 C   0  0  0  0  0  0  0  0  0  0  0  0
  144.3467  135.4844  151.7495 C   0  0  0  0  0  0  0  0  0  0  0  0
  144.7047  134.0951  151.5238 N   0  0  0  0  0  0  0  0  0  0  0  0
  143.8896  133.0547  151.1300 C   0  0  0  0  0  0  0  0  0  0  0  0
  144.6667  131.9343  151.0585 C   0  0  0  0  0  0  0  0  0  0  0  0
  145.9606  132.3963  151.4293 C   0  0  0  0  0  0  0  0  0  0  0  0
  145.9801  133.6898  151.7069 N   0  0  0  0  0  0  0  0  0  0  0  0
  148.3604  138.4059  153.3880 N   0  0  0  0  0  0  0  0  0  0  0  0
  149.2408  138.5983  154.5422 C   0  0  2  0  0  0  0  0  0  0  0  0
  150.6980  138.4581  154.0459 C   0  0  0  0  0  0  0  0  0  0  0  0
  151.7318  139.1386  154.9598 C   0  0  0  0  0  0  0  0  0  0  0  0
  151.8614  138.5241  156.3617 C   0  0  0  0  0  0  0  0  0  0  0  0
  150.5753  138.6187  157.2001 C   0  0  0  0  0  0  0  0  0  0  0  0
  149.5891  137.6209  156.8067 N   0  0  0  0  0  0  0  0  0  0  0  0
  148.9655  137.5257  155.6225 C   0  0  0  0  0  0  0  0  0  0  0  0
  148.1901  136.5952  155.4027 O   0  0  0  0  0  0  0  0  0  0  0  0
  146.0730  139.4728  151.4656 H   0  0  0  0  0  0  0  0  0  0  0  0
  147.0501  138.0199  151.3083 H   0  0  0  0  0  0  0  0  0  0  0  0
  144.4598  137.9025  151.5863 H   0  0  0  0  0  0  0  0  0  0  0  0
  146.4077  136.1467  151.6144 H   0  0  0  0  0  0  0  0  0  0  0  0
  145.8052  136.0076  153.2586 H   0  0  0  0  0  0  0  0  0  0  0  0
  143.5462  135.5072  152.4898 H   0  0  0  0  0  0  0  0  0  0  0  0
  143.9328  135.9075  150.8326 H   0  0  0  0  0  0  0  0  0  0  0  0
  142.8360  133.1969  150.9392 H   0  0  0  0  0  0  0  0  0  0  0  0
  144.3582  130.9366  150.7838 H   0  0  0  0  0  0  0  0  0  0  0  0
  146.8797  131.8344  151.5046 H   0  0  0  0  0  0  0  0  0  0  0  0
  148.7046  137.8117  152.6480 H   0  0  0  0  0  0  0  0  0  0  0  0
  149.0787  139.5959  154.9544 H   0  0  0  0  0  0  0  0  0  0  0  0
  150.9610  137.4098  153.8925 H   0  0  0  0  0  0  0  0  0  0  0  0
  150.7851  138.9263  153.0639 H   0  0  0  0  0  0  0  0  0  0  0  0
  152.7065  139.0960  154.4729 H   0  0  0  0  0  0  0  0  0  0  0  0
  151.4925  140.1992  155.0495 H   0  0  0  0  0  0  0  0  0  0  0  0
  152.1885  137.4859  156.2893 H   0  0  0  0  0  0  0  0  0  0  0  0
  152.6570  139.0511  156.8894 H   0  0  0  0  0  0  0  0  0  0  0  0
  150.8166  138.4344  158.2471 H   0  0  0  0  0  0  0  0  0  0  0  0
  150.1459  139.6208  157.1565 H   0  0  0  0  0  0  0  0  0  0  0  0
  149.3775  136.9107  157.4927 H   0  0  0  0  0  0  0  0  0  0  0  0
  1  2  2  0  0  0  0
  2  3  1  0  0  0  0
  2 12  1  0  0  0  0
  3  4  1  0  0  0  0
  3 21  1  0  0  0  0
  3 22  1  0  0  0  0
  4  5  1  0  0  0  0
  4 23  1  0  0  0  0
  5  6  1  0  0  0  0
  5 24  1  0  0  0  0
  5 25  1  0  0  0  0
  6  7  1  0  0  0  0
  6 26  1  0  0  0  0
  6 27  1  0  0  0  0
  7 11  1  0  0  0  0
  7  8  1  0  0  0  0
  8  9  2  0  0  0  0
  8 28  1  0  0  0  0
  9 10  1  0  0  0  0
  9 29  1  0  0  0  0
 10 11  2  0  0  0  0
 10 30  1  0  0  0  0
 12 13  1  0  0  0  0
 12 31  1  0  0  0  0
 13 19  1  0  0  0  0
 13 14  1  0  0  0  0
 13 32  1  0  0  0  0
 14 15  1  0  0  0  0
 14 33  1  0  0  0  0
 14 34  1  0  0  0  0
 15 16  1  0  0  0  0
 15 35  1  0  0  0  0
 15 36  1  0  0  0  0
 16 17  1  0  0  0  0
 16 37  1  0  0  0  0
 16 38  1  0  0  0  0
 17 18  1  0  0  0  0
 17 39  1  0  0  0  0
 17 40  1  0  0  0  0
 18 19  1  0  0  0  0
 18 41  1  0  0  0  0
 19 20  2  0  0  0  0
M  END
> <s_m_source_file>
AV-unprocessed.smi

> <i_m_source_file_index>
2640

> <i_lp_mmshare_version>
43012

> <i_f3d_flags>
0

> <s_epik_input>
Tz1DMVtOSF1bQ0gyXVtDSDJdW0NIMl1bQ0gyXVtDQEhdMVtOSF1DKD1PKVtDSDJdW05IXVtDSDJdW0NIMl1uMltjSF1bY0hdW2NIXW4y

> <s_epik_cmdline>
J2VwaWtfcHl0aG9uJywgJy1waCcsICc3LjAnLCAnLXRuJywgJzgnLCAnLW1hJywgJzIwMCcsICctbWV0YWxfYmluZGluZycsICctaW1hZScsICc8aW5maWxlLm1hZT4nLCAnLW9tYWUnLCAnPG91dGZpbGUubWFlPic=

> <r_lp_tautomer_probability>
1

> <r_epik_Ionization_Penalty>
0.641667

> <r_epik_Ionization_Penalty_Charging>
0

> <r_epik_Ionization_Penalty_Neutral>
0.641667

> <r_epik_State_Penalty>
0.657743

> <r_epik_Charging_Adjusted_Penalty>
0.657743

> <i_epik_Tot_Q>
0

> <i_epik_Tot_abs_Q>
0

> <r_epik_Metal_State_Penalty>
0.656014

> <b_epik_Metal_Only>
0

> <s_lp_Force_Field>
OPLS_2005

> <r_lp_Energy>
11.9791

> <b_lp_Chiralities_Consistent>
1

> <s_lp_Variant>
AV-unprocessed.smi:2640-3

> <Gold.Version>
5.8.1

> <Gold.Id.Protein>
6NUR|6NUR_protein|mol2

> <Gold.PLP.Fitness>
46.3048

> <Gold.PLP.PLP>
-36.1806

> <Gold.PLP.part.hbond>
-3.7305

> <Gold.PLP.part.metal>
0.0000

> <Gold.PLP.part.buried>
-5.3622

> <Gold.PLP.part.nonpolar>
-28.6225

> <Gold.PLP.part.repulsive>
0.4905

> <Gold.PLP.ligand.clash>
0.0000

> <Gold.PLP.ligand.torsion>
0.8140

> <Gold.PLP.Chemscore.Hbond>
1.8960

> <Gold.PLP.Chemscore.CHOScore>
2.0000

> <Gold.PLP.Chemscore.Metal>
0.0000

> <Gold.Chemscore.Hbonds>
donor molecule, donor type, donor heavy atom, donor atom, acceptor molecule, acceptor atom, score
      L1  H     4    23       P1 10171  1.00
      L1  H    12    31       P1  7948  1.00
      L1  C     8    28       P1 10186  0.83
      L1  C    10    30       P1 10747  0.77

> <Gold.PLP.Chemscore.Internal.Correction>
0.0643

> <Gold.Rescore>
     Score         DG    S(hbond)    S(metal)    S(lipo)     H(rot)  DE(clash)    DE(int)     intcor
     14.31     -15.21       1.81        0.00      83.57       2.37       0.02       0.88       ----

> <Gold.Chemscore.Fitness>
14.3103

> <Gold.Chemscore.DG>
-15.2119

> <Gold.Chemscore.ZeroCoef>
-5.4800

> <Gold.Chemscore.Hbond>
1.8052

> <Gold.Chemscore.Metal>
0.0000

> <Gold.Chemscore.Lipo>
83.5725

> <Gold.Chemscore.Internal_Hbond>
0.0000

> <Gold.Chemscore.DEClash>
0.0221

> <Gold.Chemscore.DEInternal>
0.8795

> <Gold.Chemscore.Rot>
2.3732

> <Gold.Chemscore.Internal.Correction>
   9.000000E+99

> <Gold.Chemscore.Hbonds>
donor molecule, donor type, donor heavy atom, donor atom, acceptor molecule, acceptor atom, score
      L1  H     4    23       P1 10171  0.91
      L1  H    12    31       P1  7948  0.98

> <Gold.Chemscore.Hbond.Weighted>
-6.0292

> <Gold.Chemscore.Metal.Weighted>
-0.0000

> <Gold.Chemscore.Lipo.Weighted>
-9.7780

> <Gold.Chemscore.Internal_Hbond.Weighted>
0.0000

> <Gold.Chemscore.DEClash.Weighted>
0.0221

> <Gold.Chemscore.DEInternal.Weighted>
0.8795

> <Gold.Chemscore.Rot.Weighted>
6.0753

> <Gold.Chemscore.Internal.Correction.Weighted>
   9.000000E+99

> <Gold.Protein.RotatedTorsions>
[ 6907 6896 6895 6894 ] final -108.27 input  -60.11 | X-H torsion
[ 7974 7965 7964 7962 ] final -113.42 input  175.53 | X-H torsion
[ 8008 7997 7996 7995 ] final -165.06 input   59.86 | X-H torsion
[ 10167 10162 10161 10158 ] final  167.25 input  -65.29 | X-H torsion
[ 10718 10713 10712 10709 ] final -172.70 input   66.30 | X-H torsion
[ 10763 10752 10751 10750 ] final  -99.93 input  -60.55 | X-H torsion
[ 11005 11000 10999 10996 ] final  -13.87 input  -57.11 | X-H torsion

> <Gold.Protein.ActiveResidues>
 VAL166  LYS551  ARG553  GLY616  TRP617  ASP618  TYR619  PRO620  LYS621  CYS622 
 ASP623  PHE694  ASN695  SER759  ASP760  ASP761  ALA762  ILE779  LEU786  VAL792 
 PHE793  MET794  SER795  GLU796  ALA797  LYS798  CYS799  TRP800  GLU811  SER814 

> <Gold.Protein.RotatedAtoms>
  150.7492  133.9703  159.3543 H   0  0  0  0  0  0  0  0  0  0  0  0  # atno 6907 bound_to 6896
  151.7636  135.0802  160.0358 H   0  0  0  0  0  0  0  0  0  0  0  0  # atno 6908 bound_to 6896
  152.3387  133.6004  159.5897 H   0  0  0  0  0  0  0  0  0  0  0  0  # atno 6909 bound_to 6896
  145.1323  140.8731  143.3751 H   0  0  0  0  0  0  0  0  0  0  0  0  # atno 7974 bound_to 7965
  155.8444  140.0953  157.1714 H   0  0  0  0  0  0  0  0  0  0  0  0  # atno 8008 bound_to 7997
  154.3983  140.1395  156.3829 H   0  0  0  0  0  0  0  0  0  0  0  0  # atno 8009 bound_to 7997
  155.8029  140.3452  155.5415 H   0  0  0  0  0  0  0  0  0  0  0  0  # atno 8010 bound_to 7997
  139.4941  144.3941  151.9484 H   0  0  0  0  0  0  0  0  0  0  0  0  # atno 10167 bound_to 10162
  156.7594  130.9408  151.3117 H   0  0  0  0  0  0  0  0  0  0  0  0  # atno 10718 bound_to 10713
  154.7538  135.4954  153.9337 H   0  0  0  0  0  0  0  0  0  0  0  0  # atno 10763 bound_to 10752
  153.1173  135.6723  153.9404 H   0  0  0  0  0  0  0  0  0  0  0  0  # atno 10764 bound_to 10752
  153.9146  135.3095  155.3427 H   0  0  0  0  0  0  0  0  0  0  0  0  # atno 10765 bound_to 10752
  140.7805  133.8366  155.9288 H   0  0  0  0  0  0  0  0  0  0  0  0  # atno 11005 bound_to 11000
  145.0622  139.3096  143.5874 LP  0  0  0  0  0  0  0  0  0  0  0  0  # atno 17320 bound_to 7965
  146.3513  140.0068  142.8671 LP  0  0  0  0  0  0  0  0  0  0  0  0  # atno 17321 bound_to 7965
  140.3379  144.3238  150.5973 LP  0  0  0  0  0  0  0  0  0  0  0  0  # atno 17342 bound_to 10162
  140.5590  143.2195  151.7797 LP  0  0  0  0  0  0  0  0  0  0  0  0  # atno 17343 bound_to 10162
  157.6741  130.9078  150.0109 LP  0  0  0  0  0  0  0  0  0  0  0  0  # atno 17370 bound_to 10713
  156.1349  130.3643  149.9673 LP  0  0  0  0  0  0  0  0  0  0  0  0  # atno 17371 bound_to 10713
  140.9487  134.1807  157.4744 LP  0  0  0  0  0  0  0  0  0  0  0  0  # atno 17394 bound_to 11000
  139.8743  134.9900  156.5485 LP  0  0  0  0  0  0  0  0  0  0  0  0  # atno 17395 bound_to 11000

$$$$
