AV-unprocessed.smi:822|AV-procd|sdf|3843|dock4
  -GOLD-   22720 1293D 1   1.00000     0.00000
 Structure written by MMmdl.
 38 39  0  0  0  0  0  0  0  0  1 V2000
  154.2212  139.4025  158.7943 O   0  0  0  0  0  0  0  0  0  0  0  0
  153.2530  140.1330  159.0054 C   0  0  0  0  0  0  0  0  0  0  0  0
  153.3213  141.2093  160.0944 C   0  0  0  0  0  0  0  0  0  0  0  0
  152.3562  142.3940  159.8629 C   0  0  0  0  0  0  0  0  0  0  0  0
  152.7288  143.1536  158.5727 C   0  0  0  0  0  0  0  0  0  0  0  0
  151.7821  144.3359  158.3106 C   0  0  0  0  0  0  0  0  0  0  0  0
  151.7500  145.2976  159.5076 C   0  0  0  0  0  0  0  0  0  0  0  0
  151.3716  144.5569  160.7986 C   0  0  0  0  0  0  0  0  0  0  0  0
  152.3154  143.3721  161.0604 C   0  0  0  0  0  0  0  0  0  0  0  0
  152.1002  140.0434  158.3247 N   0  0  0  0  0  0  0  0  0  0  0  0
  151.8326  139.0907  157.2543 C   0  0  0  0  0  0  0  0  0  0  0  0
  151.7387  139.7899  155.8888 C   0  0  0  0  0  0  0  0  0  0  0  0
  150.4301  140.3758  155.6819 N   0  0  0  0  0  0  0  0  0  0  0  0
  149.7579  141.2453  156.5307 C   0  0  0  0  0  0  0  0  0  0  0  0
  148.5582  141.5386  155.9225 C   0  0  0  0  0  0  0  0  0  0  0  0
  148.4724  140.8660  154.7058 N   0  0  0  0  0  0  0  0  0  0  0  0
  149.6169  140.1985  154.6316 C   0  0  0  0  0  0  0  0  0  0  0  0
  153.1293  140.7627  161.0712 H   0  0  0  0  0  0  0  0  0  0  0  0
  154.3486  141.5745  160.1237 H   0  0  0  0  0  0  0  0  0  0  0  0
  151.3508  141.9928  159.7233 H   0  0  0  0  0  0  0  0  0  0  0  0
  153.7539  143.5198  158.6442 H   0  0  0  0  0  0  0  0  0  0  0  0
  152.7045  142.4747  157.7195 H   0  0  0  0  0  0  0  0  0  0  0  0
  152.0958  144.8704  157.4135 H   0  0  0  0  0  0  0  0  0  0  0  0
  150.7762  143.9632  158.1129 H   0  0  0  0  0  0  0  0  0  0  0  0
  152.7279  145.7658  159.6273 H   0  0  0  0  0  0  0  0  0  0  0  0
  151.0411  146.1043  159.3189 H   0  0  0  0  0  0  0  0  0  0  0  0
  151.3979  145.2461  161.6433 H   0  0  0  0  0  0  0  0  0  0  0  0
  150.3447  144.1964  160.7262 H   0  0  0  0  0  0  0  0  0  0  0  0
  151.9919  142.8576  161.9655 H   0  0  0  0  0  0  0  0  0  0  0  0
  153.3196  143.7473  161.2623 H   0  0  0  0  0  0  0  0  0  0  0  0
  151.3568  140.6842  158.5624 H   0  0  0  0  0  0  0  0  0  0  0  0
  152.6418  138.3598  157.2431 H   0  0  0  0  0  0  0  0  0  0  0  0
  150.9168  138.5354  157.4656 H   0  0  0  0  0  0  0  0  0  0  0  0
  152.4884  140.5781  155.8051 H   0  0  0  0  0  0  0  0  0  0  0  0
  151.9314  139.0810  155.0825 H   0  0  0  0  0  0  0  0  0  0  0  0
  150.1772  141.5746  157.4700 H   0  0  0  0  0  0  0  0  0  0  0  0
  147.7569  142.1774  156.2639 H   0  0  0  0  0  0  0  0  0  0  0  0
  149.8700  139.5672  153.7922 H   0  0  0  0  0  0  0  0  0  0  0  0
  1  2  2  0  0  0  0
  2  3  1  0  0  0  0
  2 10  1  0  0  0  0
  3  4  1  0  0  0  0
  3 18  1  0  0  0  0
  3 19  1  0  0  0  0
  4  9  1  0  0  0  0
  4  5  1  0  0  0  0
  4 20  1  0  0  0  0
  5  6  1  0  0  0  0
  5 21  1  0  0  0  0
  5 22  1  0  0  0  0
  6  7  1  0  0  0  0
  6 23  1  0  0  0  0
  6 24  1  0  0  0  0
  7  8  1  0  0  0  0
  7 25  1  0  0  0  0
  7 26  1  0  0  0  0
  8  9  1  0  0  0  0
  8 27  1  0  0  0  0
  8 28  1  0  0  0  0
  9 29  1  0  0  0  0
  9 30  1  0  0  0  0
 10 11  1  0  0  0  0
 10 31  1  0  0  0  0
 11 12  1  0  0  0  0
 11 32  1  0  0  0  0
 11 33  1  0  0  0  0
 12 13  1  0  0  0  0
 12 34  1  0  0  0  0
 12 35  1  0  0  0  0
 13 17  1  0  0  0  0
 13 14  1  0  0  0  0
 14 15  2  0  0  0  0
 14 36  1  0  0  0  0
 15 16  1  0  0  0  0
 15 37  1  0  0  0  0
 16 17  2  0  0  0  0
 17 38  1  0  0  0  0
M  END
> <s_m_source_file>
AV-unprocessed.smi

> <i_m_source_file_index>
822

> <i_lp_mmshare_version>
43012

> <i_f3d_flags>
0

> <s_epik_input>
W0NIMl0xW0NIMl1bQ0gyXVtDSDJdW0NIMl1bQ0hdMVtDSDJdQyg9TylbTkhdW0NIMl1bQ0gyXW4yW2NIXVtjSF1uW2NIXTI=

> <s_epik_cmdline>
J2VwaWtfcHl0aG9uJywgJy1waCcsICc3LjAnLCAnLXRuJywgJzgnLCAnLW1hJywgJzIwMCcsICctbWV0YWxfYmluZGluZycsICctaW1hZScsICc8aW5maWxlLm1hZT4nLCAnLW9tYWUnLCAnPG91dGZpbGUubWFlPic=

> <r_lp_tautomer_probability>
1

> <r_epik_Ionization_Penalty>
0.600603

> <r_epik_Ionization_Penalty_Charging>
0.600603

> <r_epik_Ionization_Penalty_Neutral>
2.18922e-08

> <r_epik_State_Penalty>
0.614954

> <r_epik_Charging_Adjusted_Penalty>
1.21556

> <i_epik_Tot_Q>
0

> <i_epik_Tot_abs_Q>
0

> <r_epik_Metal_State_Penalty>
0.301281

> <b_epik_Metal_Only>
0

> <s_lp_Force_Field>
OPLS_2005

> <r_lp_Energy>
10.0857

> <b_lp_Chiralities_Consistent>
1

> <s_lp_Variant>
AV-unprocessed.smi:822-2

> <Gold.Version>
5.8.1

> <Gold.Id.Protein>
6NUR|6NUR_protein|mol2

> <Gold.PLP.Fitness>
46.7089

> <Gold.PLP.PLP>
-40.3182

> <Gold.PLP.part.hbond>
-1.0000

> <Gold.PLP.part.metal>
0.0000

> <Gold.PLP.part.buried>
-0.2862

> <Gold.PLP.part.nonpolar>
-38.6551

> <Gold.PLP.part.repulsive>
0.2305

> <Gold.PLP.ligand.clash>
0.0000

> <Gold.PLP.ligand.torsion>
0.5750

> <Gold.PLP.Chemscore.Hbond>
1.0000

> <Gold.PLP.Chemscore.CHOScore>
1.4978

> <Gold.PLP.Chemscore.Metal>
0.0000

> <Gold.Chemscore.Hbonds>
donor molecule, donor type, donor heavy atom, donor atom, acceptor molecule, acceptor atom, score
      P1  H  7997  8010       L1     1  1.00
      L1  C    15    37       P1  8028  0.10
      L1  C    17    38       P1  7957  0.62

> <Gold.PLP.Chemscore.Internal.Correction>
0.0471

> <Gold.Rescore>
     Score         DG    S(hbond)    S(metal)    S(lipo)     H(rot)  DE(clash)    DE(int)     intcor
     14.88     -15.52       0.94        0.00     102.10       1.97       0.11       0.54       ----

> <Gold.Chemscore.Fitness>
14.8790

> <Gold.Chemscore.DG>
-15.5226

> <Gold.Chemscore.ZeroCoef>
-5.4800

> <Gold.Chemscore.Hbond>
0.9396

> <Gold.Chemscore.Metal>
0.0000

> <Gold.Chemscore.Lipo>
102.0969

> <Gold.Chemscore.Internal_Hbond>
0.0000

> <Gold.Chemscore.DEClash>
0.1056

> <Gold.Chemscore.DEInternal>
0.5379

> <Gold.Chemscore.Rot>
1.9692

> <Gold.Chemscore.Internal.Correction>
   9.000000E+99

> <Gold.Chemscore.Hbonds>
donor molecule, donor type, donor heavy atom, donor atom, acceptor molecule, acceptor atom, score
      P1  H  7997  8010       L1     1  0.40

> <Gold.Chemscore.Hbond.Weighted>
-3.1383

> <Gold.Chemscore.Metal.Weighted>
-0.0000

> <Gold.Chemscore.Lipo.Weighted>
-11.9453

> <Gold.Chemscore.Internal_Hbond.Weighted>
0.0000

> <Gold.Chemscore.DEClash.Weighted>
0.1056

> <Gold.Chemscore.DEInternal.Weighted>
0.5379

> <Gold.Chemscore.Rot.Weighted>
5.0410

> <Gold.Chemscore.Internal.Correction.Weighted>
   9.000000E+99

> <Gold.Protein.RotatedTorsions>
[ 6907 6896 6895 6894 ] final -154.55 input  -60.11 | X-H torsion
[ 7974 7965 7964 7962 ] final  -31.56 input  175.53 | X-H torsion
[ 8008 7997 7996 7995 ] final   16.56 input   59.86 | X-H torsion
[ 10167 10162 10161 10158 ] final -109.21 input  -65.29 | X-H torsion
[ 10718 10713 10712 10709 ] final -167.72 input   66.30 | X-H torsion
[ 10763 10752 10751 10750 ] final  -24.36 input  -60.55 | X-H torsion
[ 11005 11000 10999 10996 ] final   12.32 input  -57.11 | X-H torsion

> <Gold.Protein.ActiveResidues>
 VAL166  LYS551  ARG553  GLY616  TRP617  ASP618  TYR619  PRO620  LYS621  CYS622 
 ASP623  PHE694  ASN695  SER759  ASP760  ASP761  ALA762  ILE779  LEU786  VAL792 
 PHE793  MET794  SER795  GLU796  ALA797  LYS798  CYS799  TRP800  GLU811  SER814 

> <Gold.Protein.RotatedAtoms>
  151.2592  133.4311  159.2614 H   0  0  0  0  0  0  0  0  0  0  0  0  # atno 6907 bound_to 6896
  151.0546  134.9696  159.8239 H   0  0  0  0  0  0  0  0  0  0  0  0  # atno 6908 bound_to 6896
  152.5388  134.2545  159.8964 H   0  0  0  0  0  0  0  0  0  0  0  0  # atno 6909 bound_to 6896
  146.1058  140.5682  142.8800 H   0  0  0  0  0  0  0  0  0  0  0  0  # atno 7974 bound_to 7965
  154.8787  140.2969  155.5438 H   0  0  0  0  0  0  0  0  0  0  0  0  # atno 8008 bound_to 7997
  156.3022  140.2446  156.3720 H   0  0  0  0  0  0  0  0  0  0  0  0  # atno 8009 bound_to 7997
  154.8740  140.0400  157.1731 H   0  0  0  0  0  0  0  0  0  0  0  0  # atno 8010 bound_to 7997
  140.1578  143.4146  152.1448 H   0  0  0  0  0  0  0  0  0  0  0  0  # atno 10167 bound_to 10162
  156.6865  130.9142  151.3063 H   0  0  0  0  0  0  0  0  0  0  0  0  # atno 10718 bound_to 10713
  153.6825  135.6966  153.5114 H   0  0  0  0  0  0  0  0  0  0  0  0  # atno 10763 bound_to 10752
  153.2474  135.4286  155.0761 H   0  0  0  0  0  0  0  0  0  0  0  0  # atno 10764 bound_to 10752
  154.8396  135.3523  154.6368 H   0  0  0  0  0  0  0  0  0  0  0  0  # atno 10765 bound_to 10752
  140.4933  134.0818  155.7776 H   0  0  0  0  0  0  0  0  0  0  0  0  # atno 11005 bound_to 11000
  144.7470  140.5092  143.6829 LP  0  0  0  0  0  0  0  0  0  0  0  0  # atno 17320 bound_to 7965
  145.5764  139.1486  143.3260 LP  0  0  0  0  0  0  0  0  0  0  0  0  # atno 17321 bound_to 7965
  139.5395  144.7243  151.4780 LP  0  0  0  0  0  0  0  0  0  0  0  0  # atno 17342 bound_to 10162
  140.6662  143.8392  150.6945 LP  0  0  0  0  0  0  0  0  0  0  0  0  # atno 17343 bound_to 10162
  157.7025  130.9348  150.0828 LP  0  0  0  0  0  0  0  0  0  0  0  0  # atno 17370 bound_to 10713
  156.1829  130.3651  149.9011 LP  0  0  0  0  0  0  0  0  0  0  0  0  # atno 17371 bound_to 10713
  141.1473  133.9032  157.2185 LP  0  0  0  0  0  0  0  0  0  0  0  0  # atno 17394 bound_to 11000
  139.9756  135.0115  156.9623 LP  0  0  0  0  0  0  0  0  0  0  0  0  # atno 17395 bound_to 11000

$$$$
