AV-unprocessed.smi:1740|AV-procd|sdf|7013|dock3
  -GOLD-   22720 8223D 1   1.00000     0.00000
 Structure written by MMmdl.
 51 53  0  0  0  0  0  0  0  0  3 V2000
  142.6675  138.7595  154.6097 N   0  5  0  0  0  0  0  0  0  0  0  0
  143.9747  138.6742  154.9277 C   0  0  0  0  0  0  0  0  0  0  0  0
  144.7344  137.7245  154.7528 O   0  0  0  0  0  0  0  0  0  0  0  0
  144.5010  139.9559  155.5831 C   0  0  0  0  0  0  0  0  0  0  0  0
  145.5447  140.5943  154.7403 N   0  3  2  0  0  0  0  0  0  0  0  0
  146.7890  139.7864  154.6781 C   0  0  0  0  0  0  0  0  0  0  0  0
  147.8039  140.3961  153.6941 C   0  0  0  0  0  0  0  0  0  0  0  0
  148.1254  141.8637  154.0353 C   0  0  2  0  0  0  0  0  0  0  0  0
  148.8924  141.9698  155.2756 N   0  0  0  0  0  0  0  0  0  0  0  0
  149.8678  141.1359  155.6627 C   0  0  0  0  0  0  0  0  0  0  0  0
  150.2531  140.1815  154.9883 O   0  0  0  0  0  0  0  0  0  0  0  0
  150.3545  141.4939  156.8625 N   0  0  0  0  0  0  0  0  0  0  0  0
  151.4074  140.9037  157.6201 C   0  0  0  0  0  0  0  0  0  0  0  0
  151.8762  139.5900  157.3691 C   0  0  0  0  0  0  0  0  0  0  0  0
  152.8738  139.0438  158.1950 C   0  0  0  0  0  0  0  0  0  0  0  0
  153.3592  139.8236  159.2571 C   0  0  0  0  0  0  0  0  0  0  0  0
  152.9157  141.0691  159.5179 N   0  0  0  0  0  0  0  0  0  0  0  0
  151.9650  141.6156  158.7209 C   0  0  0  0  0  0  0  0  0  0  0  0
  151.5487  142.9306  159.0311 N   0  0  0  0  0  0  0  0  0  0  0  0
  151.7513  143.9618  158.0174 C   0  0  0  0  0  0  0  0  0  0  0  0
  152.1263  145.2429  158.7702 C   0  0  0  0  0  0  0  0  0  0  0  0
  151.6032  144.9991  160.1823 C   0  0  0  0  0  0  0  0  0  0  0  0
  151.8092  143.4967  160.3504 C   0  0  0  0  0  0  0  0  0  0  0  0
  146.8159  142.6632  154.1438 C   0  0  0  0  0  0  0  0  0  0  0  0
  145.8192  142.0073  155.1171 C   0  0  0  0  0  0  0  0  0  0  0  0
  142.0558  137.9631  154.8267 H   0  0  0  0  0  0  0  0  0  0  0  0
  143.6846  140.6550  155.7715 H   0  0  0  0  0  0  0  0  0  0  0  0
  144.9112  139.6877  156.5584 H   0  0  0  0  0  0  0  0  0  0  0  0
  147.2245  139.7092  155.6756 H   0  0  0  0  0  0  0  0  0  0  0  0
  146.5506  138.7713  154.3586 H   0  0  0  0  0  0  0  0  0  0  0  0
  148.7154  139.7973  153.6775 H   0  0  0  0  0  0  0  0  0  0  0  0
  147.3932  140.3462  152.6848 H   0  0  0  0  0  0  0  0  0  0  0  0
  148.7197  142.2939  153.2270 H   0  0  0  0  0  0  0  0  0  0  0  0
  148.6548  142.7331  155.8920 H   0  0  0  0  0  0  0  0  0  0  0  0
  149.9789  142.3458  157.2527 H   0  0  0  0  0  0  0  0  0  0  0  0
  151.4762  138.9792  156.5754 H   0  0  0  0  0  0  0  0  0  0  0  0
  153.2480  138.0452  158.0251 H   0  0  0  0  0  0  0  0  0  0  0  0
  154.1191  139.4357  159.9192 H   0  0  0  0  0  0  0  0  0  0  0  0
  152.5210  143.6837  157.2960 H   0  0  0  0  0  0  0  0  0  0  0  0
  150.8174  144.1105  157.4750 H   0  0  0  0  0  0  0  0  0  0  0  0
  153.2117  145.3480  158.7962 H   0  0  0  0  0  0  0  0  0  0  0  0
  151.7132  146.1412  158.3112 H   0  0  0  0  0  0  0  0  0  0  0  0
  152.1228  145.5867  160.9396 H   0  0  0  0  0  0  0  0  0  0  0  0
  150.5401  145.2392  160.2334 H   0  0  0  0  0  0  0  0  0  0  0  0
  151.1394  143.0775  161.1018 H   0  0  0  0  0  0  0  0  0  0  0  0
  152.8369  143.3055  160.6617 H   0  0  0  0  0  0  0  0  0  0  0  0
  147.0228  143.6884  154.4530 H   0  0  0  0  0  0  0  0  0  0  0  0
  146.3553  142.7321  153.1572 H   0  0  0  0  0  0  0  0  0  0  0  0
  144.8934  142.5834  155.1143 H   0  0  0  0  0  0  0  0  0  0  0  0
  146.2057  142.0440  156.1367 H   0  0  0  0  0  0  0  0  0  0  0  0
  145.1621  140.6052  153.8047 H   0  0  0  0  0  0  0  0  0  0  0  0
  1  2  1  0  0  0  0
  1 26  1  0  0  0  0
  2  3  2  0  0  0  0
  2  4  1  0  0  0  0
  4  5  1  0  0  0  0
  4 27  1  0  0  0  0
  4 28  1  0  0  0  0
  5 25  1  0  0  0  0
  5  6  1  0  0  0  0
  5 51  1  0  0  0  0
  6  7  1  0  0  0  0
  6 29  1  0  0  0  0
  6 30  1  0  0  0  0
  7  8  1  0  0  0  0
  7 31  1  0  0  0  0
  7 32  1  0  0  0  0
  8  9  1  0  0  0  0
  8 24  1  0  0  0  0
  8 33  1  0  0  0  0
  9 10  1  0  0  0  0
  9 34  1  0  0  0  0
 10 11  2  0  0  0  0
 10 12  1  0  0  0  0
 12 13  1  0  0  0  0
 12 35  1  0  0  0  0
 13 18  1  0  0  0  0
 13 14  2  0  0  0  0
 14 15  1  0  0  0  0
 14 36  1  0  0  0  0
 15 16  2  0  0  0  0
 15 37  1  0  0  0  0
 16 17  1  0  0  0  0
 16 38  1  0  0  0  0
 17 18  2  0  0  0  0
 18 19  1  0  0  0  0
 19 23  1  0  0  0  0
 19 20  1  0  0  0  0
 20 21  1  0  0  0  0
 20 39  1  0  0  0  0
 20 40  1  0  0  0  0
 21 22  1  0  0  0  0
 21 41  1  0  0  0  0
 21 42  1  0  0  0  0
 22 23  1  0  0  0  0
 22 43  1  0  0  0  0
 22 44  1  0  0  0  0
 23 45  1  0  0  0  0
 23 46  1  0  0  0  0
 24 25  1  0  0  0  0
 24 47  1  0  0  0  0
 24 48  1  0  0  0  0
 25 49  1  0  0  0  0
 25 50  1  0  0  0  0
M  CHG  1   1  -1
M  CHG  1   5   1
M  END
> <s_m_source_file>
AV-unprocessed.smi

> <i_m_source_file_index>
1740

> <i_lp_mmshare_version>
43012

> <i_f3d_flags>
0

> <s_epik_input>
W05IMl1DKD1PKVtDSDJdTjFbQ0gyXVtDSDJdW0NIXShbQ0gyXVtDSDJdMSlbTkhdQyg9TylbTkhdYzJbY0hdW2NIXVtjSF1uYzJOM1tDSDJdW0NIMl1bQ0gyXVtDSDJdMw==

> <s_epik_cmdline>
J2VwaWtfcHl0aG9uJywgJy1waCcsICc3LjAnLCAnLXRuJywgJzgnLCAnLW1hJywgJzIwMCcsICctbWV0YWxfYmluZGluZycsICctaW1hZScsICc8aW5maWxlLm1hZT4nLCAnLW9tYWUnLCAnPG91dGZpbGUubWFlPic=

> <r_lp_tautomer_probability>
1

> <r_epik_Ionization_Penalty>
5.80652

> <r_epik_Ionization_Penalty_Charging>
5.7288

> <r_epik_Ionization_Penalty_Neutral>
0.0777157

> <r_epik_State_Penalty>
6.60246

> <r_epik_Charging_Adjusted_Penalty>
12.3313

> <i_epik_Tot_Q>
0

> <i_epik_Tot_abs_Q>
2

> <r_epik_Metal_State_Penalty>
2.64988

> <b_epik_Metal_Only>
1

> <s_lp_Force_Field>
OPLS_2005

> <r_lp_Energy>
35.9305

> <b_lp_Chiralities_Consistent>
1

> <s_lp_Variant>
AV-unprocessed.smi:1740-8

> <Gold.Version>
5.8.1

> <Gold.Id.Protein>
6NUR|6NUR_protein|mol2

> <Gold.PLP.Fitness>
52.1860

> <Gold.PLP.PLP>
-42.3552

> <Gold.PLP.part.hbond>
-4.0000

> <Gold.PLP.part.metal>
0.0000

> <Gold.PLP.part.buried>
-2.2395

> <Gold.PLP.part.nonpolar>
-34.8198

> <Gold.PLP.part.repulsive>
0.3583

> <Gold.PLP.ligand.clash>
0.0000

> <Gold.PLP.ligand.torsion>
0.6895

> <Gold.PLP.Chemscore.Hbond>
3.6148

> <Gold.PLP.Chemscore.CHOScore>
0.0000

> <Gold.PLP.Chemscore.Metal>
0.0000

> <Gold.Chemscore.Hbonds>
donor molecule, donor type, donor heavy atom, donor atom, acceptor molecule, acceptor atom, score
      L1  H     5    51       P1 10175  2.00
      L1  H     9    34       P1  8028  0.61
      P1  H  7989  7998       L1    11  0.71

> <Gold.PLP.Chemscore.Internal.Correction>
0.3655

> <Gold.Rescore>
     Score         DG    S(hbond)    S(metal)    S(lipo)     H(rot)  DE(clash)    DE(int)     intcor
     14.11     -18.88       2.13        0.00     100.89       2.16       0.08       4.69       ----

> <Gold.Chemscore.Fitness>
14.1068

> <Gold.Chemscore.DG>
-18.8789

> <Gold.Chemscore.ZeroCoef>
-5.4800

> <Gold.Chemscore.Hbond>
2.1301

> <Gold.Chemscore.Metal>
0.0000

> <Gold.Chemscore.Lipo>
100.8900

> <Gold.Chemscore.Internal_Hbond>
0.0000

> <Gold.Chemscore.DEClash>
0.0845

> <Gold.Chemscore.DEInternal>
4.6877

> <Gold.Chemscore.Rot>
2.1562

> <Gold.Chemscore.Internal.Correction>
   9.000000E+99

> <Gold.Chemscore.Hbonds>
donor molecule, donor type, donor heavy atom, donor atom, acceptor molecule, acceptor atom, score
      L1  H     5    51       P1 10175  0.94
      L1  H     9    34       P1  8028  0.59
      P1  H  7989  7998       L1    11  0.50

> <Gold.Chemscore.Hbond.Weighted>
-7.1146

> <Gold.Chemscore.Metal.Weighted>
-0.0000

> <Gold.Chemscore.Lipo.Weighted>
-11.8041

> <Gold.Chemscore.Internal_Hbond.Weighted>
0.0000

> <Gold.Chemscore.DEClash.Weighted>
0.0845

> <Gold.Chemscore.DEInternal.Weighted>
4.6877

> <Gold.Chemscore.Rot.Weighted>
5.5198

> <Gold.Chemscore.Internal.Correction.Weighted>
   9.000000E+99

> <Gold.Protein.RotatedTorsions>
[ 6907 6896 6895 6894 ] final   67.51 input  -60.11 | X-H torsion
[ 7974 7965 7964 7962 ] final  -84.88 input  175.53 | X-H torsion
[ 8008 7997 7996 7995 ] final  -53.47 input   59.86 | X-H torsion
[ 10167 10162 10161 10158 ] final   -4.44 input  -65.29 | X-H torsion
[ 10718 10713 10712 10709 ] final   21.06 input   66.30 | X-H torsion
[ 10763 10752 10751 10750 ] final  -50.62 input  -60.55 | X-H torsion
[ 11005 11000 10999 10996 ] final -177.06 input  -57.11 | X-H torsion

> <Gold.Protein.ActiveResidues>
 VAL166  LYS551  ARG553  GLY616  TRP617  ASP618  TYR619  PRO620  LYS621  CYS622 
 ASP623  PHE694  ASN695  SER759  ASP760  ASP761  ALA762  ILE779  LEU786  VAL792 
 PHE793  MET794  SER795  GLU796  ALA797  LYS798  CYS799  TRP800  GLU811  SER814 

> <Gold.Protein.RotatedAtoms>
  152.4557  134.5297  159.9806 H   0  0  0  0  0  0  0  0  0  0  0  0  # atno 6907 bound_to 6896
  151.5358  133.3435  159.2934 H   0  0  0  0  0  0  0  0  0  0  0  0  # atno 6908 bound_to 6896
  150.8500  134.7853  159.7064 H   0  0  0  0  0  0  0  0  0  0  0  0  # atno 6909 bound_to 6896
  145.5007  140.9547  143.1761 H   0  0  0  0  0  0  0  0  0  0  0  0  # atno 7974 bound_to 7965
  154.4134  140.1199  156.5159 H   0  0  0  0  0  0  0  0  0  0  0  0  # atno 8008 bound_to 7997
  155.6752  140.3496  155.4814 H   0  0  0  0  0  0  0  0  0  0  0  0  # atno 8009 bound_to 7997
  155.9599  140.1121  157.0895 H   0  0  0  0  0  0  0  0  0  0  0  0  # atno 8010 bound_to 7997
  140.6927  143.6424  150.8424 H   0  0  0  0  0  0  0  0  0  0  0  0  # atno 10167 bound_to 10162
  157.1332  130.6600  149.5958 H   0  0  0  0  0  0  0  0  0  0  0  0  # atno 10718 bound_to 10713
  154.1134  135.6546  153.4889 H   0  0  0  0  0  0  0  0  0  0  0  0  # atno 10763 bound_to 10752
  153.0249  135.5253  154.7169 H   0  0  0  0  0  0  0  0  0  0  0  0  # atno 10764 bound_to 10752
  154.6356  135.2981  155.0135 H   0  0  0  0  0  0  0  0  0  0  0  0  # atno 10765 bound_to 10752
  140.4452  134.6395  157.4776 H   0  0  0  0  0  0  0  0  0  0  0  0  # atno 11005 bound_to 11000
  144.7782  139.6584  143.7166 LP  0  0  0  0  0  0  0  0  0  0  0  0  # atno 17320 bound_to 7965
  146.2228  139.5667  142.9607 LP  0  0  0  0  0  0  0  0  0  0  0  0  # atno 17321 bound_to 7965
  140.0138  143.5614  152.2828 LP  0  0  0  0  0  0  0  0  0  0  0  0  # atno 17342 bound_to 10162
  139.6348  144.7648  151.2461 LP  0  0  0  0  0  0  0  0  0  0  0  0  # atno 17343 bound_to 10162
  155.9803  130.4803  150.6767 LP  0  0  0  0  0  0  0  0  0  0  0  0  # atno 17370 bound_to 10713
  157.4373  131.0857  151.0979 LP  0  0  0  0  0  0  0  0  0  0  0  0  # atno 17371 bound_to 10713
  140.0043  134.6787  155.9480 LP  0  0  0  0  0  0  0  0  0  0  0  0  # atno 17394 bound_to 11000
  141.1688  133.6537  156.4577 LP  0  0  0  0  0  0  0  0  0  0  0  0  # atno 17395 bound_to 11000

$$$$
