AV-unprocessed.smi:3035|AV-procd|sdf|11581|dock8
  -GOLD-   2272016553D 1   1.00000     0.00000
 Structure written by MMmdl.
 38 39  0  0  0  0  0  0  0  0  1 V2000
  150.4382  140.1416  155.4666 C   0  0  0  0  0  0  0  0  0  0  0  0
  151.7749  140.1193  154.9971 O   0  0  0  0  0  0  0  0  0  0  0  0
  152.4120  138.8739  155.2277 C   0  0  0  0  0  0  0  0  0  0  0  0
  152.3601  138.5308  156.6861 C   0  0  0  0  0  0  0  0  0  0  0  0
  153.1626  138.9092  157.6073 N   0  0  0  0  0  0  0  0  0  0  0  0
  152.6755  138.3279  158.7044 N   0  0  0  0  0  0  0  0  0  0  0  0
  153.3006  138.5205  160.0080 C   0  0  0  0  0  0  0  0  0  0  0  0
  153.9074  139.9261  160.1318 C   0  0  0  0  0  0  0  0  0  0  0  0
  152.9825  140.9307  159.6266 N   0  0  0  0  0  0  0  0  0  0  0  0
  152.8456  142.1603  160.1436 C   0  0  0  0  0  0  0  0  0  0  0  0
  153.4984  142.5591  161.1088 O   0  0  0  0  0  0  0  0  0  0  0  0
  151.8115  143.0765  159.4678 C   0  0  0  0  0  0  0  0  0  0  0  0
  152.4692  144.0544  158.4660 C   0  0  0  0  0  0  0  0  0  0  0  0
  152.1792  145.4751  158.9681 C   0  0  0  0  0  0  0  0  0  0  0  0
  151.8121  145.3173  160.4409 C   0  0  0  0  0  0  0  0  0  0  0  0
  151.0905  143.9718  160.4939 C   0  0  0  0  0  0  0  0  0  0  0  0
  151.5445  137.5786  158.4407 C   0  0  0  0  0  0  0  0  0  0  0  0
  150.8489  136.9251  159.2164 O   0  0  0  0  0  0  0  0  0  0  0  0
  151.3470  137.7153  157.1225 O   0  0  0  0  0  0  0  0  0  0  0  0
  149.9947  141.1164  155.2638 H   0  0  0  0  0  0  0  0  0  0  0  0
  150.3953  139.9694  156.5430 H   0  0  0  0  0  0  0  0  0  0  0  0
  149.8319  139.3852  154.9666 H   0  0  0  0  0  0  0  0  0  0  0  0
  151.9231  138.0924  154.6435 H   0  0  0  0  0  0  0  0  0  0  0  0
  153.4519  138.9201  154.9005 H   0  0  0  0  0  0  0  0  0  0  0  0
  152.5568  138.3599  160.7901 H   0  0  0  0  0  0  0  0  0  0  0  0
  154.0729  137.7638  160.1560 H   0  0  0  0  0  0  0  0  0  0  0  0
  154.1406  140.1417  161.1758 H   0  0  0  0  0  0  0  0  0  0  0  0
  154.8428  139.9852  159.5727 H   0  0  0  0  0  0  0  0  0  0  0  0
  152.4110  140.6767  158.8339 H   0  0  0  0  0  0  0  0  0  0  0  0
  151.0751  142.4573  158.9525 H   0  0  0  0  0  0  0  0  0  0  0  0
  153.5475  143.9020  158.3965 H   0  0  0  0  0  0  0  0  0  0  0  0
  152.0720  143.9146  157.4602 H   0  0  0  0  0  0  0  0  0  0  0  0
  153.0215  146.1514  158.8189 H   0  0  0  0  0  0  0  0  0  0  0  0
  151.3271  145.8859  158.4249 H   0  0  0  0  0  0  0  0  0  0  0  0
  152.7185  145.2785  161.0465 H   0  0  0  0  0  0  0  0  0  0  0  0
  151.1979  146.1386  160.8113 H   0  0  0  0  0  0  0  0  0  0  0  0
  150.0504  144.1031  160.1922 H   0  0  0  0  0  0  0  0  0  0  0  0
  151.0794  143.5570  161.5031 H   0  0  0  0  0  0  0  0  0  0  0  0
  1  2  1  0  0  0  0
  1 20  1  0  0  0  0
  1 21  1  0  0  0  0
  1 22  1  0  0  0  0
  2  3  1  0  0  0  0
  3  4  1  0  0  0  0
  3 23  1  0  0  0  0
  3 24  1  0  0  0  0
  4 19  1  0  0  0  0
  4  5  2  0  0  0  0
  5  6  1  0  0  0  0
  6  7  1  0  0  0  0
  6 17  1  0  0  0  0
  7  8  1  0  0  0  0
  7 25  1  0  0  0  0
  7 26  1  0  0  0  0
  8  9  1  0  0  0  0
  8 27  1  0  0  0  0
  8 28  1  0  0  0  0
  9 10  1  0  0  0  0
  9 29  1  0  0  0  0
 10 11  2  0  0  0  0
 10 12  1  0  0  0  0
 12 16  1  0  0  0  0
 12 13  1  0  0  0  0
 12 30  1  0  0  0  0
 13 14  1  0  0  0  0
 13 31  1  0  0  0  0
 13 32  1  0  0  0  0
 14 15  1  0  0  0  0
 14 33  1  0  0  0  0
 14 34  1  0  0  0  0
 15 16  1  0  0  0  0
 15 35  1  0  0  0  0
 15 36  1  0  0  0  0
 16 37  1  0  0  0  0
 16 38  1  0  0  0  0
 17 18  2  0  0  0  0
 17 19  1  0  0  0  0
M  END
> <s_m_source_file>
AV-unprocessed.smi

> <i_m_source_file_index>
3035

> <i_lp_mmshare_version>
43012

> <i_f3d_flags>
0

> <s_epik_input>
W0NIM11PW0NIMl1jMW5uKGMoPU8pbzEpW0NIMl1bQ0gyXVtOSF1DKD1PKVtDSF0yW0NIMl1bQ0gyXVtDSDJdW0NIMl0y

> <s_epik_cmdline>
J2VwaWtfcHl0aG9uJywgJy1waCcsICc3LjAnLCAnLXRuJywgJzgnLCAnLW1hJywgJzIwMCcsICctbWV0YWxfYmluZGluZycsICctaW1hZScsICc8aW5maWxlLm1hZT4nLCAnLW9tYWUnLCAnPG91dGZpbGUubWFlPic=

> <r_lp_tautomer_probability>
1

> <r_epik_Ionization_Penalty>
6.81406e-08

> <r_epik_Ionization_Penalty_Charging>
1.21446e-09

> <r_epik_Ionization_Penalty_Neutral>
6.69261e-08

> <r_epik_State_Penalty>
-0

> <r_epik_Charging_Adjusted_Penalty>
1.21446e-09

> <i_epik_Tot_Q>
0

> <i_epik_Tot_abs_Q>
0

> <r_epik_Metal_State_Penalty>
-0

> <b_epik_Metal_Only>
0

> <s_lp_Force_Field>
OPLS_2005

> <r_lp_Energy>
26.4396

> <b_lp_Chiralities_Consistent>
1

> <s_lp_Variant>
AV-unprocessed.smi:3035-1

> <Gold.Version>
5.8.1

> <Gold.Id.Protein>
6NUR|6NUR_protein|mol2

> <Gold.PLP.Fitness>
44.2050

> <Gold.PLP.PLP>
-38.4762

> <Gold.PLP.part.hbond>
-3.0000

> <Gold.PLP.part.metal>
0.0000

> <Gold.PLP.part.buried>
-5.2795

> <Gold.PLP.part.nonpolar>
-31.1190

> <Gold.PLP.part.repulsive>
0.1561

> <Gold.PLP.ligand.clash>
0.0000

> <Gold.PLP.ligand.torsion>
1.5876

> <Gold.PLP.Chemscore.Hbond>
2.9600

> <Gold.PLP.Chemscore.CHOScore>
0.0000

> <Gold.PLP.Chemscore.Metal>
0.0000

> <Gold.Chemscore.Hbonds>
donor molecule, donor type, donor heavy atom, donor atom, acceptor molecule, acceptor atom, score
      P1  H  6896  6909       L1    18  1.00
      P1  H  7989  7998       L1     2  0.93
      P1  H  7997  8009       L1     5  0.99

> <Gold.PLP.Chemscore.Internal.Correction>
0.0240

> <Gold.Rescore>
     Score         DG    S(hbond)    S(metal)    S(lipo)     H(rot)  DE(clash)    DE(int)     intcor
     16.90     -18.48       2.79        0.00      83.18       2.36       0.05       1.53       ----

> <Gold.Chemscore.Fitness>
16.9025

> <Gold.Chemscore.DG>
-18.4817

> <Gold.Chemscore.ZeroCoef>
-5.4800

> <Gold.Chemscore.Hbond>
2.7867

> <Gold.Chemscore.Metal>
0.0000

> <Gold.Chemscore.Lipo>
83.1834

> <Gold.Chemscore.Internal_Hbond>
0.0000

> <Gold.Chemscore.DEClash>
0.0531

> <Gold.Chemscore.DEInternal>
1.5262

> <Gold.Chemscore.Rot>
2.3587

> <Gold.Chemscore.Internal.Correction>
   9.000000E+99

> <Gold.Chemscore.Hbonds>
donor molecule, donor type, donor heavy atom, donor atom, acceptor molecule, acceptor atom, score
      P1  H  6896  6909       L1    18  0.98
      P1  H  7989  7998       L1     2  0.36
      P1  H  7997  8009       L1     5  0.89

> <Gold.Chemscore.Hbond.Weighted>
-9.3074

> <Gold.Chemscore.Metal.Weighted>
-0.0000

> <Gold.Chemscore.Lipo.Weighted>
-9.7325

> <Gold.Chemscore.Internal_Hbond.Weighted>
0.0000

> <Gold.Chemscore.DEClash.Weighted>
0.0531

> <Gold.Chemscore.DEInternal.Weighted>
1.5262

> <Gold.Chemscore.Rot.Weighted>
6.0382

> <Gold.Chemscore.Internal.Correction.Weighted>
   9.000000E+99

> <Gold.Protein.RotatedTorsions>
[ 6907 6896 6895 6894 ] final   99.85 input  -60.11 | X-H torsion
[ 7974 7965 7964 7962 ] final   16.50 input  175.53 | X-H torsion
[ 8008 7997 7996 7995 ] final  142.99 input   59.86 | X-H torsion
[ 10167 10162 10161 10158 ] final   52.21 input  -65.29 | X-H torsion
[ 10718 10713 10712 10709 ] final -174.41 input   66.30 | X-H torsion
[ 10763 10752 10751 10750 ] final   42.73 input  -60.55 | X-H torsion
[ 11005 11000 10999 10996 ] final -179.84 input  -57.11 | X-H torsion

> <Gold.Protein.ActiveResidues>
 VAL166  LYS551  ARG553  GLY616  TRP617  ASP618  TYR619  PRO620  LYS621  CYS622 
 ASP623  PHE694  ASN695  SER759  ASP760  ASP761  ALA762  ILE779  LEU786  VAL792 
 PHE793  MET794  SER795  GLU796  ALA797  LYS798  CYS799  TRP800  GLU811  SER814 

> <Gold.Protein.RotatedAtoms>
  152.5384  134.0366  159.8048 H   0  0  0  0  0  0  0  0  0  0  0  0  # atno 6907 bound_to 6896
  151.0529  133.5601  159.2648 H   0  0  0  0  0  0  0  0  0  0  0  0  # atno 6908 bound_to 6896
  151.2529  135.0636  159.9122 H   0  0  0  0  0  0  0  0  0  0  0  0  # atno 6909 bound_to 6896
  146.2247  139.8739  142.8582 H   0  0  0  0  0  0  0  0  0  0  0  0  # atno 7974 bound_to 7965
  156.2939  140.2274  156.4818 H   0  0  0  0  0  0  0  0  0  0  0  0  # atno 8008 bound_to 7997
  154.7846  140.0458  157.1175 H   0  0  0  0  0  0  0  0  0  0  0  0  # atno 8009 bound_to 7997
  154.9718  140.3067  155.4988 H   0  0  0  0  0  0  0  0  0  0  0  0  # atno 8010 bound_to 7997
  140.2537  144.3450  150.6340 H   0  0  0  0  0  0  0  0  0  0  0  0  # atno 10167 bound_to 10162
  156.7847  130.9496  151.3120 H   0  0  0  0  0  0  0  0  0  0  0  0  # atno 10718 bound_to 10713
  152.9876  135.6123  154.2997 H   0  0  0  0  0  0  0  0  0  0  0  0  # atno 10763 bound_to 10752
  154.2718  135.2779  155.2736 H   0  0  0  0  0  0  0  0  0  0  0  0  # atno 10764 bound_to 10752
  154.5115  135.5839  153.6665 H   0  0  0  0  0  0  0  0  0  0  0  0  # atno 10765 bound_to 10752
  140.4141  134.6665  157.4630 H   0  0  0  0  0  0  0  0  0  0  0  0  # atno 11005 bound_to 11000
  145.2581  141.0067  143.3842 LP  0  0  0  0  0  0  0  0  0  0  0  0  # atno 17320 bound_to 7965
  144.9321  139.4287  143.6490 LP  0  0  0  0  0  0  0  0  0  0  0  0  # atno 17321 bound_to 7965
  140.6020  143.2167  151.7054 LP  0  0  0  0  0  0  0  0  0  0  0  0  # atno 17342 bound_to 10162
  139.5038  144.3778  152.0406 LP  0  0  0  0  0  0  0  0  0  0  0  0  # atno 17343 bound_to 10162
  157.6629  130.8982  149.9869 LP  0  0  0  0  0  0  0  0  0  0  0  0  # atno 17370 bound_to 10713
  156.1196  130.3646  149.9910 LP  0  0  0  0  0  0  0  0  0  0  0  0  # atno 17371 bound_to 10713
  140.0246  134.6496  155.9191 LP  0  0  0  0  0  0  0  0  0  0  0  0  # atno 17394 bound_to 11000
  141.1810  133.6546  156.5018 LP  0  0  0  0  0  0  0  0  0  0  0  0  # atno 17395 bound_to 11000

$$$$
