#       Name:                AV-unprocessed.smi:2850
#       Creating user name   scv26
#       Creation time:       Fri Mar 27 15:42:29 2020


#       File generated by GOLD software.
#

@<TRIPOS>MOLECULE
AV-unprocessed.smi:2850
    49    50     1
SMALL
NO_CHARGES


@<TRIPOS>ATOM
      1 ****        -7.8193   1.5985  -1.7171 C.3            1 S1                 0.0000
      2 ****        -7.0538   3.2310  -1.5104 S.3            1 S1                 0.0000
      3 ****        -5.3554   2.9635  -1.1004 C.ar           1 S1                 0.0000
      4 ****        -4.4952   4.0505  -0.8621 C.ar           1 S1                 0.0000
      5 ****        -3.1598   3.7496  -0.5417 C.ar           1 S1                 0.0000
      6 ****        -2.7896   2.3905  -0.4856 C.ar           1 S1                 0.0000
      7 ****        -1.4663   2.0596  -0.1650 N.pl3          1 S1                 0.0000
      8 ****        -1.0093   0.6798  -0.2569 C.3            1 S1                 0.0000
      9 ****         0.4697   0.5424   0.1280 C.3            1 S1                 0.0000
     10 ****         0.8939  -0.9369   0.2111 C.3            1 S1                 0.0000
     11 ****         2.3152  -1.0905   0.5027 N.3            1 S1                 0.0000
     12 ****         2.6775  -2.5067   0.5832 C.3            1 S1                 0.0000
     13 ****         4.0905  -2.8124   1.1247 C.3            1 S1                 0.0000
     14 ****         4.3852  -4.3167   1.0303 C.3            1 S1                 0.0000
     15 ****         4.2658  -2.3201   2.5705 C.3            1 S1                 0.0000
     16 ****         3.0853  -0.3663  -0.5059 C.3            1 S1                 0.0000
     17 ****         2.6573   1.1077  -0.6048 C.3            1 S1                 0.0000
     18 ****         1.2607   1.1826  -0.8706 O.3            1 S1                 0.0000
     19 ****        -3.6791   1.3939  -0.7282 N.ar           1 S1                 0.0000
     20 ****        -4.9506   1.6751  -1.0333 N.ar           1 S1                 0.0000
     21 ****        -8.8721   1.7089  -1.9760 H              1 S1                 0.0000
     22 ****        -7.7505   1.0243  -0.7930 H              1 S1                 0.0000
     23 ****        -7.3252   1.0418  -2.5136 H              1 S1                 0.0000
     24 ****        -4.8431   5.0713  -0.9215 H              1 S1                 0.0000
     25 ****        -2.4462   4.5367  -0.3459 H              1 S1                 0.0000
     26 ****        -0.7810   2.7905  -0.0396 H              1 S1                 0.0000
     27 ****        -1.6152   0.0702   0.4148 H              1 S1                 0.0000
     28 ****        -1.1717   0.3043  -1.2681 H              1 S1                 0.0000
     29 ****         0.6408   1.0224   1.0936 H              1 S1                 0.0000
     30 ****         0.3059  -1.4347   0.9831 H              1 S1                 0.0000
     31 ****         0.6555  -1.4353  -0.7301 H              1 S1                 0.0000
     32 ****         1.9599  -3.0192   1.2257 H              1 S1                 0.0000
     33 ****         2.5640  -2.9602  -0.4029 H              1 S1                 0.0000
     34 ****         4.8320  -2.3104   0.5041 H              1 S1                 0.0000
     35 ****         3.6864  -4.8963   1.6344 H              1 S1                 0.0000
     36 ****         5.3935  -4.5434   1.3784 H              1 S1                 0.0000
     37 ****         4.3068  -4.6689   0.0014 H              1 S1                 0.0000
     38 ****         3.5480  -2.7943   3.2404 H              1 S1                 0.0000
     39 ****         4.1249  -1.2413   2.6417 H              1 S1                 0.0000
     40 ****         5.2661  -2.5424   2.9430 H              1 S1                 0.0000
     41 ****         4.1484  -0.4019  -0.2714 H              1 S1                 0.0000
     42 ****         2.9617  -0.8433  -1.4795 H              1 S1                 0.0000
     43 ****         2.8883   1.6405   0.3190 H              1 S1                 0.0000
     44 ****         3.2005   1.6070  -1.4071 H              1 S1                 0.0000
     45 ****         2.5290  -0.6981   1.3973 LP             1 S1                 0.0000
     46 ****         0.9963   2.1458  -0.9178 LP             1 S1                 0.0000
     47 ****         1.0796   0.7437  -1.7507 LP             1 S1                 0.0000
     48 ****        -3.3808   0.4407  -0.6783 LP             1 S1                 0.0000
     49 ****        -5.5995   0.9352  -1.2111 LP             1 S1                 0.0000
@<TRIPOS>BOND
    1    1    2 1     
    2    1   21 1     
    3    1   22 1     
    4    1   23 1     
    5    2    3 1     
    6    3   20 ar    
    7    3    4 ar    
    8    4    5 ar    
    9    4   24 1     
   10    5    6 ar    
   11    5   25 1     
   12    6    7 1     
   13    6   19 ar    
   14    7    8 1     
   15    7   26 1     
   16    8    9 1     
   17    8   27 1     
   18    8   28 1     
   19    9   18 1     
   20    9   10 1     
   21    9   29 1     
   22   10   11 1     
   23   10   30 1     
   24   10   31 1     
   25   11   12 1     
   26   11   16 1     
   27   12   13 1     
   28   12   32 1     
   29   12   33 1     
   30   13   14 1     
   31   13   15 1     
   32   13   34 1     
   33   14   35 1     
   34   14   36 1     
   35   14   37 1     
   36   15   38 1     
   37   15   39 1     
   38   15   40 1     
   39   16   17 1     
   40   16   41 1     
   41   16   42 1     
   42   17   18 1     
   43   17   43 1     
   44   17   44 1     
   45   19   20 ar    
   46   11   45 1     
   47   18   46 1     
   48   18   47 1     
   49   19   48 1     
   50   20   49 1     
@<TRIPOS>SUBSTRUCTURE
      1 S1             1
@<TRIPOS>SET
LONE_PAIRS      STATIC     ATOMS    <user>   **** ""
5 45 46 47 48 49
DONOR_HYDROGENS      STATIC     ATOMS    <user>   **** ""
1 26
ATOM$BLUE        STATIC     ATOMS    COLORGROUP SYSTEM
5 45 46 47 48 49
ATOM$RED        STATIC     ATOMS    COLORGROUP SYSTEM
1 26
