#       Name:                AV-unprocessed.smi:2423
#       Creating user name   scv26
#       Creation time:       Fri Mar 27 13:19:09 2020


#       File generated by GOLD software.
#

@<TRIPOS>MOLECULE
AV-unprocessed.smi:2423
    40    42     1
SMALL
NO_CHARGES


@<TRIPOS>ATOM
      1 ****        -3.0133   0.4467   0.2977 O.2            1 S1                 0.0000
      2 ****        -1.7944   0.5909   0.2367 C.2            1 S1                 0.0000
      3 ****        -0.9692  -0.4701   0.2327 N.am           1 S1                 0.0000
      4 ****        -1.3375  -1.8840   0.3143 C.3            1 S1                 0.0000
      5 ****        -0.1039  -2.8063   0.2985 C.3            1 S1                 0.0000
      6 ****         0.6826  -2.5430   1.5868 C.3            1 S1                 0.0000
      7 ****         1.6822  -3.5009   2.1925 C.3            1 S1                 0.0000
      8 ****         0.3494  -3.2548   2.8738 C.3            1 S1                 0.0000
      9 ****        -0.4317  -4.2744  -0.0713 C.3            1 S1                 0.0000
     10 ****        -0.1066  -3.9559  -1.5299 C.3            1 S1                 0.0000
     11 ****         0.7291  -2.7911  -1.0021 C.3            1 S1                 0.0000
     12 ****        -1.1603   1.7769   0.1490 N.am           1 S1                 0.0000
     13 ****        -1.7066   3.0891   0.1239 C.ar           1 S1                 0.0000
     14 ****        -3.0067   3.4218   0.5758 C.ar           1 S1                 0.0000
     15 ****        -3.4193   4.7678   0.5112 C.ar           1 S1                 0.0000
     16 ****        -2.6368   5.7650   0.0471 N.ar           1 S1                 0.0000
     17 ****        -1.3938   5.4461  -0.3713 C.ar           1 S1                 0.0000
     18 ****        -0.8834   4.1327  -0.3495 C.ar           1 S1                 0.0000
     19 ****         0.3766   3.8815  -0.7809 F              1 S1                 0.0000
     20 ****         0.0188  -0.2765   0.1535 H              1 S1                 0.0000
     21 ****        -1.9180  -2.0524   1.2230 H              1 S1                 0.0000
     22 ****        -2.0022  -2.1156  -0.5194 H              1 S1                 0.0000
     23 ****         0.9762  -1.5004   1.6930 H              1 S1                 0.0000
     24 ****         1.8402  -4.4709   1.7293 H              1 S1                 0.0000
     25 ****         2.5655  -3.0693   2.6589 H              1 S1                 0.0000
     26 ****         0.3496  -2.6633   3.7868 H              1 S1                 0.0000
     27 ****        -0.3867  -4.0554   2.8372 H              1 S1                 0.0000
     28 ****         0.2528  -5.0157   0.3387 H              1 S1                 0.0000
     29 ****        -1.4672  -4.5687   0.1023 H              1 S1                 0.0000
     30 ****         0.4618  -4.7264  -2.0515 H              1 S1                 0.0000
     31 ****        -0.9769  -3.6329  -2.1030 H              1 S1                 0.0000
     32 ****         0.6539  -1.8776  -1.5928 H              1 S1                 0.0000
     33 ****         1.7722  -3.0694  -0.8412 H              1 S1                 0.0000
     34 ****        -0.1588   1.7298   0.0311 H              1 S1                 0.0000
     35 ****        -3.6855   2.6857   0.9770 H              1 S1                 0.0000
     36 ****        -4.4053   5.0519   0.8483 H              1 S1                 0.0000
     37 ****        -0.7861   6.2627  -0.7325 H              1 S1                 0.0000
     38 ****        -3.4063  -0.4715   0.3454 LP             1 S1                 0.0000
     39 ****        -3.6120   1.2476   0.2996 LP             1 S1                 0.0000
     40 ****        -2.9669   6.7084   0.0144 LP             1 S1                 0.0000
@<TRIPOS>BOND
    1    1    2 2     
    2    2    3 am    
    3    2   12 am    
    4    3    4 1     
    5    3   20 1     
    6    4    5 1     
    7    4   21 1     
    8    4   22 1     
    9    5   11 1     
   10    5    6 1     
   11    5    9 1     
   12    6    8 1     
   13    6    7 1     
   14    6   23 1     
   15    7    8 1     
   16    7   24 1     
   17    7   25 1     
   18    8   26 1     
   19    8   27 1     
   20    9   10 1     
   21    9   28 1     
   22    9   29 1     
   23   10   11 1     
   24   10   30 1     
   25   10   31 1     
   26   11   32 1     
   27   11   33 1     
   28   12   13 1     
   29   12   34 1     
   30   13   18 ar    
   31   13   14 ar    
   32   14   15 ar    
   33   14   35 1     
   34   15   16 ar    
   35   15   36 1     
   36   16   17 ar    
   37   17   18 ar    
   38   17   37 1     
   39   18   19 1     
   40    1   38 1     
   41    1   39 1     
   42   16   40 1     
@<TRIPOS>SUBSTRUCTURE
      1 S1             1
@<TRIPOS>SET
LONE_PAIRS      STATIC     ATOMS    <user>   **** ""
3 38 39 40
DONOR_HYDROGENS      STATIC     ATOMS    <user>   **** ""
2 20 34
ATOM$BLUE        STATIC     ATOMS    COLORGROUP SYSTEM
3 38 39 40
ATOM$RED        STATIC     ATOMS    COLORGROUP SYSTEM
2 20 34
