AV-unprocessed.smi:287|AV-procd|sdf|2180|dock9
  -GOLD-   2262021553D 1   1.00000     0.00000
 Structure written by MMmdl.
 55 58  0  0  0  0  0  0  0  0  1 V2000
  151.1693  143.0041  158.1805 C   0  0  0  0  0  0  0  0  0  0  0  0
  150.9412  141.9412  157.1613 C   0  0  0  0  0  0  0  0  0  0  0  0
  149.9943  141.7434  156.1994 C   0  0  0  0  0  0  0  0  0  0  0  0
  150.3171  140.5273  155.5265 C   0  0  0  0  0  0  0  0  0  0  0  0
  149.5324  139.9055  154.3789 C   0  0  2  0  0  0  0  0  0  0  0  0
  150.2548  138.6434  153.8796 C   0  0  0  0  0  0  0  0  0  0  0  0
  149.4403  140.7550  153.2516 O   0  0  0  0  0  0  0  0  0  0  0  0
  148.0776  139.5641  154.7747 C   0  0  0  0  0  0  0  0  0  0  0  0
  147.3369  138.9057  153.7034 N   0  0  0  0  0  0  0  0  0  0  0  0
  146.9059  137.6363  153.8567 C   0  0  0  0  0  0  0  0  0  0  0  0
  146.9618  137.0185  155.0659 N   0  0  0  0  0  0  0  0  0  0  0  0
  146.5262  135.7610  155.1937 C   0  0  0  0  0  0  0  0  0  0  0  0
  146.0075  134.9576  154.2617 N   0  0  0  0  0  0  0  0  0  0  0  0
  145.9526  135.5764  153.0468 C   0  0  0  0  0  0  0  0  0  0  0  0
  146.3786  136.9027  152.7631 C   0  0  0  0  0  0  0  0  0  0  0  0
  146.1683  137.1864  151.4198 N   0  0  0  0  0  0  0  0  0  0  0  0
  145.6485  136.0872  150.9418 C   0  0  0  0  0  0  0  0  0  0  0  0
  145.4900  135.0648  151.8547 N   0  0  0  0  0  0  0  0  0  0  0  0
  144.9316  133.6872  151.6585 C   0  0  1  0  0  0  0  0  0  0  0  0
  144.0653  133.7165  150.5632 O   0  0  0  0  0  0  0  0  0  0  0  0
  144.7103  133.1580  149.4238 C   0  0  2  0  0  0  0  0  0  0  0  0
  143.6606  132.7069  148.3972 C   0  0  0  0  0  0  0  0  0  0  0  0
  143.3837  133.7601  147.4990 O   0  0  0  0  0  0  0  0  0  0  0  0
  145.4876  132.0067  150.0612 C   0  0  1  0  0  0  0  0  0  0  0  0
  146.4992  131.4895  149.2165 O   0  0  0  0  0  0  0  0  0  0  0  0
  146.0264  132.6385  151.3430 C   0  0  1  0  0  0  0  0  0  0  0  0
  147.3228  133.1914  151.1651 O   0  0  0  0  0  0  0  0  0  0  0  0
  151.4520  140.0710  156.1531 C   0  0  0  0  0  0  0  0  0  0  0  0
  152.3212  138.8689  155.9801 C   0  0  0  0  0  0  0  0  0  0  0  0
  151.8382  140.9238  157.1430 O   0  0  0  0  0  0  0  0  0  0  0  0
  144.3751  133.4825  152.5739 H   0  0  0  0  0  0  0  0  0  0  0  0
  145.4060  133.8791  148.9897 H   0  0  0  0  0  0  0  0  0  0  0  0
  144.7982  131.2021  150.3217 H   0  0  0  0  0  0  0  0  0  0  0  0
  146.0726  131.9080  152.1513 H   0  0  0  0  0  0  0  0  0  0  0  0
  150.4935  143.8450  158.0235 H   0  0  0  0  0  0  0  0  0  0  0  0
  152.1919  143.3786  158.1281 H   0  0  0  0  0  0  0  0  0  0  0  0
  151.0005  142.6177  159.1857 H   0  0  0  0  0  0  0  0  0  0  0  0
  149.1617  142.4006  155.9961 H   0  0  0  0  0  0  0  0  0  0  0  0
  150.3449  137.8999  154.6726 H   0  0  0  0  0  0  0  0  0  0  0  0
  151.2628  138.8747  153.5321 H   0  0  0  0  0  0  0  0  0  0  0  0
  149.7191  138.1751  153.0528 H   0  0  0  0  0  0  0  0  0  0  0  0
  149.0293  140.2758  152.5486 H   0  0  0  0  0  0  0  0  0  0  0  0
  148.0530  138.9598  155.6831 H   0  0  0  0  0  0  0  0  0  0  0  0
  147.5519  140.4923  155.0034 H   0  0  0  0  0  0  0  0  0  0  0  0
  147.1434  139.4666  152.8857 H   0  0  0  0  0  0  0  0  0  0  0  0
  146.6054  135.3378  156.1841 H   0  0  0  0  0  0  0  0  0  0  0  0
  145.3650  135.9994  149.9031 H   0  0  0  0  0  0  0  0  0  0  0  0
  144.0429  131.8704  147.8115 H   0  0  0  0  0  0  0  0  0  0  0  0
  142.7450  132.3705  148.8843 H   0  0  0  0  0  0  0  0  0  0  0  0
  144.1999  134.1678  147.2527 H   0  0  0  0  0  0  0  0  0  0  0  0
  147.3070  131.4514  149.7055 H   0  0  0  0  0  0  0  0  0  0  0  0
  147.8827  132.5252  150.7963 H   0  0  0  0  0  0  0  0  0  0  0  0
  151.7357  137.9535  156.0651 H   0  0  0  0  0  0  0  0  0  0  0  0
  153.1059  138.8359  156.7363 H   0  0  0  0  0  0  0  0  0  0  0  0
  152.7993  138.8763  155.0008 H   0  0  0  0  0  0  0  0  0  0  0  0
  1  2  1  0  0  0  0
  1 35  1  0  0  0  0
  1 36  1  0  0  0  0
  1 37  1  0  0  0  0
  2 30  1  0  0  0  0
  2  3  2  0  0  0  0
  3  4  1  0  0  0  0
  3 38  1  0  0  0  0
  4  5  1  0  0  0  0
  4 28  2  0  0  0  0
  5  6  1  0  0  0  0
  5  7  1  0  0  0  0
  5  8  1  0  0  0  0
  6 39  1  0  0  0  0
  6 40  1  0  0  0  0
  6 41  1  0  0  0  0
  7 42  1  0  0  0  0
  8  9  1  0  0  0  0
  8 43  1  0  0  0  0
  8 44  1  0  0  0  0
  9 10  1  0  0  0  0
  9 45  1  0  0  0  0
 10 15  1  0  0  0  0
 10 11  2  0  0  0  0
 11 12  1  0  0  0  0
 12 13  2  0  0  0  0
 12 46  1  0  0  0  0
 13 14  1  0  0  0  0
 14 18  1  0  0  0  0
 14 15  2  0  0  0  0
 15 16  1  0  0  0  0
 16 17  2  0  0  0  0
 17 18  1  0  0  0  0
 17 47  1  0  0  0  0
 18 19  1  0  0  0  0
 19 31  1  0  0  0  0
 19 26  1  0  0  0  0
 19 20  1  0  0  0  0
 20 21  1  0  0  0  0
 21 32  1  0  0  0  0
 21 22  1  0  0  0  0
 21 24  1  0  0  0  0
 22 23  1  0  0  0  0
 22 48  1  0  0  0  0
 22 49  1  0  0  0  0
 23 50  1  0  0  0  0
 24 33  1  0  0  0  0
 24 25  1  0  0  0  0
 24 26  1  0  0  0  0
 25 51  1  0  0  0  0
 26 34  1  0  0  0  0
 26 27  1  0  0  0  0
 27 52  1  0  0  0  0
 28 29  1  0  0  0  0
 28 30  1  0  0  0  0
 29 53  1  0  0  0  0
 29 54  1  0  0  0  0
 29 55  1  0  0  0  0
M  END
> <s_m_source_file>
AV-unprocessed.smi

> <i_m_source_file_index>
287

> <i_lp_mmshare_version>
43012

> <i_f3d_flags>
0

> <s_epik_input>
W0NIM11jMVtjSF1jKGMobzEpW0NIM10pW0NAQF0oW0NIM10pKFtPSF0pW0NIMl1bTkhdYyhuW2NIXW4yKWMoYzIzKW5bY0hdbjNbQ0BASF00T1tDQEhdKFtDSDJdW09IXSlbQ0BASF0oW09IXSlbQ0BIXTRbT0hd

> <s_epik_cmdline>
J2VwaWtfcHl0aG9uJywgJy1waCcsICc3LjAnLCAnLXRuJywgJzgnLCAnLW1hJywgJzIwMCcsICctbWV0YWxfYmluZGluZycsICctaW1hZScsICc8aW5maWxlLm1hZT4nLCAnLW9tYWUnLCAnPG91dGZpbGUubWFlPic=

> <r_lp_tautomer_probability>
1

> <r_epik_Ionization_Penalty>
0.000992612

> <r_epik_Ionization_Penalty_Charging>
0

> <r_epik_Ionization_Penalty_Neutral>
0.000992612

> <r_epik_State_Penalty>
-0

> <r_epik_Charging_Adjusted_Penalty>
0

> <i_epik_Tot_Q>
0

> <i_epik_Tot_abs_Q>
0

> <r_epik_Metal_State_Penalty>
-0

> <b_epik_Metal_Only>
0

> <s_epik_Chemistry_Notes>
This compound contains an acetal/aminal-like group ( X-CH(R)-Y where X, Y are N, S, or O) that may be acid/base labile, releasing an aldehyde.

> <s_lp_Force_Field>
OPLS_2005

> <r_lp_Energy>
46.7929

> <b_lp_Chiralities_Consistent>
1

> <s_lp_Variant>
AV-unprocessed.smi:287-4

> <Gold.Version>
5.8.1

> <Gold.Id.Protein>
6NUR|6NUR_protein|mol2

> <Gold.PLP.Fitness>
61.0386

> <Gold.PLP.PLP>
-45.7976

> <Gold.PLP.part.hbond>
-7.7294

> <Gold.PLP.part.metal>
0.0000

> <Gold.PLP.part.buried>
-1.5304

> <Gold.PLP.part.nonpolar>
-38.4529

> <Gold.PLP.part.repulsive>
1.9869

> <Gold.PLP.ligand.clash>
1.4838

> <Gold.PLP.ligand.torsion>
1.0999

> <Gold.PLP.Chemscore.Hbond>
5.5250

> <Gold.PLP.Chemscore.CHOScore>
0.7226

> <Gold.PLP.Chemscore.Metal>
0.0000

> <Gold.Chemscore.Hbonds>
donor molecule, donor type, donor heavy atom, donor atom, acceptor molecule, acceptor atom, score
      L1  H     7    42       P1  7957  0.51
      L1  H    23    50       P1  7921  0.99
      L1  H    25    51       P1 10747  1.00
      L1  H    27    52       P1 10747  0.94
      P1  H  7989  7998       L1     7  0.04
      P1  H  8011  8017       L1     7  0.95
      P1  H 10192 10197       L1    23  1.00
      L1  C    17    47       P1  7921  0.68

> <Gold.PLP.Chemscore.Internal.Correction>
0.1819

> <Gold.Rescore>
     Score         DG    S(hbond)    S(metal)    S(lipo)     H(rot)  DE(clash)    DE(int)     intcor
     13.62     -19.85       4.41        0.00     112.29       5.27       3.85       2.38       ----

> <Gold.Chemscore.Fitness>
13.6202

> <Gold.Chemscore.DG>
-19.8480

> <Gold.Chemscore.ZeroCoef>
-5.4800

> <Gold.Chemscore.Hbond>
4.4053

> <Gold.Chemscore.Metal>
0.0000

> <Gold.Chemscore.Lipo>
112.2927

> <Gold.Chemscore.Internal_Hbond>
0.0000

> <Gold.Chemscore.DEClash>
3.8468

> <Gold.Chemscore.DEInternal>
2.3810

> <Gold.Chemscore.Rot>
5.2672

> <Gold.Chemscore.Internal.Correction>
   9.000000E+99

> <Gold.Chemscore.Hbonds>
donor molecule, donor type, donor heavy atom, donor atom, acceptor molecule, acceptor atom, score
      L1  H     7    42       P1  7957  0.47
      L1  H    23    50       P1  7921  0.92
      L1  H    25    51       P1 10747  0.99
      L1  H    27    52       P1 10747  0.90
      P1  H  8011  8017       L1     7  0.21
      P1  H 10192 10197       L1    23  0.44

> <Gold.Chemscore.Hbond.Weighted>
-14.7137

> <Gold.Chemscore.Metal.Weighted>
-0.0000

> <Gold.Chemscore.Lipo.Weighted>
-13.1382

> <Gold.Chemscore.Internal_Hbond.Weighted>
0.0000

> <Gold.Chemscore.DEClash.Weighted>
3.8468

> <Gold.Chemscore.DEInternal.Weighted>
2.3810

> <Gold.Chemscore.Rot.Weighted>
13.4839

> <Gold.Chemscore.Internal.Correction.Weighted>
   9.000000E+99

> <Gold.Protein.RotatedTorsions>
[ 6907 6896 6895 6894 ] final  -86.24 input  -60.11 | X-H torsion
[ 7974 7965 7964 7962 ] final -107.93 input  175.53 | X-H torsion
[ 8008 7997 7996 7995 ] final    2.31 input   59.86 | X-H torsion
[ 10167 10162 10161 10158 ] final -133.24 input  -65.29 | X-H torsion
[ 10718 10713 10712 10709 ] final -153.89 input   66.30 | X-H torsion
[ 10763 10752 10751 10750 ] final  -62.55 input  -60.55 | X-H torsion
[ 11005 11000 10999 10996 ] final   -1.52 input  -57.11 | X-H torsion

> <Gold.Protein.ActiveResidues>
 VAL166  LYS551  ARG553  GLY616  TRP617  ASP618  TYR619  PRO620  LYS621  CYS622 
 ASP623  PHE694  ASN695  SER759  ASP760  ASP761  ALA762  ILE779  LEU786  VAL792 
 PHE793  MET794  SER795  GLU796  ALA797  LYS798  CYS799  TRP800  GLU811  SER814 

> <Gold.Protein.RotatedAtoms>
  150.6867  134.3081  159.4734 H   0  0  0  0  0  0  0  0  0  0  0  0  # atno 6907 bound_to 6896
  152.0970  134.9365  160.0580 H   0  0  0  0  0  0  0  0  0  0  0  0  # atno 6908 bound_to 6896
  152.0659  133.4049  159.4475 H   0  0  0  0  0  0  0  0  0  0  0  0  # atno 6909 bound_to 6896
  145.1991  140.9048  143.3380 H   0  0  0  0  0  0  0  0  0  0  0  0  # atno 7974 bound_to 7965
  154.6901  140.2651  155.6821 H   0  0  0  0  0  0  0  0  0  0  0  0  # atno 8008 bound_to 7997
  156.2729  140.2793  156.1399 H   0  0  0  0  0  0  0  0  0  0  0  0  # atno 8009 bound_to 7997
  155.0909  140.0373  157.2658 H   0  0  0  0  0  0  0  0  0  0  0  0  # atno 8010 bound_to 7997
  139.9003  143.6616  152.2596 H   0  0  0  0  0  0  0  0  0  0  0  0  # atno 10167 bound_to 10162
  156.4919  130.8351  151.2574 H   0  0  0  0  0  0  0  0  0  0  0  0  # atno 10718 bound_to 10713
  154.3016  135.6233  153.5427 H   0  0  0  0  0  0  0  0  0  0  0  0  # atno 10763 bound_to 10752
  152.9840  135.5680  154.5277 H   0  0  0  0  0  0  0  0  0  0  0  0  # atno 10764 bound_to 10752
  154.4909  135.2867  155.1474 H   0  0  0  0  0  0  0  0  0  0  0  0  # atno 10765 bound_to 10752
  140.6482  133.9428  155.8365 H   0  0  0  0  0  0  0  0  0  0  0  0  # atno 11005 bound_to 11000
  144.9965  139.3639  143.6189 LP  0  0  0  0  0  0  0  0  0  0  0  0  # atno 17320 bound_to 7965
  146.3421  139.9170  142.8772 LP  0  0  0  0  0  0  0  0  0  0  0  0  # atno 17321 bound_to 7965
  139.7031  144.7632  151.1239 LP  0  0  0  0  0  0  0  0  0  0  0  0  # atno 17342 bound_to 10162
  140.7708  143.5430  150.9290 LP  0  0  0  0  0  0  0  0  0  0  0  0  # atno 17343 bound_to 10162
  157.7473  131.0010  150.2949 LP  0  0  0  0  0  0  0  0  0  0  0  0  # atno 17370 bound_to 10713
  156.3418  130.3816  149.7402 LP  0  0  0  0  0  0  0  0  0  0  0  0  # atno 17371 bound_to 10713
  141.0556  134.0421  157.3726 LP  0  0  0  0  0  0  0  0  0  0  0  0  # atno 17394 bound_to 11000
  139.9055  135.0178  156.7467 LP  0  0  0  0  0  0  0  0  0  0  0  0  # atno 17395 bound_to 11000

$$$$
