AV-unprocessed.smi:3243|AV-procd|sdf|12395|dock5
  -GOLD-   2272018263D 1   1.00000     0.00000
 Structure written by MMmdl.
 37 38  0  0  0  0  0  0  0  0  1 V2000
  150.4677  140.8334  156.1174 C   0  0  0  0  0  0  0  0  0  0  0  0
  149.9992  139.5353  155.4442 C   0  0  0  0  0  0  0  0  0  0  0  0
  151.1391  138.8073  154.7173 C   0  0  0  0  0  0  0  0  0  0  0  0
  148.8223  139.7674  154.5479 C   0  0  0  0  0  0  0  0  0  0  0  0
  148.3098  138.8259  153.7504 N   0  0  0  0  0  0  0  0  0  0  0  0
  147.2104  139.2785  153.0141 C   0  0  0  0  0  0  0  0  0  0  0  0
  146.5079  138.3503  152.0704 C   0  0  0  0  0  0  0  0  0  0  0  0
  146.0135  137.0739  152.7713 C   0  0  0  0  0  0  0  0  0  0  0  0
  146.5679  135.8734  152.1562 N   0  0  0  0  0  0  0  0  0  0  0  0
  145.8573  134.9417  151.5027 C   0  0  0  0  0  0  0  0  0  0  0  0
  144.6349  135.0082  151.3672 O   0  0  0  0  0  0  0  0  0  0  0  0
  146.6903  133.8235  150.9576 C   0  0  1  0  0  0  0  0  0  0  0  0
  146.5248  132.4446  151.5666 C   0  0  0  0  0  0  0  0  0  0  0  0
  146.0310  132.7038  150.1632 C   0  0  1  0  0  0  0  0  0  0  0  0
  144.5486  132.6476  149.8374 C   0  0  0  0  0  0  0  0  0  0  0  0
  146.8921  140.5893  153.2670 C   0  0  0  0  0  0  0  0  0  0  0  0
  147.9630  141.3026  154.4409 S   0  0  0  0  0  0  0  0  0  0  0  0
  149.6599  141.2915  156.6888 H   0  0  0  0  0  0  0  0  0  0  0  0
  150.8113  141.5620  155.3825 H   0  0  0  0  0  0  0  0  0  0  0  0
  151.2916  140.6433  156.8057 H   0  0  0  0  0  0  0  0  0  0  0  0
  149.6641  138.8718  156.2431 H   0  0  0  0  0  0  0  0  0  0  0  0
  150.7973  137.8577  154.3049 H   0  0  0  0  0  0  0  0  0  0  0  0
  151.9639  138.5932  155.3971 H   0  0  0  0  0  0  0  0  0  0  0  0
  151.5344  139.4051  153.8955 H   0  0  0  0  0  0  0  0  0  0  0  0
  145.6649  138.8658  151.6083 H   0  0  0  0  0  0  0  0  0  0  0  0
  147.1761  138.0801  151.2517 H   0  0  0  0  0  0  0  0  0  0  0  0
  146.3151  137.0842  153.8191 H   0  0  0  0  0  0  0  0  0  0  0  0
  144.9230  137.0305  152.7630 H   0  0  0  0  0  0  0  0  0  0  0  0
  147.5670  135.7449  152.2263 H   0  0  0  0  0  0  0  0  0  0  0  0
  147.6920  134.0994  150.6311 H   0  0  0  0  0  0  0  0  0  0  0  0
  147.4260  131.8467  151.6862 H   0  0  0  0  0  0  0  0  0  0  0  0
  145.7786  132.3041  152.3468 H   0  0  0  0  0  0  0  0  0  0  0  0
  146.6460  132.3166  149.3531 H   0  0  0  0  0  0  0  0  0  0  0  0
  143.9355  132.8221  150.7208 H   0  0  0  0  0  0  0  0  0  0  0  0
  144.2942  131.6639  149.4430 H   0  0  0  0  0  0  0  0  0  0  0  0
  144.3016  133.3958  149.0843 H   0  0  0  0  0  0  0  0  0  0  0  0
  146.0938  141.1757  152.8367 H   0  0  0  0  0  0  0  0  0  0  0  0
  1  2  1  0  0  0  0
  1 18  1  0  0  0  0
  1 19  1  0  0  0  0
  1 20  1  0  0  0  0
  2  3  1  0  0  0  0
  2  4  1  0  0  0  0
  2 21  1  0  0  0  0
  3 22  1  0  0  0  0
  3 23  1  0  0  0  0
  3 24  1  0  0  0  0
  4 17  1  0  0  0  0
  4  5  2  0  0  0  0
  5  6  1  0  0  0  0
  6  7  1  0  0  0  0
  6 16  2  0  0  0  0
  7  8  1  0  0  0  0
  7 25  1  0  0  0  0
  7 26  1  0  0  0  0
  8  9  1  0  0  0  0
  8 27  1  0  0  0  0
  8 28  1  0  0  0  0
  9 10  1  0  0  0  0
  9 29  1  0  0  0  0
 10 11  2  0  0  0  0
 10 12  1  0  0  0  0
 12 14  1  0  0  0  0
 12 13  1  0  0  0  0
 12 30  1  0  0  0  0
 13 14  1  0  0  0  0
 13 31  1  0  0  0  0
 13 32  1  0  0  0  0
 14 15  1  0  0  0  0
 14 33  1  0  0  0  0
 15 34  1  0  0  0  0
 15 35  1  0  0  0  0
 15 36  1  0  0  0  0
 16 17  1  0  0  0  0
 16 37  1  0  0  0  0
M  END
> <s_m_source_file>
AV-unprocessed.smi

> <i_m_source_file_index>
3243

> <i_lp_mmshare_version>
43012

> <i_f3d_flags>
0

> <s_epik_input>
W0NIM11bQ0hdKFtDSDNdKWMxbmMoW2NIXXMxKVtDSDJdW0NIMl1bTkhdQyg9TylbQ0BASF0yW0NIMl1bQ0BIXTJbQ0gzXQ==

> <s_epik_cmdline>
J2VwaWtfcHl0aG9uJywgJy1waCcsICc3LjAnLCAnLXRuJywgJzgnLCAnLW1hJywgJzIwMCcsICctbWV0YWxfYmluZGluZycsICctaW1hZScsICc8aW5maWxlLm1hZT4nLCAnLW9tYWUnLCAnPG91dGZpbGUubWFlPic=

> <r_epik_Ionization_Penalty>
0.00084212

> <r_epik_Ionization_Penalty_Charging>
0

> <r_epik_Ionization_Penalty_Neutral>
0.00084212

> <r_epik_State_Penalty>
0.000542609

> <r_epik_Charging_Adjusted_Penalty>
0.000542609

> <i_epik_Tot_Q>
0

> <i_epik_Tot_abs_Q>
0

> <r_epik_Metal_State_Penalty>
-0

> <b_epik_Metal_Only>
0

> <s_lp_Force_Field>
OPLS_2005

> <r_lp_Energy>
-2.57645

> <b_lp_Chiralities_Consistent>
1

> <s_lp_Variant>
AV-unprocessed.smi:3243-2

> <Gold.Version>
5.8.1

> <Gold.Id.Protein>
6NUR|6NUR_protein|mol2

> <Gold.PLP.Fitness>
39.1255

> <Gold.PLP.PLP>
-35.1634

> <Gold.PLP.part.hbond>
-1.0000

> <Gold.PLP.part.metal>
0.0000

> <Gold.PLP.part.buried>
-4.9899

> <Gold.PLP.part.nonpolar>
-32.4637

> <Gold.PLP.part.repulsive>
1.0877

> <Gold.PLP.ligand.clash>
0.0000

> <Gold.PLP.ligand.torsion>
0.6801

> <Gold.PLP.Chemscore.Hbond>
1.0000

> <Gold.PLP.Chemscore.CHOScore>
0.7212

> <Gold.PLP.Chemscore.Metal>
0.0000

> <Gold.Chemscore.Hbonds>
donor molecule, donor type, donor heavy atom, donor atom, acceptor molecule, acceptor atom, score
      L1  H     9    29       P1  7948  0.87
      L1  C    16    37       P1 10175  0.80

> <Gold.PLP.Chemscore.Internal.Correction>
0.1589

> <Gold.Rescore>
     Score         DG    S(hbond)    S(metal)    S(lipo)     H(rot)  DE(clash)    DE(int)     intcor
     14.17     -16.27       0.99        0.00      96.44       1.49       0.12       1.98       ----

> <Gold.Chemscore.Fitness>
14.1676

> <Gold.Chemscore.DG>
-16.2658

> <Gold.Chemscore.ZeroCoef>
-5.4800

> <Gold.Chemscore.Hbond>
0.9907

> <Gold.Chemscore.Metal>
0.0000

> <Gold.Chemscore.Lipo>
96.4406

> <Gold.Chemscore.Internal_Hbond>
0.0000

> <Gold.Chemscore.DEClash>
0.1222

> <Gold.Chemscore.DEInternal>
1.9761

> <Gold.Chemscore.Rot>
1.4870

> <Gold.Chemscore.Internal.Correction>
   9.000000E+99

> <Gold.Chemscore.Hbonds>
donor molecule, donor type, donor heavy atom, donor atom, acceptor molecule, acceptor atom, score
      L1  H     9    29       P1  7948  0.80

> <Gold.Chemscore.Hbond.Weighted>
-3.3090

> <Gold.Chemscore.Metal.Weighted>
-0.0000

> <Gold.Chemscore.Lipo.Weighted>
-11.2836

> <Gold.Chemscore.Internal_Hbond.Weighted>
0.0000

> <Gold.Chemscore.DEClash.Weighted>
0.1222

> <Gold.Chemscore.DEInternal.Weighted>
1.9761

> <Gold.Chemscore.Rot.Weighted>
3.8067

> <Gold.Chemscore.Internal.Correction.Weighted>
   9.000000E+99

> <Gold.Protein.RotatedTorsions>
[ 6907 6896 6895 6894 ] final   15.69 input  -60.11 | X-H torsion
[ 7974 7965 7964 7962 ] final   91.59 input  175.53 | X-H torsion
[ 8008 7997 7996 7995 ] final  170.50 input   59.86 | X-H torsion
[ 10167 10162 10161 10158 ] final  -39.93 input  -65.29 | X-H torsion
[ 10718 10713 10712 10709 ] final   -2.54 input   66.30 | X-H torsion
[ 10763 10752 10751 10750 ] final  125.27 input  -60.55 | X-H torsion
[ 11005 11000 10999 10996 ] final  159.87 input  -57.11 | X-H torsion

> <Gold.Protein.ActiveResidues>
 VAL166  LYS551  ARG553  GLY616  TRP617  ASP618  TYR619  PRO620  LYS621  CYS622 
 ASP623  PHE694  ASN695  SER759  ASP760  ASP761  ALA762  ILE779  LEU786  VAL792 
 PHE793  MET794  SER795  GLU796  ALA797  LYS798  CYS799  TRP800  GLU811  SER814 

> <Gold.Protein.RotatedAtoms>
  151.8221  135.0648  160.0426 H   0  0  0  0  0  0  0  0  0  0  0  0  # atno 6907 bound_to 6896
  152.2943  133.5588  159.5586 H   0  0  0  0  0  0  0  0  0  0  0  0  # atno 6908 bound_to 6896
  150.7244  134.0299  159.3772 H   0  0  0  0  0  0  0  0  0  0  0  0  # atno 6909 bound_to 6896
  145.5037  139.2276  143.2763 H   0  0  0  0  0  0  0  0  0  0  0  0  # atno 7974 bound_to 7965
  156.1359  140.1536  156.8994 H   0  0  0  0  0  0  0  0  0  0  0  0  # atno 8008 bound_to 7997
  154.4947  140.0841  156.7710 H   0  0  0  0  0  0  0  0  0  0  0  0  # atno 8009 bound_to 7997
  155.4169  140.3421  155.4270 H   0  0  0  0  0  0  0  0  0  0  0  0  # atno 8010 bound_to 7997
  140.7050  143.3184  151.2851 H   0  0  0  0  0  0  0  0  0  0  0  0  # atno 10167 bound_to 10162
  156.7893  130.5356  149.5738 H   0  0  0  0  0  0  0  0  0  0  0  0  # atno 10718 bound_to 10713
  153.6747  135.3324  155.3162 H   0  0  0  0  0  0  0  0  0  0  0  0  # atno 10763 bound_to 10752
  154.8482  135.4394  154.1669 H   0  0  0  0  0  0  0  0  0  0  0  0  # atno 10764 bound_to 10752
  153.2669  135.6996  153.7597 H   0  0  0  0  0  0  0  0  0  0  0  0  # atno 10765 bound_to 10752
  140.2004  134.8342  157.3011 H   0  0  0  0  0  0  0  0  0  0  0  0  # atno 11005 bound_to 11000
  146.2210  140.5839  142.9017 LP  0  0  0  0  0  0  0  0  0  0  0  0  # atno 17320 bound_to 7965
  144.7766  140.5752  143.6634 LP  0  0  0  0  0  0  0  0  0  0  0  0  # atno 17321 bound_to 7965
  139.6630  144.0154  152.2705 LP  0  0  0  0  0  0  0  0  0  0  0  0  # atno 17342 bound_to 10162
  139.9728  144.6482  150.7973 LP  0  0  0  0  0  0  0  0  0  0  0  0  # atno 17343 bound_to 10162
  156.1169  130.6081  151.0134 LP  0  0  0  0  0  0  0  0  0  0  0  0  # atno 17370 bound_to 10713
  157.6608  131.0881  150.7842 LP  0  0  0  0  0  0  0  0  0  0  0  0  # atno 17371 bound_to 10713
  140.2061  134.4196  155.7637 LP  0  0  0  0  0  0  0  0  0  0  0  0  # atno 17394 bound_to 11000
  141.2227  133.7095  156.8262 LP  0  0  0  0  0  0  0  0  0  0  0  0  # atno 17395 bound_to 11000

$$$$
