AV-unprocessed.smi:290|AV-procd|sdf|2223|dock4
  -GOLD-   2262022 73D 1   1.00000     0.00000
 Structure written by MMmdl.
 59 62  0  0  0  0  0  0  0  0  2 V2000
  152.0601  144.2841  157.7514 C   0  0  0  0  0  0  0  0  0  0  0  0
  151.4244  143.0828  158.4670 C   0  0  2  0  0  0  0  0  0  0  0  0
  152.4253  142.1630  158.8946 O   0  0  0  0  0  0  0  0  0  0  0  0
  151.9283  140.8293  158.8277 C   0  0  0  0  0  0  0  0  0  0  0  0
  150.4516  140.9550  158.4640 C   0  0  0  0  0  0  0  0  0  0  0  0
  150.4159  142.2465  157.6563 C   0  0  1  0  0  0  0  0  0  0  0  0
  149.1204  142.8084  157.7517 O   0  0  0  0  0  0  0  0  0  0  0  0
  150.8020  142.0639  156.1624 C   0  0  0  0  0  0  0  0  0  0  0  0
  149.9843  141.0928  155.4534 N   0  0  0  0  0  0  0  0  0  0  0  0
  150.4290  140.0219  154.7099 C   0  0  0  0  0  0  0  0  0  0  0  0
  149.4923  139.2929  154.1658 N   0  0  0  0  0  0  0  0  0  0  0  0
  148.3151  139.9198  154.5528 C   0  0  0  0  0  0  0  0  0  0  0  0
  146.9400  139.6635  154.3176 C   0  0  0  0  0  0  0  0  0  0  0  0
  146.5357  138.6074  153.5780 N   0  0  0  0  0  0  0  0  0  0  0  0
  146.7908  138.7323  152.1519 C   0  0  0  0  0  0  0  0  0  0  0  0
  145.9805  137.6123  151.4898 C   0  0  0  0  0  0  0  0  0  0  0  0
  144.8863  137.2556  152.5206 C   0  0  1  0  0  0  0  0  0  0  0  0
  144.8290  135.8119  152.9101 N   0  3  2  0  0  0  0  0  0  0  0  0
  146.1287  135.1981  153.2867 C   0  0  0  0  0  0  0  0  0  0  0  0
  144.0722  134.9661  151.9514 C   0  0  0  0  0  0  0  0  0  0  0  0
  144.9108  134.5857  150.7189 C   0  0  0  0  0  0  0  0  0  0  0  0
  144.1488  134.7637  149.5436 O   0  0  0  0  0  0  0  0  0  0  0  0
  145.1363  138.2218  153.6977 C   0  0  1  0  0  0  0  0  0  0  0  0
  144.7282  137.7414  155.1054 C   0  0  0  0  0  0  0  0  0  0  0  0
  146.0293  140.5095  154.8669 N   0  0  0  0  0  0  0  0  0  0  0  0
  146.4432  141.5463  155.6024 C   0  0  0  0  0  0  0  0  0  0  0  0
  147.6918  141.9083  155.9069 N   0  0  0  0  0  0  0  0  0  0  0  0
  148.6045  141.0555  155.3579 C   0  0  0  0  0  0  0  0  0  0  0  0
  143.9164  137.5265  152.1043 H   0  0  0  0  0  0  0  0  0  0  0  0
  144.5426  139.1139  153.4897 H   0  0  0  0  0  0  0  0  0  0  0  0
  151.2968  144.9717  157.3868 H   0  0  0  0  0  0  0  0  0  0  0  0
  152.6699  143.9729  156.9033 H   0  0  0  0  0  0  0  0  0  0  0  0
  152.7074  144.8380  158.4313 H   0  0  0  0  0  0  0  0  0  0  0  0
  150.9346  143.4408  159.3748 H   0  0  0  0  0  0  0  0  0  0  0  0
  152.4719  140.2922  158.0497 H   0  0  0  0  0  0  0  0  0  0  0  0
  152.0781  140.3020  159.7699 H   0  0  0  0  0  0  0  0  0  0  0  0
  150.0600  140.0803  157.9466 H   0  0  0  0  0  0  0  0  0  0  0  0
  149.8728  141.0696  159.3823 H   0  0  0  0  0  0  0  0  0  0  0  0
  149.0299  143.4702  157.0831 H   0  0  0  0  0  0  0  0  0  0  0  0
  150.7203  143.0127  155.6311 H   0  0  0  0  0  0  0  0  0  0  0  0
  151.8446  141.7565  156.0729 H   0  0  0  0  0  0  0  0  0  0  0  0
  151.4781  139.7926  154.5897 H   0  0  0  0  0  0  0  0  0  0  0  0
  146.4572  139.7047  151.7863 H   0  0  0  0  0  0  0  0  0  0  0  0
  147.8554  138.6385  151.9345 H   0  0  0  0  0  0  0  0  0  0  0  0
  145.5485  137.9517  150.5479 H   0  0  0  0  0  0  0  0  0  0  0  0
  146.6297  136.7736  151.2475 H   0  0  0  0  0  0  0  0  0  0  0  0
  146.7196  134.9278  152.4116 H   0  0  0  0  0  0  0  0  0  0  0  0
  145.9520  134.2837  153.8535 H   0  0  0  0  0  0  0  0  0  0  0  0
  146.7311  135.8554  153.9123 H   0  0  0  0  0  0  0  0  0  0  0  0
  143.7135  134.0704  152.4603 H   0  0  0  0  0  0  0  0  0  0  0  0
  143.1813  135.4951  151.6085 H   0  0  0  0  0  0  0  0  0  0  0  0
  145.8308  135.1646  150.6492 H   0  0  0  0  0  0  0  0  0  0  0  0
  145.2017  133.5368  150.7807 H   0  0  0  0  0  0  0  0  0  0  0  0
  144.6864  134.5415  148.7981 H   0  0  0  0  0  0  0  0  0  0  0  0
  143.6880  137.4156  155.1187 H   0  0  0  0  0  0  0  0  0  0  0  0
  144.8236  138.5468  155.8343 H   0  0  0  0  0  0  0  0  0  0  0  0
  145.3443  136.9150  155.4577 H   0  0  0  0  0  0  0  0  0  0  0  0
  145.6626  142.1745  156.0057 H   0  0  0  0  0  0  0  0  0  0  0  0
  144.2794  135.7913  153.7578 H   0  0  0  0  0  0  0  0  0  0  0  0
  1  2  1  0  0  0  0
  1 31  1  0  0  0  0
  1 32  1  0  0  0  0
  1 33  1  0  0  0  0
  2  6  1  0  0  0  0
  2  3  1  0  0  0  0
  2 34  1  0  0  0  0
  3  4  1  0  0  0  0
  4  5  1  0  0  0  0
  4 35  1  0  0  0  0
  4 36  1  0  0  0  0
  5  6  1  0  0  0  0
  5 37  1  0  0  0  0
  5 38  1  0  0  0  0
  6  7  1  0  0  0  0
  6  8  1  0  0  0  0
  7 39  1  0  0  0  0
  8  9  1  0  0  0  0
  8 40  1  0  0  0  0
  8 41  1  0  0  0  0
  9 28  1  0  0  0  0
  9 10  1  0  0  0  0
 10 11  2  0  0  0  0
 10 42  1  0  0  0  0
 11 12  1  0  0  0  0
 12 28  2  0  0  0  0
 12 13  1  0  0  0  0
 13 14  1  0  0  0  0
 13 25  2  0  0  0  0
 14 23  1  0  0  0  0
 14 15  1  0  0  0  0
 15 16  1  0  0  0  0
 15 43  1  0  0  0  0
 15 44  1  0  0  0  0
 16 17  1  0  0  0  0
 16 45  1  0  0  0  0
 16 46  1  0  0  0  0
 17 29  1  0  0  0  0
 17 18  1  0  0  0  0
 17 23  1  0  0  0  0
 18 19  1  0  0  0  0
 18 20  1  0  0  0  0
 18 59  1  0  0  0  0
 19 47  1  0  0  0  0
 19 48  1  0  0  0  0
 19 49  1  0  0  0  0
 20 21  1  0  0  0  0
 20 50  1  0  0  0  0
 20 51  1  0  0  0  0
 21 22  1  0  0  0  0
 21 52  1  0  0  0  0
 21 53  1  0  0  0  0
 22 54  1  0  0  0  0
 23 30  1  0  0  0  0
 23 24  1  0  0  0  0
 24 55  1  0  0  0  0
 24 56  1  0  0  0  0
 24 57  1  0  0  0  0
 25 26  1  0  0  0  0
 26 27  2  0  0  0  0
 26 58  1  0  0  0  0
 27 28  1  0  0  0  0
M  CHG  1  18   1
M  END
> <s_m_source_file>
AV-unprocessed.smi

> <i_m_source_file_index>
290

> <i_lp_mmshare_version>
43012

> <i_f3d_flags>
0

> <s_epik_input>
W0NIMl0xW0NIMl1PW0NAQEhdKFtDSDNdKVtDQEBdMShbT0hdKVtDSDJdbihbY0hdbjIpYyhjMjMpbltjSF1uYzNONFtDSDJdW0NIMl1bQ0BIXShbQ0BIXTRbQ0gzXSlOKFtDSDNdKVtDSDJdW0NIMl1bT0hd

> <s_epik_cmdline>
J2VwaWtfcHl0aG9uJywgJy1waCcsICc3LjAnLCAnLXRuJywgJzgnLCAnLW1hJywgJzIwMCcsICctbWV0YWxfYmluZGluZycsICctaW1hZScsICc8aW5maWxlLm1hZT4nLCAnLW9tYWUnLCAnPG91dGZpbGUubWFlPic=

> <r_lp_tautomer_probability>
1

> <r_epik_Ionization_Penalty>
0.0036983

> <r_epik_Ionization_Penalty_Charging>
0.0032725

> <r_epik_Ionization_Penalty_Neutral>
0.000425798

> <r_epik_State_Penalty>
-0

> <r_epik_Charging_Adjusted_Penalty>
0.0032725

> <i_epik_Tot_Q>
1

> <i_epik_Tot_abs_Q>
1

> <r_epik_Metal_State_Penalty>
-0

> <b_epik_Metal_Only>
0

> <s_lp_Force_Field>
OPLS_2005

> <r_lp_Energy>
69.2508

> <b_lp_Chiralities_Consistent>
1

> <s_lp_Variant>
AV-unprocessed.smi:290-9

> <Gold.Version>
5.8.1

> <Gold.Id.Protein>
6NUR|6NUR_protein|mol2

> <Gold.PLP.Fitness>
42.5177

> <Gold.PLP.PLP>
-38.6605

> <Gold.PLP.part.hbond>
-2.8008

> <Gold.PLP.part.metal>
0.0000

> <Gold.PLP.part.buried>
-0.7999

> <Gold.PLP.part.nonpolar>
-36.7499

> <Gold.PLP.part.repulsive>
1.1821

> <Gold.PLP.ligand.clash>
0.0000

> <Gold.PLP.ligand.torsion>
1.1586

> <Gold.PLP.Chemscore.Hbond>
2.0000

> <Gold.PLP.Chemscore.CHOScore>
0.0000

> <Gold.PLP.Chemscore.Metal>
0.0000

> <Gold.Chemscore.Hbonds>
donor molecule, donor type, donor heavy atom, donor atom, acceptor molecule, acceptor atom, score
      L1  H     7    39       P1  8028  1.00
      L1  H    22    54       P1  7921  1.00

> <Gold.PLP.Chemscore.Internal.Correction>
0.1744

> <Gold.Rescore>
     Score         DG    S(hbond)    S(metal)    S(lipo)     H(rot)  DE(clash)    DE(int)     intcor
      7.31     -11.94       1.66        0.00      88.11       3.67       0.88       3.74       ----

> <Gold.Chemscore.Fitness>
7.3130

> <Gold.Chemscore.DG>
-11.9394

> <Gold.Chemscore.ZeroCoef>
-5.4800

> <Gold.Chemscore.Hbond>
1.6571

> <Gold.Chemscore.Metal>
0.0000

> <Gold.Chemscore.Lipo>
88.1136

> <Gold.Chemscore.Internal_Hbond>
0.0000

> <Gold.Chemscore.DEClash>
0.8847

> <Gold.Chemscore.DEInternal>
3.7418

> <Gold.Chemscore.Rot>
3.6658

> <Gold.Chemscore.Internal.Correction>
   9.000000E+99

> <Gold.Chemscore.Hbonds>
donor molecule, donor type, donor heavy atom, donor atom, acceptor molecule, acceptor atom, score
      L1  H     7    39       P1  8028  0.60
      L1  H    22    54       P1  7921  0.98

> <Gold.Chemscore.Hbond.Weighted>
-5.5346

> <Gold.Chemscore.Metal.Weighted>
-0.0000

> <Gold.Chemscore.Lipo.Weighted>
-10.3093

> <Gold.Chemscore.Internal_Hbond.Weighted>
0.0000

> <Gold.Chemscore.DEClash.Weighted>
0.8847

> <Gold.Chemscore.DEInternal.Weighted>
3.7418

> <Gold.Chemscore.Rot.Weighted>
9.3844

> <Gold.Chemscore.Internal.Correction.Weighted>
   9.000000E+99

> <Gold.Protein.RotatedTorsions>
[ 6907 6896 6895 6894 ] final  175.78 input  -60.11 | X-H torsion
[ 7974 7965 7964 7962 ] final -156.89 input  175.53 | X-H torsion
[ 8008 7997 7996 7995 ] final  -15.55 input   59.86 | X-H torsion
[ 10167 10162 10161 10158 ] final   46.10 input  -65.29 | X-H torsion
[ 10718 10713 10712 10709 ] final  108.23 input   66.30 | X-H torsion
[ 10763 10752 10751 10750 ] final  -82.50 input  -60.55 | X-H torsion
[ 11005 11000 10999 10996 ] final   75.81 input  -57.11 | X-H torsion

> <Gold.Protein.ActiveResidues>
 VAL166  LYS551  ARG553  GLY616  TRP617  ASP618  TYR619  PRO620  LYS621  CYS622 
 ASP623  PHE694  ASN695  SER759  ASP760  ASP761  ALA762  ILE779  LEU786  VAL792 
 PHE793  MET794  SER795  GLU796  ALA797  LYS798  CYS799  TRP800  GLU811  SER814 

> <Gold.Protein.RotatedAtoms>
  151.7308  133.3317  159.3339 H   0  0  0  0  0  0  0  0  0  0  0  0  # atno 6907 bound_to 6896
  150.7613  134.6365  159.6223 H   0  0  0  0  0  0  0  0  0  0  0  0  # atno 6908 bound_to 6896
  152.3593  134.6897  160.0264 H   0  0  0  0  0  0  0  0  0  0  0  0  # atno 6909 bound_to 6896
  144.7572  140.4046  143.6003 H   0  0  0  0  0  0  0  0  0  0  0  0  # atno 7974 bound_to 7965
  154.5121  140.2193  155.9135 H   0  0  0  0  0  0  0  0  0  0  0  0  # atno 8008 bound_to 7997
  156.1565  140.3151  155.8701 H   0  0  0  0  0  0  0  0  0  0  0  0  # atno 8009 bound_to 7997
  155.3836  140.0474  157.3033 H   0  0  0  0  0  0  0  0  0  0  0  0  # atno 8010 bound_to 7997
  140.3174  144.2747  150.6189 H   0  0  0  0  0  0  0  0  0  0  0  0  # atno 10167 bound_to 10162
  157.6595  131.0889  150.6275 H   0  0  0  0  0  0  0  0  0  0  0  0  # atno 10718 bound_to 10713
  154.5765  135.5589  153.7145 H   0  0  0  0  0  0  0  0  0  0  0  0  # atno 10763 bound_to 10752
  153.0066  135.6310  154.2041 H   0  0  0  0  0  0  0  0  0  0  0  0  # atno 10764 bound_to 10752
  154.1982  135.2879  155.2979 H   0  0  0  0  0  0  0  0  0  0  0  0  # atno 10765 bound_to 10752
  139.9326  134.7549  156.1317 H   0  0  0  0  0  0  0  0  0  0  0  0  # atno 11005 bound_to 11000
  145.6738  139.1604  143.2739 LP  0  0  0  0  0  0  0  0  0  0  0  0  # atno 17320 bound_to 7965
  146.1596  140.6807  142.9283 LP  0  0  0  0  0  0  0  0  0  0  0  0  # atno 17321 bound_to 7965
  140.5514  143.2206  151.7920 LP  0  0  0  0  0  0  0  0  0  0  0  0  # atno 17342 bound_to 10162
  139.4881  144.4471  151.9697 LP  0  0  0  0  0  0  0  0  0  0  0  0  # atno 17343 bound_to 10162
  156.6579  130.4504  149.5697 LP  0  0  0  0  0  0  0  0  0  0  0  0  # atno 17370 bound_to 10713
  156.2089  130.6666  151.1248 LP  0  0  0  0  0  0  0  0  0  0  0  0  # atno 17371 bound_to 10713
  141.0924  133.6709  156.2569 LP  0  0  0  0  0  0  0  0  0  0  0  0  # atno 17394 bound_to 11000
  140.6160  134.5410  157.5540 LP  0  0  0  0  0  0  0  0  0  0  0  0  # atno 17395 bound_to 11000

$$$$
