AV-unprocessed.smi:818|AV-procd|sdf|3833|dock1
  -GOLD-   22720 1273D 1   1.00000     0.00000
 Structure written by MMmdl.
 44 45  0  0  0  0  0  0  0  0  1 V2000
  152.0669  145.8752  160.0303 C   0  0  0  0  0  0  0  0  0  0  0  0
  150.8722  144.9177  159.9461 C   0  0  0  0  0  0  0  0  0  0  0  0
  151.1939  143.7265  159.1855 N   0  0  0  0  0  0  0  0  0  0  0  0
  150.5914  143.2605  158.0339 C   0  0  0  0  0  0  0  0  0  0  0  0
  151.2440  142.1082  157.7135 C   0  0  0  0  0  0  0  0  0  0  0  0
  150.9404  141.2902  156.5971 N   0  0  0  0  0  0  0  0  0  0  0  0
  151.4833  140.1015  156.2889 C   0  0  0  0  0  0  0  0  0  0  0  0
  152.3818  139.5466  156.9217 O   0  0  0  0  0  0  0  0  0  0  0  0
  150.9223  139.5829  155.1867 N   0  0  0  0  0  0  0  0  0  0  0  0
  151.2928  138.3108  154.5680 C   0  0  1  0  0  0  0  0  0  0  0  0
  152.8280  138.2212  154.5573 C   0  0  0  0  0  0  0  0  0  0  0  0
  150.7571  137.1250  155.3874 C   0  0  0  0  0  0  0  0  0  0  0  0
  151.1027  136.9593  156.5585 O   0  0  0  0  0  0  0  0  0  0  0  0
  149.9231  136.2946  154.7431 N   0  0  0  0  0  0  0  0  0  0  0  0
  149.3153  135.0969  155.3166 C   0  0  0  0  0  0  0  0  0  0  0  0
  150.3968  134.0851  155.7420 C   0  0  0  0  0  0  0  0  0  0  0  0
  149.9656  132.7351  155.1659 C   0  0  0  0  0  0  0  0  0  0  0  0
  149.1809  133.0942  153.9081 C   0  0  0  0  0  0  0  0  0  0  0  0
  148.4268  134.3690  154.2884 C   0  0  0  0  0  0  0  0  0  0  0  0
  152.2361  141.9307  158.7192 C   0  0  0  0  0  0  0  0  0  0  0  0
  152.1959  142.9150  159.6047 N   0  0  0  0  0  0  0  0  0  0  0  0
  151.8109  146.7642  160.6069 H   0  0  0  0  0  0  0  0  0  0  0  0
  152.3822  146.2019  159.0389 H   0  0  0  0  0  0  0  0  0  0  0  0
  152.9204  145.3988  160.5137 H   0  0  0  0  0  0  0  0  0  0  0  0
  150.5580  144.6182  160.9465 H   0  0  0  0  0  0  0  0  0  0  0  0
  150.0189  145.4141  159.4815 H   0  0  0  0  0  0  0  0  0  0  0  0
  149.7706  143.7766  157.5578 H   0  0  0  0  0  0  0  0  0  0  0  0
  150.2269  141.6405  155.9749 H   0  0  0  0  0  0  0  0  0  0  0  0
  150.1971  140.1143  154.7279 H   0  0  0  0  0  0  0  0  0  0  0  0
  150.9135  138.2645  153.5452 H   0  0  0  0  0  0  0  0  0  0  0  0
  153.1682  137.2940  154.0944 H   0  0  0  0  0  0  0  0  0  0  0  0
  153.2449  138.2633  155.5647 H   0  0  0  0  0  0  0  0  0  0  0  0
  153.2614  139.0437  153.9873 H   0  0  0  0  0  0  0  0  0  0  0  0
  149.6933  136.5062  153.7829 H   0  0  0  0  0  0  0  0  0  0  0  0
  148.7150  135.3691  156.1869 H   0  0  0  0  0  0  0  0  0  0  0  0
  151.3662  134.3568  155.3205 H   0  0  0  0  0  0  0  0  0  0  0  0
  150.5191  134.0451  156.8250 H   0  0  0  0  0  0  0  0  0  0  0  0
  150.8102  132.0765  154.9617 H   0  0  0  0  0  0  0  0  0  0  0  0
  149.3099  132.2258  155.8732 H   0  0  0  0  0  0  0  0  0  0  0  0
  149.8722  133.3050  153.0908 H   0  0  0  0  0  0  0  0  0  0  0  0
  148.5155  132.2932  153.5847 H   0  0  0  0  0  0  0  0  0  0  0  0
  147.4814  134.0990  154.7611 H   0  0  0  0  0  0  0  0  0  0  0  0
  148.1841  134.9761  153.4148 H   0  0  0  0  0  0  0  0  0  0  0  0
  152.9654  141.1445  158.8445 H   0  0  0  0  0  0  0  0  0  0  0  0
  1  2  1  0  0  0  0
  1 22  1  0  0  0  0
  1 23  1  0  0  0  0
  1 24  1  0  0  0  0
  2  3  1  0  0  0  0
  2 25  1  0  0  0  0
  2 26  1  0  0  0  0
  3 21  1  0  0  0  0
  3  4  1  0  0  0  0
  4  5  2  0  0  0  0
  4 27  1  0  0  0  0
  5  6  1  0  0  0  0
  5 20  1  0  0  0  0
  6  7  1  0  0  0  0
  6 28  1  0  0  0  0
  7  8  2  0  0  0  0
  7  9  1  0  0  0  0
  9 10  1  0  0  0  0
  9 29  1  0  0  0  0
 10 11  1  0  0  0  0
 10 12  1  0  0  0  0
 10 30  1  0  0  0  0
 11 31  1  0  0  0  0
 11 32  1  0  0  0  0
 11 33  1  0  0  0  0
 12 13  2  0  0  0  0
 12 14  1  0  0  0  0
 14 15  1  0  0  0  0
 14 34  1  0  0  0  0
 15 19  1  0  0  0  0
 15 16  1  0  0  0  0
 15 35  1  0  0  0  0
 16 17  1  0  0  0  0
 16 36  1  0  0  0  0
 16 37  1  0  0  0  0
 17 18  1  0  0  0  0
 17 38  1  0  0  0  0
 17 39  1  0  0  0  0
 18 19  1  0  0  0  0
 18 40  1  0  0  0  0
 18 41  1  0  0  0  0
 19 42  1  0  0  0  0
 19 43  1  0  0  0  0
 20 21  2  0  0  0  0
 20 44  1  0  0  0  0
M  END
> <s_m_source_file>
AV-unprocessed.smi

> <i_m_source_file_index>
818

> <i_lp_mmshare_version>
43012

> <i_f3d_flags>
0

> <s_epik_input>
W0NIM11bQ0gyXW4xW2NIXWMoW2NIXW4xKVtOSF1DKD1PKVtOSF1bQ0BIXShbQ0gzXSlDKD1PKVtOSF1bQ0hdMltDSDJdW0NIMl1bQ0gyXVtDSDJdMg==

> <s_epik_cmdline>
J2VwaWtfcHl0aG9uJywgJy1waCcsICc3LjAnLCAnLXRuJywgJzgnLCAnLW1hJywgJzIwMCcsICctbWV0YWxfYmluZGluZycsICctaW1hZScsICc8aW5maWxlLm1hZT4nLCAnLW9tYWUnLCAnPG91dGZpbGUubWFlPic=

> <r_lp_tautomer_probability>
1

> <r_epik_Ionization_Penalty>
0.00015627

> <r_epik_Ionization_Penalty_Charging>
0

> <r_epik_Ionization_Penalty_Neutral>
0.00015627

> <r_epik_State_Penalty>
-0

> <r_epik_Charging_Adjusted_Penalty>
0

> <i_epik_Tot_Q>
0

> <i_epik_Tot_abs_Q>
0

> <r_epik_Metal_State_Penalty>
-0

> <b_epik_Metal_Only>
0

> <s_lp_Force_Field>
OPLS_2005

> <r_lp_Energy>
21.9602

> <b_lp_Chiralities_Consistent>
1

> <s_lp_Variant>
AV-unprocessed.smi:818-2

> <Gold.Version>
5.8.1

> <Gold.Id.Protein>
6NUR|6NUR_protein|mol2

> <Gold.PLP.Fitness>
47.9991

> <Gold.PLP.PLP>
-39.4374

> <Gold.PLP.part.hbond>
-2.0000

> <Gold.PLP.part.metal>
0.0000

> <Gold.PLP.part.buried>
-6.2853

> <Gold.PLP.part.nonpolar>
-30.8633

> <Gold.PLP.part.repulsive>
0.2447

> <Gold.PLP.ligand.clash>
0.1081

> <Gold.PLP.ligand.torsion>
0.2151

> <Gold.PLP.Chemscore.Hbond>
2.0000

> <Gold.PLP.Chemscore.CHOScore>
1.0234

> <Gold.PLP.Chemscore.Metal>
0.0000

> <Gold.Chemscore.Hbonds>
donor molecule, donor type, donor heavy atom, donor atom, acceptor molecule, acceptor atom, score
      L1  H    14    34       P1  7948  0.96
      P1  H  7997  8008       L1     8  0.88
      L1  C     4    27       P1  8028  1.00

> <Gold.PLP.Chemscore.Internal.Correction>
0.0296

> <Gold.Rescore>
     Score         DG    S(hbond)    S(metal)    S(lipo)     H(rot)  DE(clash)    DE(int)     intcor
     14.52     -17.79       1.78        0.00      91.22       1.68       0.22       3.05       ----

> <Gold.Chemscore.Fitness>
14.5238

> <Gold.Chemscore.DG>
-17.7925

> <Gold.Chemscore.ZeroCoef>
-5.4800

> <Gold.Chemscore.Hbond>
1.7807

> <Gold.Chemscore.Metal>
0.0000

> <Gold.Chemscore.Lipo>
91.2222

> <Gold.Chemscore.Internal_Hbond>
0.0000

> <Gold.Chemscore.DEClash>
0.2190

> <Gold.Chemscore.DEInternal>
3.0497

> <Gold.Chemscore.Rot>
1.6828

> <Gold.Chemscore.Internal.Correction>
   9.000000E+99

> <Gold.Chemscore.Hbonds>
donor molecule, donor type, donor heavy atom, donor atom, acceptor molecule, acceptor atom, score
      L1  H    14    34       P1  7948  0.50
      P1  H  7997  8008       L1     8  0.82

> <Gold.Chemscore.Hbond.Weighted>
-5.9476

> <Gold.Chemscore.Metal.Weighted>
-0.0000

> <Gold.Chemscore.Lipo.Weighted>
-10.6730

> <Gold.Chemscore.Internal_Hbond.Weighted>
0.0000

> <Gold.Chemscore.DEClash.Weighted>
0.2190

> <Gold.Chemscore.DEInternal.Weighted>
3.0497

> <Gold.Chemscore.Rot.Weighted>
4.3081

> <Gold.Chemscore.Internal.Correction.Weighted>
   9.000000E+99

> <Gold.Protein.RotatedTorsions>
[ 6907 6896 6895 6894 ] final -111.12 input  -60.11 | X-H torsion
[ 7974 7965 7964 7962 ] final   37.71 input  175.53 | X-H torsion
[ 8008 7997 7996 7995 ] final  -51.93 input   59.86 | X-H torsion
[ 10167 10162 10161 10158 ] final -144.40 input  -65.29 | X-H torsion
[ 10718 10713 10712 10709 ] final   87.04 input   66.30 | X-H torsion
[ 10763 10752 10751 10750 ] final  -12.25 input  -60.55 | X-H torsion
[ 11005 11000 10999 10996 ] final   55.91 input  -57.11 | X-H torsion

> <Gold.Protein.ActiveResidues>
 VAL166  LYS551  ARG553  GLY616  TRP617  ASP618  TYR619  PRO620  LYS621  CYS622 
 ASP623  PHE694  ASN695  SER759  ASP760  ASP761  ALA762  ILE779  LEU786  VAL792 
 PHE793  MET794  SER795  GLU796  ALA797  LYS798  CYS799  TRP800  GLU811  SER814 

> <Gold.Protein.RotatedAtoms>
  150.7669  133.9282  159.3418 H   0  0  0  0  0  0  0  0  0  0  0  0  # atno 6907 bound_to 6896
  151.7178  135.0898  160.0288 H   0  0  0  0  0  0  0  0  0  0  0  0  # atno 6908 bound_to 6896
  152.3669  133.6331  159.6093 H   0  0  0  0  0  0  0  0  0  0  0  0  # atno 6909 bound_to 6896
  146.1117  139.5861  142.9348 H   0  0  0  0  0  0  0  0  0  0  0  0  # atno 7974 bound_to 7965
  154.4094  140.1236  156.4908 H   0  0  0  0  0  0  0  0  0  0  0  0  # atno 8008 bound_to 7997
  155.6992  140.3495  155.4906 H   0  0  0  0  0  0  0  0  0  0  0  0  # atno 8009 bound_to 7997
  155.9400  140.1085  157.1053 H   0  0  0  0  0  0  0  0  0  0  0  0  # atno 8010 bound_to 7997
  139.7902  143.7977  152.2649 H   0  0  0  0  0  0  0  0  0  0  0  0  # atno 10167 bound_to 10162
  157.6936  131.0239  150.3063 H   0  0  0  0  0  0  0  0  0  0  0  0  # atno 10718 bound_to 10713
  153.4957  135.7017  153.5859 H   0  0  0  0  0  0  0  0  0  0  0  0  # atno 10763 bound_to 10752
  153.4012  135.3871  155.1989 H   0  0  0  0  0  0  0  0  0  0  0  0  # atno 10764 bound_to 10752
  154.8714  135.3882  154.4423 H   0  0  0  0  0  0  0  0  0  0  0  0  # atno 10765 bound_to 10752
  140.0570  134.5656  155.9196 H   0  0  0  0  0  0  0  0  0  0  0  0  # atno 11005 bound_to 11000
  145.5650  141.0400  143.2205 LP  0  0  0  0  0  0  0  0  0  0  0  0  # atno 17320 bound_to 7965
  144.7517  139.7176  143.7270 LP  0  0  0  0  0  0  0  0  0  0  0  0  # atno 17321 bound_to 7965
  139.8066  144.7353  150.9754 LP  0  0  0  0  0  0  0  0  0  0  0  0  # atno 17342 bound_to 10162
  140.7820  143.4292  151.0720 LP  0  0  0  0  0  0  0  0  0  0  0  0  # atno 17343 bound_to 10162
  156.3571  130.3840  149.7281 LP  0  0  0  0  0  0  0  0  0  0  0  0  # atno 17370 bound_to 10713
  156.4740  130.8010  151.3026 LP  0  0  0  0  0  0  0  0  0  0  0  0  # atno 17371 bound_to 10713
  141.1956  133.6588  156.5653 LP  0  0  0  0  0  0  0  0  0  0  0  0  # atno 17394 bound_to 11000
  140.3828  134.7508  157.4672 LP  0  0  0  0  0  0  0  0  0  0  0  0  # atno 17395 bound_to 11000

$$$$
