AV-unprocessed.smi:2472|AV-procd|sdf|9741|dock3
  -GOLD-   2272013383D 1   1.00000     0.00000
 Structure written by MMmdl.
 47 49  0  0  0  0  0  0  0  0  1 V2000
  145.3824  135.6824  150.7437 C   0  0  0  0  0  0  0  0  0  0  0  0
  145.2335  134.1728  150.8129 C   0  0  0  0  0  0  0  0  0  0  0  0
  144.2312  133.5276  150.0565 C   0  0  0  0  0  0  0  0  0  0  0  0
  144.0333  132.1932  150.0641 N   0  0  0  0  0  0  0  0  0  0  0  0
  144.8375  131.4423  150.8443 C   0  0  0  0  0  0  0  0  0  0  0  0
  145.8685  131.9799  151.6388 C   0  0  0  0  0  0  0  0  0  0  0  0
  146.0865  133.3783  151.6167 C   0  0  0  0  0  0  0  0  0  0  0  0
  147.0887  134.0158  152.3996 N   0  0  0  0  0  0  0  0  0  0  0  0
  147.6836  133.5601  153.5149 C   0  0  0  0  0  0  0  0  0  0  0  0
  147.4397  132.4838  154.0601 O   0  0  0  0  0  0  0  0  0  0  0  0
  148.6224  134.4200  153.9492 N   0  0  0  0  0  0  0  0  0  0  0  0
  149.5218  134.2683  155.1085 C   0  0  0  0  0  0  0  0  0  0  0  0
  150.5466  135.4321  155.2395 C   0  0  0  0  0  0  0  0  0  0  0  0
  151.4194  135.3883  156.1077 O   0  0  0  0  0  0  0  0  0  0  0  0
  150.4338  136.4740  154.3995 N   0  0  0  0  0  0  0  0  0  0  0  0
  151.3108  137.6341  154.3814 C   0  0  0  0  0  0  0  0  0  0  0  0
  150.9618  138.6754  155.4239 C   0  0  0  0  0  0  0  0  0  0  0  0
  150.4333  140.0289  155.0118 C   0  0  0  0  0  0  0  0  0  0  0  0
  151.8153  139.9081  155.6083 C   0  0  0  0  0  0  0  0  0  0  0  0
  148.6545  134.2268  156.3899 C   0  0  0  0  0  0  0  0  0  0  0  0
  149.3232  133.2280  157.3318 C   0  0  0  0  0  0  0  0  0  0  0  0
  149.8588  132.1497  156.3993 C   0  0  0  0  0  0  0  0  0  0  0  0
  150.2268  132.8751  155.0986 C   0  0  0  0  0  0  0  0  0  0  0  0
  144.6711  136.1186  150.0414 H   0  0  0  0  0  0  0  0  0  0  0  0
  146.3868  135.9519  150.4165 H   0  0  0  0  0  0  0  0  0  0  0  0
  145.2057  136.1271  151.7234 H   0  0  0  0  0  0  0  0  0  0  0  0
  143.5652  134.0976  149.4255 H   0  0  0  0  0  0  0  0  0  0  0  0
  144.6498  130.3787  150.8408 H   0  0  0  0  0  0  0  0  0  0  0  0
  146.4595  131.3185  152.2538 H   0  0  0  0  0  0  0  0  0  0  0  0
  147.4608  134.8712  152.0141 H   0  0  0  0  0  0  0  0  0  0  0  0
  148.7408  135.2706  153.4188 H   0  0  0  0  0  0  0  0  0  0  0  0
  149.6955  136.4486  153.7114 H   0  0  0  0  0  0  0  0  0  0  0  0
  152.3421  137.3073  154.5232 H   0  0  0  0  0  0  0  0  0  0  0  0
  151.2592  138.1064  153.3992 H   0  0  0  0  0  0  0  0  0  0  0  0
  150.5195  138.2576  156.3267 H   0  0  0  0  0  0  0  0  0  0  0  0
  150.3629  140.2442  153.9472 H   0  0  0  0  0  0  0  0  0  0  0  0
  149.6564  140.4746  155.6300 H   0  0  0  0  0  0  0  0  0  0  0  0
  151.9597  140.2694  156.6244 H   0  0  0  0  0  0  0  0  0  0  0  0
  152.6636  140.0436  154.9404 H   0  0  0  0  0  0  0  0  0  0  0  0
  148.5313  135.2029  156.8626 H   0  0  0  0  0  0  0  0  0  0  0  0
  147.6505  133.8662  156.1588 H   0  0  0  0  0  0  0  0  0  0  0  0
  150.1491  133.7070  157.8591 H   0  0  0  0  0  0  0  0  0  0  0  0
  148.6364  132.8314  158.0801 H   0  0  0  0  0  0  0  0  0  0  0  0
  150.7033  131.6108  156.8297 H   0  0  0  0  0  0  0  0  0  0  0  0
  149.0721  131.4213  156.1987 H   0  0  0  0  0  0  0  0  0  0  0  0
  149.9293  132.2557  154.2519 H   0  0  0  0  0  0  0  0  0  0  0  0
  151.3111  132.9694  155.0241 H   0  0  0  0  0  0  0  0  0  0  0  0
  1  2  1  0  0  0  0
  1 24  1  0  0  0  0
  1 25  1  0  0  0  0
  1 26  1  0  0  0  0
  2  7  1  0  0  0  0
  2  3  2  0  0  0  0
  3  4  1  0  0  0  0
  3 27  1  0  0  0  0
  4  5  2  0  0  0  0
  5  6  1  0  0  0  0
  5 28  1  0  0  0  0
  6  7  2  0  0  0  0
  6 29  1  0  0  0  0
  7  8  1  0  0  0  0
  8  9  1  0  0  0  0
  8 30  1  0  0  0  0
  9 10  2  0  0  0  0
  9 11  1  0  0  0  0
 11 12  1  0  0  0  0
 11 31  1  0  0  0  0
 12 23  1  0  0  0  0
 12 13  1  0  0  0  0
 12 20  1  0  0  0  0
 13 14  2  0  0  0  0
 13 15  1  0  0  0  0
 15 16  1  0  0  0  0
 15 32  1  0  0  0  0
 16 17  1  0  0  0  0
 16 33  1  0  0  0  0
 16 34  1  0  0  0  0
 17 19  1  0  0  0  0
 17 18  1  0  0  0  0
 17 35  1  0  0  0  0
 18 19  1  0  0  0  0
 18 36  1  0  0  0  0
 18 37  1  0  0  0  0
 19 38  1  0  0  0  0
 19 39  1  0  0  0  0
 20 21  1  0  0  0  0
 20 40  1  0  0  0  0
 20 41  1  0  0  0  0
 21 22  1  0  0  0  0
 21 42  1  0  0  0  0
 21 43  1  0  0  0  0
 22 23  1  0  0  0  0
 22 44  1  0  0  0  0
 22 45  1  0  0  0  0
 23 46  1  0  0  0  0
 23 47  1  0  0  0  0
M  END
> <s_m_source_file>
AV-unprocessed.smi

> <i_m_source_file_index>
2472

> <i_lp_mmshare_version>
43012

> <i_f3d_flags>
0

> <s_epik_input>
W0NIM11jMVtjSF1uW2NIXVtjSF1jMVtOSF1DKD1PKVtOSF1DMihbQ0gyXVtDSDJdW0NIMl1bQ0gyXTIpQyg9TylbTkhdW0NIMl1bQ0hdM1tDSDJdW0NIMl0z

> <s_epik_cmdline>
J2VwaWtfcHl0aG9uJywgJy1waCcsICc3LjAnLCAnLXRuJywgJzgnLCAnLW1hJywgJzIwMCcsICctbWV0YWxfYmluZGluZycsICctaW1hZScsICc8aW5maWxlLm1hZT4nLCAnLW9tYWUnLCAnPG91dGZpbGUubWFlPic=

> <r_epik_Ionization_Penalty>
0.187836

> <r_epik_Ionization_Penalty_Charging>
0

> <r_epik_Ionization_Penalty_Neutral>
0.187836

> <r_epik_State_Penalty>
0.177409

> <r_epik_Charging_Adjusted_Penalty>
0.177409

> <i_epik_Tot_Q>
0

> <i_epik_Tot_abs_Q>
0

> <r_epik_Metal_State_Penalty>
0.134269

> <b_epik_Metal_Only>
0

> <s_lp_Force_Field>
OPLS_2005

> <r_lp_Energy>
32.7124

> <b_lp_Chiralities_Consistent>
1

> <s_lp_Variant>
AV-unprocessed.smi:2472-1

> <Gold.Version>
5.8.1

> <Gold.Id.Protein>
6NUR|6NUR_protein|mol2

> <Gold.PLP.Fitness>
55.1114

> <Gold.PLP.PLP>
-41.2631

> <Gold.PLP.part.hbond>
-5.0000

> <Gold.PLP.part.metal>
0.0000

> <Gold.PLP.part.buried>
-5.7504

> <Gold.PLP.part.nonpolar>
-31.7567

> <Gold.PLP.part.repulsive>
0.3428

> <Gold.PLP.ligand.clash>
0.0000

> <Gold.PLP.ligand.torsion>
0.8831

> <Gold.PLP.Chemscore.Hbond>
3.9920

> <Gold.PLP.Chemscore.CHOScore>
0.9999

> <Gold.PLP.Chemscore.Metal>
0.0000

> <Gold.Chemscore.Hbonds>
donor molecule, donor type, donor heavy atom, donor atom, acceptor molecule, acceptor atom, score
      L1  H     8    30       P1  7948  1.00
      L1  H    11    31       P1  7948  1.00
      L1  H    15    32       P1  7948  1.00
      P1  H 10752 10764       L1    14  1.00
      L1  C     3    27       P1 10186  0.89

> <Gold.PLP.Chemscore.Internal.Correction>
0.6386

> <Gold.Rescore>
     Score         DG    S(hbond)    S(metal)    S(lipo)     H(rot)  DE(clash)    DE(int)     intcor
     19.57     -22.82       3.09        0.00      95.00       1.59       0.06       3.19       ----

> <Gold.Chemscore.Fitness>
19.5738

> <Gold.Chemscore.DG>
-22.8217

> <Gold.Chemscore.ZeroCoef>
-5.4800

> <Gold.Chemscore.Hbond>
3.0860

> <Gold.Chemscore.Metal>
0.0000

> <Gold.Chemscore.Lipo>
95.0033

> <Gold.Chemscore.Internal_Hbond>
0.0000

> <Gold.Chemscore.DEClash>
0.0619

> <Gold.Chemscore.DEInternal>
3.1860

> <Gold.Chemscore.Rot>
1.5941

> <Gold.Chemscore.Internal.Correction>
   9.000000E+99

> <Gold.Chemscore.Hbonds>
donor molecule, donor type, donor heavy atom, donor atom, acceptor molecule, acceptor atom, score
      L1  H     8    30       P1  7948  0.78
      L1  H    11    31       P1  7948  0.76
      L1  H    15    32       P1  7948  0.48
      P1  H 10752 10764       L1    14  0.28

> <Gold.Chemscore.Hbond.Weighted>
-10.3072

> <Gold.Chemscore.Metal.Weighted>
-0.0000

> <Gold.Chemscore.Lipo.Weighted>
-11.1154

> <Gold.Chemscore.Internal_Hbond.Weighted>
0.0000

> <Gold.Chemscore.DEClash.Weighted>
0.0619

> <Gold.Chemscore.DEInternal.Weighted>
3.1860

> <Gold.Chemscore.Rot.Weighted>
4.0809

> <Gold.Chemscore.Internal.Correction.Weighted>
   9.000000E+99

> <Gold.Protein.RotatedTorsions>
[ 6907 6896 6895 6894 ] final  145.12 input  -60.11 | X-H torsion
[ 7974 7965 7964 7962 ] final -117.30 input  175.53 | X-H torsion
[ 8008 7997 7996 7995 ] final  -54.74 input   59.86 | X-H torsion
[ 10167 10162 10161 10158 ] final  -15.04 input  -65.29 | X-H torsion
[ 10718 10713 10712 10709 ] final  -16.80 input   66.30 | X-H torsion
[ 10763 10752 10751 10750 ] final  -33.94 input  -60.55 | X-H torsion
[ 11005 11000 10999 10996 ] final  148.90 input  -57.11 | X-H torsion

> <Gold.Protein.ActiveResidues>
 VAL166  LYS551  ARG553  GLY616  TRP617  ASP618  TYR619  PRO620  LYS621  CYS622 
 ASP623  PHE694  ASN695  SER759  ASP760  ASP761  ALA762  ILE779  LEU786  VAL792 
 PHE793  MET794  SER795  GLU796  ALA797  LYS798  CYS799  TRP800  GLU811  SER814 

> <Gold.Protein.RotatedAtoms>
  152.1849  133.4733  159.4977 H   0  0  0  0  0  0  0  0  0  0  0  0  # atno 6907 bound_to 6896
  150.6941  134.1786  159.4249 H   0  0  0  0  0  0  0  0  0  0  0  0  # atno 6908 bound_to 6896
  151.9698  135.0082  160.0603 H   0  0  0  0  0  0  0  0  0  0  0  0  # atno 6909 bound_to 6896
  145.0868  140.8463  143.4006 H   0  0  0  0  0  0  0  0  0  0  0  0  # atno 7974 bound_to 7965
  154.4172  140.1169  156.5364 H   0  0  0  0  0  0  0  0  0  0  0  0  # atno 8008 bound_to 7997
  155.6553  140.3496  155.4744 H   0  0  0  0  0  0  0  0  0  0  0  0  # atno 8009 bound_to 7997
  155.9758  140.1150  157.0761 H   0  0  0  0  0  0  0  0  0  0  0  0  # atno 8010 bound_to 7997
  140.7212  143.5259  150.9578 H   0  0  0  0  0  0  0  0  0  0  0  0  # atno 10167 bound_to 10162
  156.5825  130.4778  149.6314 H   0  0  0  0  0  0  0  0  0  0  0  0  # atno 10718 bound_to 10713
  153.8385  135.6860  153.4806 H   0  0  0  0  0  0  0  0  0  0  0  0  # atno 10763 bound_to 10752
  153.1468  135.4634  154.9576 H   0  0  0  0  0  0  0  0  0  0  0  0  # atno 10764 bound_to 10752
  154.7855  135.3283  154.7841 H   0  0  0  0  0  0  0  0  0  0  0  0  # atno 10765 bound_to 10752
  140.0999  134.8989  157.1780 H   0  0  0  0  0  0  0  0  0  0  0  0  # atno 11005 bound_to 11000
  145.1113  139.2755  143.5636 LP  0  0  0  0  0  0  0  0  0  0  0  0  # atno 17320 bound_to 7965
  146.3531  140.0709  142.8623 LP  0  0  0  0  0  0  0  0  0  0  0  0  # atno 17321 bound_to 7965
  139.8977  143.6874  152.3136 LP  0  0  0  0  0  0  0  0  0  0  0  0  # atno 17342 bound_to 10162
  139.7212  144.7602  151.0952 LP  0  0  0  0  0  0  0  0  0  0  0  0  # atno 17343 bound_to 10162
  156.2619  130.6967  151.1738 LP  0  0  0  0  0  0  0  0  0  0  0  0  # atno 17370 bound_to 10713
  157.7323  131.0601  150.5635 LP  0  0  0  0  0  0  0  0  0  0  0  0  # atno 17371 bound_to 10713
  140.3234  134.2890  155.7241 LP  0  0  0  0  0  0  0  0  0  0  0  0  # atno 17394 bound_to 11000
  141.2103  133.7724  156.9943 LP  0  0  0  0  0  0  0  0  0  0  0  0  # atno 17395 bound_to 11000

$$$$
