#       Name:                AV-unprocessed.smi:1670
#       Creating user name   scv26
#       Creation time:       Fri Mar 27 07:42:48 2020


#       File generated by GOLD software.
#

@<TRIPOS>MOLECULE
AV-unprocessed.smi:1670
    46    47     1
SMALL
NO_CHARGES


@<TRIPOS>ATOM
      1 ****        -3.2102  -2.7886  -1.7719 C.3            1 S1                 0.0000
      2 ****        -2.6444  -1.8518  -0.6961 C.3            1 S1                 0.0000
      3 ****        -2.9290  -2.3889   0.7233 C.3            1 S1                 0.0000
      4 ****        -2.5520  -1.4482   1.7641 N.pl3          1 S1                 0.0000
      5 ****        -3.2145  -0.3080   2.1671 C.2            1 S1                 0.0000
      6 ****        -2.4729   0.2630   3.1612 C.2            1 S1                 0.0000
      7 ****        -1.3604  -0.6136   3.2989 C.2            1 S1                 0.0000
      8 ****        -1.4131  -1.6399   2.4655 N.2            1 S1                 0.0000
      9 ****        -1.2073  -1.6897  -0.9141 N.am           1 S1                 0.0000
     10 ****        -0.5222  -0.5453  -0.7742 C.2            1 S1                 0.0000
     11 ****        -1.0375   0.5338  -0.4817 O.2            1 S1                 0.0000
     12 ****         0.7926  -0.7312  -0.9690 N.am           1 S1                 0.0000
     13 ****         1.8582   0.2638  -0.8382 C.3            1 S1                 0.0000
     14 ****         1.9879   0.8059   0.6021 C.3            1 S1                 0.0000
     15 ****         3.1670   1.7859   0.7153 C.3            1 S1                 0.0000
     16 ****         3.0360   2.9306  -0.3057 C.3            1 S1                 0.0000
     17 ****         4.1670   3.7711  -0.2171 O.3            1 S1                 0.0000
     18 ****         2.9111   2.3884  -1.7414 C.3            1 S1                 0.0000
     19 ****         1.7306   1.4114  -1.8631 C.3            1 S1                 0.0000
     20 ****        -4.2880  -2.9086  -1.6586 H              1 S1                 0.0000
     21 ****        -2.7574  -3.7792  -1.7160 H              1 S1                 0.0000
     22 ****        -3.0280  -2.3942  -2.7721 H              1 S1                 0.0000
     23 ****        -3.1465  -0.8896  -0.8125 H              1 S1                 0.0000
     24 ****        -3.9935  -2.5964   0.8365 H              1 S1                 0.0000
     25 ****        -2.4106  -3.3352   0.8880 H              1 S1                 0.0000
     26 ****        -4.1442   0.0014   1.7127 H              1 S1                 0.0000
     27 ****        -2.6904   1.1704   3.7045 H              1 S1                 0.0000
     28 ****        -0.5224  -0.5361   3.9759 H              1 S1                 0.0000
     29 ****        -0.6902  -2.5230  -1.1530 H              1 S1                 0.0000
     30 ****         1.0924  -1.6654  -1.2061 H              1 S1                 0.0000
     31 ****         2.7781  -0.2761  -1.0667 H              1 S1                 0.0000
     32 ****         1.0730   1.3166   0.9040 H              1 S1                 0.0000
     33 ****         2.1263  -0.0186   1.3026 H              1 S1                 0.0000
     34 ****         3.2152   2.1893   1.7274 H              1 S1                 0.0000
     35 ****         4.1016   1.2472   0.5514 H              1 S1                 0.0000
     36 ****         2.1548   3.5280  -0.0676 H              1 S1                 0.0000
     37 ****         4.9367   3.2602  -0.4157 H              1 S1                 0.0000
     38 ****         2.7813   3.2123  -2.4441 H              1 S1                 0.0000
     39 ****         3.8327   1.8790  -2.0274 H              1 S1                 0.0000
     40 ****         1.6904   1.0078  -2.8755 H              1 S1                 0.0000
     41 ****         0.8008   1.9600  -1.7114 H              1 S1                 0.0000
     42 ****        -0.7572  -2.3893   2.3750 LP             1 S1                 0.0000
     43 ****        -2.0246   0.5926  -0.3332 LP             1 S1                 0.0000
     44 ****        -0.4689   1.3516  -0.3927 LP             1 S1                 0.0000
     45 ****         4.2389   4.1435   0.7082 LP             1 S1                 0.0000
     46 ****         4.0818   4.5215  -0.8727 LP             1 S1                 0.0000
@<TRIPOS>BOND
    1    1    2 1     
    2    1   20 1     
    3    1   21 1     
    4    1   22 1     
    5    2    3 1     
    6    2    9 1     
    7    2   23 1     
    8    3    4 1     
    9    3   24 1     
   10    3   25 1     
   11    4    8 1     
   12    4    5 1     
   13    5    6 2     
   14    5   26 1     
   15    6    7 1     
   16    6   27 1     
   17    7    8 2     
   18    7   28 1     
   19    9   10 am    
   20    9   29 1     
   21   10   11 2     
   22   10   12 am    
   23   12   13 1     
   24   12   30 1     
   25   13   19 1     
   26   13   14 1     
   27   13   31 1     
   28   14   15 1     
   29   14   32 1     
   30   14   33 1     
   31   15   16 1     
   32   15   34 1     
   33   15   35 1     
   34   16   17 1     
   35   16   18 1     
   36   16   36 1     
   37   17   37 1     
   38   18   19 1     
   39   18   38 1     
   40   18   39 1     
   41   19   40 1     
   42   19   41 1     
   43    8   42 1     
   44   11   43 1     
   45   11   44 1     
   46   17   45 1     
   47   17   46 1     
@<TRIPOS>SUBSTRUCTURE
      1 S1             1
@<TRIPOS>SET
LONE_PAIRS      STATIC     ATOMS    <user>   **** ""
5 42 43 44 45 46
DONOR_HYDROGENS      STATIC     ATOMS    <user>   **** ""
3 29 30 37
ATOM$BLUE        STATIC     ATOMS    COLORGROUP SYSTEM
5 42 43 44 45 46
ATOM$RED        STATIC     ATOMS    COLORGROUP SYSTEM
3 29 30 37
