AV-unprocessed.smi:1560|AV-procd|sdf|6276|dock10
  -GOLD-   22720 6473D 1   1.00000     0.00000
 Structure written by MMmdl.
 47 48  0  0  0  0  0  0  0  0  1 V2000
  151.0137  134.6212  156.4329 C   0  0  0  0  0  0  0  0  0  0  0  0
  149.8979  134.9432  155.4225 C   0  0  0  0  0  0  0  0  0  0  0  0
  149.1164  136.2714  155.6807 C   0  0  2  0  0  0  0  0  0  0  0  0
  148.4574  136.1259  157.0805 C   0  0  0  0  0  0  0  0  0  0  0  0
  147.9819  136.3828  154.6140 C   0  0  0  0  0  0  0  0  0  0  0  0
  147.3281  135.1033  154.3622 N   0  0  0  0  0  0  0  0  0  0  0  0
  146.4249  134.8484  153.4026 C   0  0  0  0  0  0  0  0  0  0  0  0
  146.0112  135.7096  152.6274 O   0  0  0  0  0  0  0  0  0  0  0  0
  145.8977  133.4077  153.2797 C   0  0  0  0  0  0  0  0  0  0  0  0
  145.2491  133.1030  151.9925 N   0  0  0  0  0  0  0  0  0  0  0  0
  145.9377  132.3997  151.0141 C   0  0  0  0  0  0  0  0  0  0  0  0
  145.4183  132.1121  149.7973 C   0  0  0  0  0  0  0  0  0  0  0  0
  144.0689  132.5436  149.4494 C   0  0  0  0  0  0  0  0  0  0  0  0
  143.5127  132.3348  148.3737 O   0  0  0  0  0  0  0  0  0  0  0  0
  143.4076  133.2469  150.4598 N   0  0  0  0  0  0  0  0  0  0  0  0
  143.9364  133.5458  151.7163 C   0  0  0  0  0  0  0  0  0  0  0  0
  143.2710  134.1829  152.5315 O   0  0  0  0  0  0  0  0  0  0  0  0
  150.0319  137.4473  155.6517 N   0  0  0  0  0  0  0  0  0  0  0  0
  149.3831  138.7498  155.8426 C   0  0  0  0  0  0  0  0  0  0  0  0
  150.4065  139.8937  155.9432 C   0  0  0  0  0  0  0  0  0  0  0  0
  151.2244  139.9102  154.7797 O   0  0  0  0  0  0  0  0  0  0  0  0
  151.9167  138.6828  154.5845 C   0  0  0  0  0  0  0  0  0  0  0  0
  150.9056  137.5288  154.4745 C   0  0  0  0  0  0  0  0  0  0  0  0
  142.4699  133.5662  150.2635 H   0  0  0  0  0  0  0  0  0  0  0  0
  151.5038  133.6830  156.1723 H   0  0  0  0  0  0  0  0  0  0  0  0
  150.6248  134.5115  157.4446 H   0  0  0  0  0  0  0  0  0  0  0  0
  151.7816  135.3945  156.4499 H   0  0  0  0  0  0  0  0  0  0  0  0
  150.3222  134.9432  154.4186 H   0  0  0  0  0  0  0  0  0  0  0  0
  149.2088  134.0980  155.4226 H   0  0  0  0  0  0  0  0  0  0  0  0
  147.9785  135.1546  157.2117 H   0  0  0  0  0  0  0  0  0  0  0  0
  147.6824  136.8747  157.2458 H   0  0  0  0  0  0  0  0  0  0  0  0
  149.1882  136.2323  157.8827 H   0  0  0  0  0  0  0  0  0  0  0  0
  147.2068  137.0790  154.9335 H   0  0  0  0  0  0  0  0  0  0  0  0
  148.3810  136.7689  153.6756 H   0  0  0  0  0  0  0  0  0  0  0  0
  147.6089  134.3337  154.9524 H   0  0  0  0  0  0  0  0  0  0  0  0
  146.7345  132.7272  153.4437 H   0  0  0  0  0  0  0  0  0  0  0  0
  145.2108  133.2149  154.1058 H   0  0  0  0  0  0  0  0  0  0  0  0
  146.9439  132.0660  151.2259 H   0  0  0  0  0  0  0  0  0  0  0  0
  146.0057  131.5623  149.0761 H   0  0  0  0  0  0  0  0  0  0  0  0
  148.7045  138.9603  155.0161 H   0  0  0  0  0  0  0  0  0  0  0  0
  148.7864  138.7584  156.7531 H   0  0  0  0  0  0  0  0  0  0  0  0
  149.8955  140.8525  156.0321 H   0  0  0  0  0  0  0  0  0  0  0  0
  151.0282  139.7778  156.8326 H   0  0  0  0  0  0  0  0  0  0  0  0
  152.5121  138.7523  153.6742 H   0  0  0  0  0  0  0  0  0  0  0  0
  152.6106  138.5114  155.4088 H   0  0  0  0  0  0  0  0  0  0  0  0
  151.4665  136.6060  154.3387 H   0  0  0  0  0  0  0  0  0  0  0  0
  150.3119  137.6736  153.5720 H   0  0  0  0  0  0  0  0  0  0  0  0
  1  2  1  0  0  0  0
  1 25  1  0  0  0  0
  1 26  1  0  0  0  0
  1 27  1  0  0  0  0
  2  3  1  0  0  0  0
  2 28  1  0  0  0  0
  2 29  1  0  0  0  0
  3  4  1  0  0  0  0
  3  5  1  0  0  0  0
  3 18  1  0  0  0  0
  4 30  1  0  0  0  0
  4 31  1  0  0  0  0
  4 32  1  0  0  0  0
  5  6  1  0  0  0  0
  5 33  1  0  0  0  0
  5 34  1  0  0  0  0
  6  7  1  0  0  0  0
  6 35  1  0  0  0  0
  7  8  2  0  0  0  0
  7  9  1  0  0  0  0
  9 10  1  0  0  0  0
  9 36  1  0  0  0  0
  9 37  1  0  0  0  0
 10 16  1  0  0  0  0
 10 11  1  0  0  0  0
 11 12  2  0  0  0  0
 11 38  1  0  0  0  0
 12 13  1  0  0  0  0
 12 39  1  0  0  0  0
 13 14  2  0  0  0  0
 13 15  1  0  0  0  0
 15 24  1  0  0  0  0
 15 16  1  0  0  0  0
 16 17  2  0  0  0  0
 18 23  1  0  0  0  0
 18 19  1  0  0  0  0
 19 20  1  0  0  0  0
 19 40  1  0  0  0  0
 19 41  1  0  0  0  0
 20 21  1  0  0  0  0
 20 42  1  0  0  0  0
 20 43  1  0  0  0  0
 21 22  1  0  0  0  0
 22 23  1  0  0  0  0
 22 44  1  0  0  0  0
 22 45  1  0  0  0  0
 23 46  1  0  0  0  0
 23 47  1  0  0  0  0
M  END
> <s_m_source_file>
AV-unprocessed.smi

> <i_m_source_file_index>
1560

> <i_lp_mmshare_version>
43012

> <i_f3d_flags>
0

> <s_epik_input>
W0NIMl0xW0NIMl1PW0NIMl1bQ0gyXU4xW0NAQF0oW0NIM10pKFtDSDJdW0NIM10pW0NIMl1bTkhdQyg9TylbQ0gyXW4yW2NIXVtjSF1jKD1PKVtuSF1jMj1P

> <s_epik_cmdline>
J2VwaWtfcHl0aG9uJywgJy1waCcsICc3LjAnLCAnLXRuJywgJzgnLCAnLW1hJywgJzIwMCcsICctbWV0YWxfYmluZGluZycsICctaW1hZScsICc8aW5maWxlLm1hZT4nLCAnLW9tYWUnLCAnPG91dGZpbGUubWFlPic=

> <r_lp_tautomer_probability>
0.999537

> <r_epik_Ionization_Penalty>
0.321965

> <r_epik_Ionization_Penalty_Charging>
0.00329831

> <r_epik_Ionization_Penalty_Neutral>
0.318667

> <r_epik_State_Penalty>
0.288097

> <r_epik_Charging_Adjusted_Penalty>
0.291396

> <i_epik_Tot_Q>
0

> <i_epik_Tot_abs_Q>
0

> <r_epik_Metal_State_Penalty>
0.654595

> <b_epik_Metal_Only>
0

> <s_lp_Force_Field>
OPLS_2005

> <r_lp_Energy>
43.0709

> <b_lp_Chiralities_Consistent>
1

> <s_lp_Variant>
AV-unprocessed.smi:1560-2

> <Gold.Version>
5.8.1

> <Gold.Id.Protein>
6NUR|6NUR_protein|mol2

> <Gold.PLP.Fitness>
40.1828

> <Gold.PLP.PLP>
-31.7643

> <Gold.PLP.part.hbond>
-3.6301

> <Gold.PLP.part.metal>
0.0000

> <Gold.PLP.part.buried>
-5.5202

> <Gold.PLP.part.nonpolar>
-24.1759

> <Gold.PLP.part.repulsive>
1.5090

> <Gold.PLP.ligand.clash>
0.0000

> <Gold.PLP.ligand.torsion>
0.8151

> <Gold.PLP.Chemscore.Hbond>
2.3145

> <Gold.PLP.Chemscore.CHOScore>
1.0000

> <Gold.PLP.Chemscore.Metal>
0.0000

> <Gold.Chemscore.Hbonds>
donor molecule, donor type, donor heavy atom, donor atom, acceptor molecule, acceptor atom, score
      L1  H    15    24       P1 10186  1.00
      P1  H  7989  7998       L1    21  1.00
      P1  H 10785 10796       L1    14  0.26
      L1  C    11    38       P1 10747  0.95

> <Gold.PLP.Chemscore.Internal.Correction>
0.1051

> <Gold.Rescore>
     Score         DG    S(hbond)    S(metal)    S(lipo)     H(rot)  DE(clash)    DE(int)     intcor
     13.80     -14.84       2.83        0.00      53.69       2.49       0.26       0.78       ----

> <Gold.Chemscore.Fitness>
13.7953

> <Gold.Chemscore.DG>
-14.8358

> <Gold.Chemscore.ZeroCoef>
-5.4800

> <Gold.Chemscore.Hbond>
2.8259

> <Gold.Chemscore.Metal>
0.0000

> <Gold.Chemscore.Lipo>
53.6924

> <Gold.Chemscore.Internal_Hbond>
0.0000

> <Gold.Chemscore.DEClash>
0.2581

> <Gold.Chemscore.DEInternal>
0.7823

> <Gold.Chemscore.Rot>
2.4862

> <Gold.Chemscore.Internal.Correction>
   9.000000E+99

> <Gold.Chemscore.Hbonds>
donor molecule, donor type, donor heavy atom, donor atom, acceptor molecule, acceptor atom, score
      L1  H    15    24       P1 10186  1.00
      P1  H  7989  7998       L1    21  0.55
      P1  H 10785 10796       L1    14  0.04

> <Gold.Chemscore.Hbond.Weighted>
-9.4384

> <Gold.Chemscore.Metal.Weighted>
-0.0000

> <Gold.Chemscore.Lipo.Weighted>
-6.2820

> <Gold.Chemscore.Internal_Hbond.Weighted>
0.0000

> <Gold.Chemscore.DEClash.Weighted>
0.2581

> <Gold.Chemscore.DEInternal.Weighted>
0.7823

> <Gold.Chemscore.Rot.Weighted>
6.3646

> <Gold.Chemscore.Internal.Correction.Weighted>
   9.000000E+99

> <Gold.Protein.RotatedTorsions>
[ 6907 6896 6895 6894 ] final  -83.83 input  -60.11 | X-H torsion
[ 7974 7965 7964 7962 ] final -146.94 input  175.53 | X-H torsion
[ 8008 7997 7996 7995 ] final  116.64 input   59.86 | X-H torsion
[ 10167 10162 10161 10158 ] final    9.21 input  -65.29 | X-H torsion
[ 10718 10713 10712 10709 ] final  -33.41 input   66.30 | X-H torsion
[ 10763 10752 10751 10750 ] final  102.30 input  -60.55 | X-H torsion
[ 11005 11000 10999 10996 ] final  104.83 input  -57.11 | X-H torsion

> <Gold.Protein.ActiveResidues>
 VAL166  LYS551  ARG553  GLY616  TRP617  ASP618  TYR619  PRO620  LYS621  CYS622 
 ASP623  PHE694  ASN695  SER759  ASP760  ASP761  ALA762  ILE779  LEU786  VAL792 
 PHE793  MET794  SER795  GLU796  ALA797  LYS798  CYS799  TRP800  GLU811  SER814 

> <Gold.Protein.RotatedAtoms>
  150.6882  134.3452  159.4884 H   0  0  0  0  0  0  0  0  0  0  0  0  # atno 6907 bound_to 6896
  152.1300  134.9139  160.0568 H   0  0  0  0  0  0  0  0  0  0  0  0  # atno 6908 bound_to 6896
  152.0312  133.3903  159.4335 H   0  0  0  0  0  0  0  0  0  0  0  0  # atno 6909 bound_to 6896
  144.8126  140.5391  143.5632 H   0  0  0  0  0  0  0  0  0  0  0  0  # atno 7974 bound_to 7965
  156.2450  140.2913  156.0555 H   0  0  0  0  0  0  0  0  0  0  0  0  # atno 8008 bound_to 7997
  155.1834  140.0405  157.2904 H   0  0  0  0  0  0  0  0  0  0  0  0  # atno 8009 bound_to 7997
  154.6244  140.2484  155.7517 H   0  0  0  0  0  0  0  0  0  0  0  0  # atno 8010 bound_to 7997
  140.6269  143.8081  150.7244 H   0  0  0  0  0  0  0  0  0  0  0  0  # atno 10167 bound_to 10162
  156.3630  130.4327  149.7608 H   0  0  0  0  0  0  0  0  0  0  0  0  # atno 10718 bound_to 10713
  153.3378  135.4015  155.1547 H   0  0  0  0  0  0  0  0  0  0  0  0  # atno 10763 bound_to 10752
  154.8637  135.3626  154.5386 H   0  0  0  0  0  0  0  0  0  0  0  0  # atno 10764 bound_to 10752
  153.5828  135.7076  153.5515 H   0  0  0  0  0  0  0  0  0  0  0  0  # atno 10765 bound_to 10752
  139.8796  134.9314  156.5422 H   0  0  0  0  0  0  0  0  0  0  0  0  # atno 11005 bound_to 11000
  145.5288  139.1475  143.3511 LP  0  0  0  0  0  0  0  0  0  0  0  0  # atno 17320 bound_to 7965
  146.2426  140.5429  142.8927 LP  0  0  0  0  0  0  0  0  0  0  0  0  # atno 17321 bound_to 7965
  140.1684  143.4215  152.2018 LP  0  0  0  0  0  0  0  0  0  0  0  0  # atno 17342 bound_to 10162
  139.5488  144.7320  151.4500 LP  0  0  0  0  0  0  0  0  0  0  0  0  # atno 17343 bound_to 10162
  156.4765  130.8021  151.3037 LP  0  0  0  0  0  0  0  0  0  0  0  0  # atno 17370 bound_to 10713
  157.7475  131.0019  150.2981 LP  0  0  0  0  0  0  0  0  0  0  0  0  # atno 17371 bound_to 10713
  140.8302  133.8285  155.8977 LP  0  0  0  0  0  0  0  0  0  0  0  0  # atno 17394 bound_to 11000
  140.9336  134.1991  157.4847 LP  0  0  0  0  0  0  0  0  0  0  0  0  # atno 17395 bound_to 11000

$$$$
