AV-unprocessed.smi:2245|AV-procd|sdf|9081|dock9
  -GOLD-   2272012283D 1   1.00000     0.00000
 Structure written by MMmdl.
 45 46  0  0  0  0  0  0  0  0  2 V2000
  152.2489  144.2876  160.7411 C   0  0  0  0  0  0  0  0  0  0  0  0
  152.0893  143.1723  159.7293 C   0  0  0  0  0  0  0  0  0  0  0  0
  152.8379  141.9855  159.8430 C   0  0  0  0  0  0  0  0  0  0  0  0
  152.6509  140.9855  158.8686 C   0  0  0  0  0  0  0  0  0  0  0  0
  153.4203  139.6827  158.9314 C   0  0  0  0  0  0  0  0  0  0  0  0
  151.7900  141.1143  157.8367 N   0  0  0  0  0  0  0  0  0  0  0  0
  151.0637  142.2531  157.7169 C   0  0  0  0  0  0  0  0  0  0  0  0
  150.1348  142.4876  156.6683 N   0  0  0  0  0  0  0  0  0  0  0  0
  149.6327  141.6007  155.7911 C   0  0  0  0  0  0  0  0  0  0  0  0
  149.8911  140.3971  155.7661 O   0  0  0  0  0  0  0  0  0  0  0  0
  148.8005  142.1927  154.9220 N   0  0  0  0  0  0  0  0  0  0  0  0
  148.0826  141.5101  153.8498 C   0  0  0  0  0  0  0  0  0  0  0  0
  146.5593  141.7371  153.9222 C   0  0  1  0  0  0  0  0  0  0  0  0
  145.8787  141.0262  155.0904 C   0  0  0  0  0  0  0  0  0  0  0  0
  144.5849  141.8187  155.3220 C   0  0  0  0  0  0  0  0  0  0  0  0
  144.7347  143.1075  154.6030 N   0  3  1  0  0  0  0  0  0  0  0  0
  144.2677  144.3081  155.3375 C   0  0  0  0  0  0  0  0  0  0  0  0
  143.6530  145.3691  154.4075 C   0  0  0  0  0  0  0  0  0  0  0  0
  143.6761  146.5508  155.0217 F   0  0  0  0  0  0  0  0  0  0  0  0
  144.3636  145.4573  153.2833 F   0  0  0  0  0  0  0  0  0  0  0  0
  142.3890  145.0743  154.1059 F   0  0  0  0  0  0  0  0  0  0  0  0
  146.1331  143.1895  154.1366 C   0  0  0  0  0  0  0  0  0  0  0  0
  151.1919  143.3061  158.6504 C   0  0  0  0  0  0  0  0  0  0  0  0
  152.6304  143.9050  161.6883 H   0  0  0  0  0  0  0  0  0  0  0  0
  151.2922  144.7737  160.9333 H   0  0  0  0  0  0  0  0  0  0  0  0
  152.9468  145.0367  160.3665 H   0  0  0  0  0  0  0  0  0  0  0  0
  153.5364  141.8460  160.6552 H   0  0  0  0  0  0  0  0  0  0  0  0
  154.2076  139.7250  159.6847 H   0  0  0  0  0  0  0  0  0  0  0  0
  153.8837  139.4657  157.9684 H   0  0  0  0  0  0  0  0  0  0  0  0
  152.7493  138.8610  159.1829 H   0  0  0  0  0  0  0  0  0  0  0  0
  149.8221  143.4423  156.5734 H   0  0  0  0  0  0  0  0  0  0  0  0
  148.6387  143.1845  155.0191 H   0  0  0  0  0  0  0  0  0  0  0  0
  148.4678  141.8411  152.8839 H   0  0  0  0  0  0  0  0  0  0  0  0
  148.3070  140.4455  153.9215 H   0  0  0  0  0  0  0  0  0  0  0  0
  146.0963  141.3792  153.0010 H   0  0  0  0  0  0  0  0  0  0  0  0
  145.6931  139.9710  154.8869 H   0  0  0  0  0  0  0  0  0  0  0  0
  146.5053  141.0855  155.9816 H   0  0  0  0  0  0  0  0  0  0  0  0
  143.7237  141.2895  154.9134 H   0  0  0  0  0  0  0  0  0  0  0  0
  144.4126  141.9581  156.3899 H   0  0  0  0  0  0  0  0  0  0  0  0
  143.5639  144.0209  156.1204 H   0  0  0  0  0  0  0  0  0  0  0  0
  145.1267  144.7535  155.8416 H   0  0  0  0  0  0  0  0  0  0  0  0
  146.7525  143.6514  154.9077 H   0  0  0  0  0  0  0  0  0  0  0  0
  146.2155  143.7899  153.2298 H   0  0  0  0  0  0  0  0  0  0  0  0
  150.6083  144.2090  158.5426 H   0  0  0  0  0  0  0  0  0  0  0  0
  144.1715  143.0326  153.7675 H   0  0  0  0  0  0  0  0  0  0  0  0
  1  2  1  0  0  0  0
  1 24  1  0  0  0  0
  1 25  1  0  0  0  0
  1 26  1  0  0  0  0
  2 23  1  0  0  0  0
  2  3  2  0  0  0  0
  3  4  1  0  0  0  0
  3 27  1  0  0  0  0
  4  5  1  0  0  0  0
  4  6  2  0  0  0  0
  5 28  1  0  0  0  0
  5 29  1  0  0  0  0
  5 30  1  0  0  0  0
  6  7  1  0  0  0  0
  7  8  1  0  0  0  0
  7 23  2  0  0  0  0
  8  9  1  0  0  0  0
  8 31  1  0  0  0  0
  9 10  2  0  0  0  0
  9 11  1  0  0  0  0
 11 12  1  0  0  0  0
 11 32  1  0  0  0  0
 12 13  1  0  0  0  0
 12 33  1  0  0  0  0
 12 34  1  0  0  0  0
 13 22  1  0  0  0  0
 13 14  1  0  0  0  0
 13 35  1  0  0  0  0
 14 15  1  0  0  0  0
 14 36  1  0  0  0  0
 14 37  1  0  0  0  0
 15 16  1  0  0  0  0
 15 38  1  0  0  0  0
 15 39  1  0  0  0  0
 16 17  1  0  0  0  0
 16 22  1  0  0  0  0
 16 45  1  0  0  0  0
 17 18  1  0  0  0  0
 17 40  1  0  0  0  0
 17 41  1  0  0  0  0
 18 19  1  0  0  0  0
 18 20  1  0  0  0  0
 18 21  1  0  0  0  0
 22 42  1  0  0  0  0
 22 43  1  0  0  0  0
 23 44  1  0  0  0  0
M  CHG  1  16   1
M  END
> <s_m_source_file>
AV-unprocessed.smi

> <i_m_source_file_index>
2245

> <i_lp_mmshare_version>
43012

> <i_f3d_flags>
0

> <s_epik_input>
W0NIM11jMVtjSF1jKFtDSDNdKW5jKFtjSF0xKVtOSF1DKD1PKVtOSF1bQ0gyXVtDQEBIXTJbQ0gyXVtDSDJdTihbQ0gyXTIpW0NIMl1DKEYpKEYpRg==

> <s_epik_cmdline>
J2VwaWtfcHl0aG9uJywgJy1waCcsICc3LjAnLCAnLXRuJywgJzgnLCAnLW1hJywgJzIwMCcsICctbWV0YWxfYmluZGluZycsICctaW1hZScsICc8aW5maWxlLm1hZT4nLCAnLW9tYWUnLCAnPG91dGZpbGUubWFlPic=

> <r_epik_Ionization_Penalty>
0.628315

> <r_epik_Ionization_Penalty_Charging>
0.628113

> <r_epik_Ionization_Penalty_Neutral>
0.000202271

> <r_epik_State_Penalty>
0.644725

> <r_epik_Charging_Adjusted_Penalty>
1.27284

> <i_epik_Tot_Q>
1

> <i_epik_Tot_abs_Q>
1

> <r_epik_Metal_State_Penalty>
0.644752

> <b_epik_Metal_Only>
0

> <s_lp_Force_Field>
OPLS_2005

> <r_lp_Energy>
28.8991

> <b_lp_Chiralities_Consistent>
1

> <s_lp_Variant>
AV-unprocessed.smi:2245-6

> <Gold.Version>
5.8.1

> <Gold.Id.Protein>
6NUR|6NUR_protein|mol2

> <Gold.PLP.Fitness>
51.7893

> <Gold.PLP.PLP>
-45.4380

> <Gold.PLP.part.hbond>
-2.2325

> <Gold.PLP.part.metal>
0.0000

> <Gold.PLP.part.buried>
-2.2295

> <Gold.PLP.part.nonpolar>
-40.5140

> <Gold.PLP.part.repulsive>
0.3145

> <Gold.PLP.ligand.clash>
0.0000

> <Gold.PLP.ligand.torsion>
0.8278

> <Gold.PLP.Chemscore.Hbond>
2.5281

> <Gold.PLP.Chemscore.CHOScore>
0.0000

> <Gold.PLP.Chemscore.Metal>
0.0000

> <Gold.Chemscore.Hbonds>
donor molecule, donor type, donor heavy atom, donor atom, acceptor molecule, acceptor atom, score
      L1  H     8    31       P1  8028  1.00
      L1  H    11    32       P1  8028  1.00
      L1  H    16    45       P1 10174  0.49

> <Gold.PLP.Chemscore.Internal.Correction>
0.4226

> <Gold.Rescore>
     Score         DG    S(hbond)    S(metal)    S(lipo)     H(rot)  DE(clash)    DE(int)     intcor
     16.48     -19.28       1.93        0.00      98.34       1.61       0.70       2.10       ----

> <Gold.Chemscore.Fitness>
16.4842

> <Gold.Chemscore.DG>
-19.2834

> <Gold.Chemscore.ZeroCoef>
-5.4800

> <Gold.Chemscore.Hbond>
1.9251

> <Gold.Chemscore.Metal>
0.0000

> <Gold.Chemscore.Lipo>
98.3425

> <Gold.Chemscore.Internal_Hbond>
0.0000

> <Gold.Chemscore.DEClash>
0.7018

> <Gold.Chemscore.DEInternal>
2.0975

> <Gold.Chemscore.Rot>
1.6143

> <Gold.Chemscore.Internal.Correction>
   9.000000E+99

> <Gold.Chemscore.Hbonds>
donor molecule, donor type, donor heavy atom, donor atom, acceptor molecule, acceptor atom, score
      L1  H     8    31       P1  8028  0.95
      L1  H    11    32       P1  8028  0.99
      L1  H    16    45       P1 10174  0.02

> <Gold.Chemscore.Hbond.Weighted>
-6.4298

> <Gold.Chemscore.Metal.Weighted>
-0.0000

> <Gold.Chemscore.Lipo.Weighted>
-11.5061

> <Gold.Chemscore.Internal_Hbond.Weighted>
0.0000

> <Gold.Chemscore.DEClash.Weighted>
0.7018

> <Gold.Chemscore.DEInternal.Weighted>
2.0975

> <Gold.Chemscore.Rot.Weighted>
4.1325

> <Gold.Chemscore.Internal.Correction.Weighted>
   9.000000E+99

> <Gold.Protein.RotatedTorsions>
[ 6907 6896 6895 6894 ] final  -31.83 input  -60.11 | X-H torsion
[ 7974 7965 7964 7962 ] final -174.68 input  175.53 | X-H torsion
[ 8008 7997 7996 7995 ] final   25.99 input   59.86 | X-H torsion
[ 10167 10162 10161 10158 ] final   95.82 input  -65.29 | X-H torsion
[ 10718 10713 10712 10709 ] final    8.40 input   66.30 | X-H torsion
[ 10763 10752 10751 10750 ] final   22.14 input  -60.55 | X-H torsion
[ 11005 11000 10999 10996 ] final  -83.59 input  -57.11 | X-H torsion

> <Gold.Protein.ActiveResidues>
 VAL166  LYS551  ARG553  GLY616  TRP617  ASP618  TYR619  PRO620  LYS621  CYS622 
 ASP623  PHE694  ASN695  SER759  ASP760  ASP761  ALA762  ILE779  LEU786  VAL792 
 PHE793  MET794  SER795  GLU796  ALA797  LYS798  CYS799  TRP800  GLU811  SER814 

> <Gold.Protein.RotatedAtoms>
  151.0869  134.9892  159.8383 H   0  0  0  0  0  0  0  0  0  0  0  0  # atno 6907 bound_to 6896
  152.5425  134.2113  159.8761 H   0  0  0  0  0  0  0  0  0  0  0  0  # atno 6908 bound_to 6896
  151.2147  133.4492  159.2632 H   0  0  0  0  0  0  0  0  0  0  0  0  # atno 6909 bound_to 6896
  144.7131  140.1435  143.6390 H   0  0  0  0  0  0  0  0  0  0  0  0  # atno 7974 bound_to 7965
  155.0203  140.3147  155.4796 H   0  0  0  0  0  0  0  0  0  0  0  0  # atno 8008 bound_to 7997
  156.2893  140.2198  156.5263 H   0  0  0  0  0  0  0  0  0  0  0  0  # atno 8009 bound_to 7997
  154.7457  140.0470  157.0838 H   0  0  0  0  0  0  0  0  0  0  0  0  # atno 8010 bound_to 7997
  139.7953  144.6836  150.9838 H   0  0  0  0  0  0  0  0  0  0  0  0  # atno 10167 bound_to 10162
  156.9511  130.5897  149.5657 H   0  0  0  0  0  0  0  0  0  0  0  0  # atno 10718 bound_to 10713
  153.0939  135.6654  153.9801 H   0  0  0  0  0  0  0  0  0  0  0  0  # atno 10763 bound_to 10752
  153.9390  135.2996  155.3444 H   0  0  0  0  0  0  0  0  0  0  0  0  # atno 10764 bound_to 10752
  154.7356  135.5103  153.9109 H   0  0  0  0  0  0  0  0  0  0  0  0  # atno 10765 bound_to 10752
  141.1657  133.7302  156.8742 H   0  0  0  0  0  0  0  0  0  0  0  0  # atno 11005 bound_to 11000
  145.9180  139.2528  143.1398 LP  0  0  0  0  0  0  0  0  0  0  0  0  # atno 17320 bound_to 7965
  145.9649  140.8806  143.0192 LP  0  0  0  0  0  0  0  0  0  0  0  0  # atno 17321 bound_to 7965
  140.7820  143.4338  151.0654 LP  0  0  0  0  0  0  0  0  0  0  0  0  # atno 17342 bound_to 10162
  139.8013  143.8080  152.3163 LP  0  0  0  0  0  0  0  0  0  0  0  0  # atno 17343 bound_to 10162
  156.0362  130.5450  150.8660 LP  0  0  0  0  0  0  0  0  0  0  0  0  # atno 17370 bound_to 10713
  157.5721  131.0946  150.9401 LP  0  0  0  0  0  0  0  0  0  0  0  0  # atno 17371 bound_to 10713
  140.1760  134.9067  157.2891 LP  0  0  0  0  0  0  0  0  0  0  0  0  # atno 17394 bound_to 11000
  140.2448  134.3752  155.7465 LP  0  0  0  0  0  0  0  0  0  0  0  0  # atno 17395 bound_to 11000

$$$$
