AV-unprocessed.smi:1855|AV-procd|sdf|7532|dock2
  -GOLD-   22720 9243D 1   1.00000     0.00000
 Structure written by MMmdl.
 44 46  0  0  0  0  0  0  0  0  2 V2000
  146.9043  137.8583  163.3470 C   0  0  0  0  0  0  0  0  0  0  0  0
  147.4401  137.3440  162.1373 O   0  0  0  0  0  0  0  0  0  0  0  0
  147.2928  135.9970  161.8756 C   0  0  0  0  0  0  0  0  0  0  0  0
  146.6159  135.0964  162.7364 C   0  0  0  0  0  0  0  0  0  0  0  0
  146.5112  133.7335  162.4029 C   0  0  0  0  0  0  0  0  0  0  0  0
  147.0780  133.2557  161.2088 C   0  0  0  0  0  0  0  0  0  0  0  0
  147.7518  134.1405  160.3475 C   0  0  0  0  0  0  0  0  0  0  0  0
  147.8644  135.5140  160.6765 C   0  0  0  0  0  0  0  0  0  0  0  0
  148.5066  136.4388  159.8835 O   0  0  0  0  0  0  0  0  0  0  0  0
  148.7996  136.1039  158.5348 C   0  0  0  0  0  0  0  0  0  0  0  0
  149.8988  137.0462  158.0227 C   0  0  0  0  0  0  0  0  0  0  0  0
  149.7105  137.3936  156.6043 N   0  0  0  0  0  0  0  0  0  0  0  0
  149.6132  136.5932  155.5031 C   0  0  0  0  0  0  0  0  0  0  0  0
  149.6606  135.0976  155.4613 C   0  0  0  0  0  0  0  0  0  0  0  0
  149.3785  134.5578  154.1367 N   0  0  0  0  0  0  0  0  0  0  0  0
  149.3965  133.2555  153.8188 C   0  0  0  0  0  0  0  0  0  0  0  0
  149.6420  132.3495  154.6131 O   0  0  0  0  0  0  0  0  0  0  0  0
  149.4672  137.4109  154.4220 N   0  3  0  0  0  0  0  0  0  0  0  0
  149.4789  138.7442  154.8314 C   0  0  0  0  0  0  0  0  0  0  0  0
  149.3735  139.9225  154.0986 C   0  0  0  0  0  0  0  0  0  0  0  0
  149.4355  141.1285  154.8271 C   0  0  0  0  0  0  0  0  0  0  0  0
  149.5923  141.1322  156.2282 C   0  0  0  0  0  0  0  0  0  0  0  0
  149.6911  139.9310  156.9600 C   0  0  0  0  0  0  0  0  0  0  0  0
  149.6332  138.7421  156.2324 C   0  0  0  0  0  0  0  0  0  0  0  0
  147.1111  138.9269  163.4044 H   0  0  0  0  0  0  0  0  0  0  0  0
  147.3615  137.3871  164.2181 H   0  0  0  0  0  0  0  0  0  0  0  0
  145.8223  137.7286  163.3908 H   0  0  0  0  0  0  0  0  0  0  0  0
  146.1671  135.4268  163.6607 H   0  0  0  0  0  0  0  0  0  0  0  0
  145.9936  133.0544  163.0641 H   0  0  0  0  0  0  0  0  0  0  0  0
  146.9947  132.2100  160.9519 H   0  0  0  0  0  0  0  0  0  0  0  0
  148.1709  133.7430  159.4357 H   0  0  0  0  0  0  0  0  0  0  0  0
  149.1475  135.0719  158.4659 H   0  0  0  0  0  0  0  0  0  0  0  0
  147.9062  136.2033  157.9170 H   0  0  0  0  0  0  0  0  0  0  0  0
  149.9029  137.9695  158.6012 H   0  0  0  0  0  0  0  0  0  0  0  0
  150.8860  136.6033  158.1540 H   0  0  0  0  0  0  0  0  0  0  0  0
  150.6579  134.7731  155.7588 H   0  0  0  0  0  0  0  0  0  0  0  0
  148.9706  134.6752  156.1924 H   0  0  0  0  0  0  0  0  0  0  0  0
  149.1663  135.2218  153.4062 H   0  0  0  0  0  0  0  0  0  0  0  0
  149.1617  133.1080  152.7535 H   0  0  0  0  0  0  0  0  0  0  0  0
  149.2558  139.9222  153.0251 H   0  0  0  0  0  0  0  0  0  0  0  0
  149.3634  142.0692  154.3011 H   0  0  0  0  0  0  0  0  0  0  0  0
  149.6399  142.0755  156.7528 H   0  0  0  0  0  0  0  0  0  0  0  0
  149.8200  139.9471  158.0320 H   0  0  0  0  0  0  0  0  0  0  0  0
  149.3722  137.0769  153.4717 H   0  0  0  0  0  0  0  0  0  0  0  0
  1  2  1  0  0  0  0
  1 25  1  0  0  0  0
  1 26  1  0  0  0  0
  1 27  1  0  0  0  0
  2  3  1  0  0  0  0
  3  8  1  0  0  0  0
  3  4  2  0  0  0  0
  4  5  1  0  0  0  0
  4 28  1  0  0  0  0
  5  6  2  0  0  0  0
  5 29  1  0  0  0  0
  6  7  1  0  0  0  0
  6 30  1  0  0  0  0
  7  8  2  0  0  0  0
  7 31  1  0  0  0  0
  8  9  1  0  0  0  0
  9 10  1  0  0  0  0
 10 11  1  0  0  0  0
 10 32  1  0  0  0  0
 10 33  1  0  0  0  0
 11 12  1  0  0  0  0
 11 34  1  0  0  0  0
 11 35  1  0  0  0  0
 12 24  1  0  0  0  0
 12 13  1  0  0  0  0
 13 14  1  0  0  0  0
 13 18  2  0  0  0  0
 14 15  1  0  0  0  0
 14 36  1  0  0  0  0
 14 37  1  0  0  0  0
 15 16  1  0  0  0  0
 15 38  1  0  0  0  0
 16 17  2  0  0  0  0
 16 39  1  0  0  0  0
 18 19  1  0  0  0  0
 18 44  1  0  0  0  0
 19 24  2  0  0  0  0
 19 20  1  0  0  0  0
 20 21  2  0  0  0  0
 20 40  1  0  0  0  0
 21 22  1  0  0  0  0
 21 41  1  0  0  0  0
 22 23  2  0  0  0  0
 22 42  1  0  0  0  0
 23 24  1  0  0  0  0
 23 43  1  0  0  0  0
M  CHG  1  18   1
M  END
> <s_m_source_file>
AV-unprocessed.smi

> <i_m_source_file_index>
1855

> <i_lp_mmshare_version>
43012

> <i_f3d_flags>
0

> <s_epik_input>
W0NIM11PYzFbY0hdW2NIXVtjSF1bY0hdYzFPW0NIMl1bQ0gyXW4oYyhuMilbQ0gyXVtOSF1bQ0hdPU8pYyhjMjMpW2NIXVtjSF1bY0hdW2NIXTM=

> <s_epik_cmdline>
J2VwaWtfcHl0aG9uJywgJy1waCcsICc3LjAnLCAnLXRuJywgJzgnLCAnLW1hJywgJzIwMCcsICctbWV0YWxfYmluZGluZycsICctaW1hZScsICc8aW5maWxlLm1hZT4nLCAnLW9tYWUnLCAnPG91dGZpbGUubWFlPic=

> <r_lp_tautomer_probability>
1

> <r_epik_Ionization_Penalty>
1.39865

> <r_epik_Ionization_Penalty_Charging>
1.39865

> <r_epik_Ionization_Penalty_Neutral>
7.38905e-08

> <r_epik_State_Penalty>
1.48061

> <r_epik_Charging_Adjusted_Penalty>
2.87925

> <i_epik_Tot_Q>
1

> <i_epik_Tot_abs_Q>
1

> <r_epik_Metal_State_Penalty>
1.53473

> <b_epik_Metal_Only>
0

> <s_lp_Force_Field>
OPLS_2005

> <r_lp_Energy>
17.0983

> <b_lp_Chiralities_Consistent>
1

> <s_lp_Variant>
AV-unprocessed.smi:1855-2

> <Gold.Version>
5.8.1

> <Gold.Id.Protein>
6NUR|6NUR_protein|mol2

> <Gold.PLP.Fitness>
51.5158

> <Gold.PLP.PLP>
-39.8822

> <Gold.PLP.part.hbond>
-4.0000

> <Gold.PLP.part.metal>
0.0000

> <Gold.PLP.part.buried>
-1.3067

> <Gold.PLP.part.nonpolar>
-33.5858

> <Gold.PLP.part.repulsive>
0.0588

> <Gold.PLP.ligand.clash>
0.0000

> <Gold.PLP.ligand.torsion>
0.5911

> <Gold.PLP.Chemscore.Hbond>
4.2143

> <Gold.PLP.Chemscore.CHOScore>
0.0000

> <Gold.PLP.Chemscore.Metal>
0.0000

> <Gold.Chemscore.Hbonds>
donor molecule, donor type, donor heavy atom, donor atom, acceptor molecule, acceptor atom, score
      L1  H    15    38       P1  7948  1.00
      L1  H    18    44       P1  7948  2.00
      P1  H  6931  6943       L1     2  0.82
      P1  H  6934  6947       L1     2  0.50

> <Gold.PLP.Chemscore.Internal.Correction>
0.1728

> <Gold.Rescore>
     Score         DG    S(hbond)    S(metal)    S(lipo)     H(rot)  DE(clash)    DE(int)     intcor
     16.29     -17.75       2.32        0.00     100.02       2.81       0.82       0.64       ----

> <Gold.Chemscore.Fitness>
16.2872

> <Gold.Chemscore.DG>
-17.7508

> <Gold.Chemscore.ZeroCoef>
-5.4800

> <Gold.Chemscore.Hbond>
2.3247

> <Gold.Chemscore.Metal>
0.0000

> <Gold.Chemscore.Lipo>
100.0156

> <Gold.Chemscore.Internal_Hbond>
0.0000

> <Gold.Chemscore.DEClash>
0.8236

> <Gold.Chemscore.DEInternal>
0.6400

> <Gold.Chemscore.Rot>
2.8108

> <Gold.Chemscore.Internal.Correction>
   9.000000E+99

> <Gold.Chemscore.Hbonds>
donor molecule, donor type, donor heavy atom, donor atom, acceptor molecule, acceptor atom, score
      L1  H    15    38       P1  7948  0.26
      L1  H    18    44       P1  7948  0.96
      P1  H  6931  6943       L1     2  0.36
      P1  H  6934  6947       L1     2  0.10

> <Gold.Chemscore.Hbond.Weighted>
-7.7645

> <Gold.Chemscore.Metal.Weighted>
-0.0000

> <Gold.Chemscore.Lipo.Weighted>
-11.7018

> <Gold.Chemscore.Internal_Hbond.Weighted>
0.0000

> <Gold.Chemscore.DEClash.Weighted>
0.8236

> <Gold.Chemscore.DEInternal.Weighted>
0.6400

> <Gold.Chemscore.Rot.Weighted>
7.1955

> <Gold.Chemscore.Internal.Correction.Weighted>
   9.000000E+99

> <Gold.Protein.RotatedTorsions>
[ 6907 6896 6895 6894 ] final  -88.91 input  -60.11 | X-H torsion
[ 7974 7965 7964 7962 ] final   30.08 input  175.53 | X-H torsion
[ 8008 7997 7996 7995 ] final -112.13 input   59.86 | X-H torsion
[ 10167 10162 10161 10158 ] final  149.49 input  -65.29 | X-H torsion
[ 10718 10713 10712 10709 ] final    1.30 input   66.30 | X-H torsion
[ 10763 10752 10751 10750 ] final   33.26 input  -60.55 | X-H torsion
[ 11005 11000 10999 10996 ] final  140.25 input  -57.11 | X-H torsion

> <Gold.Protein.ActiveResidues>
 VAL166  LYS551  ARG553  GLY616  TRP617  ASP618  TYR619  PRO620  LYS621  CYS622 
 ASP623  PHE694  ASN695  SER759  ASP760  ASP761  ALA762  ILE779  LEU786  VAL792 
 PHE793  MET794  SER795  GLU796  ALA797  LYS798  CYS799  TRP800  GLU811  SER814 

> <Gold.Protein.RotatedAtoms>
  150.6871  134.2668  159.4571 H   0  0  0  0  0  0  0  0  0  0  0  0  # atno 6907 bound_to 6896
  152.0594  134.9601  160.0584 H   0  0  0  0  0  0  0  0  0  0  0  0  # atno 6908 bound_to 6896
  152.1034  133.4227  159.4634 H   0  0  0  0  0  0  0  0  0  0  0  0  # atno 6909 bound_to 6896
  146.1633  139.6836  142.9018 H   0  0  0  0  0  0  0  0  0  0  0  0  # atno 7974 bound_to 7965
  155.0004  140.0394  157.2358 H   0  0  0  0  0  0  0  0  0  0  0  0  # atno 8008 bound_to 7997
  154.7548  140.2773  155.6239 H   0  0  0  0  0  0  0  0  0  0  0  0  # atno 8009 bound_to 7997
  156.2892  140.2640  156.2312 H   0  0  0  0  0  0  0  0  0  0  0  0  # atno 8010 bound_to 7997
  139.4861  144.5597  151.7253 H   0  0  0  0  0  0  0  0  0  0  0  0  # atno 10167 bound_to 10162
  156.8462  130.5538  149.5673 H   0  0  0  0  0  0  0  0  0  0  0  0  # atno 10718 bound_to 10713
  153.0221  135.6391  154.1483 H   0  0  0  0  0  0  0  0  0  0  0  0  # atno 10763 bound_to 10752
  154.1217  135.2846  155.3208 H   0  0  0  0  0  0  0  0  0  0  0  0  # atno 10764 bound_to 10752
  154.6259  135.5509  153.7688 H   0  0  0  0  0  0  0  0  0  0  0  0  # atno 10765 bound_to 10752
  140.0314  134.9350  157.0669 H   0  0  0  0  0  0  0  0  0  0  0  0  # atno 11005 bound_to 11000
  145.4531  141.0429  143.2793 LP  0  0  0  0  0  0  0  0  0  0  0  0  # atno 17320 bound_to 7965
  144.8057  139.6055  143.7051 LP  0  0  0  0  0  0  0  0  0  0  0  0  # atno 17321 bound_to 7965
  140.5165  144.0945  150.6010 LP  0  0  0  0  0  0  0  0  0  0  0  0  # atno 17342 bound_to 10162
  140.3888  143.2763  152.0084 LP  0  0  0  0  0  0  0  0  0  0  0  0  # atno 17343 bound_to 10162
  156.0853  130.5853  150.9637 LP  0  0  0  0  0  0  0  0  0  0  0  0  # atno 17370 bound_to 10713
  157.6328  131.0919  150.8407 LP  0  0  0  0  0  0  0  0  0  0  0  0  # atno 17371 bound_to 10713
  140.4220  134.1871  155.7165 LP  0  0  0  0  0  0  0  0  0  0  0  0  # atno 17394 bound_to 11000
  141.1833  133.8368  157.1180 LP  0  0  0  0  0  0  0  0  0  0  0  0  # atno 17395 bound_to 11000

$$$$
