AV-unprocessed.smi:1495|AV-procd|sdf|6053|dock2
  -GOLD-   22720 6173D 1   1.00000     0.00000
 Structure written by MMmdl.
 40 41  0  0  0  0  0  0  0  0  1 V2000
  146.6061  135.8713  156.9219 C   0  0  0  0  0  0  0  0  0  0  0  0
  147.0313  136.9557  155.9244 C   0  0  0  0  0  0  0  0  0  0  0  0
  148.5346  137.2672  155.9823 C   0  0  2  0  0  0  0  0  0  0  0  0
  148.9497  138.3188  154.9324 C   0  0  0  0  0  0  0  0  0  0  0  0
  150.4011  138.5271  155.0378 N   0  0  0  0  0  0  0  0  0  0  0  0
  151.0289  139.6182  155.5427 C   0  0  0  0  0  0  0  0  0  0  0  0
  152.2540  139.7461  155.5582 O   0  0  0  0  0  0  0  0  0  0  0  0
  150.2071  140.5761  156.0000 N   0  0  0  0  0  0  0  0  0  0  0  0
  150.6455  141.8389  156.5772 C   0  0  0  0  0  0  0  0  0  0  0  0
  150.1776  141.9566  158.0342 C   0  0  0  0  0  0  0  0  0  0  0  0
  150.8565  143.0794  158.7574 C   0  0  0  0  0  0  0  0  0  0  0  0
  150.7547  144.4195  158.4782 C   0  0  0  0  0  0  0  0  0  0  0  0
  151.7051  145.3853  159.5733 S   0  0  0  0  0  0  0  0  0  0  0  0
  152.2129  143.9088  160.3851 C   0  0  0  0  0  0  0  0  0  0  0  0
  153.1365  143.8916  161.5543 C   0  0  0  0  0  0  0  0  0  0  0  0
  151.6904  142.8046  159.8458 N   0  0  0  0  0  0  0  0  0  0  0  0
  151.1084  137.2782  154.7451 C   0  0  0  0  0  0  0  0  0  0  0  0
  150.6751  136.2267  155.7815 C   0  0  0  0  0  0  0  0  0  0  0  0
  149.2594  136.0623  155.7325 O   0  0  0  0  0  0  0  0  0  0  0  0
  145.5328  135.6907  156.8638 H   0  0  0  0  0  0  0  0  0  0  0  0
  146.8392  136.1644  157.9460 H   0  0  0  0  0  0  0  0  0  0  0  0
  147.1125  134.9272  156.7198 H   0  0  0  0  0  0  0  0  0  0  0  0
  146.7561  136.6509  154.9140 H   0  0  0  0  0  0  0  0  0  0  0  0
  146.4657  137.8638  156.1354 H   0  0  0  0  0  0  0  0  0  0  0  0
  148.7815  137.6351  156.9801 H   0  0  0  0  0  0  0  0  0  0  0  0
  148.7113  137.9634  153.9288 H   0  0  0  0  0  0  0  0  0  0  0  0
  148.3632  139.2276  155.0667 H   0  0  0  0  0  0  0  0  0  0  0  0
  149.2119  140.4164  155.9443 H   0  0  0  0  0  0  0  0  0  0  0  0
  151.7342  141.9025  156.5291 H   0  0  0  0  0  0  0  0  0  0  0  0
  150.2462  142.6631  155.9836 H   0  0  0  0  0  0  0  0  0  0  0  0
  149.0965  142.1014  158.0593 H   0  0  0  0  0  0  0  0  0  0  0  0
  150.3649  141.0154  158.5529 H   0  0  0  0  0  0  0  0  0  0  0  0
  150.1787  144.8954  157.6984 H   0  0  0  0  0  0  0  0  0  0  0  0
  152.7648  143.2087  162.3188 H   0  0  0  0  0  0  0  0  0  0  0  0
  153.2180  144.8885  161.9877 H   0  0  0  0  0  0  0  0  0  0  0  0
  154.1277  143.5634  161.2412 H   0  0  0  0  0  0  0  0  0  0  0  0
  150.8538  136.9428  153.7387 H   0  0  0  0  0  0  0  0  0  0  0  0
  152.1932  137.3915  154.7585 H   0  0  0  0  0  0  0  0  0  0  0  0
  151.1497  135.2686  155.5696 H   0  0  0  0  0  0  0  0  0  0  0  0
  150.9816  136.5212  156.7865 H   0  0  0  0  0  0  0  0  0  0  0  0
  1  2  1  0  0  0  0
  1 20  1  0  0  0  0
  1 21  1  0  0  0  0
  1 22  1  0  0  0  0
  2  3  1  0  0  0  0
  2 23  1  0  0  0  0
  2 24  1  0  0  0  0
  3 19  1  0  0  0  0
  3  4  1  0  0  0  0
  3 25  1  0  0  0  0
  4  5  1  0  0  0  0
  4 26  1  0  0  0  0
  4 27  1  0  0  0  0
  5  6  1  0  0  0  0
  5 17  1  0  0  0  0
  6  7  2  0  0  0  0
  6  8  1  0  0  0  0
  8  9  1  0  0  0  0
  8 28  1  0  0  0  0
  9 10  1  0  0  0  0
  9 29  1  0  0  0  0
  9 30  1  0  0  0  0
 10 11  1  0  0  0  0
 10 31  1  0  0  0  0
 10 32  1  0  0  0  0
 11 16  1  0  0  0  0
 11 12  2  0  0  0  0
 12 13  1  0  0  0  0
 12 33  1  0  0  0  0
 13 14  1  0  0  0  0
 14 15  1  0  0  0  0
 14 16  2  0  0  0  0
 15 34  1  0  0  0  0
 15 35  1  0  0  0  0
 15 36  1  0  0  0  0
 17 18  1  0  0  0  0
 17 37  1  0  0  0  0
 17 38  1  0  0  0  0
 18 19  1  0  0  0  0
 18 39  1  0  0  0  0
 18 40  1  0  0  0  0
M  END
> <s_m_source_file>
AV-unprocessed.smi

> <i_m_source_file_index>
1495

> <i_lp_mmshare_version>
43012

> <i_f3d_flags>
0

> <s_epik_input>
W0NIM11bQ0gyXVtDQEBIXTFbQ0gyXU4oW0NIMl1bQ0gyXU8xKUMoPU8pW05IXVtDSDJdW0NIMl1jMltjSF1zYyhuMilbQ0gzXQ==

> <s_epik_cmdline>
J2VwaWtfcHl0aG9uJywgJy1waCcsICc3LjAnLCAnLXRuJywgJzgnLCAnLW1hJywgJzIwMCcsICctbWV0YWxfYmluZGluZycsICctaW1hZScsICc8aW5maWxlLm1hZT4nLCAnLW9tYWUnLCAnPG91dGZpbGUubWFlPic=

> <r_epik_Ionization_Penalty>
0.00206013

> <r_epik_Ionization_Penalty_Charging>
0

> <r_epik_Ionization_Penalty_Neutral>
0.00206013

> <r_epik_State_Penalty>
0.00138662

> <r_epik_Charging_Adjusted_Penalty>
0.00138662

> <i_epik_Tot_Q>
0

> <i_epik_Tot_abs_Q>
0

> <r_epik_Metal_State_Penalty>
-0

> <b_epik_Metal_Only>
0

> <s_lp_Force_Field>
OPLS_2005

> <r_lp_Energy>
21.6891

> <b_lp_Chiralities_Consistent>
1

> <s_lp_Variant>
AV-unprocessed.smi:1495-1

> <Gold.Version>
5.8.1

> <Gold.Id.Protein>
6NUR|6NUR_protein|mol2

> <Gold.PLP.Fitness>
43.4937

> <Gold.PLP.PLP>
-38.0193

> <Gold.PLP.part.hbond>
-1.5452

> <Gold.PLP.part.metal>
0.0000

> <Gold.PLP.part.buried>
-5.4077

> <Gold.PLP.part.nonpolar>
-31.6778

> <Gold.PLP.part.repulsive>
0.9423

> <Gold.PLP.ligand.clash>
0.0000

> <Gold.PLP.ligand.torsion>
0.1031

> <Gold.PLP.Chemscore.Hbond>
1.0000

> <Gold.PLP.Chemscore.CHOScore>
0.8744

> <Gold.PLP.Chemscore.Metal>
0.0000

> <Gold.Chemscore.Hbonds>
donor molecule, donor type, donor heavy atom, donor atom, acceptor molecule, acceptor atom, score
      P1  H  7997  8008       L1     7  0.42
      L1  C    12    33       P1  8028  0.65
      L1  C    12    33       P1  8029  0.31

> <Gold.PLP.Chemscore.Internal.Correction>
0.0572

> <Gold.Rescore>
     Score         DG    S(hbond)    S(metal)    S(lipo)     H(rot)  DE(clash)    DE(int)     intcor
     15.70     -16.36       0.98        0.00      96.08       1.42       0.15       0.51       ----

> <Gold.Chemscore.Fitness>
15.6977

> <Gold.Chemscore.DG>
-16.3644

> <Gold.Chemscore.ZeroCoef>
-5.4800

> <Gold.Chemscore.Hbond>
0.9827

> <Gold.Chemscore.Metal>
0.0000

> <Gold.Chemscore.Lipo>
96.0764

> <Gold.Chemscore.Internal_Hbond>
0.0000

> <Gold.Chemscore.DEClash>
0.1547

> <Gold.Chemscore.DEInternal>
0.5120

> <Gold.Chemscore.Rot>
1.4214

> <Gold.Chemscore.Internal.Correction>
   9.000000E+99

> <Gold.Chemscore.Hbonds>
donor molecule, donor type, donor heavy atom, donor atom, acceptor molecule, acceptor atom, score
      P1  H  7997  8008       L1     7  0.41

> <Gold.Chemscore.Hbond.Weighted>
-3.2823

> <Gold.Chemscore.Metal.Weighted>
-0.0000

> <Gold.Chemscore.Lipo.Weighted>
-11.2409

> <Gold.Chemscore.Internal_Hbond.Weighted>
0.0000

> <Gold.Chemscore.DEClash.Weighted>
0.1547

> <Gold.Chemscore.DEInternal.Weighted>
0.5120

> <Gold.Chemscore.Rot.Weighted>
3.6388

> <Gold.Chemscore.Internal.Correction.Weighted>
   9.000000E+99

> <Gold.Protein.RotatedTorsions>
[ 6907 6896 6895 6894 ] final   39.64 input  -60.11 | X-H torsion
[ 7974 7965 7964 7962 ] final  125.02 input  175.53 | X-H torsion
[ 8008 7997 7996 7995 ] final  -45.11 input   59.86 | X-H torsion
[ 10167 10162 10161 10158 ] final  105.43 input  -65.29 | X-H torsion
[ 10718 10713 10712 10709 ] final  103.79 input   66.30 | X-H torsion
[ 10763 10752 10751 10750 ] final -124.36 input  -60.55 | X-H torsion
[ 11005 11000 10999 10996 ] final  -56.65 input  -57.11 | X-H torsion

> <Gold.Protein.ActiveResidues>
 VAL166  LYS551  ARG553  GLY616  TRP617  ASP618  TYR619  PRO620  LYS621  CYS622 
 ASP623  PHE694  ASN695  SER759  ASP760  ASP761  ALA762  ILE779  LEU786  VAL792 
 PHE793  MET794  SER795  GLU796  ALA797  LYS798  CYS799  TRP800  GLU811  SER814 

> <Gold.Protein.RotatedAtoms>
  152.1721  134.8825  160.0533 H   0  0  0  0  0  0  0  0  0  0  0  0  # atno 6907 bound_to 6896
  151.9781  133.3743  159.4105 H   0  0  0  0  0  0  0  0  0  0  0  0  # atno 6908 bound_to 6896
  150.6903  134.3991  159.5155 H   0  0  0  0  0  0  0  0  0  0  0  0  # atno 6909 bound_to 6896
  145.0777  139.3681  143.4925 H   0  0  0  0  0  0  0  0  0  0  0  0  # atno 7974 bound_to 7965
  154.3999  140.1405  156.3793 H   0  0  0  0  0  0  0  0  0  0  0  0  # atno 8008 bound_to 7997
  155.8019  140.3475  155.5387 H   0  0  0  0  0  0  0  0  0  0  0  0  # atno 8009 bound_to 7997
  155.8475  140.0936  157.1686 H   0  0  0  0  0  0  0  0  0  0  0  0  # atno 8010 bound_to 7997
  139.7093  144.7080  151.1053 H   0  0  0  0  0  0  0  0  0  0  0  0  # atno 10167 bound_to 10162
  157.6761  131.0787  150.5608 H   0  0  0  0  0  0  0  0  0  0  0  0  # atno 10718 bound_to 10713
  154.8722  135.4066  154.3093 H   0  0  0  0  0  0  0  0  0  0  0  0  # atno 10763 bound_to 10752
  153.3940  135.7016  153.6480 H   0  0  0  0  0  0  0  0  0  0  0  0  # atno 10764 bound_to 10752
  153.5250  135.3679  155.2621 H   0  0  0  0  0  0  0  0  0  0  0  0  # atno 10765 bound_to 10752
  141.1129  133.6610  156.4651 H   0  0  0  0  0  0  0  0  0  0  0  0  # atno 11005 bound_to 11000
  146.3530  140.0553  142.8633 LP  0  0  0  0  0  0  0  0  0  0  0  0  # atno 17320 bound_to 7965
  145.1215  140.9465  143.4597 LP  0  0  0  0  0  0  0  0  0  0  0  0  # atno 17321 bound_to 7965
  140.7729  143.5315  150.9418 LP  0  0  0  0  0  0  0  0  0  0  0  0  # atno 17342 bound_to 10162
  139.8999  143.6849  152.3133 LP  0  0  0  0  0  0  0  0  0  0  0  0  # atno 17343 bound_to 10162
  156.5911  130.4329  149.5936 LP  0  0  0  0  0  0  0  0  0  0  0  0  # atno 17370 bound_to 10713
  156.2582  130.6947  151.1707 LP  0  0  0  0  0  0  0  0  0  0  0  0  # atno 17371 bound_to 10713
  140.4725  134.6740  157.5135 LP  0  0  0  0  0  0  0  0  0  0  0  0  # atno 17394 bound_to 11000
  140.0034  134.6801  155.9494 LP  0  0  0  0  0  0  0  0  0  0  0  0  # atno 17395 bound_to 11000

$$$$
