AV-unprocessed.smi:3270|AV-procd|sdf|12512|dock8
  -GOLD-   2272018423D 1   1.00000     0.00000
 Structure written by MMmdl.
 38 39  0  0  0  0  0  0  0  0  1 V2000
  153.8612  141.4017  160.5100 C   0  0  0  0  0  0  0  0  0  0  0  0
  152.4467  141.6211  159.9342 C   0  0  2  0  0  0  0  0  0  0  0  0
  152.1873  140.7948  158.6643 C   0  0  0  0  0  0  0  0  0  0  0  0
  153.0822  140.1122  158.1640 O   0  0  0  0  0  0  0  0  0  0  0  0
  150.9486  140.8674  158.1514 N   0  0  0  0  0  0  0  0  0  0  0  0
  150.4984  140.1831  156.9458 C   0  0  0  0  0  0  0  0  0  0  0  0
  149.9354  141.1759  155.9112 C   0  0  0  0  0  0  0  0  0  0  0  0
  148.7168  140.7354  155.2339 N   0  0  0  0  0  0  0  0  0  0  0  0
  148.1378  141.8182  154.4453 C   0  0  0  0  0  0  0  0  0  0  0  0
  146.8534  141.3808  153.7201 C   0  0  0  0  0  0  0  0  0  0  0  0
  147.1319  140.2524  152.8980 O   0  0  0  0  0  0  0  0  0  0  0  0
  147.6552  139.1532  153.6360 C   0  0  0  0  0  0  0  0  0  0  0  0
  148.9413  139.5826  154.3640 C   0  0  0  0  0  0  0  0  0  0  0  0
  152.1605  143.0299  159.6874 N   0  0  0  0  0  0  0  0  0  0  0  0
  152.7385  143.8602  158.7482 C   0  0  0  0  0  0  0  0  0  0  0  0
  152.1942  145.1023  158.9059 C   0  0  0  0  0  0  0  0  0  0  0  0
  151.2889  144.9385  159.9904 C   0  0  0  0  0  0  0  0  0  0  0  0
  151.2770  143.7026  160.4614 N   0  0  0  0  0  0  0  0  0  0  0  0
  154.0332  140.3493  160.7380 H   0  0  0  0  0  0  0  0  0  0  0  0
  153.9938  141.9613  161.4364 H   0  0  0  0  0  0  0  0  0  0  0  0
  154.6420  141.7204  159.8178 H   0  0  0  0  0  0  0  0  0  0  0  0
  151.7389  141.2799  160.6917 H   0  0  0  0  0  0  0  0  0  0  0  0
  150.2726  141.4496  158.6240 H   0  0  0  0  0  0  0  0  0  0  0  0
  151.3564  139.6470  156.5421 H   0  0  0  0  0  0  0  0  0  0  0  0
  149.7503  139.4303  157.2001 H   0  0  0  0  0  0  0  0  0  0  0  0
  149.7241  142.1130  156.4279 H   0  0  0  0  0  0  0  0  0  0  0  0
  150.7036  141.4093  155.1724 H   0  0  0  0  0  0  0  0  0  0  0  0
  147.9127  142.6671  155.0920 H   0  0  0  0  0  0  0  0  0  0  0  0
  148.8634  142.1701  153.7103 H   0  0  0  0  0  0  0  0  0  0  0  0
  146.0693  141.1338  154.4372 H   0  0  0  0  0  0  0  0  0  0  0  0
  146.4746  142.1912  153.0971 H   0  0  0  0  0  0  0  0  0  0  0  0
  146.9093  138.7969  154.3483 H   0  0  0  0  0  0  0  0  0  0  0  0
  147.8634  138.3307  152.9518 H   0  0  0  0  0  0  0  0  0  0  0  0
  149.7112  139.8185  153.6277 H   0  0  0  0  0  0  0  0  0  0  0  0
  149.3099  138.7366  154.9427 H   0  0  0  0  0  0  0  0  0  0  0  0
  153.4825  143.5016  158.0525 H   0  0  0  0  0  0  0  0  0  0  0  0
  152.4128  145.9935  158.3366 H   0  0  0  0  0  0  0  0  0  0  0  0
  150.6481  145.6767  160.4493 H   0  0  0  0  0  0  0  0  0  0  0  0
  1  2  1  0  0  0  0
  1 19  1  0  0  0  0
  1 20  1  0  0  0  0
  1 21  1  0  0  0  0
  2  3  1  0  0  0  0
  2 14  1  0  0  0  0
  2 22  1  0  0  0  0
  3  4  2  0  0  0  0
  3  5  1  0  0  0  0
  5  6  1  0  0  0  0
  5 23  1  0  0  0  0
  6  7  1  0  0  0  0
  6 24  1  0  0  0  0
  6 25  1  0  0  0  0
  7  8  1  0  0  0  0
  7 26  1  0  0  0  0
  7 27  1  0  0  0  0
  8 13  1  0  0  0  0
  8  9  1  0  0  0  0
  9 10  1  0  0  0  0
  9 28  1  0  0  0  0
  9 29  1  0  0  0  0
 10 11  1  0  0  0  0
 10 30  1  0  0  0  0
 10 31  1  0  0  0  0
 11 12  1  0  0  0  0
 12 13  1  0  0  0  0
 12 32  1  0  0  0  0
 12 33  1  0  0  0  0
 13 34  1  0  0  0  0
 13 35  1  0  0  0  0
 14 18  1  0  0  0  0
 14 15  1  0  0  0  0
 15 16  2  0  0  0  0
 15 36  1  0  0  0  0
 16 17  1  0  0  0  0
 16 37  1  0  0  0  0
 17 18  2  0  0  0  0
 17 38  1  0  0  0  0
M  END
> <s_m_source_file>
AV-unprocessed.smi

> <i_m_source_file_index>
3270

> <i_lp_mmshare_version>
43012

> <i_f3d_flags>
0

> <s_epik_input>
bjFbY0hdW2NIXVtjSF1uMVtDQEhdKFtDSDNdKUMoPU8pW05IXVtDSDJdW0NIMl1OMltDSDJdW0NIMl1PW0NIMl1bQ0gyXTI=

> <s_epik_cmdline>
J2VwaWtfcHl0aG9uJywgJy1waCcsICc3LjAnLCAnLXRuJywgJzgnLCAnLW1hJywgJzIwMCcsICctbWV0YWxfYmluZGluZycsICctaW1hZScsICc8aW5maWxlLm1hZT4nLCAnLW9tYWUnLCAnPG91dGZpbGUubWFlPic=

> <r_lp_tautomer_probability>
1

> <r_epik_Ionization_Penalty>
0.203323

> <r_epik_Ionization_Penalty_Charging>
0

> <r_epik_Ionization_Penalty_Neutral>
0.203323

> <r_epik_State_Penalty>
0.193192

> <r_epik_Charging_Adjusted_Penalty>
0.193192

> <i_epik_Tot_Q>
0

> <i_epik_Tot_abs_Q>
0

> <r_epik_Metal_State_Penalty>
0.193187

> <b_epik_Metal_Only>
0

> <s_lp_Force_Field>
OPLS_2005

> <r_lp_Energy>
25.3297

> <b_lp_Chiralities_Consistent>
1

> <s_lp_Variant>
AV-unprocessed.smi:3270-1

> <Gold.Version>
5.8.1

> <Gold.Id.Protein>
6NUR|6NUR_protein|mol2

> <Gold.PLP.Fitness>
42.3579

> <Gold.PLP.PLP>
-40.1661

> <Gold.PLP.part.hbond>
-1.1443

> <Gold.PLP.part.metal>
0.0000

> <Gold.PLP.part.buried>
-5.6419

> <Gold.PLP.part.nonpolar>
-35.4094

> <Gold.PLP.part.repulsive>
1.4948

> <Gold.PLP.ligand.clash>
0.0000

> <Gold.PLP.ligand.torsion>
0.4501

> <Gold.PLP.Chemscore.Hbond>
0.9920

> <Gold.PLP.Chemscore.CHOScore>
0.0000

> <Gold.PLP.Chemscore.Metal>
0.0000

> <Gold.Chemscore.Hbonds>
donor molecule, donor type, donor heavy atom, donor atom, acceptor molecule, acceptor atom, score
      P1  H  7997  8009       L1     4  0.96

> <Gold.PLP.Chemscore.Internal.Correction>
0.1162

> <Gold.Rescore>
     Score         DG    S(hbond)    S(metal)    S(lipo)     H(rot)  DE(clash)    DE(int)     intcor
     14.76     -15.24       0.97        0.00      95.75       1.83       0.03       0.44       ----

> <Gold.Chemscore.Fitness>
14.7649

> <Gold.Chemscore.DG>
-15.2353

> <Gold.Chemscore.ZeroCoef>
-5.4800

> <Gold.Chemscore.Hbond>
0.9685

> <Gold.Chemscore.Metal>
0.0000

> <Gold.Chemscore.Lipo>
95.7490

> <Gold.Chemscore.Internal_Hbond>
0.0000

> <Gold.Chemscore.DEClash>
0.0280

> <Gold.Chemscore.DEInternal>
0.4424

> <Gold.Chemscore.Rot>
1.8290

> <Gold.Chemscore.Internal.Correction>
   9.000000E+99

> <Gold.Chemscore.Hbonds>
donor molecule, donor type, donor heavy atom, donor atom, acceptor molecule, acceptor atom, score
      P1  H  7997  8009       L1     4  0.92

> <Gold.Chemscore.Hbond.Weighted>
-3.2349

> <Gold.Chemscore.Metal.Weighted>
-0.0000

> <Gold.Chemscore.Lipo.Weighted>
-11.2026

> <Gold.Chemscore.Internal_Hbond.Weighted>
0.0000

> <Gold.Chemscore.DEClash.Weighted>
0.0280

> <Gold.Chemscore.DEInternal.Weighted>
0.4424

> <Gold.Chemscore.Rot.Weighted>
4.6821

> <Gold.Chemscore.Internal.Correction.Weighted>
   9.000000E+99

> <Gold.Protein.RotatedTorsions>
[ 6907 6896 6895 6894 ] final   23.70 input  -60.11 | X-H torsion
[ 7974 7965 7964 7962 ] final   -1.63 input  175.53 | X-H torsion
[ 8008 7997 7996 7995 ] final  148.58 input   59.86 | X-H torsion
[ 10167 10162 10161 10158 ] final   57.79 input  -65.29 | X-H torsion
[ 10718 10713 10712 10709 ] final  -49.23 input   66.30 | X-H torsion
[ 10763 10752 10751 10750 ] final -121.71 input  -60.55 | X-H torsion
[ 11005 11000 10999 10996 ] final  -50.70 input  -57.11 | X-H torsion

> <Gold.Protein.ActiveResidues>
 VAL166  LYS551  ARG553  GLY616  TRP617  ASP618  TYR619  PRO620  LYS621  CYS622 
 ASP623  PHE694  ASN695  SER759  ASP760  ASP761  ALA762  ILE779  LEU786  VAL792 
 PHE793  MET794  SER795  GLU796  ALA797  LYS798  CYS799  TRP800  GLU811  SER814 

> <Gold.Protein.RotatedAtoms>
  151.9463  135.0190  160.0538 H   0  0  0  0  0  0  0  0  0  0  0  0  # atno 6907 bound_to 6896
  152.1992  133.4824  159.5058 H   0  0  0  0  0  0  0  0  0  0  0  0  # atno 6908 bound_to 6896
  150.6951  134.1529  159.4190 H   0  0  0  0  0  0  0  0  0  0  0  0  # atno 6909 bound_to 6896
  146.2415  140.1449  142.8335 H   0  0  0  0  0  0  0  0  0  0  0  0  # atno 7974 bound_to 7965
  156.2786  140.2125  156.5720 H   0  0  0  0  0  0  0  0  0  0  0  0  # atno 8008 bound_to 7997
  154.7128  140.0510  157.0589 H   0  0  0  0  0  0  0  0  0  0  0  0  # atno 8009 bound_to 7997
  155.0583  140.3164  155.4672 H   0  0  0  0  0  0  0  0  0  0  0  0  # atno 8010 bound_to 7997
  140.1942  144.4054  150.6557 H   0  0  0  0  0  0  0  0  0  0  0  0  # atno 10167 bound_to 10162
  156.1913  130.4153  149.9368 H   0  0  0  0  0  0  0  0  0  0  0  0  # atno 10718 bound_to 10713
  154.8674  135.4158  154.2664 H   0  0  0  0  0  0  0  0  0  0  0  0  # atno 10763 bound_to 10752
  153.3582  135.7002  153.6739 H   0  0  0  0  0  0  0  0  0  0  0  0  # atno 10764 bound_to 10752
  153.5650  135.3602  155.2787 H   0  0  0  0  0  0  0  0  0  0  0  0  # atno 10765 bound_to 10752
  141.0831  133.6649  156.3770 H   0  0  0  0  0  0  0  0  0  0  0  0  # atno 11005 bound_to 11000
  145.0215  140.8798  143.5164 LP  0  0  0  0  0  0  0  0  0  0  0  0  # atno 17320 bound_to 7965
  145.1499  139.2521  143.5446 LP  0  0  0  0  0  0  0  0  0  0  0  0  # atno 17321 bound_to 7965
  140.6435  143.2208  151.6238 LP  0  0  0  0  0  0  0  0  0  0  0  0  # atno 17342 bound_to 10162
  139.5243  144.3107  152.0995 LP  0  0  0  0  0  0  0  0  0  0  0  0  # atno 17343 bound_to 10162
  156.7107  130.8969  151.3609 LP  0  0  0  0  0  0  0  0  0  0  0  0  # atno 17370 bound_to 10713
  157.6930  130.9253  150.0567 LP  0  0  0  0  0  0  0  0  0  0  0  0  # atno 17371 bound_to 10713
  140.5425  134.6107  157.5384 LP  0  0  0  0  0  0  0  0  0  0  0  0  # atno 17394 bound_to 11000
  139.9646  134.7394  156.0165 LP  0  0  0  0  0  0  0  0  0  0  0  0  # atno 17395 bound_to 11000

$$$$
