AV-unprocessed.smi:598|AV-procd|sdf|3026|dock8
  -GOLD-   2262023533D 1   1.00000     0.00000
 Structure written by MMmdl.
 43 44  0  0  0  0  0  0  0  0  3 V2000
  153.8197  141.0879  160.3529 C   0  0  0  0  0  0  0  0  0  0  0  0
  152.6142  141.6364  159.5675 C   0  0  1  0  0  0  0  0  0  0  0  0
  152.9475  143.0431  159.0315 C   0  0  0  0  0  0  0  0  0  0  0  0
  151.7697  143.6560  158.2671 C   0  0  0  0  0  0  0  0  0  0  0  0
  151.3462  142.7458  157.1111 C   0  0  0  0  0  0  0  0  0  0  0  0
  150.9893  141.3325  157.6109 C   0  0  1  0  0  0  0  0  0  0  0  0
  150.6358  140.4935  156.4669 N   0  0  0  0  0  0  0  0  0  0  0  0
  151.5057  139.8400  155.6817 C   0  0  0  0  0  0  0  0  0  0  0  0
  152.7249  139.8655  155.8569 O   0  0  0  0  0  0  0  0  0  0  0  0
  150.8907  139.0190  154.5395 C   0  0  0  0  0  0  0  0  0  0  0  0
  150.0657  137.8938  155.0104 N   0  0  0  0  0  0  0  0  0  0  0  0
  150.7219  136.8779  155.7333 C   0  0  0  0  0  0  0  0  0  0  0  0
  150.0681  135.7981  156.2049 C   0  0  0  0  0  0  0  0  0  0  0  0
  150.7596  134.7604  156.9378 N   0  3  0  0  0  0  0  0  0  0  0  0
  150.0969  133.8841  157.4840 O   0  0  0  0  0  0  0  0  0  0  0  0
  151.9855  134.7858  156.9921 O   0  5  0  0  0  0  0  0  0  0  0  0
  148.6439  135.7068  155.9472 C   0  0  0  0  0  0  0  0  0  0  0  0
  148.0115  136.6726  155.2522 C   0  0  0  0  0  0  0  0  0  0  0  0
  148.7264  137.8439  154.7344 C   0  0  0  0  0  0  0  0  0  0  0  0
  148.1559  138.7258  154.0919 O   0  0  0  0  0  0  0  0  0  0  0  0
  152.1510  140.6935  158.4201 C   0  0  2  0  0  0  0  0  0  0  0  0
  151.7562  139.2956  158.9458 C   0  0  0  0  0  0  0  0  0  0  0  0
  154.6595  140.8727  159.6917 H   0  0  0  0  0  0  0  0  0  0  0  0
  153.5729  140.1748  160.8936 H   0  0  0  0  0  0  0  0  0  0  0  0
  154.1616  141.8082  161.0966 H   0  0  0  0  0  0  0  0  0  0  0  0
  151.7870  141.7420  160.2709 H   0  0  0  0  0  0  0  0  0  0  0  0
  153.2206  143.7021  159.8566 H   0  0  0  0  0  0  0  0  0  0  0  0
  153.8187  142.9933  158.3770 H   0  0  0  0  0  0  0  0  0  0  0  0
  150.9284  143.8106  158.9438 H   0  0  0  0  0  0  0  0  0  0  0  0
  152.0462  144.6388  157.8847 H   0  0  0  0  0  0  0  0  0  0  0  0
  150.4940  143.1896  156.5947 H   0  0  0  0  0  0  0  0  0  0  0  0
  152.1539  142.6882  156.3800 H   0  0  0  0  0  0  0  0  0  0  0  0
  150.1258  141.4105  158.2748 H   0  0  0  0  0  0  0  0  0  0  0  0
  149.6525  140.4116  156.2527 H   0  0  0  0  0  0  0  0  0  0  0  0
  150.2982  139.6924  153.9184 H   0  0  0  0  0  0  0  0  0  0  0  0
  151.6865  138.6565  153.8860 H   0  0  0  0  0  0  0  0  0  0  0  0
  151.7827  137.0358  155.8650 H   0  0  0  0  0  0  0  0  0  0  0  0
  148.0746  134.8630  156.3084 H   0  0  0  0  0  0  0  0  0  0  0  0
  146.9503  136.5832  155.0704 H   0  0  0  0  0  0  0  0  0  0  0  0
  152.9945  140.5607  157.7404 H   0  0  0  0  0  0  0  0  0  0  0  0
  150.9493  139.3626  159.6761 H   0  0  0  0  0  0  0  0  0  0  0  0
  152.5957  138.7887  159.4197 H   0  0  0  0  0  0  0  0  0  0  0  0
  151.4198  138.6382  158.1441 H   0  0  0  0  0  0  0  0  0  0  0  0
  1  2  1  0  0  0  0
  1 23  1  0  0  0  0
  1 24  1  0  0  0  0
  1 25  1  0  0  0  0
  2 21  1  0  0  0  0
  2  3  1  0  0  0  0
  2 26  1  0  0  0  0
  3  4  1  0  0  0  0
  3 27  1  0  0  0  0
  3 28  1  0  0  0  0
  4  5  1  0  0  0  0
  4 29  1  0  0  0  0
  4 30  1  0  0  0  0
  5  6  1  0  0  0  0
  5 31  1  0  0  0  0
  5 32  1  0  0  0  0
  6  7  1  0  0  0  0
  6 21  1  0  0  0  0
  6 33  1  0  0  0  0
  7  8  1  0  0  0  0
  7 34  1  0  0  0  0
  8  9  2  0  0  0  0
  8 10  1  0  0  0  0
 10 11  1  0  0  0  0
 10 35  1  0  0  0  0
 10 36  1  0  0  0  0
 11 19  1  0  0  0  0
 11 12  1  0  0  0  0
 12 13  2  0  0  0  0
 12 37  1  0  0  0  0
 13 14  1  0  0  0  0
 13 17  1  0  0  0  0
 14 15  2  0  0  0  0
 14 16  1  0  0  0  0
 17 18  2  0  0  0  0
 17 38  1  0  0  0  0
 18 19  1  0  0  0  0
 18 39  1  0  0  0  0
 19 20  2  0  0  0  0
 21 22  1  0  0  0  0
 21 40  1  0  0  0  0
 22 41  1  0  0  0  0
 22 42  1  0  0  0  0
 22 43  1  0  0  0  0
M  CHG  1  14   1
M  CHG  1  16  -1
M  END
> <s_m_source_file>
AV-unprocessed.smi

> <i_m_source_file_index>
598

> <i_lp_mmshare_version>
43012

> <i_f3d_flags>
0

> <s_epik_input>
W0NIM11bQ0BASF0xW0NIMl1bQ0gyXVtDSDJdW0NASF0oW0NASF0xW0NIM10pW05IXUMoPU8pW0NIMl1uMltjSF1jKFtOK10oPU8pW08tXSlbY0hdW2NIXWMyPU8=

> <s_epik_cmdline>
J2VwaWtfcHl0aG9uJywgJy1waCcsICc3LjAnLCAnLXRuJywgJzgnLCAnLW1hJywgJzIwMCcsICctbWV0YWxfYmluZGluZycsICctaW1hZScsICc8aW5maWxlLm1hZT4nLCAnLW9tYWUnLCAnPG91dGZpbGUubWFlPic=

> <r_lp_tautomer_probability>
1

> <r_epik_Ionization_Penalty>
1.91291e-08

> <r_epik_Ionization_Penalty_Charging>
8.21931e-11

> <r_epik_Ionization_Penalty_Neutral>
1.90469e-08

> <r_epik_State_Penalty>
-0

> <r_epik_Charging_Adjusted_Penalty>
8.21931e-11

> <i_epik_Tot_Q>
0

> <i_epik_Tot_abs_Q>
2

> <r_epik_Metal_State_Penalty>
-0

> <b_epik_Metal_Only>
0

> <s_lp_Force_Field>
OPLS_2005

> <r_lp_Energy>
23.592

> <b_lp_Chiralities_Consistent>
1

> <s_lp_Variant>
AV-unprocessed.smi:598-6

> <Gold.Version>
5.8.1

> <Gold.Id.Protein>
6NUR|6NUR_protein|mol2

> <Gold.PLP.Fitness>
43.7968

> <Gold.PLP.PLP>
-35.9744

> <Gold.PLP.part.hbond>
-3.3074

> <Gold.PLP.part.metal>
0.0000

> <Gold.PLP.part.buried>
-1.6669

> <Gold.PLP.part.nonpolar>
-30.1482

> <Gold.PLP.part.repulsive>
0.2403

> <Gold.PLP.ligand.clash>
0.0000

> <Gold.PLP.ligand.torsion>
0.3891

> <Gold.PLP.Chemscore.Hbond>
2.8640

> <Gold.PLP.Chemscore.CHOScore>
0.0000

> <Gold.PLP.Chemscore.Metal>
0.0000

> <Gold.Chemscore.Hbonds>
donor molecule, donor type, donor heavy atom, donor atom, acceptor molecule, acceptor atom, score
      P1  H  6896  6908       L1    15  0.98
      P1  H  7997  8008       L1     9  1.00
      P1  H 10752 10764       L1    16  0.34

> <Gold.PLP.Chemscore.Internal.Correction>
0.0086

> <Gold.Rescore>
     Score         DG    S(hbond)    S(metal)    S(lipo)     H(rot)  DE(clash)    DE(int)     intcor
     19.11     -20.94       2.73        0.00      87.81       1.54       0.10       1.73       ----

> <Gold.Chemscore.Fitness>
19.1073

> <Gold.Chemscore.DG>
-20.9373

> <Gold.Chemscore.ZeroCoef>
-5.4800

> <Gold.Chemscore.Hbond>
2.7318

> <Gold.Chemscore.Metal>
0.0000

> <Gold.Chemscore.Lipo>
87.8098

> <Gold.Chemscore.Internal_Hbond>
0.0000

> <Gold.Chemscore.DEClash>
0.1047

> <Gold.Chemscore.DEInternal>
1.7253

> <Gold.Chemscore.Rot>
1.5393

> <Gold.Chemscore.Internal.Correction>
   9.000000E+99

> <Gold.Chemscore.Hbonds>
donor molecule, donor type, donor heavy atom, donor atom, acceptor molecule, acceptor atom, score
      P1  H  6896  6908       L1    15  0.42
      P1  H  7997  8008       L1     9  1.00
      P1  H 10752 10764       L1    16  0.33

> <Gold.Chemscore.Hbond.Weighted>
-9.1243

> <Gold.Chemscore.Metal.Weighted>
-0.0000

> <Gold.Chemscore.Lipo.Weighted>
-10.2737

> <Gold.Chemscore.Internal_Hbond.Weighted>
0.0000

> <Gold.Chemscore.DEClash.Weighted>
0.1047

> <Gold.Chemscore.DEInternal.Weighted>
1.7253

> <Gold.Chemscore.Rot.Weighted>
3.9407

> <Gold.Chemscore.Internal.Correction.Weighted>
   9.000000E+99

> <Gold.Protein.RotatedTorsions>
[ 6907 6896 6895 6894 ] final  119.56 input  -60.11 | X-H torsion
[ 7974 7965 7964 7962 ] final  155.74 input  175.53 | X-H torsion
[ 8008 7997 7996 7995 ] final  -36.56 input   59.86 | X-H torsion
[ 10167 10162 10161 10158 ] final -115.67 input  -65.29 | X-H torsion
[ 10718 10713 10712 10709 ] final  -20.57 input   66.30 | X-H torsion
[ 10763 10752 10751 10750 ] final  -11.64 input  -60.55 | X-H torsion
[ 11005 11000 10999 10996 ] final  -90.64 input  -57.11 | X-H torsion

> <Gold.Protein.ActiveResidues>
 VAL166  LYS551  ARG553  GLY616  TRP617  ASP618  TYR619  PRO620  LYS621  CYS622 
 ASP623  PHE694  ASN695  SER759  ASP760  ASP761  ALA762  ILE779  LEU786  VAL792 
 PHE793  MET794  SER795  GLU796  ALA797  LYS798  CYS799  TRP800  GLU811  SER814 

> <Gold.Protein.RotatedAtoms>
  152.4463  133.7543  159.6710 H   0  0  0  0  0  0  0  0  0  0  0  0  # atno 6907 bound_to 6896
  150.8364  133.7997  159.3084 H   0  0  0  0  0  0  0  0  0  0  0  0  # atno 6908 bound_to 6896
  151.5635  135.1067  160.0030 H   0  0  0  0  0  0  0  0  0  0  0  0  # atno 6909 bound_to 6896
  144.8006  139.7109  143.6183 H   0  0  0  0  0  0  0  0  0  0  0  0  # atno 7974 bound_to 7965
  154.4070  140.1627  156.2394 H   0  0  0  0  0  0  0  0  0  0  0  0  # atno 8008 bound_to 7997
  155.9214  140.3421  155.6153 H   0  0  0  0  0  0  0  0  0  0  0  0  # atno 8009 bound_to 7997
  155.7217  140.0769  157.2318 H   0  0  0  0  0  0  0  0  0  0  0  0  # atno 8010 bound_to 7997
  140.0875  143.4730  152.1889 H   0  0  0  0  0  0  0  0  0  0  0  0  # atno 10167 bound_to 10162
  156.5300  130.4653  149.6552 H   0  0  0  0  0  0  0  0  0  0  0  0  # atno 10718 bound_to 10713
  153.4868  135.7017  153.5907 H   0  0  0  0  0  0  0  0  0  0  0  0  # atno 10763 bound_to 10752
  153.4096  135.3852  155.2042 H   0  0  0  0  0  0  0  0  0  0  0  0  # atno 10764 bound_to 10752
  154.8719  135.3901  154.4324 H   0  0  0  0  0  0  0  0  0  0  0  0  # atno 10765 bound_to 10752
  141.1561  133.7704  156.9766 H   0  0  0  0  0  0  0  0  0  0  0  0  # atno 11005 bound_to 11000
  146.2286  139.5770  142.9570 LP  0  0  0  0  0  0  0  0  0  0  0  0  # atno 17320 bound_to 7965
  145.5563  141.0408  143.2251 LP  0  0  0  0  0  0  0  0  0  0  0  0  # atno 17321 bound_to 7965
  139.5743  144.7479  151.3806 LP  0  0  0  0  0  0  0  0  0  0  0  0  # atno 17342 bound_to 10162
  140.7046  143.7547  150.7459 LP  0  0  0  0  0  0  0  0  0  0  0  0  # atno 17343 bound_to 10162
  156.3069  130.7207  151.2091 LP  0  0  0  0  0  0  0  0  0  0  0  0  # atno 17370 bound_to 10713
  157.7423  131.0491  150.5032 LP  0  0  0  0  0  0  0  0  0  0  0  0  # atno 17371 bound_to 10713
  140.1094  134.9486  157.2043 LP  0  0  0  0  0  0  0  0  0  0  0  0  # atno 17394 bound_to 11000
  140.3214  134.2912  155.7245 LP  0  0  0  0  0  0  0  0  0  0  0  0  # atno 17395 bound_to 11000

$$$$
