AV-unprocessed.smi:3338|AV-procd|sdf|12874|dock10
  -GOLD-   2272019273D 1   1.00000     0.00000
 Structure written by MMmdl.
 44 45  0  0  0  0  0  0  0  0  2 V2000
  150.1426  134.9123  154.6870 C   0  0  0  0  0  0  0  0  0  0  0  0
  150.0954  136.1166  155.6436 C   0  0  1  0  0  0  0  0  0  0  0  0
  151.3174  137.0428  155.5003 C   0  0  0  0  0  0  0  0  0  0  0  0
  151.2337  137.8830  154.2181 C   0  0  0  0  0  0  0  0  0  0  0  0
  149.8973  138.6373  154.1381 C   0  0  0  0  0  0  0  0  0  0  0  0
  148.7485  137.7007  154.2360 N   0  3  2  0  0  0  0  0  0  0  0  0
  147.4484  138.3794  154.0094 C   0  0  0  0  0  0  0  0  0  0  0  0
  146.2827  137.3794  153.8842 C   0  0  0  0  0  0  0  0  0  0  0  0
  146.7053  136.1486  153.2272 N   0  0  0  0  0  0  0  0  0  0  0  0
  146.0279  134.9897  153.2623 C   0  0  0  0  0  0  0  0  0  0  0  0
  144.9697  134.8541  153.8782 O   0  0  0  0  0  0  0  0  0  0  0  0
  146.6429  133.8154  152.4821 C   0  0  1  0  0  0  0  0  0  0  0  0
  147.2818  132.7536  153.3999 C   0  0  0  0  0  0  0  0  0  0  0  0
  145.6608  133.2280  151.5775 N   0  0  0  0  0  0  0  0  0  0  0  0
  145.8695  132.2765  150.5994 C   0  0  0  0  0  0  0  0  0  0  0  0
  144.6697  132.0426  149.9909 C   0  0  0  0  0  0  0  0  0  0  0  0
  143.7717  132.9132  150.6684 C   0  0  0  0  0  0  0  0  0  0  0  0
  144.3671  133.6258  151.6107 N   0  0  0  0  0  0  0  0  0  0  0  0
  148.7863  136.9209  155.5035 C   0  0  0  0  0  0  0  0  0  0  0  0
  150.0965  135.2186  153.6420 H   0  0  0  0  0  0  0  0  0  0  0  0
  149.3060  134.2370  154.8690 H   0  0  0  0  0  0  0  0  0  0  0  0
  151.0599  134.3388  154.8246 H   0  0  0  0  0  0  0  0  0  0  0  0
  150.1183  135.7051  156.6535 H   0  0  0  0  0  0  0  0  0  0  0  0
  151.3623  137.7122  156.3604 H   0  0  0  0  0  0  0  0  0  0  0  0
  152.2421  136.4649  155.5156 H   0  0  0  0  0  0  0  0  0  0  0  0
  152.0617  138.5919  154.1857 H   0  0  0  0  0  0  0  0  0  0  0  0
  151.3474  137.2415  153.3436 H   0  0  0  0  0  0  0  0  0  0  0  0
  149.8327  139.3800  154.9350 H   0  0  0  0  0  0  0  0  0  0  0  0
  149.8532  139.1806  153.1933 H   0  0  0  0  0  0  0  0  0  0  0  0
  147.2694  139.1006  154.8087 H   0  0  0  0  0  0  0  0  0  0  0  0
  147.4954  138.9549  153.0838 H   0  0  0  0  0  0  0  0  0  0  0  0
  145.9068  137.1228  154.8749 H   0  0  0  0  0  0  0  0  0  0  0  0
  145.4426  137.8070  153.3364 H   0  0  0  0  0  0  0  0  0  0  0  0
  147.5682  136.1796  152.7034 H   0  0  0  0  0  0  0  0  0  0  0  0
  147.4421  134.2283  151.8646 H   0  0  0  0  0  0  0  0  0  0  0  0
  148.0639  133.1905  154.0217 H   0  0  0  0  0  0  0  0  0  0  0  0
  147.7398  131.9579  152.8121 H   0  0  0  0  0  0  0  0  0  0  0  0
  146.5499  132.2916  154.0637 H   0  0  0  0  0  0  0  0  0  0  0  0
  146.8444  131.8473  150.4202 H   0  0  0  0  0  0  0  0  0  0  0  0
  144.4647  131.3541  149.1845 H   0  0  0  0  0  0  0  0  0  0  0  0
  142.7130  133.0498  150.5031 H   0  0  0  0  0  0  0  0  0  0  0  0
  147.9380  136.2398  155.5623 H   0  0  0  0  0  0  0  0  0  0  0  0
  148.6861  137.6081  156.3454 H   0  0  0  0  0  0  0  0  0  0  0  0
  148.8611  137.0408  153.4796 H   0  0  0  0  0  0  0  0  0  0  0  0
  1  2  1  0  0  0  0
  1 20  1  0  0  0  0
  1 21  1  0  0  0  0
  1 22  1  0  0  0  0
  2 19  1  0  0  0  0
  2  3  1  0  0  0  0
  2 23  1  0  0  0  0
  3  4  1  0  0  0  0
  3 24  1  0  0  0  0
  3 25  1  0  0  0  0
  4  5  1  0  0  0  0
  4 26  1  0  0  0  0
  4 27  1  0  0  0  0
  5  6  1  0  0  0  0
  5 28  1  0  0  0  0
  5 29  1  0  0  0  0
  6  7  1  0  0  0  0
  6 19  1  0  0  0  0
  6 44  1  0  0  0  0
  7  8  1  0  0  0  0
  7 30  1  0  0  0  0
  7 31  1  0  0  0  0
  8  9  1  0  0  0  0
  8 32  1  0  0  0  0
  8 33  1  0  0  0  0
  9 10  1  0  0  0  0
  9 34  1  0  0  0  0
 10 11  2  0  0  0  0
 10 12  1  0  0  0  0
 12 13  1  0  0  0  0
 12 14  1  0  0  0  0
 12 35  1  0  0  0  0
 13 36  1  0  0  0  0
 13 37  1  0  0  0  0
 13 38  1  0  0  0  0
 14 18  1  0  0  0  0
 14 15  1  0  0  0  0
 15 16  2  0  0  0  0
 15 39  1  0  0  0  0
 16 17  1  0  0  0  0
 16 40  1  0  0  0  0
 17 18  2  0  0  0  0
 17 41  1  0  0  0  0
 19 42  1  0  0  0  0
 19 43  1  0  0  0  0
M  CHG  1   6   1
M  END
> <s_m_source_file>
AV-unprocessed.smi

> <i_m_source_file_index>
3338

> <i_lp_mmshare_version>
43012

> <i_f3d_flags>
0

> <s_epik_input>
W0NIM11bQ0BASF0xW0NIMl1bQ0gyXVtDSDJdTihbQ0gyXTEpW0NIMl1bQ0gyXVtOSF1DKD1PKVtDQEhdKFtDSDNdKW4yW2NIXVtjSF1bY0hdbjI=

> <s_epik_cmdline>
J2VwaWtfcHl0aG9uJywgJy1waCcsICc3LjAnLCAnLXRuJywgJzgnLCAnLW1hJywgJzIwMCcsICctbWV0YWxfYmluZGluZycsICctaW1hZScsICc8aW5maWxlLm1hZT4nLCAnLW9tYWUnLCAnPG91dGZpbGUubWFlPic=

> <r_lp_tautomer_probability>
1

> <r_epik_Ionization_Penalty>
0.00225707

> <r_epik_Ionization_Penalty_Charging>
0.00223709

> <r_epik_Ionization_Penalty_Neutral>
1.99775e-05

> <r_epik_State_Penalty>
0.00153978

> <r_epik_Charging_Adjusted_Penalty>
0.00377687

> <i_epik_Tot_Q>
1

> <i_epik_Tot_abs_Q>
1

> <r_epik_Metal_State_Penalty>
-0

> <b_epik_Metal_Only>
0

> <s_lp_Force_Field>
OPLS_2005

> <r_lp_Energy>
22.3922

> <b_lp_Chiralities_Consistent>
1

> <s_lp_Variant>
AV-unprocessed.smi:3338-6

> <Gold.Version>
5.8.1

> <Gold.Id.Protein>
6NUR|6NUR_protein|mol2

> <Gold.PLP.Fitness>
44.6558

> <Gold.PLP.PLP>
-30.6869

> <Gold.PLP.part.hbond>
-2.0000

> <Gold.PLP.part.metal>
0.0000

> <Gold.PLP.part.buried>
-4.7818

> <Gold.PLP.part.nonpolar>
-24.4437

> <Gold.PLP.part.repulsive>
0.1971

> <Gold.PLP.ligand.clash>
0.0000

> <Gold.PLP.ligand.torsion>
0.5761

> <Gold.PLP.Chemscore.Hbond>
3.0000

> <Gold.PLP.Chemscore.CHOScore>
2.0000

> <Gold.PLP.Chemscore.Metal>
0.0000

> <Gold.Chemscore.Hbonds>
donor molecule, donor type, donor heavy atom, donor atom, acceptor molecule, acceptor atom, score
      L1  H     6    44       P1  7948  2.00
      L1  H     9    34       P1  7948  1.00
      L1  C    15    39       P1 10747  1.00
      L1  C    17    41       P1 10186  1.00

> <Gold.PLP.Chemscore.Internal.Correction>
0.1212

> <Gold.Rescore>
     Score         DG    S(hbond)    S(metal)    S(lipo)     H(rot)  DE(clash)    DE(int)     intcor
     15.27     -17.07       1.98        0.00      81.01       1.76       0.01       1.79       ----

> <Gold.Chemscore.Fitness>
15.2651

> <Gold.Chemscore.DG>
-17.0652

> <Gold.Chemscore.ZeroCoef>
-5.4800

> <Gold.Chemscore.Hbond>
1.9774

> <Gold.Chemscore.Metal>
0.0000

> <Gold.Chemscore.Lipo>
81.0144

> <Gold.Chemscore.Internal_Hbond>
0.0000

> <Gold.Chemscore.DEClash>
0.0126

> <Gold.Chemscore.DEInternal>
1.7876

> <Gold.Chemscore.Rot>
1.7570

> <Gold.Chemscore.Internal.Correction>
   9.000000E+99

> <Gold.Chemscore.Hbonds>
donor molecule, donor type, donor heavy atom, donor atom, acceptor molecule, acceptor atom, score
      L1  H     6    44       P1  7948  1.00
      L1  H     9    34       P1  7948  0.99

> <Gold.Chemscore.Hbond.Weighted>
-6.6044

> <Gold.Chemscore.Metal.Weighted>
-0.0000

> <Gold.Chemscore.Lipo.Weighted>
-9.4787

> <Gold.Chemscore.Internal_Hbond.Weighted>
0.0000

> <Gold.Chemscore.DEClash.Weighted>
0.0126

> <Gold.Chemscore.DEInternal.Weighted>
1.7876

> <Gold.Chemscore.Rot.Weighted>
4.4979

> <Gold.Chemscore.Internal.Correction.Weighted>
   9.000000E+99

> <Gold.Protein.RotatedTorsions>
[ 6907 6896 6895 6894 ] final  -58.97 input  -60.11 | X-H torsion
[ 7974 7965 7964 7962 ] final  -67.64 input  175.53 | X-H torsion
[ 8008 7997 7996 7995 ] final    4.27 input   59.86 | X-H torsion
[ 10167 10162 10161 10158 ] final  -74.95 input  -65.29 | X-H torsion
[ 10718 10713 10712 10709 ] final -128.58 input   66.30 | X-H torsion
[ 10763 10752 10751 10750 ] final -147.14 input  -60.55 | X-H torsion
[ 11005 11000 10999 10996 ] final  -53.53 input  -57.11 | X-H torsion

> <Gold.Protein.ActiveResidues>
 VAL166  LYS551  ARG553  GLY616  TRP617  ASP618  TYR619  PRO620  LYS621  CYS622 
 ASP623  PHE694  ASN695  SER759  ASP760  ASP761  ALA762  ILE779  LEU786  VAL792 
 PHE793  MET794  SER795  GLU796  ALA797  LYS798  CYS799  TRP800  GLU811  SER814 

> <Gold.Protein.RotatedAtoms>
  150.7965  134.7029  159.6559 H   0  0  0  0  0  0  0  0  0  0  0  0  # atno 6907 bound_to 6896
  152.4078  134.6173  160.0051 H   0  0  0  0  0  0  0  0  0  0  0  0  # atno 6908 bound_to 6896
  151.6425  133.3288  159.3169 H   0  0  0  0  0  0  0  0  0  0  0  0  # atno 6909 bound_to 6896
  145.7266  140.9015  143.0602 H   0  0  0  0  0  0  0  0  0  0  0  0  # atno 7974 bound_to 7965
  154.7138  140.2698  155.6604 H   0  0  0  0  0  0  0  0  0  0  0  0  # atno 8008 bound_to 7997
  156.2803  140.2748  156.1713 H   0  0  0  0  0  0  0  0  0  0  0  0  # atno 8009 bound_to 7997
  155.0598  140.0371  157.2563 H   0  0  0  0  0  0  0  0  0  0  0  0  # atno 8010 bound_to 7997
  140.4984  143.2366  151.7793 H   0  0  0  0  0  0  0  0  0  0  0  0  # atno 10167 bound_to 10162
  156.1965  130.6829  151.0487 H   0  0  0  0  0  0  0  0  0  0  0  0  # atno 10718 bound_to 10713
  154.8301  135.3368  154.6772 H   0  0  0  0  0  0  0  0  0  0  0  0  # atno 10763 bound_to 10752
  153.7393  135.6947  153.4975 H   0  0  0  0  0  0  0  0  0  0  0  0  # atno 10764 bound_to 10752
  153.2256  135.4434  155.0489 H   0  0  0  0  0  0  0  0  0  0  0  0  # atno 10765 bound_to 10752
  141.0981  133.6622  156.4186 H   0  0  0  0  0  0  0  0  0  0  0  0  # atno 11005 bound_to 11000
  144.6903  139.9274  143.7470 LP  0  0  0  0  0  0  0  0  0  0  0  0  # atno 17320 bound_to 7965
  146.0576  139.3572  143.0601 LP  0  0  0  0  0  0  0  0  0  0  0  0  # atno 17321 bound_to 7965
  139.4866  144.4555  151.9603 LP  0  0  0  0  0  0  0  0  0  0  0  0  # atno 17342 bound_to 10162
  140.3644  144.2933  150.5929 LP  0  0  0  0  0  0  0  0  0  0  0  0  # atno 17343 bound_to 10162
  157.6960  131.0793  150.6966 LP  0  0  0  0  0  0  0  0  0  0  0  0  # atno 17370 bound_to 10713
  156.7023  130.4627  149.5569 LP  0  0  0  0  0  0  0  0  0  0  0  0  # atno 17371 bound_to 10713
  140.5091  134.6412  157.5277 LP  0  0  0  0  0  0  0  0  0  0  0  0  # atno 17394 bound_to 11000
  139.9823  134.7117  155.9837 LP  0  0  0  0  0  0  0  0  0  0  0  0  # atno 17395 bound_to 11000

$$$$
