AV-unprocessed.smi:1681|AV-procd|sdf|6742|dock7
  -GOLD-   22720 7493D 1   1.00000     0.00000
 Structure written by MMmdl.
 40 41  0  0  0  0  0  0  0  0  1 V2000
  153.1933  142.1121  159.0505 C   0  0  0  0  0  0  0  0  0  0  0  0
  153.1064  140.6616  158.5707 C   0  0  0  0  0  0  0  0  0  0  0  0
  154.1290  139.9771  158.6111 O   0  0  0  0  0  0  0  0  0  0  0  0
  151.9225  140.1834  158.1175 N   0  0  0  0  0  0  0  0  0  0  0  0
  150.6910  140.9692  157.9649 C   0  0  0  0  0  0  0  0  0  0  0  0
  150.4247  141.1804  156.4636 C   0  0  0  0  0  0  0  0  0  0  0  0
  150.3524  139.8319  155.7217 C   0  0  0  0  0  0  0  0  0  0  0  0
  151.5762  138.9385  156.0353 C   0  0  2  0  0  0  0  0  0  0  0  0
  151.4279  137.5489  155.4013 C   0  0  0  0  0  0  0  0  0  0  0  0
  151.9788  137.3045  154.3275 O   0  0  0  0  0  0  0  0  0  0  0  0
  150.6780  136.6675  156.0867 N   0  0  0  0  0  0  0  0  0  0  0  0
  150.3836  135.3260  155.7359 C   0  0  0  0  0  0  0  0  0  0  0  0
  150.7946  134.1874  156.4763 C   0  0  0  0  0  0  0  0  0  0  0  0
  150.3801  133.0680  155.9031 N   0  0  0  0  0  0  0  0  0  0  0  0
  149.7056  133.4677  154.7957 N   0  0  0  0  0  0  0  0  0  0  0  0
  149.1215  132.4749  153.9114 C   0  0  0  0  0  0  0  0  0  0  0  0
  147.6844  132.8421  153.5346 C   0  0  0  0  0  0  0  0  0  0  0  0
  147.3214  132.6656  152.2610 N   0  0  0  0  0  0  0  0  0  0  0  0
  146.9121  133.2851  154.3818 O   0  0  0  0  0  0  0  0  0  0  0  0
  149.6852  134.8428  154.6658 C   0  0  0  0  0  0  0  0  0  0  0  0
  151.7737  138.8314  157.5644 C   0  0  0  0  0  0  0  0  0  0  0  0
  152.9053  142.8010  158.2558 H   0  0  0  0  0  0  0  0  0  0  0  0
  154.2134  142.3574  159.3485 H   0  0  0  0  0  0  0  0  0  0  0  0
  152.5461  142.2730  159.9130 H   0  0  0  0  0  0  0  0  0  0  0  0
  149.8608  140.4243  158.4166 H   0  0  0  0  0  0  0  0  0  0  0  0
  150.7185  141.9300  158.4768 H   0  0  0  0  0  0  0  0  0  0  0  0
  149.4967  141.7348  156.3207 H   0  0  0  0  0  0  0  0  0  0  0  0
  151.2204  141.7917  156.0355 H   0  0  0  0  0  0  0  0  0  0  0  0
  149.4338  139.3217  156.0163 H   0  0  0  0  0  0  0  0  0  0  0  0
  150.2757  140.0059  154.6476 H   0  0  0  0  0  0  0  0  0  0  0  0
  152.4622  139.4177  155.6134 H   0  0  0  0  0  0  0  0  0  0  0  0
  150.2760  136.9937  156.9537 H   0  0  0  0  0  0  0  0  0  0  0  0
  151.3690  134.1357  157.3895 H   0  0  0  0  0  0  0  0  0  0  0  0
  149.7348  132.3870  153.0130 H   0  0  0  0  0  0  0  0  0  0  0  0
  149.1397  131.5034  154.4073 H   0  0  0  0  0  0  0  0  0  0  0  0
  146.3850  132.8996  151.9647 H   0  0  0  0  0  0  0  0  0  0  0  0
  147.9898  132.3030  151.5966 H   0  0  0  0  0  0  0  0  0  0  0  0
  149.1921  135.3325  153.8393 H   0  0  0  0  0  0  0  0  0  0  0  0
  152.6281  138.1916  157.7917 H   0  0  0  0  0  0  0  0  0  0  0  0
  150.9131  138.3492  158.0316 H   0  0  0  0  0  0  0  0  0  0  0  0
  1  2  1  0  0  0  0
  1 22  1  0  0  0  0
  1 23  1  0  0  0  0
  1 24  1  0  0  0  0
  2  3  2  0  0  0  0
  2  4  1  0  0  0  0
  4 21  1  0  0  0  0
  4  5  1  0  0  0  0
  5  6  1  0  0  0  0
  5 25  1  0  0  0  0
  5 26  1  0  0  0  0
  6  7  1  0  0  0  0
  6 27  1  0  0  0  0
  6 28  1  0  0  0  0
  7  8  1  0  0  0  0
  7 29  1  0  0  0  0
  7 30  1  0  0  0  0
  8  9  1  0  0  0  0
  8 21  1  0  0  0  0
  8 31  1  0  0  0  0
  9 10  2  0  0  0  0
  9 11  1  0  0  0  0
 11 12  1  0  0  0  0
 11 32  1  0  0  0  0
 12 20  2  0  0  0  0
 12 13  1  0  0  0  0
 13 14  2  0  0  0  0
 13 33  1  0  0  0  0
 14 15  1  0  0  0  0
 15 16  1  0  0  0  0
 15 20  1  0  0  0  0
 16 17  1  0  0  0  0
 16 34  1  0  0  0  0
 16 35  1  0  0  0  0
 17 18  1  0  0  0  0
 17 19  2  0  0  0  0
 18 36  1  0  0  0  0
 18 37  1  0  0  0  0
 20 38  1  0  0  0  0
 21 39  1  0  0  0  0
 21 40  1  0  0  0  0
M  END
> <s_m_source_file>
AV-unprocessed.smi

> <i_m_source_file_index>
1681

> <i_lp_mmshare_version>
43012

> <i_f3d_flags>
0

> <s_epik_input>
W0NIM11DKD1PKU4xW0NIMl1bQ0gyXVtDSDJdW0NASF0oW0NIMl0xKUMoPU8pW05IXWMyW2NIXW5uKFtjSF0yKVtDSDJdQyg9TylbTkgyXQ==

> <s_epik_cmdline>
J2VwaWtfcHl0aG9uJywgJy1waCcsICc3LjAnLCAnLXRuJywgJzgnLCAnLW1hJywgJzIwMCcsICctbWV0YWxfYmluZGluZycsICctaW1hZScsICc8aW5maWxlLm1hZT4nLCAnLW9tYWUnLCAnPG91dGZpbGUubWFlPic=

> <r_lp_tautomer_probability>
1

> <r_epik_Ionization_Penalty>
6.05275e-06

> <r_epik_Ionization_Penalty_Charging>
0

> <r_epik_Ionization_Penalty_Neutral>
6.05275e-06

> <r_epik_State_Penalty>
-0

> <r_epik_Charging_Adjusted_Penalty>
0

> <i_epik_Tot_Q>
0

> <i_epik_Tot_abs_Q>
0

> <r_epik_Metal_State_Penalty>
-0

> <b_epik_Metal_Only>
0

> <s_lp_Force_Field>
OPLS_2005

> <r_lp_Energy>
29.5866

> <b_lp_Chiralities_Consistent>
1

> <s_lp_Variant>
AV-unprocessed.smi:1681-2

> <Gold.Version>
5.8.1

> <Gold.Id.Protein>
6NUR|6NUR_protein|mol2

> <Gold.PLP.Fitness>
42.1258

> <Gold.PLP.PLP>
-33.9325

> <Gold.PLP.part.hbond>
-3.0000

> <Gold.PLP.part.metal>
0.0000

> <Gold.PLP.part.buried>
-4.2389

> <Gold.PLP.part.nonpolar>
-26.8817

> <Gold.PLP.part.repulsive>
0.2892

> <Gold.PLP.ligand.clash>
0.0000

> <Gold.PLP.ligand.torsion>
1.5916

> <Gold.PLP.Chemscore.Hbond>
2.7840

> <Gold.PLP.Chemscore.CHOScore>
1.0000

> <Gold.PLP.Chemscore.Metal>
0.0000

> <Gold.Chemscore.Hbonds>
donor molecule, donor type, donor heavy atom, donor atom, acceptor molecule, acceptor atom, score
      L1  H    18    37       P1 10747  0.60
      P1  H  7997  8008       L1     3  1.00
      P1  H 10752 10763       L1    10  0.85
      L1  C    20    38       P1  7948  1.00

> <Gold.PLP.Chemscore.Internal.Correction>
0.0244

> <Gold.Rescore>
     Score         DG    S(hbond)    S(metal)    S(lipo)     H(rot)  DE(clash)    DE(int)     intcor
     14.88     -16.21       2.90        0.00      51.88       1.96       0.05       1.28       ----

> <Gold.Chemscore.Fitness>
14.8762

> <Gold.Chemscore.DG>
-16.2088

> <Gold.Chemscore.ZeroCoef>
-5.4800

> <Gold.Chemscore.Hbond>
2.8983

> <Gold.Chemscore.Metal>
0.0000

> <Gold.Chemscore.Lipo>
51.8848

> <Gold.Chemscore.Internal_Hbond>
0.0000

> <Gold.Chemscore.DEClash>
0.0544

> <Gold.Chemscore.DEInternal>
1.2782

> <Gold.Chemscore.Rot>
1.9617

> <Gold.Chemscore.Internal.Correction>
   9.000000E+99

> <Gold.Chemscore.Hbonds>
donor molecule, donor type, donor heavy atom, donor atom, acceptor molecule, acceptor atom, score
      L1  H    18    37       P1 10747  0.60
      P1  H  7997  8008       L1     3  0.60
      P1  H 10752 10763       L1    10  0.59

> <Gold.Chemscore.Hbond.Weighted>
-9.6803

> <Gold.Chemscore.Metal.Weighted>
-0.0000

> <Gold.Chemscore.Lipo.Weighted>
-6.0705

> <Gold.Chemscore.Internal_Hbond.Weighted>
0.0000

> <Gold.Chemscore.DEClash.Weighted>
0.0544

> <Gold.Chemscore.DEInternal.Weighted>
1.2782

> <Gold.Chemscore.Rot.Weighted>
5.0220

> <Gold.Chemscore.Internal.Correction.Weighted>
   9.000000E+99

> <Gold.Protein.RotatedTorsions>
[ 6907 6896 6895 6894 ] final  -58.90 input  -60.11 | X-H torsion
[ 7974 7965 7964 7962 ] final -136.66 input  175.53 | X-H torsion
[ 8008 7997 7996 7995 ] final -101.86 input   59.86 | X-H torsion
[ 10167 10162 10161 10158 ] final   58.34 input  -65.29 | X-H torsion
[ 10718 10713 10712 10709 ] final  -19.79 input   66.30 | X-H torsion
[ 10763 10752 10751 10750 ] final   53.57 input  -60.55 | X-H torsion
[ 11005 11000 10999 10996 ] final   44.14 input  -57.11 | X-H torsion

> <Gold.Protein.ActiveResidues>
 VAL166  LYS551  ARG553  GLY616  TRP617  ASP618  TYR619  PRO620  LYS621  CYS622 
 ASP623  PHE694  ASN695  SER759  ASP760  ASP761  ALA762  ILE779  LEU786  VAL792 
 PHE793  MET794  SER795  GLU796  ALA797  LYS798  CYS799  TRP800  GLU811  SER814 

> <Gold.Protein.RotatedAtoms>
  150.7971  134.7039  159.6565 H   0  0  0  0  0  0  0  0  0  0  0  0  # atno 6907 bound_to 6896
  152.4085  134.6162  160.0048 H   0  0  0  0  0  0  0  0  0  0  0  0  # atno 6908 bound_to 6896
  151.6412  133.3289  159.3167 H   0  0  0  0  0  0  0  0  0  0  0  0  # atno 6909 bound_to 6896
  144.8908  140.6639  143.5146 H   0  0  0  0  0  0  0  0  0  0  0  0  # atno 7974 bound_to 7965
  154.8485  140.0432  157.1588 H   0  0  0  0  0  0  0  0  0  0  0  0  # atno 8008 bound_to 7997
  154.8969  140.2994  155.5319 H   0  0  0  0  0  0  0  0  0  0  0  0  # atno 8009 bound_to 7997
  156.2995  140.2383  156.3992 H   0  0  0  0  0  0  0  0  0  0  0  0  # atno 8010 bound_to 7997
  140.1882  144.4112  150.6583 H   0  0  0  0  0  0  0  0  0  0  0  0  # atno 10167 bound_to 10162
  156.5408  130.4677  149.6500 H   0  0  0  0  0  0  0  0  0  0  0  0  # atno 10718 bound_to 10713
  152.9796  135.5774  154.4763 H   0  0  0  0  0  0  0  0  0  0  0  0  # atno 10763 bound_to 10752
  154.4318  135.2774  155.1909 H   0  0  0  0  0  0  0  0  0  0  0  0  # atno 10764 bound_to 10752
  154.3614  135.6188  153.5746 H   0  0  0  0  0  0  0  0  0  0  0  0  # atno 10765 bound_to 10752
  140.1579  134.4379  155.8337 H   0  0  0  0  0  0  0  0  0  0  0  0  # atno 11005 bound_to 11000
  145.3786  139.1642  143.4293 LP  0  0  0  0  0  0  0  0  0  0  0  0  # atno 17320 bound_to 7965
  146.3052  140.3865  142.8689 LP  0  0  0  0  0  0  0  0  0  0  0  0  # atno 17321 bound_to 7965
  140.6473  143.2216  151.6156 LP  0  0  0  0  0  0  0  0  0  0  0  0  # atno 17342 bound_to 10162
  139.5267  144.3038  152.1051 LP  0  0  0  0  0  0  0  0  0  0  0  0  # atno 17343 bound_to 10162
  156.2973  130.7157  151.2021 LP  0  0  0  0  0  0  0  0  0  0  0  0  # atno 17370 bound_to 10713
  157.7405  131.0515  150.5158 LP  0  0  0  0  0  0  0  0  0  0  0  0  # atno 17371 bound_to 10713
  141.2206  133.6900  156.7540 LP  0  0  0  0  0  0  0  0  0  0  0  0  # atno 17394 bound_to 11000
  140.2525  134.8529  157.3681 LP  0  0  0  0  0  0  0  0  0  0  0  0  # atno 17395 bound_to 11000

$$$$
