AV-unprocessed.smi:2207|AV-procd|sdf|8944|dock1
  -GOLD-   2272012163D 1   1.00000     0.00000
 Structure written by MMmdl.
 18 18  0  0  0  0  0  0  0  0  1 V2000
  145.2741  136.2981  149.8881 N   0  0  0  0  0  0  0  0  0  0  0  0
  145.6801  136.0021  151.1257 C   0  0  0  0  0  0  0  0  0  0  0  0
  145.4892  136.7543  152.0788 O   0  0  0  0  0  0  0  0  0  0  0  0
  146.4094  134.6718  151.3220 C   0  0  0  0  0  0  0  0  0  0  0  0
  145.5761  133.5512  150.9235 N   0  0  0  0  0  0  0  0  0  0  0  0
  145.8788  132.2030  150.9615 C   0  0  0  0  0  0  0  0  0  0  0  0
  144.7905  131.5233  150.4921 C   0  0  0  0  0  0  0  0  0  0  0  0
  143.8713  132.5643  150.1927 C   0  0  0  0  0  0  0  0  0  0  0  0
  142.5986  132.3326  149.6782 N   0  0  0  0  0  0  0  0  0  0  0  0
  144.3305  133.7761  150.4461 N   0  0  0  0  0  0  0  0  0  0  0  0
  144.7839  137.1636  149.7140 H   0  0  0  0  0  0  0  0  0  0  0  0
  145.4538  135.6532  149.1321 H   0  0  0  0  0  0  0  0  0  0  0  0
  147.3373  134.6629  150.7478 H   0  0  0  0  0  0  0  0  0  0  0  0
  146.6811  134.5484  152.3712 H   0  0  0  0  0  0  0  0  0  0  0  0
  146.8337  131.8448  151.3174 H   0  0  0  0  0  0  0  0  0  0  0  0
  144.6738  130.4553  150.3825 H   0  0  0  0  0  0  0  0  0  0  0  0
  142.2657  131.3978  149.4915 H   0  0  0  0  0  0  0  0  0  0  0  0
  141.9697  133.0946  149.4691 H   0  0  0  0  0  0  0  0  0  0  0  0
  1  2  1  0  0  0  0
  1 11  1  0  0  0  0
  1 12  1  0  0  0  0
  2  3  2  0  0  0  0
  2  4  1  0  0  0  0
  4  5  1  0  0  0  0
  4 13  1  0  0  0  0
  4 14  1  0  0  0  0
  5 10  1  0  0  0  0
  5  6  1  0  0  0  0
  6  7  2  0  0  0  0
  6 15  1  0  0  0  0
  7  8  1  0  0  0  0
  7 16  1  0  0  0  0
  8  9  1  0  0  0  0
  8 10  2  0  0  0  0
  9 17  1  0  0  0  0
  9 18  1  0  0  0  0
M  END
> <s_m_source_file>
AV-unprocessed.smi

> <i_m_source_file_index>
2207

> <i_lp_mmshare_version>
43012

> <i_f3d_flags>
0

> <s_epik_input>
W05IMl1DKD1PKVtDSDJdbjFbY0hdW2NIXWMobjEpW05IMl0=

> <s_epik_cmdline>
J2VwaWtfcHl0aG9uJywgJy1waCcsICc3LjAnLCAnLXRuJywgJzgnLCAnLW1hJywgJzIwMCcsICctbWV0YWxfYmluZGluZycsICctaW1hZScsICc8aW5maWxlLm1hZT4nLCAnLW9tYWUnLCAnPG91dGZpbGUubWFlPic=

> <r_lp_tautomer_probability>
1

> <r_epik_Ionization_Penalty>
0.000204489

> <r_epik_Ionization_Penalty_Charging>
0

> <r_epik_Ionization_Penalty_Neutral>
0.000204489

> <r_epik_State_Penalty>
-0

> <r_epik_Charging_Adjusted_Penalty>
0

> <i_epik_Tot_Q>
0

> <i_epik_Tot_abs_Q>
0

> <r_epik_Metal_State_Penalty>
-0

> <b_epik_Metal_Only>
0

> <s_lp_Force_Field>
OPLS_2005

> <r_lp_Energy>
0.150193

> <b_lp_Chiralities_Consistent>
1

> <s_lp_Variant>
AV-unprocessed.smi:2207-1

> <Gold.Version>
5.8.1

> <Gold.Id.Protein>
6NUR|6NUR_protein|mol2

> <Gold.PLP.Fitness>
34.9974

> <Gold.PLP.PLP>
-20.7803

> <Gold.PLP.part.hbond>
-4.0000

> <Gold.PLP.part.metal>
0.0000

> <Gold.PLP.part.buried>
-4.0205

> <Gold.PLP.part.nonpolar>
-13.2364

> <Gold.PLP.part.repulsive>
0.6552

> <Gold.PLP.ligand.clash>
0.0000

> <Gold.PLP.ligand.torsion>
0.0009

> <Gold.PLP.Chemscore.Hbond>
3.8640

> <Gold.PLP.Chemscore.CHOScore>
0.8757

> <Gold.PLP.Chemscore.Metal>
0.0000

> <Gold.Chemscore.Hbonds>
donor molecule, donor type, donor heavy atom, donor atom, acceptor molecule, acceptor atom, score
      L1  H     1    11       P1 10171  1.00
      L1  H     1    12       P1  7921  1.00
      L1  H     9    17       P1 10952  0.86
      L1  H     9    18       P1 10186  1.00
      L1  C     6    15       P1 10747  0.88

> <Gold.PLP.Chemscore.Internal.Correction>
0.0001

> <Gold.Rescore>
     Score         DG    S(hbond)    S(metal)    S(lipo)     H(rot)  DE(clash)    DE(int)     intcor
     15.82     -17.21       3.93        0.00      24.69       1.67       0.03       1.36       ----

> <Gold.Chemscore.Fitness>
15.8213

> <Gold.Chemscore.DG>
-17.2117

> <Gold.Chemscore.ZeroCoef>
-5.4800

> <Gold.Chemscore.Hbond>
3.9287

> <Gold.Chemscore.Metal>
0.0000

> <Gold.Chemscore.Lipo>
24.6936

> <Gold.Chemscore.Internal_Hbond>
0.0000

> <Gold.Chemscore.DEClash>
0.0310

> <Gold.Chemscore.DEInternal>
1.3594

> <Gold.Chemscore.Rot>
1.6716

> <Gold.Chemscore.Internal.Correction>
   9.000000E+99

> <Gold.Chemscore.Hbonds>
donor molecule, donor type, donor heavy atom, donor atom, acceptor molecule, acceptor atom, score
      L1  H     1    11       P1 10171  1.00
      L1  H     1    12       P1  7921  1.00
      L1  H     9    17       P1 10952  0.85
      L1  H     9    18       P1 10186  0.99

> <Gold.Chemscore.Hbond.Weighted>
-13.1219

> <Gold.Chemscore.Metal.Weighted>
-0.0000

> <Gold.Chemscore.Lipo.Weighted>
-2.8891

> <Gold.Chemscore.Internal_Hbond.Weighted>
0.0000

> <Gold.Chemscore.DEClash.Weighted>
0.0310

> <Gold.Chemscore.DEInternal.Weighted>
1.3594

> <Gold.Chemscore.Rot.Weighted>
4.2794

> <Gold.Chemscore.Internal.Correction.Weighted>
   9.000000E+99

> <Gold.Protein.RotatedTorsions>
[ 6907 6896 6895 6894 ] final  178.24 input  -60.11 | X-H torsion
[ 7974 7965 7964 7962 ] final  150.18 input  175.53 | X-H torsion
[ 8008 7997 7996 7995 ] final  -47.41 input   59.86 | X-H torsion
[ 10167 10162 10161 10158 ] final   23.21 input  -65.29 | X-H torsion
[ 10718 10713 10712 10709 ] final  114.09 input   66.30 | X-H torsion
[ 10763 10752 10751 10750 ] final -145.80 input  -60.55 | X-H torsion
[ 11005 11000 10999 10996 ] final  172.07 input  -57.11 | X-H torsion

> <Gold.Protein.ActiveResidues>
 VAL166  LYS551  ARG553  GLY616  TRP617  ASP618  TYR619  PRO620  LYS621  CYS622 
 ASP623  PHE694  ASN695  SER759  ASP760  ASP761  ALA762  ILE779  LEU786  VAL792 
 PHE793  MET794  SER795  GLU796  ALA797  LYS798  CYS799  TRP800  GLU811  SER814 

> <Gold.Protein.RotatedAtoms>
  151.6911  133.3311  159.3242 H   0  0  0  0  0  0  0  0  0  0  0  0  # atno 6907 bound_to 6896
  150.7778  134.6698  159.6394 H   0  0  0  0  0  0  0  0  0  0  0  0  # atno 6908 bound_to 6896
  152.3826  134.6569  160.0189 H   0  0  0  0  0  0  0  0  0  0  0  0  # atno 6909 bound_to 6896
  144.8383  139.6375  143.6028 H   0  0  0  0  0  0  0  0  0  0  0  0  # atno 7974 bound_to 7965
  154.4016  140.1347  156.4171 H   0  0  0  0  0  0  0  0  0  0  0  0  # atno 8008 bound_to 7997
  155.7678  140.3484  155.5211 H   0  0  0  0  0  0  0  0  0  0  0  0  # atno 8009 bound_to 7997
  155.8796  140.0985  157.1484 H   0  0  0  0  0  0  0  0  0  0  0  0  # atno 8010 bound_to 7997
  140.5287  143.9879  150.6454 H   0  0  0  0  0  0  0  0  0  0  0  0  # atno 10167 bound_to 10162
  157.6301  131.0993  150.7135 H   0  0  0  0  0  0  0  0  0  0  0  0  # atno 10718 bound_to 10713
  154.8366  135.3403  154.6562 H   0  0  0  0  0  0  0  0  0  0  0  0  # atno 10763 bound_to 10752
  153.7176  135.6960  153.5025 H   0  0  0  0  0  0  0  0  0  0  0  0  # atno 10764 bound_to 10752
  153.2405  135.4386  155.0646 H   0  0  0  0  0  0  0  0  0  0  0  0  # atno 10765 bound_to 10752
  140.3258  134.7399  157.4098 H   0  0  0  0  0  0  0  0  0  0  0  0  # atno 11005 bound_to 11000
  146.2679  139.6564  142.9316 LP  0  0  0  0  0  0  0  0  0  0  0  0  # atno 17320 bound_to 7965
  145.4747  141.0437  143.2679 LP  0  0  0  0  0  0  0  0  0  0  0  0  # atno 17321 bound_to 7965
  140.3248  143.3114  152.0748 LP  0  0  0  0  0  0  0  0  0  0  0  0  # atno 17342 bound_to 10162
  139.4947  144.6549  151.6594 LP  0  0  0  0  0  0  0  0  0  0  0  0  # atno 17343 bound_to 10162
  156.7476  130.4758  149.5463 LP  0  0  0  0  0  0  0  0  0  0  0  0  # atno 17370 bound_to 10713
  156.1499  130.6303  151.0582 LP  0  0  0  0  0  0  0  0  0  0  0  0  # atno 17371 bound_to 10713
  140.0903  134.5611  155.8451 LP  0  0  0  0  0  0  0  0  0  0  0  0  # atno 17394 bound_to 11000
  141.2075  133.6665  156.6313 LP  0  0  0  0  0  0  0  0  0  0  0  0  # atno 17395 bound_to 11000

$$$$
