AV-unprocessed.smi:1196|AV-procd|sdf|5004|dock1
  -GOLD-   22720 4 13D 1   1.00000     0.00000
 Structure written by MMmdl.
 36 37  0  0  0  0  0  0  0  0  2 V2000
  148.0189  132.5240  153.9377 C   0  0  0  0  0  0  0  0  0  0  0  0
  147.3379  133.8311  153.5102 C   0  0  2  0  0  0  0  0  0  0  0  0
  147.1152  133.8790  151.9835 C   0  0  0  0  0  0  0  0  0  0  0  0
  145.7728  133.4739  151.6018 N   0  0  0  0  0  0  0  0  0  0  0  0
  145.1417  132.2706  151.8368 C   0  0  0  0  0  0  0  0  0  0  0  0
  143.8826  132.3640  151.3169 C   0  0  0  0  0  0  0  0  0  0  0  0
  143.8371  133.6787  150.7744 C   0  0  0  0  0  0  0  0  0  0  0  0
  144.9722  134.3381  150.9407 N   0  0  0  0  0  0  0  0  0  0  0  0
  148.1537  134.9629  153.9488 N   0  0  0  0  0  0  0  0  0  0  0  0
  148.4102  135.2933  155.2248 C   0  0  0  0  0  0  0  0  0  0  0  0
  148.0365  134.6236  156.1881 O   0  0  0  0  0  0  0  0  0  0  0  0
  149.1904  136.5894  155.4487 C   0  0  0  0  0  0  0  0  0  0  0  0
  150.5947  136.3197  156.0199 C   0  0  0  0  0  0  0  0  0  0  0  0
  151.2167  137.5560  156.6975 C   0  0  2  0  0  0  0  0  0  0  0  0
  150.9203  138.7629  155.9563 N   0  0  0  0  0  0  0  0  0  0  0  0
  152.0344  139.3861  155.5777 C   0  0  0  0  0  0  0  0  0  0  0  0
  152.0029  140.4428  154.9510 O   0  0  0  0  0  0  0  0  0  0  0  0
  153.1153  138.6886  155.9777 N   0  5  0  0  0  0  0  0  0  0  0  0
  152.7441  137.5756  156.6468 C   0  0  0  0  0  0  0  0  0  0  0  0
  153.4273  136.6924  157.1624 O   0  0  0  0  0  0  0  0  0  0  0  0
  147.4199  131.6590  153.6521 H   0  0  0  0  0  0  0  0  0  0  0  0
  148.1539  132.4867  155.0192 H   0  0  0  0  0  0  0  0  0  0  0  0
  149.0003  132.4162  153.4745 H   0  0  0  0  0  0  0  0  0  0  0  0
  146.3640  133.8605  154.0023 H   0  0  0  0  0  0  0  0  0  0  0  0
  147.3105  134.8815  151.5985 H   0  0  0  0  0  0  0  0  0  0  0  0
  147.8186  133.2127  151.4828 H   0  0  0  0  0  0  0  0  0  0  0  0
  145.6333  131.4610  152.3558 H   0  0  0  0  0  0  0  0  0  0  0  0
  143.1102  131.6096  151.3261 H   0  0  0  0  0  0  0  0  0  0  0  0
  143.0192  134.1695  150.2677 H   0  0  0  0  0  0  0  0  0  0  0  0
  148.5018  135.5774  153.2271 H   0  0  0  0  0  0  0  0  0  0  0  0
  149.2641  137.1160  154.4969 H   0  0  0  0  0  0  0  0  0  0  0  0
  148.6369  137.2418  156.1258 H   0  0  0  0  0  0  0  0  0  0  0  0
  150.5256  135.5140  156.7531 H   0  0  0  0  0  0  0  0  0  0  0  0
  151.2573  135.9555  155.2325 H   0  0  0  0  0  0  0  0  0  0  0  0
  150.8825  137.6551  157.7311 H   0  0  0  0  0  0  0  0  0  0  0  0
  149.9834  139.0905  155.7736 H   0  0  0  0  0  0  0  0  0  0  0  0
  1  2  1  0  0  0  0
  1 21  1  0  0  0  0
  1 22  1  0  0  0  0
  1 23  1  0  0  0  0
  2  3  1  0  0  0  0
  2  9  1  0  0  0  0
  2 24  1  0  0  0  0
  3  4  1  0  0  0  0
  3 25  1  0  0  0  0
  3 26  1  0  0  0  0
  4  8  1  0  0  0  0
  4  5  1  0  0  0  0
  5  6  2  0  0  0  0
  5 27  1  0  0  0  0
  6  7  1  0  0  0  0
  6 28  1  0  0  0  0
  7  8  2  0  0  0  0
  7 29  1  0  0  0  0
  9 10  1  0  0  0  0
  9 30  1  0  0  0  0
 10 11  2  0  0  0  0
 10 12  1  0  0  0  0
 12 13  1  0  0  0  0
 12 31  1  0  0  0  0
 12 32  1  0  0  0  0
 13 14  1  0  0  0  0
 13 33  1  0  0  0  0
 13 34  1  0  0  0  0
 14 19  1  0  0  0  0
 14 15  1  0  0  0  0
 14 35  1  0  0  0  0
 15 16  1  0  0  0  0
 15 36  1  0  0  0  0
 16 17  2  0  0  0  0
 16 18  1  0  0  0  0
 18 19  1  0  0  0  0
 19 20  2  0  0  0  0
M  CHG  1  18  -1
M  END
> <s_m_source_file>
AV-unprocessed.smi

> <i_m_source_file_index>
1196

> <i_lp_mmshare_version>
43012

> <i_f3d_flags>
0

> <s_epik_input>
bjFbY0hdW2NIXVtjSF1uMVtDSDJdW0NAQEhdKFtDSDNdKVtOSF1DKD1PKVtDSDJdW0NIMl1bQ0BASF0yW05IXUMoPU8pW05IXUMyPU8=

> <s_epik_cmdline>
J2VwaWtfcHl0aG9uJywgJy1waCcsICc3LjAnLCAnLXRuJywgJzgnLCAnLW1hJywgJzIwMCcsICctbWV0YWxfYmluZGluZycsICctaW1hZScsICc8aW5maWxlLm1hZT4nLCAnLW9tYWUnLCAnPG91dGZpbGUubWFlPic=

> <r_lp_tautomer_probability>
1

> <r_epik_Ionization_Penalty>
2.57056

> <r_epik_Ionization_Penalty_Charging>
2.57023

> <r_epik_Ionization_Penalty_Neutral>
0.000331301

> <r_epik_State_Penalty>
2.56828

> <r_epik_Charging_Adjusted_Penalty>
5.13851

> <i_epik_Tot_Q>
-1

> <i_epik_Tot_abs_Q>
1

> <r_epik_Metal_State_Penalty>
0.444883

> <b_epik_Metal_Only>
1

> <s_lp_Force_Field>
OPLS_2005

> <r_lp_Energy>
6.89561

> <b_lp_Chiralities_Consistent>
1

> <s_lp_Variant>
AV-unprocessed.smi:1196-9

> <Gold.Version>
5.8.1

> <Gold.Id.Protein>
6NUR|6NUR_protein|mol2

> <Gold.PLP.Fitness>
45.0029

> <Gold.PLP.PLP>
-29.1233

> <Gold.PLP.part.hbond>
-4.0000

> <Gold.PLP.part.metal>
0.0000

> <Gold.PLP.part.buried>
-3.2291

> <Gold.PLP.part.nonpolar>
-21.1695

> <Gold.PLP.part.repulsive>
0.2010

> <Gold.PLP.ligand.clash>
0.0000

> <Gold.PLP.ligand.torsion>
0.9852

> <Gold.PLP.Chemscore.Hbond>
4.8880

> <Gold.PLP.Chemscore.CHOScore>
0.9952

> <Gold.PLP.Chemscore.Metal>
0.0000

> <Gold.Chemscore.Hbonds>
donor molecule, donor type, donor heavy atom, donor atom, acceptor molecule, acceptor atom, score
      L1  H     9    30       P1  7948  1.00
      P1  H  7989  7998       L1    17  0.67
      P1  H  7997  8009       L1    18  2.00
      P1  H 10752 10765       L1    20  0.46
      L1  C     7    29       P1 10186  1.00

> <Gold.PLP.Chemscore.Internal.Correction>
0.2002

> <Gold.Rescore>
     Score         DG    S(hbond)    S(metal)    S(lipo)     H(rot)  DE(clash)    DE(int)     intcor
     12.83     -14.26       3.11        0.00      49.48       2.89       0.03       1.41       ----

> <Gold.Chemscore.Fitness>
12.8253

> <Gold.Chemscore.DG>
-14.2573

> <Gold.Chemscore.ZeroCoef>
-5.4800

> <Gold.Chemscore.Hbond>
3.1133

> <Gold.Chemscore.Metal>
0.0000

> <Gold.Chemscore.Lipo>
49.4783

> <Gold.Chemscore.Internal_Hbond>
0.0000

> <Gold.Chemscore.DEClash>
0.0263

> <Gold.Chemscore.DEInternal>
1.4057

> <Gold.Chemscore.Rot>
2.8946

> <Gold.Chemscore.Internal.Correction>
   9.000000E+99

> <Gold.Chemscore.Hbonds>
donor molecule, donor type, donor heavy atom, donor atom, acceptor molecule, acceptor atom, score
      L1  H     9    30       P1  7948  0.95
      P1  H  7989  7998       L1    17  0.64
      P1  H  7997  8009       L1    18  0.25
      P1  H 10752 10765       L1    20  0.10

> <Gold.Chemscore.Hbond.Weighted>
-10.3984

> <Gold.Chemscore.Metal.Weighted>
-0.0000

> <Gold.Chemscore.Lipo.Weighted>
-5.7890

> <Gold.Chemscore.Internal_Hbond.Weighted>
0.0000

> <Gold.Chemscore.DEClash.Weighted>
0.0263

> <Gold.Chemscore.DEInternal.Weighted>
1.4057

> <Gold.Chemscore.Rot.Weighted>
7.4101

> <Gold.Chemscore.Internal.Correction.Weighted>
   9.000000E+99

> <Gold.Protein.RotatedTorsions>
[ 6907 6896 6895 6894 ] final   49.14 input  -60.11 | X-H torsion
[ 7974 7965 7964 7962 ] final -134.27 input  175.53 | X-H torsion
[ 8008 7997 7996 7995 ] final -153.24 input   59.86 | X-H torsion
[ 10167 10162 10161 10158 ] final  -28.45 input  -65.29 | X-H torsion
[ 10718 10713 10712 10709 ] final -134.29 input   66.30 | X-H torsion
[ 10763 10752 10751 10750 ] final -112.48 input  -60.55 | X-H torsion
[ 11005 11000 10999 10996 ] final  -30.62 input  -57.11 | X-H torsion

> <Gold.Protein.ActiveResidues>
 VAL166  LYS551  ARG553  GLY616  TRP617  ASP618  TYR619  PRO620  LYS621  CYS622 
 ASP623  PHE694  ASN695  SER759  ASP760  ASP761  ALA762  ILE779  LEU786  VAL792 
 PHE793  MET794  SER795  GLU796  ALA797  LYS798  CYS799  TRP800  GLU811  SER814 

> <Gold.Protein.RotatedAtoms>
  152.2875  134.7759  160.0384 H   0  0  0  0  0  0  0  0  0  0  0  0  # atno 6907 bound_to 6896
  151.8317  133.3404  159.3623 H   0  0  0  0  0  0  0  0  0  0  0  0  # atno 6908 bound_to 6896
  150.7216  134.5405  159.5789 H   0  0  0  0  0  0  0  0  0  0  0  0  # atno 6909 bound_to 6896
  144.9118  140.6904  143.5020 H   0  0  0  0  0  0  0  0  0  0  0  0  # atno 7974 bound_to 7965
  155.6677  140.0730  157.2531 H   0  0  0  0  0  0  0  0  0  0  0  0  # atno 8008 bound_to 7997
  154.4129  140.1705  156.1896 H   0  0  0  0  0  0  0  0  0  0  0  0  # atno 8009 bound_to 7997
  155.9643  140.3367  155.6522 H   0  0  0  0  0  0  0  0  0  0  0  0  # atno 8010 bound_to 7997
  140.7269  143.4009  151.1267 H   0  0  0  0  0  0  0  0  0  0  0  0  # atno 10167 bound_to 10162
  156.2539  130.7169  151.1078 H   0  0  0  0  0  0  0  0  0  0  0  0  # atno 10718 bound_to 10713
  154.8351  135.4489  154.1200 H   0  0  0  0  0  0  0  0  0  0  0  0  # atno 10763 bound_to 10752
  153.2438  135.6919  153.7760 H   0  0  0  0  0  0  0  0  0  0  0  0  # atno 10764 bound_to 10752
  153.7097  135.3358  155.3219 H   0  0  0  0  0  0  0  0  0  0  0  0  # atno 10765 bound_to 10752
  140.9398  133.7286  156.1059 H   0  0  0  0  0  0  0  0  0  0  0  0  # atno 11005 bound_to 11000
  145.3442  139.1724  143.4469 LP  0  0  0  0  0  0  0  0  0  0  0  0  # atno 17320 bound_to 7965
  146.3162  140.3486  142.8654 LP  0  0  0  0  0  0  0  0  0  0  0  0  # atno 17321 bound_to 7965
  139.7629  143.8609  152.3104 LP  0  0  0  0  0  0  0  0  0  0  0  0  # atno 17342 bound_to 10162
  139.8501  144.7168  150.9225 LP  0  0  0  0  0  0  0  0  0  0  0  0  # atno 17343 bound_to 10162
  157.7225  131.0672  150.6076 LP  0  0  0  0  0  0  0  0  0  0  0  0  # atno 17370 bound_to 10713
  156.6158  130.4392  149.5841 LP  0  0  0  0  0  0  0  0  0  0  0  0  # atno 17371 bound_to 10713
  140.7749  134.3790  157.5500 LP  0  0  0  0  0  0  0  0  0  0  0  0  # atno 17394 bound_to 11000
  139.8817  134.9046  156.2880 LP  0  0  0  0  0  0  0  0  0  0  0  0  # atno 17395 bound_to 11000

$$$$
