AV-unprocessed.smi:1256|AV-procd|sdf|5283|dock1
  -GOLD-   22720 4403D 1   1.00000     0.00000
 Structure written by MMmdl.
 41 42  0  0  0  0  0  0  0  0  1 V2000
  150.1978  142.1898  155.8621 C   0  0  0  0  0  0  0  0  0  0  0  0
  149.9306  140.8902  155.1619 C   0  0  0  0  0  0  0  0  0  0  0  0
  148.7196  140.4564  154.5481 C   0  0  0  0  0  0  0  0  0  0  0  0
  149.0485  139.2145  154.0777 C   0  0  0  0  0  0  0  0  0  0  0  0
  148.2749  138.3227  153.4034 N   0  0  0  0  0  0  0  0  0  0  0  0
  146.9341  138.2639  153.3241 C   0  0  0  0  0  0  0  0  0  0  0  0
  146.1508  139.0395  153.8727 O   0  0  0  0  0  0  0  0  0  0  0  0
  146.5401  137.2383  152.5557 N   0  0  0  0  0  0  0  0  0  0  0  0
  145.1531  136.9000  152.2595 C   0  0  0  0  0  0  0  0  0  0  0  0
  144.7381  135.5823  152.9374 C   0  0  0  0  0  0  0  0  0  0  0  0
  144.7369  134.4018  151.9805 C   0  0  0  0  0  0  0  0  0  0  0  0
  143.6032  133.7483  151.6598 C   0  0  0  0  0  0  0  0  0  0  0  0
  143.5452  132.5366  150.7463 C   0  0  0  0  0  0  0  0  0  0  0  0
  144.9302  131.9088  150.5184 C   0  0  0  0  0  0  0  0  0  0  0  0
  145.9906  132.9864  150.2612 C   0  0  0  0  0  0  0  0  0  0  0  0
  146.0966  133.9683  151.4421 C   0  0  0  0  0  0  0  0  0  0  0  0
  150.3619  138.9508  154.3978 N   0  0  0  0  0  0  0  0  0  0  0  0
  151.1607  137.7736  154.1173 C   0  0  0  0  0  0  0  0  0  0  0  0
  150.9031  139.9901  155.0696 N   0  0  0  0  0  0  0  0  0  0  0  0
  149.3119  142.8253  155.8649 H   0  0  0  0  0  0  0  0  0  0  0  0
  151.0003  142.7418  155.3722 H   0  0  0  0  0  0  0  0  0  0  0  0
  150.4900  142.0244  156.8996 H   0  0  0  0  0  0  0  0  0  0  0  0
  147.7803  140.9837  154.4779 H   0  0  0  0  0  0  0  0  0  0  0  0
  148.7815  137.6169  152.8898 H   0  0  0  0  0  0  0  0  0  0  0  0
  147.2495  136.6502  152.1430 H   0  0  0  0  0  0  0  0  0  0  0  0
  144.5247  137.7147  152.6203 H   0  0  0  0  0  0  0  0  0  0  0  0
  145.0082  136.8520  151.1794 H   0  0  0  0  0  0  0  0  0  0  0  0
  145.4031  135.3528  153.7709 H   0  0  0  0  0  0  0  0  0  0  0  0
  143.7409  135.6970  153.3651 H   0  0  0  0  0  0  0  0  0  0  0  0
  142.6569  134.0877  152.0557 H   0  0  0  0  0  0  0  0  0  0  0  0
  142.8691  131.7962  151.1746 H   0  0  0  0  0  0  0  0  0  0  0  0
  143.1121  132.8507  149.7962 H   0  0  0  0  0  0  0  0  0  0  0  0
  145.2165  131.3273  151.3958 H   0  0  0  0  0  0  0  0  0  0  0  0
  144.8892  131.2085  149.6837 H   0  0  0  0  0  0  0  0  0  0  0  0
  146.9609  132.5263  150.0729 H   0  0  0  0  0  0  0  0  0  0  0  0
  145.7287  133.5349  149.3555 H   0  0  0  0  0  0  0  0  0  0  0  0
  146.6744  134.8379  151.1312 H   0  0  0  0  0  0  0  0  0  0  0  0
  146.6469  133.5052  152.2619 H   0  0  0  0  0  0  0  0  0  0  0  0
  151.0825  137.5195  153.0601 H   0  0  0  0  0  0  0  0  0  0  0  0
  150.7993  136.9360  154.7141 H   0  0  0  0  0  0  0  0  0  0  0  0
  152.2090  137.9547  154.3582 H   0  0  0  0  0  0  0  0  0  0  0  0
  1  2  1  0  0  0  0
  1 20  1  0  0  0  0
  1 21  1  0  0  0  0
  1 22  1  0  0  0  0
  2 19  2  0  0  0  0
  2  3  1  0  0  0  0
  3  4  2  0  0  0  0
  3 23  1  0  0  0  0
  4  5  1  0  0  0  0
  4 17  1  0  0  0  0
  5  6  1  0  0  0  0
  5 24  1  0  0  0  0
  6  7  2  0  0  0  0
  6  8  1  0  0  0  0
  8  9  1  0  0  0  0
  8 25  1  0  0  0  0
  9 10  1  0  0  0  0
  9 26  1  0  0  0  0
  9 27  1  0  0  0  0
 10 11  1  0  0  0  0
 10 28  1  0  0  0  0
 10 29  1  0  0  0  0
 11 16  1  0  0  0  0
 11 12  2  0  0  0  0
 12 13  1  0  0  0  0
 12 30  1  0  0  0  0
 13 14  1  0  0  0  0
 13 31  1  0  0  0  0
 13 32  1  0  0  0  0
 14 15  1  0  0  0  0
 14 33  1  0  0  0  0
 14 34  1  0  0  0  0
 15 16  1  0  0  0  0
 15 35  1  0  0  0  0
 15 36  1  0  0  0  0
 16 37  1  0  0  0  0
 16 38  1  0  0  0  0
 17 18  1  0  0  0  0
 17 19  1  0  0  0  0
 18 39  1  0  0  0  0
 18 40  1  0  0  0  0
 18 41  1  0  0  0  0
M  END
> <s_m_source_file>
AV-unprocessed.smi

> <i_m_source_file_index>
1256

> <i_lp_mmshare_version>
43012

> <i_f3d_flags>
0

> <s_epik_input>
W0NIM11jMVtjSF1jKG4objEpW0NIM10pW05IXUMoPU8pW05IXVtDSDJdW0NIMl1DMj1bQ0hdW0NIMl1bQ0gyXVtDSDJdW0NIMl0y

> <s_epik_cmdline>
J2VwaWtfcHl0aG9uJywgJy1waCcsICc3LjAnLCAnLXRuJywgJzgnLCAnLW1hJywgJzIwMCcsICctbWV0YWxfYmluZGluZycsICctaW1hZScsICc8aW5maWxlLm1hZT4nLCAnLW9tYWUnLCAnPG91dGZpbGUubWFlPic=

> <r_lp_tautomer_probability>
1

> <r_epik_Ionization_Penalty>
9.50632e-05

> <r_epik_Ionization_Penalty_Charging>
0

> <r_epik_Ionization_Penalty_Neutral>
9.50632e-05

> <r_epik_State_Penalty>
-0

> <r_epik_Charging_Adjusted_Penalty>
0

> <i_epik_Tot_Q>
0

> <i_epik_Tot_abs_Q>
0

> <r_epik_Metal_State_Penalty>
-0

> <b_epik_Metal_Only>
0

> <s_lp_Force_Field>
OPLS_2005

> <r_lp_Energy>
8.63058

> <b_lp_Chiralities_Consistent>
1

> <s_lp_Variant>
AV-unprocessed.smi:1256-1

> <Gold.Version>
5.8.1

> <Gold.Id.Protein>
6NUR|6NUR_protein|mol2

> <Gold.PLP.Fitness>
41.7727

> <Gold.PLP.PLP>
-35.0450

> <Gold.PLP.part.hbond>
-3.6394

> <Gold.PLP.part.metal>
0.0000

> <Gold.PLP.part.buried>
-1.0928

> <Gold.PLP.part.nonpolar>
-30.6502

> <Gold.PLP.part.repulsive>
0.2710

> <Gold.PLP.ligand.clash>
0.0000

> <Gold.PLP.ligand.torsion>
0.4460

> <Gold.PLP.Chemscore.Hbond>
2.5200

> <Gold.PLP.Chemscore.CHOScore>
0.0000

> <Gold.PLP.Chemscore.Metal>
0.0000

> <Gold.Chemscore.Hbonds>
donor molecule, donor type, donor heavy atom, donor atom, acceptor molecule, acceptor atom, score
      L1  H     5    24       P1  7948  1.00
      L1  H     8    25       P1  7948  1.00
      P1  H  7989  7998       L1    19  0.44

> <Gold.PLP.Chemscore.Internal.Correction>
0.0598

> <Gold.Rescore>
     Score         DG    S(hbond)    S(metal)    S(lipo)     H(rot)  DE(clash)    DE(int)     intcor
     16.32     -17.87       1.95        0.00      80.64       1.40       0.20       1.35       ----

> <Gold.Chemscore.Fitness>
16.3192

> <Gold.Chemscore.DG>
-17.8687

> <Gold.Chemscore.ZeroCoef>
-5.4800

> <Gold.Chemscore.Hbond>
1.9544

> <Gold.Chemscore.Metal>
0.0000

> <Gold.Chemscore.Lipo>
80.6363

> <Gold.Chemscore.Internal_Hbond>
0.0000

> <Gold.Chemscore.DEClash>
0.1962

> <Gold.Chemscore.DEInternal>
1.3533

> <Gold.Chemscore.Rot>
1.3958

> <Gold.Chemscore.Internal.Correction>
   9.000000E+99

> <Gold.Chemscore.Hbonds>
donor molecule, donor type, donor heavy atom, donor atom, acceptor molecule, acceptor atom, score
      L1  H     5    24       P1  7948  0.99
      L1  H     8    25       P1  7948  0.96

> <Gold.Chemscore.Hbond.Weighted>
-6.5276

> <Gold.Chemscore.Metal.Weighted>
-0.0000

> <Gold.Chemscore.Lipo.Weighted>
-9.4344

> <Gold.Chemscore.Internal_Hbond.Weighted>
0.0000

> <Gold.Chemscore.DEClash.Weighted>
0.1962

> <Gold.Chemscore.DEInternal.Weighted>
1.3533

> <Gold.Chemscore.Rot.Weighted>
3.5733

> <Gold.Chemscore.Internal.Correction.Weighted>
   9.000000E+99

> <Gold.Protein.RotatedTorsions>
[ 6907 6896 6895 6894 ] final  -73.91 input  -60.11 | X-H torsion
[ 7974 7965 7964 7962 ] final   38.04 input  175.53 | X-H torsion
[ 8008 7997 7996 7995 ] final   62.44 input   59.86 | X-H torsion
[ 10167 10162 10161 10158 ] final -121.44 input  -65.29 | X-H torsion
[ 10718 10713 10712 10709 ] final   85.92 input   66.30 | X-H torsion
[ 10763 10752 10751 10750 ] final  121.71 input  -60.55 | X-H torsion
[ 11005 11000 10999 10996 ] final  -52.08 input  -57.11 | X-H torsion

> <Gold.Protein.ActiveResidues>
 VAL166  LYS551  ARG553  GLY616  TRP617  ASP618  TYR619  PRO620  LYS621  CYS622 
 ASP623  PHE694  ASN695  SER759  ASP760  ASP761  ALA762  ILE779  LEU786  VAL792 
 PHE793  MET794  SER795  GLU796  ALA797  LYS798  CYS799  TRP800  GLU811  SER814 

> <Gold.Protein.RotatedAtoms>
  150.7112  134.4946  159.5531 H   0  0  0  0  0  0  0  0  0  0  0  0  # atno 6907 bound_to 6896
  152.2557  134.8084  160.0448 H   0  0  0  0  0  0  0  0  0  0  0  0  # atno 6908 bound_to 6896
  151.8816  133.3461  159.3805 H   0  0  0  0  0  0  0  0  0  0  0  0  # atno 6909 bound_to 6896
  146.1092  139.5820  142.9363 H   0  0  0  0  0  0  0  0  0  0  0  0  # atno 7974 bound_to 7965
  155.6143  140.3495  155.4632 H   0  0  0  0  0  0  0  0  0  0  0  0  # atno 8008 bound_to 7997
  156.0129  140.1237  157.0459 H   0  0  0  0  0  0  0  0  0  0  0  0  # atno 8009 bound_to 7997
  154.4287  140.1078  156.5841 H   0  0  0  0  0  0  0  0  0  0  0  0  # atno 8010 bound_to 7997
  140.0250  143.5306  152.2203 H   0  0  0  0  0  0  0  0  0  0  0  0  # atno 10167 bound_to 10162
  157.6921  131.0194  150.2894 H   0  0  0  0  0  0  0  0  0  0  0  0  # atno 10718 bound_to 10713
  153.6184  135.3417  155.3002 H   0  0  0  0  0  0  0  0  0  0  0  0  # atno 10763 bound_to 10752
  154.8605  135.4267  154.2234 H   0  0  0  0  0  0  0  0  0  0  0  0  # atno 10764 bound_to 10752
  153.3101  135.7031  153.7196 H   0  0  0  0  0  0  0  0  0  0  0  0  # atno 10765 bound_to 10752
  141.0905  133.6633  156.3972 H   0  0  0  0  0  0  0  0  0  0  0  0  # atno 11005 bound_to 11000
  145.5699  141.0395  143.2180 LP  0  0  0  0  0  0  0  0  0  0  0  0  # atno 17320 bound_to 7965
  144.7497  139.7227  143.7278 LP  0  0  0  0  0  0  0  0  0  0  0  0  # atno 17321 bound_to 7965
  139.6114  144.7609  151.2943 LP  0  0  0  0  0  0  0  0  0  0  0  0  # atno 17342 bound_to 10162
  140.7326  143.6817  150.7995 LP  0  0  0  0  0  0  0  0  0  0  0  0  # atno 17343 bound_to 10162
  156.3428  130.3818  149.7395 LP  0  0  0  0  0  0  0  0  0  0  0  0  # atno 17370 bound_to 10713
  156.4898  130.8080  151.3090 LP  0  0  0  0  0  0  0  0  0  0  0  0  # atno 17371 bound_to 10713
  140.5262  134.6257  157.5335 LP  0  0  0  0  0  0  0  0  0  0  0  0  # atno 17394 bound_to 11000
  139.9731  134.7260  156.0003 LP  0  0  0  0  0  0  0  0  0  0  0  0  # atno 17395 bound_to 11000

$$$$
