#       Name:                AV-unprocessed.smi:906
#       Creating user name   scv26
#       Creation time:       Fri Mar 27 01:59:12 2020


#       File generated by GOLD software.
#

@<TRIPOS>MOLECULE
AV-unprocessed.smi:906
    51    52     1
SMALL
NO_CHARGES


@<TRIPOS>ATOM
      1 ****        -4.0040   2.4275  -4.0434 C.3            1 S1                 0.0000
      2 ****        -3.9399   1.8206  -2.6576 C.ar           1 S1                 0.0000
      3 ****        -3.3167   2.5073  -1.5943 C.ar           1 S1                 0.0000
      4 ****        -3.2844   1.8935  -0.3275 C.ar           1 S1                 0.0000
      5 ****        -3.8724   0.6211  -0.1727 C.ar           1 S1                 0.0000
      6 ****        -3.8484  -0.0945   1.1672 C.3            1 S1                 0.0000
      7 ****        -2.8304  -1.2463   1.2175 C.3            1 S1                 0.0000
      8 ****        -1.4969  -0.7835   0.8445 N.am           1 S1                 0.0000
      9 ****        -0.6490  -1.4072   0.0097 C.2            1 S1                 0.0000
     10 ****        -0.9066  -2.5007  -0.4953 O.2            1 S1                 0.0000
     11 ****         0.4880  -0.7172  -0.2561 N.am           1 S1                 0.0000
     12 ****         0.9656   0.4947   0.4254 C.3            1 S1                 0.0000
     13 ****         2.2014   0.1318   1.2708 C.3            1 S1                 0.0000
     14 ****         3.2560  -0.4231   0.4106 N.3            1 S1                 0.0000
     15 ****         4.5338  -0.7009   1.0890 C.3            1 S1                 0.0000
     16 ****         4.3937  -1.5902   2.3444 C.3            1 S1                 0.0000
     17 ****         5.3312   0.5947   1.3727 C.3            1 S1                 0.0000
     18 ****         5.3966   1.3465   0.2732 F              1 S1                 0.0000
     19 ****         4.7932   1.3135   2.3580 F              1 S1                 0.0000
     20 ****         6.5754   0.2720   1.7259 F              1 S1                 0.0000
     21 ****         2.7685  -1.5947  -0.3287 C.3            1 S1                 0.0000
     22 ****         1.5256  -1.2217  -1.1593 C.3            1 S1                 0.0000
     23 ****        -4.4704   0.0207  -1.3006 C.ar           1 S1                 0.0000
     24 ****        -4.5070   0.6020  -2.5189 N.ar           1 S1                 0.0000
     25 ****        -3.5920   3.4372  -4.0524 H              1 S1                 0.0000
     26 ****        -5.0367   2.4795  -4.3893 H              1 S1                 0.0000
     27 ****        -3.4350   1.8212  -4.7486 H              1 S1                 0.0000
     28 ****        -2.8710   3.4797  -1.7434 H              1 S1                 0.0000
     29 ****        -2.8097   2.3896   0.5063 H              1 S1                 0.0000
     30 ****        -3.6236   0.6278   1.9530 H              1 S1                 0.0000
     31 ****        -4.8475  -0.4751   1.3818 H              1 S1                 0.0000
     32 ****        -2.7911  -1.6697   2.2214 H              1 S1                 0.0000
     33 ****        -3.1654  -2.0459   0.5549 H              1 S1                 0.0000
     34 ****        -1.2125   0.1128   1.2117 H              1 S1                 0.0000
     35 ****         1.2285   1.2469  -0.3202 H              1 S1                 0.0000
     36 ****         0.2186   0.9686   1.0618 H              1 S1                 0.0000
     37 ****         2.5532   1.0283   1.7772 H              1 S1                 0.0000
     38 ****         1.9181  -0.5865   2.0408 H              1 S1                 0.0000
     39 ****         5.1377  -1.2573   0.3707 H              1 S1                 0.0000
     40 ****         5.3758  -1.8631   2.7304 H              1 S1                 0.0000
     41 ****         3.8666  -2.5202   2.1337 H              1 S1                 0.0000
     42 ****         3.8658  -1.0792   3.1495 H              1 S1                 0.0000
     43 ****         3.5491  -1.9612  -0.9962 H              1 S1                 0.0000
     44 ****         2.5236  -2.4062   0.3569 H              1 S1                 0.0000
     45 ****         1.1965  -2.0862  -1.7372 H              1 S1                 0.0000
     46 ****         1.7756  -0.4536  -1.8930 H              1 S1                 0.0000
     47 ****        -4.9267  -0.9555  -1.2253 H              1 S1                 0.0000
     48 ****        -1.7728  -2.9555  -0.2882 LP             1 S1                 0.0000
     49 ****        -0.2496  -2.9336  -1.1124 LP             1 S1                 0.0000
     50 ****         3.4740   0.3056  -0.2386 LP             1 S1                 0.0000
     51 ****        -4.9408   0.1444  -3.2951 LP             1 S1                 0.0000
@<TRIPOS>BOND
    1    1    2 1     
    2    1   25 1     
    3    1   26 1     
    4    1   27 1     
    5    2   24 ar    
    6    2    3 ar    
    7    3    4 ar    
    8    3   28 1     
    9    4    5 ar    
   10    4   29 1     
   11    5    6 1     
   12    5   23 ar    
   13    6    7 1     
   14    6   30 1     
   15    6   31 1     
   16    7    8 1     
   17    7   32 1     
   18    7   33 1     
   19    8    9 am    
   20    8   34 1     
   21    9   10 2     
   22    9   11 am    
   23   11   22 1     
   24   11   12 1     
   25   12   13 1     
   26   12   35 1     
   27   12   36 1     
   28   13   14 1     
   29   13   37 1     
   30   13   38 1     
   31   14   15 1     
   32   14   21 1     
   33   15   16 1     
   34   15   17 1     
   35   15   39 1     
   36   16   40 1     
   37   16   41 1     
   38   16   42 1     
   39   17   18 1     
   40   17   19 1     
   41   17   20 1     
   42   21   22 1     
   43   21   43 1     
   44   21   44 1     
   45   22   45 1     
   46   22   46 1     
   47   23   24 ar    
   48   23   47 1     
   49   10   48 1     
   50   10   49 1     
   51   14   50 1     
   52   24   51 1     
@<TRIPOS>SUBSTRUCTURE
      1 S1             1
@<TRIPOS>SET
LONE_PAIRS      STATIC     ATOMS    <user>   **** ""
4 48 49 50 51
DONOR_HYDROGENS      STATIC     ATOMS    <user>   **** ""
1 34
ATOM$BLUE        STATIC     ATOMS    COLORGROUP SYSTEM
4 48 49 50 51
ATOM$RED        STATIC     ATOMS    COLORGROUP SYSTEM
1 34
