AV-unprocessed.smi:933|AV-procd|sdf|4204|dock9
  -GOLD-   22720 2113D 1   1.00000     0.00000
 Structure written by MMmdl.
 42 43  0  0  0  0  0  0  0  0  1 V2000
  144.7360  143.2859  158.3930 C   0  0  0  0  0  0  0  0  0  0  0  0
  144.3700  144.0305  157.1049 C   0  0  0  0  0  0  0  0  0  0  0  0
  145.0202  143.4431  155.8972 C   0  0  0  0  0  0  0  0  0  0  0  0
  145.7665  142.3361  155.9274 N   0  0  0  0  0  0  0  0  0  0  0  0
  146.2478  141.9751  154.6650 C   0  0  0  0  0  0  0  0  0  0  0  0
  147.1231  140.7675  154.5177 C   0  0  0  0  0  0  0  0  0  0  0  0
  148.5558  141.1395  154.1122 C   0  0  0  0  0  0  0  0  0  0  0  0
  149.1540  142.0412  155.0931 N   0  0  0  0  0  0  0  0  0  0  0  0
  150.3732  141.9400  155.6494 C   0  0  0  0  0  0  0  0  0  0  0  0
  151.1436  141.0249  155.3648 O   0  0  0  0  0  0  0  0  0  0  0  0
  150.6674  142.9143  156.5267 N   0  0  0  0  0  0  0  0  0  0  0  0
  151.9034  143.0147  157.2977 C   0  0  1  0  0  0  0  0  0  0  0  0
  152.3158  144.4909  157.4476 C   0  0  0  0  0  0  0  0  0  0  0  0
  152.0371  144.8591  158.9040 C   0  0  0  0  0  0  0  0  0  0  0  0
  152.2725  143.5571  159.6616 C   0  0  0  0  0  0  0  0  0  0  0  0
  151.7141  142.4715  158.7343 C   0  0  2  0  0  0  0  0  0  0  0  0
  152.3496  141.0933  158.9656 C   0  0  0  0  0  0  0  0  0  0  0  0
  145.8346  142.8213  153.6663 C   0  0  0  0  0  0  0  0  0  0  0  0
  144.8274  144.1047  154.2778 S   0  0  0  0  0  0  0  0  0  0  0  0
  144.2450  143.7373  159.2553 H   0  0  0  0  0  0  0  0  0  0  0  0
  145.8114  143.3122  158.5705 H   0  0  0  0  0  0  0  0  0  0  0  0
  144.4295  142.2408  158.3436 H   0  0  0  0  0  0  0  0  0  0  0  0
  143.2893  144.0149  156.9612 H   0  0  0  0  0  0  0  0  0  0  0  0
  144.6589  145.0788  157.1872 H   0  0  0  0  0  0  0  0  0  0  0  0
  147.1426  140.2093  155.4548 H   0  0  0  0  0  0  0  0  0  0  0  0
  146.6997  140.0904  153.7746 H   0  0  0  0  0  0  0  0  0  0  0  0
  149.1660  140.2387  154.0290 H   0  0  0  0  0  0  0  0  0  0  0  0
  148.5471  141.6198  153.1322 H   0  0  0  0  0  0  0  0  0  0  0  0
  148.5981  142.8415  155.3581 H   0  0  0  0  0  0  0  0  0  0  0  0
  149.9717  143.6275  156.6903 H   0  0  0  0  0  0  0  0  0  0  0  0
  152.7054  142.4841  156.7806 H   0  0  0  0  0  0  0  0  0  0  0  0
  153.3855  144.5844  157.2555 H   0  0  0  0  0  0  0  0  0  0  0  0
  151.8077  145.1584  156.7500 H   0  0  0  0  0  0  0  0  0  0  0  0
  152.6681  145.6740  159.2597 H   0  0  0  0  0  0  0  0  0  0  0  0
  150.9966  145.1674  159.0144 H   0  0  0  0  0  0  0  0  0  0  0  0
  153.3440  143.4138  159.8100 H   0  0  0  0  0  0  0  0  0  0  0  0
  151.7984  143.5532  160.6436 H   0  0  0  0  0  0  0  0  0  0  0  0
  150.6460  142.3916  158.9450 H   0  0  0  0  0  0  0  0  0  0  0  0
  153.4242  141.1145  158.7827 H   0  0  0  0  0  0  0  0  0  0  0  0
  151.9135  140.3454  158.3031 H   0  0  0  0  0  0  0  0  0  0  0  0
  152.1918  140.7586  159.9910 H   0  0  0  0  0  0  0  0  0  0  0  0
  146.0598  142.7676  152.6116 H   0  0  0  0  0  0  0  0  0  0  0  0
  1  2  1  0  0  0  0
  1 20  1  0  0  0  0
  1 21  1  0  0  0  0
  1 22  1  0  0  0  0
  2  3  1  0  0  0  0
  2 23  1  0  0  0  0
  2 24  1  0  0  0  0
  3 19  1  0  0  0  0
  3  4  2  0  0  0  0
  4  5  1  0  0  0  0
  5  6  1  0  0  0  0
  5 18  2  0  0  0  0
  6  7  1  0  0  0  0
  6 25  1  0  0  0  0
  6 26  1  0  0  0  0
  7  8  1  0  0  0  0
  7 27  1  0  0  0  0
  7 28  1  0  0  0  0
  8  9  1  0  0  0  0
  8 29  1  0  0  0  0
  9 10  2  0  0  0  0
  9 11  1  0  0  0  0
 11 12  1  0  0  0  0
 11 30  1  0  0  0  0
 12 16  1  0  0  0  0
 12 13  1  0  0  0  0
 12 31  1  0  0  0  0
 13 14  1  0  0  0  0
 13 32  1  0  0  0  0
 13 33  1  0  0  0  0
 14 15  1  0  0  0  0
 14 34  1  0  0  0  0
 14 35  1  0  0  0  0
 15 16  1  0  0  0  0
 15 36  1  0  0  0  0
 15 37  1  0  0  0  0
 16 17  1  0  0  0  0
 16 38  1  0  0  0  0
 17 39  1  0  0  0  0
 17 40  1  0  0  0  0
 17 41  1  0  0  0  0
 18 19  1  0  0  0  0
 18 42  1  0  0  0  0
M  END
> <s_m_source_file>
AV-unprocessed.smi

> <i_m_source_file_index>
933

> <i_lp_mmshare_version>
43012

> <i_f3d_flags>
0

> <s_epik_input>
W0NIM11bQ0gyXWMxbmMoW2NIXXMxKVtDSDJdW0NIMl1bTkhdQyg9TylbTkhdW0NAQEhdMltDSDJdW0NIMl1bQ0gyXVtDQEhdMltDSDNd

> <s_epik_cmdline>
J2VwaWtfcHl0aG9uJywgJy1waCcsICc3LjAnLCAnLXRuJywgJzgnLCAnLW1hJywgJzIwMCcsICctbWV0YWxfYmluZGluZycsICctaW1hZScsICc8aW5maWxlLm1hZT4nLCAnLW9tYWUnLCAnPG91dGZpbGUubWFlPic=

> <r_epik_Ionization_Penalty>
0.00203408

> <r_epik_Ionization_Penalty_Charging>
0

> <r_epik_Ionization_Penalty_Neutral>
0.00203408

> <r_epik_State_Penalty>
0.0013452

> <r_epik_Charging_Adjusted_Penalty>
0.0013452

> <i_epik_Tot_Q>
0

> <i_epik_Tot_abs_Q>
0

> <r_epik_Metal_State_Penalty>
-0

> <b_epik_Metal_Only>
0

> <s_lp_Force_Field>
OPLS_2005

> <r_lp_Energy>
18.1851

> <b_lp_Chiralities_Consistent>
1

> <s_lp_Variant>
AV-unprocessed.smi:933-4

> <Gold.Version>
5.8.1

> <Gold.Id.Protein>
6NUR|6NUR_protein|mol2

> <Gold.PLP.Fitness>
45.5044

> <Gold.PLP.PLP>
-40.0448

> <Gold.PLP.part.hbond>
-3.0000

> <Gold.PLP.part.metal>
0.0000

> <Gold.PLP.part.buried>
-6.9820

> <Gold.PLP.part.nonpolar>
-29.6955

> <Gold.PLP.part.repulsive>
0.4295

> <Gold.PLP.ligand.clash>
0.0000

> <Gold.PLP.ligand.torsion>
0.4543

> <Gold.PLP.Chemscore.Hbond>
2.1182

> <Gold.PLP.Chemscore.CHOScore>
0.0000

> <Gold.PLP.Chemscore.Metal>
0.0000

> <Gold.Chemscore.Hbonds>
donor molecule, donor type, donor heavy atom, donor atom, acceptor molecule, acceptor atom, score
      L1  H     8    29       P1  8028  0.75
      L1  H    11    30       P1  8028  0.75
      P1  H  7989  7998       L1    10  0.66

> <Gold.PLP.Chemscore.Internal.Correction>
0.0137

> <Gold.Rescore>
     Score         DG    S(hbond)    S(metal)    S(lipo)     H(rot)  DE(clash)    DE(int)     intcor
     19.82     -20.65       2.21        0.00     100.32       1.55       0.47       0.35       ----

> <Gold.Chemscore.Fitness>
19.8231

> <Gold.Chemscore.DG>
-20.6472

> <Gold.Chemscore.ZeroCoef>
-5.4800

> <Gold.Chemscore.Hbond>
2.2137

> <Gold.Chemscore.Metal>
0.0000

> <Gold.Chemscore.Lipo>
100.3164

> <Gold.Chemscore.Internal_Hbond>
0.0000

> <Gold.Chemscore.DEClash>
0.4703

> <Gold.Chemscore.DEInternal>
0.3538

> <Gold.Chemscore.Rot>
1.5482

> <Gold.Chemscore.Internal.Correction>
   9.000000E+99

> <Gold.Chemscore.Hbonds>
donor molecule, donor type, donor heavy atom, donor atom, acceptor molecule, acceptor atom, score
      L1  H     8    29       P1  8028  0.76
      L1  H    11    30       P1  8028  0.76
      P1  H  7989  7998       L1    10  0.61

> <Gold.Chemscore.Hbond.Weighted>
-7.3936

> <Gold.Chemscore.Metal.Weighted>
-0.0000

> <Gold.Chemscore.Lipo.Weighted>
-11.7370

> <Gold.Chemscore.Internal_Hbond.Weighted>
0.0000

> <Gold.Chemscore.DEClash.Weighted>
0.4703

> <Gold.Chemscore.DEInternal.Weighted>
0.3538

> <Gold.Chemscore.Rot.Weighted>
3.9635

> <Gold.Chemscore.Internal.Correction.Weighted>
   9.000000E+99

> <Gold.Protein.RotatedTorsions>
[ 6907 6896 6895 6894 ] final  165.32 input  -60.11 | X-H torsion
[ 7974 7965 7964 7962 ] final  149.64 input  175.53 | X-H torsion
[ 8008 7997 7996 7995 ] final  126.38 input   59.86 | X-H torsion
[ 10167 10162 10161 10158 ] final -174.90 input  -65.29 | X-H torsion
[ 10718 10713 10712 10709 ] final  -99.55 input   66.30 | X-H torsion
[ 10763 10752 10751 10750 ] final   82.18 input  -60.55 | X-H torsion
[ 11005 11000 10999 10996 ] final   -8.24 input  -57.11 | X-H torsion

> <Gold.Protein.ActiveResidues>
 VAL166  LYS551  ARG553  GLY616  TRP617  ASP618  TYR619  PRO620  LYS621  CYS622 
 ASP623  PHE694  ASN695  SER759  ASP760  ASP761  ALA762  ILE779  LEU786  VAL792 
 PHE793  MET794  SER795  GLU796  ALA797  LYS798  CYS799  TRP800  GLU811  SER814 

> <Gold.Protein.RotatedAtoms>
  151.8963  133.3527  159.3815 H   0  0  0  0  0  0  0  0  0  0  0  0  # atno 6907 bound_to 6896
  150.7091  134.4873  159.5508 H   0  0  0  0  0  0  0  0  0  0  0  0  # atno 6908 bound_to 6896
  152.2453  134.8188  160.0505 H   0  0  0  0  0  0  0  0  0  0  0  0  # atno 6909 bound_to 6896
  144.8423  139.6306  143.6011 H   0  0  0  0  0  0  0  0  0  0  0  0  # atno 7974 bound_to 7965
  156.2862  140.2694  156.2102 H   0  0  0  0  0  0  0  0  0  0  0  0  # atno 8008 bound_to 7997
  155.0272  140.0386  157.2478 H   0  0  0  0  0  0  0  0  0  0  0  0  # atno 8009 bound_to 7997
  154.7385  140.2720  155.6399 H   0  0  0  0  0  0  0  0  0  0  0  0  # atno 8010 bound_to 7997
  139.5609  144.1872  152.1237 H   0  0  0  0  0  0  0  0  0  0  0  0  # atno 10167 bound_to 10162
  156.0137  130.5287  150.6686 H   0  0  0  0  0  0  0  0  0  0  0  0  # atno 10718 bound_to 10713
  153.1181  135.4738  154.9149 H   0  0  0  0  0  0  0  0  0  0  0  0  # atno 10763 bound_to 10752
  154.7548  135.3115  154.8493 H   0  0  0  0  0  0  0  0  0  0  0  0  # atno 10764 bound_to 10752
  153.9064  135.6869  153.4806 H   0  0  0  0  0  0  0  0  0  0  0  0  # atno 10765 bound_to 10752
  140.7214  133.8825  155.8823 H   0  0  0  0  0  0  0  0  0  0  0  0  # atno 11005 bound_to 11000
  146.2714  139.6644  142.9294 LP  0  0  0  0  0  0  0  0  0  0  0  0  # atno 17320 bound_to 7965
  145.4668  141.0435  143.2721 LP  0  0  0  0  0  0  0  0  0  0  0  0  # atno 17321 bound_to 7965
  140.1385  144.5223  150.6758 LP  0  0  0  0  0  0  0  0  0  0  0  0  # atno 17342 bound_to 10162
  140.6889  143.2365  151.5186 LP  0  0  0  0  0  0  0  0  0  0  0  0  # atno 17343 bound_to 10162
  157.4413  131.0861  151.0940 LP  0  0  0  0  0  0  0  0  0  0  0  0  # atno 17370 bound_to 10713
  157.1483  130.6173  149.5575 LP  0  0  0  0  0  0  0  0  0  0  0  0  # atno 17371 bound_to 10713
  141.0000  134.1163  157.4326 LP  0  0  0  0  0  0  0  0  0  0  0  0  # atno 17394 bound_to 11000
  139.8847  135.0065  156.6388 LP  0  0  0  0  0  0  0  0  0  0  0  0  # atno 17395 bound_to 11000

$$$$
