#       Name:                AV-unprocessed.smi:1527
#       Creating user name   scv26
#       Creation time:       Fri Mar 27 06:29:32 2020


#       File generated by GOLD software.
#

@<TRIPOS>MOLECULE
AV-unprocessed.smi:1527
    37    37     1
SMALL
NO_CHARGES


@<TRIPOS>ATOM
      1 ****        -2.1859   0.5894   3.3912 C.3            1 S1                 0.0000
      2 ****        -2.7567  -0.4474   2.4128 C.3            1 S1                 0.0000
      3 ****        -2.2854  -0.2535   0.9591 C.3            1 S1                 0.0000
      4 ****        -2.9654  -1.2512   0.0076 C.3            1 S1                 0.0000
      5 ****        -0.8332  -0.3919   0.8763 N.am           1 S1                 0.0000
      6 ****        -0.0449   0.1923  -0.0391 C.2            1 S1                 0.0000
      7 ****        -0.4762   0.9287  -0.9278 O.2            1 S1                 0.0000
      8 ****         1.4581  -0.1000   0.0929 C.3            1 S1                 0.0000
      9 ****         2.2364   0.2049  -1.1167 N.am           1 S1                 0.0000
     10 ****         3.0371   1.4217  -1.0129 N.pl3          1 S1                -1.0000
     11 ****         3.7813   1.8179  -2.0794 C.2            1 S1                 0.0000
     12 ****         4.4651   2.8390  -2.0725 O.2            1 S1                 0.0000
     13 ****         3.7638   0.9876  -3.2723 C.2            1 S1                 0.0000
     14 ****         3.0359  -0.1451  -3.3305 C.2            1 S1                 0.0000
     15 ****         2.2196  -0.6052  -2.2137 C.2            1 S1                 0.0000
     16 ****         1.5609  -1.6448  -2.2560 O.2            1 S1                 0.0000
     17 ****        -2.5855   0.4355   4.3936 H              1 S1                 0.0000
     18 ****        -2.4433   1.6031   3.0835 H              1 S1                 0.0000
     19 ****        -1.0995   0.5244   3.4573 H              1 S1                 0.0000
     20 ****        -2.4954  -1.4491   2.7563 H              1 S1                 0.0000
     21 ****        -3.8454  -0.3913   2.4455 H              1 S1                 0.0000
     22 ****        -2.5645   0.7558   0.6507 H              1 S1                 0.0000
     23 ****        -4.0502  -1.1505   0.0448 H              1 S1                 0.0000
     24 ****        -2.7174  -2.2807   0.2681 H              1 S1                 0.0000
     25 ****        -2.6574  -1.0860  -1.0254 H              1 S1                 0.0000
     26 ****        -0.3917  -0.9746   1.5725 H              1 S1                 0.0000
     27 ****         1.8367   0.4681   0.9444 H              1 S1                 0.0000
     28 ****         1.5982  -1.1497   0.3567 H              1 S1                 0.0000
     29 ****         4.3496   1.2841  -4.1298 H              1 S1                 0.0000
     30 ****         3.0541  -0.7323  -4.2364 H              1 S1                 0.0000
     31 ****        -1.4566   1.1152  -0.9907 LP             1 S1                 0.0000
     32 ****         0.1542   1.3399  -1.5862 LP             1 S1                 0.0000
     33 ****         3.0380   1.9568  -0.1681 LP             1 S1                 0.0000
     34 ****         4.4901   3.4185  -1.2580 LP             1 S1                 0.0000
     35 ****         4.9966   3.0904  -2.8815 LP             1 S1                 0.0000
     36 ****         1.0123  -1.9215  -1.4671 LP             1 S1                 0.0000
     37 ****         1.5747  -2.2123  -3.0793 LP             1 S1                 0.0000
@<TRIPOS>BOND
    1    1    2 1     
    2    1   17 1     
    3    1   18 1     
    4    1   19 1     
    5    2    3 1     
    6    2   20 1     
    7    2   21 1     
    8    3    4 1     
    9    3    5 1     
   10    3   22 1     
   11    4   23 1     
   12    4   24 1     
   13    4   25 1     
   14    5    6 am    
   15    5   26 1     
   16    6    7 2     
   17    6    8 1     
   18    8   27 1     
   19    8   28 1     
   20    8    9 1     
   21    9   10 1     
   22    9   15 am    
   23   10   11 1     
   24   11   12 2     
   25   11   13 1     
   26   13   29 1     
   27   13   14 2     
   28   14   30 1     
   29   14   15 1     
   30   15   16 2     
   31    7   31 1     
   32    7   32 1     
   33   10   33 1     
   34   12   34 1     
   35   12   35 1     
   36   16   36 1     
   37   16   37 1     
@<TRIPOS>SUBSTRUCTURE
      1 S1             1
@<TRIPOS>SET
LONE_PAIRS      STATIC     ATOMS    <user>   **** ""
7 31 32 33 34 35 36 37
DONOR_HYDROGENS      STATIC     ATOMS    <user>   **** ""
1 26
ATOM$BLUE        STATIC     ATOMS    COLORGROUP SYSTEM
7 31 32 33 34 35 36 37
ATOM$RED        STATIC     ATOMS    COLORGROUP SYSTEM
1 26
