AV-unprocessed.smi:1952|AV-procd|sdf|7885|dock7
  -GOLD-   2272010 33D 1   1.00000     0.00000
 Structure written by MMmdl.
 40 41  0  0  0  0  0  0  0  0  2 V2000
  153.8055  142.1621  160.7660 C   0  0  0  0  0  0  0  0  0  0  0  0
  152.9725  142.6827  159.6452 C   0  0  0  0  0  0  0  0  0  0  0  0
  152.0770  142.0907  158.7993 C   0  0  0  0  0  0  0  0  0  0  0  0
  151.6517  143.1693  157.9792 C   0  0  0  0  0  0  0  0  0  0  0  0
  150.7002  142.9676  156.9469 N   0  0  0  0  0  0  0  0  0  0  0  0
  150.5065  141.8544  156.2197 C   0  0  0  0  0  0  0  0  0  0  0  0
  151.1557  140.8141  156.3292 O   0  0  0  0  0  0  0  0  0  0  0  0
  149.4969  142.0084  155.3497 N   0  0  0  0  0  0  0  0  0  0  0  0
  149.0397  141.0155  154.3760 C   0  0  2  0  0  0  0  0  0  0  0  0
  147.8303  141.5824  153.6197 C   0  0  0  0  0  0  0  0  0  0  0  0
  148.6924  139.6699  155.0554 C   0  0  0  0  0  0  0  0  0  0  0  0
  149.8896  138.8651  155.4081 N   0  3  0  0  0  0  0  0  0  0  0  0
  149.5514  137.5329  155.9609 C   0  0  0  0  0  0  0  0  0  0  0  0
  150.8317  136.7866  156.3738 C   0  0  0  0  0  0  0  0  0  0  0  0
  151.7078  136.6818  155.2581 O   0  0  0  0  0  0  0  0  0  0  0  0
  152.1035  137.9575  154.7688 C   0  0  0  0  0  0  0  0  0  0  0  0
  150.8626  138.7325  154.2964 C   0  0  0  0  0  0  0  0  0  0  0  0
  152.2380  144.3147  158.2919 N   0  0  0  0  0  0  0  0  0  0  0  0
  153.0862  144.0091  159.3629 O   0  0  0  0  0  0  0  0  0  0  0  0
  153.8072  141.0721  160.7759 H   0  0  0  0  0  0  0  0  0  0  0  0
  153.4213  142.5086  161.7254 H   0  0  0  0  0  0  0  0  0  0  0  0
  154.8375  142.5002  160.6719 H   0  0  0  0  0  0  0  0  0  0  0  0
  151.7762  141.0538  158.7755 H   0  0  0  0  0  0  0  0  0  0  0  0
  150.1034  143.7557  156.7427 H   0  0  0  0  0  0  0  0  0  0  0  0
  149.0232  142.9001  155.3353 H   0  0  0  0  0  0  0  0  0  0  0  0
  149.8251  140.8558  153.6362 H   0  0  0  0  0  0  0  0  0  0  0  0
  147.4806  140.8834  152.8592 H   0  0  0  0  0  0  0  0  0  0  0  0
  148.0844  142.5149  153.1147 H   0  0  0  0  0  0  0  0  0  0  0  0
  146.9968  141.7844  154.2934 H   0  0  0  0  0  0  0  0  0  0  0  0
  148.1265  139.8856  155.9631 H   0  0  0  0  0  0  0  0  0  0  0  0
  148.0311  139.0764  154.4220 H   0  0  0  0  0  0  0  0  0  0  0  0
  148.8988  137.6446  156.8275 H   0  0  0  0  0  0  0  0  0  0  0  0
  149.0025  136.9552  155.2155 H   0  0  0  0  0  0  0  0  0  0  0  0
  151.3324  137.2983  157.1975 H   0  0  0  0  0  0  0  0  0  0  0  0
  150.5855  135.7842  156.7244 H   0  0  0  0  0  0  0  0  0  0  0  0
  152.6376  138.5104  155.5435 H   0  0  0  0  0  0  0  0  0  0  0  0
  152.7980  137.8186  153.9402 H   0  0  0  0  0  0  0  0  0  0  0  0
  150.3961  138.2147  153.4570 H   0  0  0  0  0  0  0  0  0  0  0  0
  151.1662  139.7147  153.9356 H   0  0  0  0  0  0  0  0  0  0  0  0
  150.3607  139.3662  156.1485 H   0  0  0  0  0  0  0  0  0  0  0  0
  1  2  1  0  0  0  0
  1 20  1  0  0  0  0
  1 21  1  0  0  0  0
  1 22  1  0  0  0  0
  2 19  1  0  0  0  0
  2  3  2  0  0  0  0
  3  4  1  0  0  0  0
  3 23  1  0  0  0  0
  4  5  1  0  0  0  0
  4 18  2  0  0  0  0
  5  6  1  0  0  0  0
  5 24  1  0  0  0  0
  6  7  2  0  0  0  0
  6  8  1  0  0  0  0
  8  9  1  0  0  0  0
  8 25  1  0  0  0  0
  9 10  1  0  0  0  0
  9 11  1  0  0  0  0
  9 26  1  0  0  0  0
 10 27  1  0  0  0  0
 10 28  1  0  0  0  0
 10 29  1  0  0  0  0
 11 12  1  0  0  0  0
 11 30  1  0  0  0  0
 11 31  1  0  0  0  0
 12 17  1  0  0  0  0
 12 13  1  0  0  0  0
 12 40  1  0  0  0  0
 13 14  1  0  0  0  0
 13 32  1  0  0  0  0
 13 33  1  0  0  0  0
 14 15  1  0  0  0  0
 14 34  1  0  0  0  0
 14 35  1  0  0  0  0
 15 16  1  0  0  0  0
 16 17  1  0  0  0  0
 16 36  1  0  0  0  0
 16 37  1  0  0  0  0
 17 38  1  0  0  0  0
 17 39  1  0  0  0  0
 18 19  1  0  0  0  0
M  CHG  1  12   1
M  END
> <s_m_source_file>
AV-unprocessed.smi

> <i_m_source_file_index>
1952

> <i_lp_mmshare_version>
43012

> <i_f3d_flags>
0

> <s_epik_input>
W0NIM11jMVtjSF1jKG5vMSlbTkhdQyg9TylbTkhdW0NASF0oW0NIM10pW0NIMl1OMltDSDJdW0NIMl1PW0NIMl1bQ0gyXTI=

> <s_epik_cmdline>
J2VwaWtfcHl0aG9uJywgJy1waCcsICc3LjAnLCAnLXRuJywgJzgnLCAnLW1hJywgJzIwMCcsICctbWV0YWxfYmluZGluZycsICctaW1hZScsICc8aW5maWxlLm1hZT4nLCAnLW9tYWUnLCAnPG91dGZpbGUubWFlPic=

> <r_epik_Ionization_Penalty>
0.707079

> <r_epik_Ionization_Penalty_Charging>
0.707039

> <r_epik_Ionization_Penalty_Neutral>
4.01892e-05

> <r_epik_State_Penalty>
0.730276

> <r_epik_Charging_Adjusted_Penalty>
1.43732

> <i_epik_Tot_Q>
1

> <i_epik_Tot_abs_Q>
1

> <r_epik_Metal_State_Penalty>
0.744847

> <b_epik_Metal_Only>
0

> <s_lp_Force_Field>
OPLS_2005

> <r_lp_Energy>
19.2222

> <b_lp_Chiralities_Consistent>
1

> <s_lp_Variant>
AV-unprocessed.smi:1952-3

> <Gold.Version>
5.8.1

> <Gold.Id.Protein>
6NUR|6NUR_protein|mol2

> <Gold.PLP.Fitness>
43.5477

> <Gold.PLP.PLP>
-35.5124

> <Gold.PLP.part.hbond>
-3.0000

> <Gold.PLP.part.metal>
0.0000

> <Gold.PLP.part.buried>
-7.7627

> <Gold.PLP.part.nonpolar>
-25.1301

> <Gold.PLP.part.repulsive>
0.4203

> <Gold.PLP.ligand.clash>
0.0002

> <Gold.PLP.ligand.torsion>
0.4068

> <Gold.PLP.Chemscore.Hbond>
2.9360

> <Gold.PLP.Chemscore.CHOScore>
0.0000

> <Gold.PLP.Chemscore.Metal>
0.0000

> <Gold.Chemscore.Hbonds>
donor molecule, donor type, donor heavy atom, donor atom, acceptor molecule, acceptor atom, score
      L1  H     5    24       P1  8028  1.00
      L1  H     8    25       P1  8028  1.00
      P1  H 10752 10763       L1    15  1.00

> <Gold.PLP.Chemscore.Internal.Correction>
0.0411

> <Gold.Rescore>
     Score         DG    S(hbond)    S(metal)    S(lipo)     H(rot)  DE(clash)    DE(int)     intcor
     17.24     -18.44       2.39        0.00      77.79       1.61       0.46       0.74       ----

> <Gold.Chemscore.Fitness>
17.2422

> <Gold.Chemscore.DG>
-18.4359

> <Gold.Chemscore.ZeroCoef>
-5.4800

> <Gold.Chemscore.Hbond>
2.3862

> <Gold.Chemscore.Metal>
0.0000

> <Gold.Chemscore.Lipo>
77.7945

> <Gold.Chemscore.Internal_Hbond>
0.0000

> <Gold.Chemscore.DEClash>
0.4587

> <Gold.Chemscore.DEInternal>
0.7350

> <Gold.Chemscore.Rot>
1.6078

> <Gold.Chemscore.Internal.Correction>
   9.000000E+99

> <Gold.Chemscore.Hbonds>
donor molecule, donor type, donor heavy atom, donor atom, acceptor molecule, acceptor atom, score
      L1  H     5    24       P1  8028  0.97
      L1  H     8    25       P1  8028  0.98
      P1  H 10752 10763       L1    15  0.39

> <Gold.Chemscore.Hbond.Weighted>
-7.9698

> <Gold.Chemscore.Metal.Weighted>
-0.0000

> <Gold.Chemscore.Lipo.Weighted>
-9.1020

> <Gold.Chemscore.Internal_Hbond.Weighted>
0.0000

> <Gold.Chemscore.DEClash.Weighted>
0.4587

> <Gold.Chemscore.DEInternal.Weighted>
0.7350

> <Gold.Chemscore.Rot.Weighted>
4.1158

> <Gold.Chemscore.Internal.Correction.Weighted>
   9.000000E+99

> <Gold.Protein.RotatedTorsions>
[ 6907 6896 6895 6894 ] final  -23.46 input  -60.11 | X-H torsion
[ 7974 7965 7964 7962 ] final  -68.51 input  175.53 | X-H torsion
[ 8008 7997 7996 7995 ] final  170.48 input   59.86 | X-H torsion
[ 10167 10162 10161 10158 ] final -109.52 input  -65.29 | X-H torsion
[ 10718 10713 10712 10709 ] final   47.06 input   66.30 | X-H torsion
[ 10763 10752 10751 10750 ] final   57.79 input  -60.55 | X-H torsion
[ 11005 11000 10999 10996 ] final  -48.76 input  -57.11 | X-H torsion

> <Gold.Protein.ActiveResidues>
 VAL166  LYS551  ARG553  GLY616  TRP617  ASP618  TYR619  PRO620  LYS621  CYS622 
 ASP623  PHE694  ASN695  SER759  ASP760  ASP761  ALA762  ILE779  LEU786  VAL792 
 PHE793  MET794  SER795  GLU796  ALA797  LYS798  CYS799  TRP800  GLU811  SER814 

> <Gold.Protein.RotatedAtoms>
  151.2037  135.0453  159.8882 H   0  0  0  0  0  0  0  0  0  0  0  0  # atno 6907 bound_to 6896
  152.5430  134.0822  159.8250 H   0  0  0  0  0  0  0  0  0  0  0  0  # atno 6908 bound_to 6896
  151.0966  133.5228  159.2644 H   0  0  0  0  0  0  0  0  0  0  0  0  # atno 6909 bound_to 6896
  145.7155  140.9060  143.0658 H   0  0  0  0  0  0  0  0  0  0  0  0  # atno 7974 bound_to 7965
  156.1361  140.1537  156.8992 H   0  0  0  0  0  0  0  0  0  0  0  0  # atno 8008 bound_to 7997
  154.4948  140.0841  156.7713 H   0  0  0  0  0  0  0  0  0  0  0  0  # atno 8009 bound_to 7997
  155.4166  140.3421  155.4270 H   0  0  0  0  0  0  0  0  0  0  0  0  # atno 8010 bound_to 7997
  140.1544  143.4172  152.1471 H   0  0  0  0  0  0  0  0  0  0  0  0  # atno 10167 bound_to 10162
  157.4546  130.8159  149.7823 H   0  0  0  0  0  0  0  0  0  0  0  0  # atno 10718 bound_to 10713
  152.9857  135.5629  154.5447 H   0  0  0  0  0  0  0  0  0  0  0  0  # atno 10763 bound_to 10752
  154.4895  135.2792  155.1510 H   0  0  0  0  0  0  0  0  0  0  0  0  # atno 10764 bound_to 10752
  154.2985  135.6312  153.5468 H   0  0  0  0  0  0  0  0  0  0  0  0  # atno 10765 bound_to 10752
  141.0719  133.6676  156.3487 H   0  0  0  0  0  0  0  0  0  0  0  0  # atno 11005 bound_to 11000
  144.6930  139.9132  143.7464 LP  0  0  0  0  0  0  0  0  0  0  0  0  # atno 17320 bound_to 7965
  146.0673  139.3663  143.0544 LP  0  0  0  0  0  0  0  0  0  0  0  0  # atno 17321 bound_to 7965
  139.5410  144.7256  151.4733 LP  0  0  0  0  0  0  0  0  0  0  0  0  # atno 17342 bound_to 10162
  140.6682  143.8351  150.6967 LP  0  0  0  0  0  0  0  0  0  0  0  0  # atno 17343 bound_to 10162
  156.0002  130.3885  150.2637 LP  0  0  0  0  0  0  0  0  0  0  0  0  # atno 17370 bound_to 10713
  157.0811  131.0143  151.3156 LP  0  0  0  0  0  0  0  0  0  0  0  0  # atno 17371 bound_to 10713
  140.5654  134.5892  157.5444 LP  0  0  0  0  0  0  0  0  0  0  0  0  # atno 17394 bound_to 11000
  139.9532  134.7580  156.0400 LP  0  0  0  0  0  0  0  0  0  0  0  0  # atno 17395 bound_to 11000

$$$$
