AV-unprocessed.smi:1906|AV-procd|sdf|7727|dock5
  -GOLD-   22720 9473D 1   1.00000     0.00000
 Structure written by MMmdl.
 35 37  0  0  0  0  0  0  0  0  1 V2000
  151.9534  138.4131  158.9526 C   0  0  0  0  0  0  0  0  0  0  0  0
  151.9222  139.9077  158.8985 C   0  0  0  0  0  0  0  0  0  0  0  0
  152.8080  140.6605  159.5518 N   0  0  0  0  0  0  0  0  0  0  0  0
  152.4168  141.9440  159.2224 C   0  0  0  0  0  0  0  0  0  0  0  0
  152.9562  143.1952  159.5982 C   0  0  0  0  0  0  0  0  0  0  0  0
  152.3777  144.3925  159.1279 C   0  0  0  0  0  0  0  0  0  0  0  0
  151.2539  144.3565  158.2770 C   0  0  0  0  0  0  0  0  0  0  0  0
  150.7008  143.1207  157.8899 C   0  0  0  0  0  0  0  0  0  0  0  0
  151.2824  141.9290  158.3623 C   0  0  0  0  0  0  0  0  0  0  0  0
  150.9919  140.5815  158.1776 N   0  0  0  0  0  0  0  0  0  0  0  0
  149.9091  140.0434  157.3659 C   0  0  0  0  0  0  0  0  0  0  0  0
  150.3008  139.8890  155.8830 C   0  0  2  0  0  0  0  0  0  0  0  0
  151.4692  140.6381  155.6112 O   0  0  0  0  0  0  0  0  0  0  0  0
  149.1488  140.2690  154.9666 C   0  0  0  0  0  0  0  0  0  0  0  0
  148.6151  141.5765  154.9858 C   0  0  0  0  0  0  0  0  0  0  0  0
  147.5387  141.9159  154.1429 C   0  0  0  0  0  0  0  0  0  0  0  0
  146.9898  140.9505  153.2771 C   0  0  0  0  0  0  0  0  0  0  0  0
  147.5170  139.6449  153.2556 C   0  0  0  0  0  0  0  0  0  0  0  0
  146.9889  138.7150  152.4253 F   0  0  0  0  0  0  0  0  0  0  0  0
  148.5924  139.3050  154.0989 C   0  0  0  0  0  0  0  0  0  0  0  0
  152.7250  138.0713  159.6432 H   0  0  0  0  0  0  0  0  0  0  0  0
  152.1712  138.0055  157.9653 H   0  0  0  0  0  0  0  0  0  0  0  0
  150.9940  138.0239  159.2932 H   0  0  0  0  0  0  0  0  0  0  0  0
  153.8168  143.2342  160.2492 H   0  0  0  0  0  0  0  0  0  0  0  0
  152.7984  145.3432  159.4210 H   0  0  0  0  0  0  0  0  0  0  0  0
  150.8165  145.2780  157.9215 H   0  0  0  0  0  0  0  0  0  0  0  0
  149.8402  143.0890  157.2383 H   0  0  0  0  0  0  0  0  0  0  0  0
  149.6388  139.0705  157.7783 H   0  0  0  0  0  0  0  0  0  0  0  0
  149.0239  140.6711  157.4690 H   0  0  0  0  0  0  0  0  0  0  0  0
  150.5537  138.8449  155.6939 H   0  0  0  0  0  0  0  0  0  0  0  0
  151.8195  140.9540  156.4301 H   0  0  0  0  0  0  0  0  0  0  0  0
  149.0275  142.3220  155.6503 H   0  0  0  0  0  0  0  0  0  0  0  0
  147.1330  142.9168  154.1619 H   0  0  0  0  0  0  0  0  0  0  0  0
  146.1639  141.2109  152.6315 H   0  0  0  0  0  0  0  0  0  0  0  0
  148.9869  138.2996  154.0780 H   0  0  0  0  0  0  0  0  0  0  0  0
  1  2  1  0  0  0  0
  1 21  1  0  0  0  0
  1 22  1  0  0  0  0
  1 23  1  0  0  0  0
  2 10  1  0  0  0  0
  2  3  2  0  0  0  0
  3  4  1  0  0  0  0
  4  9  2  0  0  0  0
  4  5  1  0  0  0  0
  5  6  2  0  0  0  0
  5 24  1  0  0  0  0
  6  7  1  0  0  0  0
  6 25  1  0  0  0  0
  7  8  2  0  0  0  0
  7 26  1  0  0  0  0
  8  9  1  0  0  0  0
  8 27  1  0  0  0  0
  9 10  1  0  0  0  0
 10 11  1  0  0  0  0
 11 12  1  0  0  0  0
 11 28  1  0  0  0  0
 11 29  1  0  0  0  0
 12 13  1  0  0  0  0
 12 14  1  0  0  0  0
 12 30  1  0  0  0  0
 13 31  1  0  0  0  0
 14 20  1  0  0  0  0
 14 15  2  0  0  0  0
 15 16  1  0  0  0  0
 15 32  1  0  0  0  0
 16 17  2  0  0  0  0
 16 33  1  0  0  0  0
 17 18  1  0  0  0  0
 17 34  1  0  0  0  0
 18 19  1  0  0  0  0
 18 20  2  0  0  0  0
 20 35  1  0  0  0  0
M  END
> <s_m_source_file>
AV-unprocessed.smi

> <i_m_source_file_index>
1906

> <i_lp_mmshare_version>
43012

> <i_f3d_flags>
0

> <s_epik_input>
W2NIXTFbY0hdW2NIXVtjSF1jKGMxMiluKGMobjIpW0NIM10pW0NIMl1bQ0BIXShbT0hdKWMzW2NIXVtjSF1bY0hdYyhGKVtjSF0z

> <s_epik_cmdline>
J2VwaWtfcHl0aG9uJywgJy1waCcsICc3LjAnLCAnLXRuJywgJzgnLCAnLW1hJywgJzIwMCcsICctbWV0YWxfYmluZGluZycsICctaW1hZScsICc8aW5maWxlLm1hZT4nLCAnLW9tYWUnLCAnPG91dGZpbGUubWFlPic=

> <r_epik_Ionization_Penalty>
0.129664

> <r_epik_Ionization_Penalty_Charging>
0

> <r_epik_Ionization_Penalty_Neutral>
0.129664

> <r_epik_State_Penalty>
0.119073

> <r_epik_Charging_Adjusted_Penalty>
0.119073

> <i_epik_Tot_Q>
0

> <i_epik_Tot_abs_Q>
0

> <r_epik_Metal_State_Penalty>
0.000131867

> <b_epik_Metal_Only>
0

> <s_lp_Force_Field>
OPLS_2005

> <r_lp_Energy>
10.1528

> <b_lp_Chiralities_Consistent>
1

> <s_lp_Variant>
AV-unprocessed.smi:1906-1

> <Gold.Version>
5.8.1

> <Gold.Id.Protein>
6NUR|6NUR_protein|mol2

> <Gold.PLP.Fitness>
46.0090

> <Gold.PLP.PLP>
-45.3905

> <Gold.PLP.part.hbond>
-1.0000

> <Gold.PLP.part.metal>
0.0000

> <Gold.PLP.part.buried>
-3.5220

> <Gold.PLP.part.nonpolar>
-40.8153

> <Gold.PLP.part.repulsive>
0.0000

> <Gold.PLP.ligand.clash>
0.0000

> <Gold.PLP.ligand.torsion>
0.9526

> <Gold.PLP.Chemscore.Hbond>
0.8320

> <Gold.PLP.Chemscore.CHOScore>
0.0000

> <Gold.PLP.Chemscore.Metal>
0.0000

> <Gold.Chemscore.Hbonds>
donor molecule, donor type, donor heavy atom, donor atom, acceptor molecule, acceptor atom, score
      P1  H  7989  7998       L1    13  0.59

> <Gold.PLP.Chemscore.Internal.Correction>
0.0276

> <Gold.Rescore>
     Score         DG    S(hbond)    S(metal)    S(lipo)     H(rot)  DE(clash)    DE(int)     intcor
     17.24     -18.21       0.90        0.00     122.27       1.79       0.03       0.94       ----

> <Gold.Chemscore.Fitness>
17.2370

> <Gold.Chemscore.DG>
-18.2070

> <Gold.Chemscore.ZeroCoef>
-5.4800

> <Gold.Chemscore.Hbond>
0.9014

> <Gold.Chemscore.Metal>
0.0000

> <Gold.Chemscore.Lipo>
122.2689

> <Gold.Chemscore.Internal_Hbond>
0.0000

> <Gold.Chemscore.DEClash>
0.0323

> <Gold.Chemscore.DEInternal>
0.9376

> <Gold.Chemscore.Rot>
1.7926

> <Gold.Chemscore.Internal.Correction>
   9.000000E+99

> <Gold.Chemscore.Hbonds>
donor molecule, donor type, donor heavy atom, donor atom, acceptor molecule, acceptor atom, score
      P1  H  7989  7998       L1    13  0.41

> <Gold.Chemscore.Hbond.Weighted>
-3.0106

> <Gold.Chemscore.Metal.Weighted>
-0.0000

> <Gold.Chemscore.Lipo.Weighted>
-14.3055

> <Gold.Chemscore.Internal_Hbond.Weighted>
0.0000

> <Gold.Chemscore.DEClash.Weighted>
0.0323

> <Gold.Chemscore.DEInternal.Weighted>
0.9376

> <Gold.Chemscore.Rot.Weighted>
4.5890

> <Gold.Chemscore.Internal.Correction.Weighted>
   9.000000E+99

> <Gold.Protein.RotatedTorsions>
[ 6907 6896 6895 6894 ] final -124.25 input  -60.11 | X-H torsion
[ 7974 7965 7964 7962 ] final -134.10 input  175.53 | X-H torsion
[ 8008 7997 7996 7995 ] final  119.09 input   59.86 | X-H torsion
[ 10167 10162 10161 10158 ] final  115.03 input  -65.29 | X-H torsion
[ 10718 10713 10712 10709 ] final  -31.68 input   66.30 | X-H torsion
[ 10763 10752 10751 10750 ] final   82.44 input  -60.55 | X-H torsion
[ 11005 11000 10999 10996 ] final   22.75 input  -57.11 | X-H torsion

> <Gold.Protein.ActiveResidues>
 VAL166  LYS551  ARG553  GLY616  TRP617  ASP618  TYR619  PRO620  LYS621  CYS622 
 ASP623  PHE694  ASN695  SER759  ASP760  ASP761  ALA762  ILE779  LEU786  VAL792 
 PHE793  MET794  SER795  GLU796  ALA797  LYS798  CYS799  TRP800  GLU811  SER814 

> <Gold.Protein.RotatedAtoms>
  150.8750  133.7452  159.2949 H   0  0  0  0  0  0  0  0  0  0  0  0  # atno 6907 bound_to 6896
  151.5051  135.1061  159.9849 H   0  0  0  0  0  0  0  0  0  0  0  0  # atno 6908 bound_to 6896
  152.4721  133.8009  159.7008 H   0  0  0  0  0  0  0  0  0  0  0  0  # atno 6909 bound_to 6896
  144.9133  140.6922  143.5011 H   0  0  0  0  0  0  0  0  0  0  0  0  # atno 7974 bound_to 7965
  156.2579  140.2860  156.0937 H   0  0  0  0  0  0  0  0  0  0  0  0  # atno 8008 bound_to 7997
  155.1434  140.0396  157.2821 H   0  0  0  0  0  0  0  0  0  0  0  0  # atno 8009 bound_to 7997
  154.6513  140.2545  155.7217 H   0  0  0  0  0  0  0  0  0  0  0  0  # atno 8010 bound_to 7997
  139.6346  144.7118  151.2361 H   0  0  0  0  0  0  0  0  0  0  0  0  # atno 10167 bound_to 10162
  156.3843  130.4361  149.7444 H   0  0  0  0  0  0  0  0  0  0  0  0  # atno 10718 bound_to 10713
  153.1203  135.4728  154.9184 H   0  0  0  0  0  0  0  0  0  0  0  0  # atno 10763 bound_to 10752
  154.7569  135.3121  154.8456 H   0  0  0  0  0  0  0  0  0  0  0  0  # atno 10764 bound_to 10752
  153.9022  135.6874  153.4808 H   0  0  0  0  0  0  0  0  0  0  0  0  # atno 10765 bound_to 10752
  140.3772  134.1959  155.7664 H   0  0  0  0  0  0  0  0  0  0  0  0  # atno 11005 bound_to 11000
  145.3418  139.1730  143.4482 LP  0  0  0  0  0  0  0  0  0  0  0  0  # atno 17320 bound_to 7965
  146.3169  140.3460  142.8652 LP  0  0  0  0  0  0  0  0  0  0  0  0  # atno 17321 bound_to 7965
  140.7458  143.6419  150.8327 LP  0  0  0  0  0  0  0  0  0  0  0  0  # atno 17342 bound_to 10162
  140.0049  143.5705  152.2861 LP  0  0  0  0  0  0  0  0  0  0  0  0  # atno 17343 bound_to 10162
  156.4522  130.7912  151.2933 LP  0  0  0  0  0  0  0  0  0  0  0  0  # atno 17370 bound_to 10713
  157.7494  131.0092  150.3257 LP  0  0  0  0  0  0  0  0  0  0  0  0  # atno 17371 bound_to 10713
  141.1935  133.8148  157.0795 LP  0  0  0  0  0  0  0  0  0  0  0  0  # atno 17394 bound_to 11000
  140.0506  134.9807  157.1129 LP  0  0  0  0  0  0  0  0  0  0  0  0  # atno 17395 bound_to 11000

$$$$
