#       Name:                AV-unprocessed.smi:536
#       Creating user name   scv26
#       Creation time:       Thu Mar 26 23:35:33 2020


#       File generated by GOLD software.
#

@<TRIPOS>MOLECULE
AV-unprocessed.smi:536
    53    55     1
SMALL
NO_CHARGES


@<TRIPOS>ATOM
      1 ****        -3.7699   1.4006   1.9094 C.3            1 S1                 0.0000
      2 ****        -2.3576   1.3181   1.8520 O.3            1 S1                 0.0000
      3 ****        -1.8855  -0.0187   1.8527 C.3            1 S1                 0.0000
      4 ****        -0.3480  -0.0610   1.7981 C.3            1 S1                 0.0000
      5 ****         0.2249   0.7693   0.7394 N.pl3          1 S1                 0.0000
      6 ****         0.5883   0.3922  -0.5159 C.2            1 S1                 0.0000
      7 ****         0.4149  -0.9131  -0.9775 N.pl3          1 S1                 0.0000
      8 ****        -0.8814  -1.4992  -1.3023 C.3            1 S1                 0.0000
      9 ****        -1.1740  -2.8354  -0.5932 C.3            1 S1                 0.0000
     10 ****        -0.3878  -4.0147  -1.1855 C.3            1 S1                 0.0000
     11 ****         1.0535  -4.1662  -0.6665 C.3            1 S1                 0.0000
     12 ****         1.8579  -2.8664  -0.4757 C.3            1 S1                 0.0000
     13 ****         1.5233  -1.7329  -1.4582 C.3            1 S1                 0.0000
     14 ****         1.1482   1.3555  -1.2494 N.2            1 S1                 0.0000
     15 ****         1.1232   2.4482  -0.3967 C.2            1 S1                 0.0000
     16 ****         0.5822   2.1215   0.8080 C.2            1 S1                 0.0000
     17 ****         0.4514   3.0748   1.9341 C.2            1 S1                 0.0000
     18 ****        -0.0241   2.7262   3.0128 O.2            1 S1                 0.0000
     19 ****         0.9157   4.3236   1.6119 N.pl3          1 S1                -1.0000
     20 ****         1.4635   4.6979   0.4042 C.2            1 S1                 0.0000
     21 ****         1.8580   5.8464   0.1972 O.2            1 S1                 0.0000
     22 ****         1.5805   3.7782  -0.6044 N.am           1 S1                 0.0000
     23 ****         2.1655   4.1466  -1.8968 C.3            1 S1                 0.0000
     24 ****        -4.0749   2.4471   1.9085 H              1 S1                 0.0000
     25 ****        -4.1554   0.9380   2.8188 H              1 S1                 0.0000
     26 ****        -4.2283   0.9154   1.0467 H              1 S1                 0.0000
     27 ****        -2.2282  -0.5333   2.7513 H              1 S1                 0.0000
     28 ****        -2.3120  -0.5523   1.0055 H              1 S1                 0.0000
     29 ****         0.0673   0.2550   2.7535 H              1 S1                 0.0000
     30 ****        -0.0038  -1.0865   1.6751 H              1 S1                 0.0000
     31 ****        -1.6555  -0.7753  -1.0509 H              1 S1                 0.0000
     32 ****        -0.9535  -1.6266  -2.3831 H              1 S1                 0.0000
     33 ****        -1.0192  -2.7653   0.4829 H              1 S1                 0.0000
     34 ****        -2.2357  -3.0458  -0.7249 H              1 S1                 0.0000
     35 ****        -0.9219  -4.9413  -0.9724 H              1 S1                 0.0000
     36 ****        -0.3797  -3.9307  -2.2729 H              1 S1                 0.0000
     37 ****         1.0384  -4.6991   0.2848 H              1 S1                 0.0000
     38 ****         1.5907  -4.8185  -1.3558 H              1 S1                 0.0000
     39 ****         1.7386  -2.5049   0.5467 H              1 S1                 0.0000
     40 ****         2.9161  -3.1121  -0.5688 H              1 S1                 0.0000
     41 ****         1.3241  -2.1213  -2.4576 H              1 S1                 0.0000
     42 ****         2.3986  -1.0901  -1.5577 H              1 S1                 0.0000
     43 ****         3.1817   4.5203  -1.7641 H              1 S1                 0.0000
     44 ****         1.5732   4.9286  -2.3743 H              1 S1                 0.0000
     45 ****         2.2172   3.3076  -2.5905 H              1 S1                 0.0000
     46 ****        -1.9772   1.7918   2.6463 LP             1 S1                 0.0000
     47 ****        -2.0450   1.7670   1.0149 LP             1 S1                 0.0000
     48 ****         1.4994   1.3025  -2.1841 LP             1 S1                 0.0000
     49 ****        -0.3313   1.7834   3.1426 LP             1 S1                 0.0000
     50 ****        -0.1037   3.3854   3.7606 LP             1 S1                 0.0000
     51 ****         0.8509   5.0281   2.3186 LP             1 S1                 0.0000
     52 ****         1.7851   6.5374   0.9164 LP             1 S1                 0.0000
     53 ****         2.2511   6.0877  -0.6900 LP             1 S1                 0.0000
@<TRIPOS>BOND
    1    1    2 1     
    2    1   24 1     
    3    1   25 1     
    4    1   26 1     
    5    2    3 1     
    6    3    4 1     
    7    3   27 1     
    8    3   28 1     
    9    4    5 1     
   10    4   29 1     
   11    4   30 1     
   12    5   16 1     
   13    5    6 1     
   14    6    7 1     
   15    6   14 2     
   16    7   13 1     
   17    7    8 1     
   18    8    9 1     
   19    8   31 1     
   20    8   32 1     
   21    9   10 1     
   22    9   33 1     
   23    9   34 1     
   24   10   11 1     
   25   10   35 1     
   26   10   36 1     
   27   11   12 1     
   28   11   37 1     
   29   11   38 1     
   30   12   13 1     
   31   12   39 1     
   32   12   40 1     
   33   13   41 1     
   34   13   42 1     
   35   14   15 1     
   36   15   22 1     
   37   15   16 2     
   38   16   17 1     
   39   17   18 2     
   40   17   19 1     
   41   19   20 1     
   42   20   21 2     
   43   20   22 am    
   44   22   23 1     
   45   23   43 1     
   46   23   44 1     
   47   23   45 1     
   48    2   46 1     
   49    2   47 1     
   50   14   48 1     
   51   18   49 1     
   52   18   50 1     
   53   19   51 1     
   54   21   52 1     
   55   21   53 1     
@<TRIPOS>SUBSTRUCTURE
      1 S1             1
@<TRIPOS>SET
LONE_PAIRS      STATIC     ATOMS    <user>   **** ""
8 46 47 48 49 50 51 52 53
ATOM$BLUE        STATIC     ATOMS    COLORGROUP SYSTEM
8 46 47 48 49 50 51 52 53
