AV-unprocessed.smi:1809|AV-procd|sdf|7313|dock4
  -GOLD-   22720 8573D 1   1.00000     0.00000
 Structure written by MMmdl.
 40 42  0  0  0  0  0  0  0  0  2 V2000
  137.2533  137.1993  155.2330 C   0  0  0  0  0  0  0  0  0  0  0  0
  138.6905  137.1041  154.8502 C   0  0  0  0  0  0  0  0  0  0  0  0
  139.6382  136.6865  155.6983 N   0  0  0  0  0  0  0  0  0  0  0  0
  140.8985  136.6797  155.1171 N   0  0  0  0  0  0  0  0  0  0  0  0
  140.8637  137.0934  153.8430 C   0  0  0  0  0  0  0  0  0  0  0  0
  142.0105  137.1784  153.0098 N   0  0  0  0  0  0  0  0  0  0  0  0
  143.2754  136.8245  153.2967 C   0  0  0  0  0  0  0  0  0  0  0  0
  143.6630  136.3784  154.3769 O   0  0  0  0  0  0  0  0  0  0  0  0
  144.0848  137.0132  152.2444 N   0  0  0  0  0  0  0  0  0  0  0  0
  145.5217  136.7531  152.2283 C   0  0  0  0  0  0  0  0  0  0  0  0
  145.8989  135.5568  151.3333 C   0  0  2  0  0  0  0  0  0  0  0  0
  144.6929  134.9077  150.6267 C   0  0  0  0  0  0  0  0  0  0  0  0
  145.0892  133.7068  149.8489 N   0  3  2  0  0  0  0  0  0  0  0  0
  143.9203  132.9038  149.4277 C   0  0  0  0  0  0  0  0  0  0  0  0
  143.7615  131.7797  150.4678 C   0  0  0  0  0  0  0  0  0  0  0  0
  144.9731  131.9016  151.4000 C   0  0  0  0  0  0  0  0  0  0  0  0
  145.9484  132.7766  150.6123 C   0  0  2  0  0  0  0  0  0  0  0  0
  147.0349  133.4926  151.4381 C   0  0  0  0  0  0  0  0  0  0  0  0
  146.4867  134.5744  152.1765 O   0  0  0  0  0  0  0  0  0  0  0  0
  139.2712  137.5240  153.2430 S   0  0  0  0  0  0  0  0  0  0  0  0
  137.1568  137.4490  156.2900 H   0  0  0  0  0  0  0  0  0  0  0  0
  136.7560  136.2468  155.0498 H   0  0  0  0  0  0  0  0  0  0  0  0
  136.7570  137.9727  154.6464 H   0  0  0  0  0  0  0  0  0  0  0  0
  141.8458  137.5483  152.0851 H   0  0  0  0  0  0  0  0  0  0  0  0
  143.6822  137.3846  151.3961 H   0  0  0  0  0  0  0  0  0  0  0  0
  146.0075  137.6525  151.8488 H   0  0  0  0  0  0  0  0  0  0  0  0
  145.9044  136.6094  153.2402 H   0  0  0  0  0  0  0  0  0  0  0  0
  146.6315  135.8885  150.5950 H   0  0  0  0  0  0  0  0  0  0  0  0
  143.9426  134.6366  151.3716 H   0  0  0  0  0  0  0  0  0  0  0  0
  144.2199  135.6126  149.9431 H   0  0  0  0  0  0  0  0  0  0  0  0
  143.0159  133.5046  149.3176 H   0  0  0  0  0  0  0  0  0  0  0  0
  144.1391  132.4694  148.4515 H   0  0  0  0  0  0  0  0  0  0  0  0
  142.8305  131.8791  151.0270 H   0  0  0  0  0  0  0  0  0  0  0  0
  143.7456  130.8076  149.9734 H   0  0  0  0  0  0  0  0  0  0  0  0
  144.6793  132.4010  152.3246 H   0  0  0  0  0  0  0  0  0  0  0  0
  145.3992  130.9338  151.6664 H   0  0  0  0  0  0  0  0  0  0  0  0
  146.4466  132.1330  149.8850 H   0  0  0  0  0  0  0  0  0  0  0  0
  147.5092  132.7925  152.1263 H   0  0  0  0  0  0  0  0  0  0  0  0
  147.8234  133.8663  150.7829 H   0  0  0  0  0  0  0  0  0  0  0  0
  145.5937  134.0258  149.0340 H   0  0  0  0  0  0  0  0  0  0  0  0
  1  2  1  0  0  0  0
  1 21  1  0  0  0  0
  1 22  1  0  0  0  0
  1 23  1  0  0  0  0
  2 20  1  0  0  0  0
  2  3  2  0  0  0  0
  3  4  1  0  0  0  0
  4  5  2  0  0  0  0
  5  6  1  0  0  0  0
  5 20  1  0  0  0  0
  6  7  1  0  0  0  0
  6 24  1  0  0  0  0
  7  8  2  0  0  0  0
  7  9  1  0  0  0  0
  9 10  1  0  0  0  0
  9 25  1  0  0  0  0
 10 11  1  0  0  0  0
 10 26  1  0  0  0  0
 10 27  1  0  0  0  0
 11 19  1  0  0  0  0
 11 12  1  0  0  0  0
 11 28  1  0  0  0  0
 12 13  1  0  0  0  0
 12 29  1  0  0  0  0
 12 30  1  0  0  0  0
 13 17  1  0  0  0  0
 13 14  1  0  0  0  0
 13 40  1  0  0  0  0
 14 15  1  0  0  0  0
 14 31  1  0  0  0  0
 14 32  1  0  0  0  0
 15 16  1  0  0  0  0
 15 33  1  0  0  0  0
 15 34  1  0  0  0  0
 16 17  1  0  0  0  0
 16 35  1  0  0  0  0
 16 36  1  0  0  0  0
 17 18  1  0  0  0  0
 17 37  1  0  0  0  0
 18 19  1  0  0  0  0
 18 38  1  0  0  0  0
 18 39  1  0  0  0  0
M  CHG  1  13   1
M  END
> <s_m_source_file>
AV-unprocessed.smi

> <i_m_source_file_index>
1809

> <i_lp_mmshare_version>
43012

> <i_f3d_flags>
0

> <s_epik_input>
W0NIM11jMW5uYyhzMSlbTkhdQyg9TylbTkhdW0NIMl1bQ0BIXShbQ0gyXTIpT1tDSDJdW0NAQEhdKE4yMylbQ0gyXVtDSDJdW0NIMl0z

> <s_epik_cmdline>
J2VwaWtfcHl0aG9uJywgJy1waCcsICc3LjAnLCAnLXRuJywgJzgnLCAnLW1hJywgJzIwMCcsICctbWV0YWxfYmluZGluZycsICctaW1hZScsICc8aW5maWxlLm1hZT4nLCAnLW9tYWUnLCAnPG91dGZpbGUubWFlPic=

> <r_lp_tautomer_probability>
1

> <r_epik_Ionization_Penalty>
0.112474

> <r_epik_Ionization_Penalty_Charging>
0.108916

> <r_epik_Ionization_Penalty_Neutral>
0.00355844

> <r_epik_State_Penalty>
0.0565397

> <r_epik_Charging_Adjusted_Penalty>
0.165456

> <i_epik_Tot_Q>
1

> <i_epik_Tot_abs_Q>
1

> <r_epik_Metal_State_Penalty>
0.422831

> <b_epik_Metal_Only>
0

> <s_lp_Force_Field>
OPLS_2005

> <r_lp_Energy>
35.4297

> <b_lp_Chiralities_Consistent>
1

> <s_lp_Variant>
AV-unprocessed.smi:1809-5

> <Gold.Version>
5.8.1

> <Gold.Id.Protein>
6NUR|6NUR_protein|mol2

> <Gold.PLP.Fitness>
42.7306

> <Gold.PLP.PLP>
-37.0223

> <Gold.PLP.part.hbond>
-4.0000

> <Gold.PLP.part.metal>
0.0000

> <Gold.PLP.part.buried>
-5.6466

> <Gold.PLP.part.nonpolar>
-28.1949

> <Gold.PLP.part.repulsive>
1.4679

> <Gold.PLP.ligand.clash>
0.9427

> <Gold.PLP.ligand.torsion>
0.7878

> <Gold.PLP.Chemscore.Hbond>
2.7420

> <Gold.PLP.Chemscore.CHOScore>
0.0000

> <Gold.PLP.Chemscore.Metal>
0.0000

> <Gold.Chemscore.Hbonds>
donor molecule, donor type, donor heavy atom, donor atom, acceptor molecule, acceptor atom, score
      L1  H     9    25       P1 10171  0.99
      L1  H    13    40       P1  7921  1.00
      P1  H 11000 11005       L1     3  0.75

> <Gold.PLP.Chemscore.Internal.Correction>
0.0006

> <Gold.Rescore>
     Score         DG    S(hbond)    S(metal)    S(lipo)     H(rot)  DE(clash)    DE(int)     intcor
     17.28     -19.73       2.23        0.00      87.53       1.34       0.33       2.12       ----

> <Gold.Chemscore.Fitness>
17.2768

> <Gold.Chemscore.DG>
-19.7311

> <Gold.Chemscore.ZeroCoef>
-5.4800

> <Gold.Chemscore.Hbond>
2.2270

> <Gold.Chemscore.Metal>
0.0000

> <Gold.Chemscore.Lipo>
87.5294

> <Gold.Chemscore.Internal_Hbond>
0.0000

> <Gold.Chemscore.DEClash>
0.3305

> <Gold.Chemscore.DEInternal>
2.1238

> <Gold.Chemscore.Rot>
1.3391

> <Gold.Chemscore.Internal.Correction>
   9.000000E+99

> <Gold.Chemscore.Hbonds>
donor molecule, donor type, donor heavy atom, donor atom, acceptor molecule, acceptor atom, score
      L1  H     9    25       P1 10171  0.91
      L1  H    13    40       P1  7921  0.65
      P1  H 11000 11005       L1     3  0.09

> <Gold.Chemscore.Hbond.Weighted>
-7.4382

> <Gold.Chemscore.Metal.Weighted>
-0.0000

> <Gold.Chemscore.Lipo.Weighted>
-10.2409

> <Gold.Chemscore.Internal_Hbond.Weighted>
0.0000

> <Gold.Chemscore.DEClash.Weighted>
0.3305

> <Gold.Chemscore.DEInternal.Weighted>
2.1238

> <Gold.Chemscore.Rot.Weighted>
3.4281

> <Gold.Chemscore.Internal.Correction.Weighted>
   9.000000E+99

> <Gold.Protein.RotatedTorsions>
[ 6907 6896 6895 6894 ] final -179.21 input  -60.11 | X-H torsion
[ 7974 7965 7964 7962 ] final   68.82 input  175.53 | X-H torsion
[ 8008 7997 7996 7995 ] final -136.79 input   59.86 | X-H torsion
[ 10167 10162 10161 10158 ] final -148.41 input  -65.29 | X-H torsion
[ 10718 10713 10712 10709 ] final -104.34 input   66.30 | X-H torsion
[ 10763 10752 10751 10750 ] final  127.64 input  -60.55 | X-H torsion
[ 11005 11000 10999 10996 ] final  111.21 input  -57.11 | X-H torsion

> <Gold.Protein.ActiveResidues>
 VAL166  LYS551  ARG553  GLY616  TRP617  ASP618  TYR619  PRO620  LYS621  CYS622 
 ASP623  PHE694  ASN695  SER759  ASP760  ASP761  ALA762  ILE779  LEU786  VAL792 
 PHE793  MET794  SER795  GLU796  ALA797  LYS798  CYS799  TRP800  GLU811  SER814 

> <Gold.Protein.RotatedAtoms>
  151.6497  133.3321  159.3148 H   0  0  0  0  0  0  0  0  0  0  0  0  # atno 6907 bound_to 6896
  150.7966  134.7034  159.6572 H   0  0  0  0  0  0  0  0  0  0  0  0  # atno 6908 bound_to 6896
  152.4054  134.6220  160.0104 H   0  0  0  0  0  0  0  0  0  0  0  0  # atno 6909 bound_to 6896
  145.7979  139.2967  143.1172 H   0  0  0  0  0  0  0  0  0  0  0  0  # atno 7974 bound_to 7965
  155.4011  140.0506  157.3036 H   0  0  0  0  0  0  0  0  0  0  0  0  # atno 8008 bound_to 7997
  154.4990  140.2149  155.9346 H   0  0  0  0  0  0  0  0  0  0  0  0  # atno 8009 bound_to 7997
  156.1443  140.3148  155.8551 H   0  0  0  0  0  0  0  0  0  0  0  0  # atno 8010 bound_to 7997
  139.7534  143.8484  152.2591 H   0  0  0  0  0  0  0  0  0  0  0  0  # atno 10167 bound_to 10162
  156.0301  130.5511  150.7383 H   0  0  0  0  0  0  0  0  0  0  0  0  # atno 10718 bound_to 10713
  153.7127  135.3266  155.3250 H   0  0  0  0  0  0  0  0  0  0  0  0  # atno 10763 bound_to 10752
  154.8380  135.4481  154.1297 H   0  0  0  0  0  0  0  0  0  0  0  0  # atno 10764 bound_to 10752
  153.2396  135.6969  153.7878 H   0  0  0  0  0  0  0  0  0  0  0  0  # atno 10765 bound_to 10752
  139.8898  134.9502  156.6398 H   0  0  0  0  0  0  0  0  0  0  0  0  # atno 11005 bound_to 11000
  145.9908  140.8604  143.0067 LP  0  0  0  0  0  0  0  0  0  0  0  0  # atno 17320 bound_to 7965
  144.6772  140.2213  143.7366 LP  0  0  0  0  0  0  0  0  0  0  0  0  # atno 17321 bound_to 7965
  139.8469  144.7183  150.9261 LP  0  0  0  0  0  0  0  0  0  0  0  0  # atno 17342 bound_to 10162
  140.7800  143.3933  151.1272 LP  0  0  0  0  0  0  0  0  0  0  0  0  # atno 17343 bound_to 10162
  157.4958  131.0914  151.0373 LP  0  0  0  0  0  0  0  0  0  0  0  0  # atno 17370 bound_to 10713
  157.0767  130.5886  149.5412 LP  0  0  0  0  0  0  0  0  0  0  0  0  # atno 17371 bound_to 10713
  140.7603  133.8823  155.8413 LP  0  0  0  0  0  0  0  0  0  0  0  0  # atno 17394 bound_to 11000
  140.9928  134.1256  157.4392 LP  0  0  0  0  0  0  0  0  0  0  0  0  # atno 17395 bound_to 11000

$$$$
