#       Name:                AV-unprocessed.smi:3336
#       Creating user name   scv26
#       Creation time:       Fri Mar 27 19:25:22 2020


#       File generated by GOLD software.
#

@<TRIPOS>MOLECULE
AV-unprocessed.smi:3336
    47    48     1
SMALL
NO_CHARGES


@<TRIPOS>ATOM
      1 ****        -1.9519  -2.0542  -1.7167 C.3            1 S1                 0.0000
      2 ****        -1.4304  -1.3655  -0.4449 C.3            1 S1                 0.0000
      3 ****        -1.7694  -2.1299   0.8505 C.3            1 S1                 0.0000
      4 ****        -3.1996  -2.2632   1.0630 N.pl3          1 S1                 0.0000
      5 ****        -4.0812  -1.3198   1.5468 C.2            1 S1                 0.0000
      6 ****        -5.3186  -1.8962   1.5748 C.2            1 S1                 0.0000
      7 ****        -5.0897  -3.2118   1.0831 C.2            1 S1                 0.0000
      8 ****        -3.8202  -3.4294   0.7797 N.2            1 S1                 0.0000
      9 ****         0.0227  -1.2640  -0.5399 N.3            1 S1                 0.0000
     10 ****         0.5362   0.1161  -0.4671 C.3            1 S1                 0.0000
     11 ****         0.2536   0.8712  -1.7824 C.3            1 S1                 0.0000
     12 ****         2.0514   0.1282  -0.1680 C.2            1 S1                 0.0000
     13 ****         2.7199  -0.8537  -0.4990 O.2            1 S1                 0.0000
     14 ****         2.6176   1.1999   0.4438 N.am           1 S1                 0.0000
     15 ****         1.9645   2.4708   0.7821 C.3            1 S1                 0.0000
     16 ****         2.6443   3.5992  -0.0151 C.3            1 S1                 0.0000
     17 ****         4.0382   3.6277   0.2780 O.3            1 S1                 0.0000
     18 ****         4.6937   2.3998  -0.0252 C.3            1 S1                 0.0000
     19 ****         4.0450   1.2599   0.7791 C.3            1 S1                 0.0000
     20 ****        -3.0408  -2.1071  -1.7209 H              1 S1                 0.0000
     21 ****        -1.5698  -3.0720  -1.8038 H              1 S1                 0.0000
     22 ****        -1.6530  -1.5076  -2.6119 H              1 S1                 0.0000
     23 ****        -1.8869  -0.3762  -0.3850 H              1 S1                 0.0000
     24 ****        -1.3187  -3.1242   0.8386 H              1 S1                 0.0000
     25 ****        -1.3507  -1.6105   1.7136 H              1 S1                 0.0000
     26 ****        -3.7573  -0.3281   1.8268 H              1 S1                 0.0000
     27 ****        -6.2461  -1.4469   1.8975 H              1 S1                 0.0000
     28 ****        -5.8034  -4.0097   0.9399 H              1 S1                 0.0000
     29 ****         0.3523  -1.7432  -1.3658 H              1 S1                 0.0000
     30 ****         0.0245   0.5978   0.3653 H              1 S1                 0.0000
     31 ****         0.6640   1.8807  -1.7672 H              1 S1                 0.0000
     32 ****        -0.8155   0.9679  -1.9704 H              1 S1                 0.0000
     33 ****         0.6910   0.3539  -2.6374 H              1 S1                 0.0000
     34 ****         0.8971   2.4969   0.5777 H              1 S1                 0.0000
     35 ****         2.0680   2.6530   1.8528 H              1 S1                 0.0000
     36 ****         2.4933   3.4639  -1.0872 H              1 S1                 0.0000
     37 ****         2.2089   4.5630   0.2487 H              1 S1                 0.0000
     38 ****         4.6400   2.2005  -1.0967 H              1 S1                 0.0000
     39 ****         5.7491   2.4909   0.2318 H              1 S1                 0.0000
     40 ****         4.1563   1.4454   1.8484 H              1 S1                 0.0000
     41 ****         4.5730   0.3264   0.5816 H              1 S1                 0.0000
     42 ****        -3.4118  -4.2688   0.4212 LP             1 S1                 0.0000
     43 ****         0.3929  -1.7165   0.2714 LP             1 S1                 0.0000
     44 ****         2.2787  -1.6304  -0.9486 LP             1 S1                 0.0000
     45 ****         3.7031  -0.8733  -0.3178 LP             1 S1                 0.0000
     46 ****         4.1555   3.8199   1.2523 LP             1 S1                 0.0000
     47 ****         4.4623   4.3569  -0.2590 LP             1 S1                 0.0000
@<TRIPOS>BOND
    1    1    2 1     
    2    1   20 1     
    3    1   21 1     
    4    1   22 1     
    5    2    3 1     
    6    2    9 1     
    7    2   23 1     
    8    3    4 1     
    9    3   24 1     
   10    3   25 1     
   11    4    8 1     
   12    4    5 1     
   13    5    6 2     
   14    5   26 1     
   15    6    7 1     
   16    6   27 1     
   17    7    8 2     
   18    7   28 1     
   19    9   10 1     
   20    9   29 1     
   21   10   11 1     
   22   10   12 1     
   23   10   30 1     
   24   11   31 1     
   25   11   32 1     
   26   11   33 1     
   27   12   13 2     
   28   12   14 am    
   29   14   19 1     
   30   14   15 1     
   31   15   16 1     
   32   15   34 1     
   33   15   35 1     
   34   16   17 1     
   35   16   36 1     
   36   16   37 1     
   37   17   18 1     
   38   18   19 1     
   39   18   38 1     
   40   18   39 1     
   41   19   40 1     
   42   19   41 1     
   43    8   42 1     
   44    9   43 1     
   45   13   44 1     
   46   13   45 1     
   47   17   46 1     
   48   17   47 1     
@<TRIPOS>SUBSTRUCTURE
      1 S1             1
@<TRIPOS>SET
LONE_PAIRS      STATIC     ATOMS    <user>   **** ""
6 42 43 44 45 46 47
DONOR_HYDROGENS      STATIC     ATOMS    <user>   **** ""
1 29
ATOM$BLUE        STATIC     ATOMS    COLORGROUP SYSTEM
6 42 43 44 45 46 47
ATOM$RED        STATIC     ATOMS    COLORGROUP SYSTEM
1 29
