AV-unprocessed.smi:3155|AV-procd|sdf|12026|dock9
  -GOLD-   2272017443D 1   1.00000     0.00000
 Structure written by MMmdl.
 38 39  0  0  0  0  0  0  0  0  2 V2000
  152.2228  138.0910  155.2797 C   0  0  0  0  0  0  0  0  0  0  0  0
  151.3352  139.2300  154.7406 C   0  0  1  0  0  0  0  0  0  0  0  0
  149.8477  138.8279  154.6628 C   0  0  0  0  0  0  0  0  0  0  0  0
  148.9620  139.9607  154.4622 N   0  0  0  0  0  0  0  0  0  0  0  0
  148.1315  140.2241  153.3929 C   0  0  0  0  0  0  0  0  0  0  0  0
  147.4902  141.4000  153.6576 C   0  0  0  0  0  0  0  0  0  0  0  0
  147.9946  141.7818  154.9320 C   0  0  0  0  0  0  0  0  0  0  0  0
  148.8731  140.9163  155.4121 N   0  0  0  0  0  0  0  0  0  0  0  0
  151.4679  140.4489  155.5690 N   0  3  0  0  0  0  0  0  0  0  0  0
  151.0630  140.3028  156.9849 C   0  0  0  0  0  0  0  0  0  0  0  0
  152.2409  140.4928  157.9511 C   0  0  0  0  0  0  0  0  0  0  0  0
  153.1238  139.6357  158.0123 O   0  0  0  0  0  0  0  0  0  0  0  0
  152.2678  141.6067  158.7114 N   0  0  0  0  0  0  0  0  0  0  0  0
  153.3371  141.9122  159.6601 C   0  0  0  0  0  0  0  0  0  0  0  0
  153.1051  143.3597  160.0938 C   0  0  0  0  0  0  0  0  0  0  0  0
  151.6119  143.5741  159.8887 C   0  0  0  0  0  0  0  0  0  0  0  0
  151.2598  142.6667  158.7094 C   0  0  0  0  0  0  0  0  0  0  0  0
  152.1517  137.2002  154.6552 H   0  0  0  0  0  0  0  0  0  0  0  0
  151.9319  137.8091  156.2921 H   0  0  0  0  0  0  0  0  0  0  0  0
  153.2751  138.3727  155.3018 H   0  0  0  0  0  0  0  0  0  0  0  0
  151.6656  139.4786  153.7308 H   0  0  0  0  0  0  0  0  0  0  0  0
  149.6897  138.1192  153.8484 H   0  0  0  0  0  0  0  0  0  0  0  0
  149.5438  138.3210  155.5800 H   0  0  0  0  0  0  0  0  0  0  0  0
  148.0683  139.5627  152.5413 H   0  0  0  0  0  0  0  0  0  0  0  0
  146.7681  141.9095  153.0367 H   0  0  0  0  0  0  0  0  0  0  0  0
  147.7493  142.6548  155.5190 H   0  0  0  0  0  0  0  0  0  0  0  0
  152.4425  140.7154  155.5695 H   0  0  0  0  0  0  0  0  0  0  0  0
  150.2884  141.0315  157.2229 H   0  0  0  0  0  0  0  0  0  0  0  0
  150.6425  139.3075  157.1336 H   0  0  0  0  0  0  0  0  0  0  0  0
  153.2553  141.2389  160.5146 H   0  0  0  0  0  0  0  0  0  0  0  0
  154.3277  141.7843  159.2209 H   0  0  0  0  0  0  0  0  0  0  0  0
  153.4235  143.5502  161.1192 H   0  0  0  0  0  0  0  0  0  0  0  0
  153.6636  144.0316  159.4408 H   0  0  0  0  0  0  0  0  0  0  0  0
  151.0720  143.2444  160.7775 H   0  0  0  0  0  0  0  0  0  0  0  0
  151.3543  144.6187  159.7108 H   0  0  0  0  0  0  0  0  0  0  0  0
  151.3242  143.2203  157.7716 H   0  0  0  0  0  0  0  0  0  0  0  0
  150.2458  142.2773  158.8082 H   0  0  0  0  0  0  0  0  0  0  0  0
  150.9365  141.1971  155.1470 H   0  0  0  0  0  0  0  0  0  0  0  0
  1  2  1  0  0  0  0
  1 18  1  0  0  0  0
  1 19  1  0  0  0  0
  1 20  1  0  0  0  0
  2  3  1  0  0  0  0
  2  9  1  0  0  0  0
  2 21  1  0  0  0  0
  3  4  1  0  0  0  0
  3 22  1  0  0  0  0
  3 23  1  0  0  0  0
  4  8  1  0  0  0  0
  4  5  1  0  0  0  0
  5  6  2  0  0  0  0
  5 24  1  0  0  0  0
  6  7  1  0  0  0  0
  6 25  1  0  0  0  0
  7  8  2  0  0  0  0
  7 26  1  0  0  0  0
  9 10  1  0  0  0  0
  9 27  1  0  0  0  0
  9 38  1  0  0  0  0
 10 11  1  0  0  0  0
 10 28  1  0  0  0  0
 10 29  1  0  0  0  0
 11 12  2  0  0  0  0
 11 13  1  0  0  0  0
 13 17  1  0  0  0  0
 13 14  1  0  0  0  0
 14 15  1  0  0  0  0
 14 30  1  0  0  0  0
 14 31  1  0  0  0  0
 15 16  1  0  0  0  0
 15 32  1  0  0  0  0
 15 33  1  0  0  0  0
 16 17  1  0  0  0  0
 16 34  1  0  0  0  0
 16 35  1  0  0  0  0
 17 36  1  0  0  0  0
 17 37  1  0  0  0  0
M  CHG  1   9   1
M  END
> <s_m_source_file>
AV-unprocessed.smi

> <i_m_source_file_index>
3155

> <i_lp_mmshare_version>
43012

> <i_f3d_flags>
0

> <s_epik_input>
bjFbY0hdW2NIXVtjSF1uMVtDSDJdW0NAQEhdKFtDSDNdKVtOSF1bQ0gyXUMoPU8pTjJbQ0gyXVtDSDJdW0NIMl1bQ0gyXTI=

> <s_epik_cmdline>
J2VwaWtfcHl0aG9uJywgJy1waCcsICc3LjAnLCAnLXRuJywgJzgnLCAnLW1hJywgJzIwMCcsICctbWV0YWxfYmluZGluZycsICctaW1hZScsICc8aW5maWxlLm1hZT4nLCAnLW9tYWUnLCAnPG91dGZpbGUubWFlPic=

> <r_lp_tautomer_probability>
1

> <r_epik_Ionization_Penalty>
0.120138

> <r_epik_Ionization_Penalty_Charging>
0.120135

> <r_epik_Ionization_Penalty_Neutral>
3.43791e-06

> <r_epik_State_Penalty>
0.109683

> <r_epik_Charging_Adjusted_Penalty>
0.229818

> <i_epik_Tot_Q>
1

> <i_epik_Tot_abs_Q>
1

> <r_epik_Metal_State_Penalty>
0.109693

> <b_epik_Metal_Only>
0

> <s_lp_Force_Field>
OPLS_2005

> <r_lp_Energy>
27.7776

> <b_lp_Chiralities_Consistent>
1

> <s_lp_Variant>
AV-unprocessed.smi:3155-2

> <Gold.Version>
5.8.1

> <Gold.Id.Protein>
6NUR|6NUR_protein|mol2

> <Gold.PLP.Fitness>
40.4117

> <Gold.PLP.PLP>
-33.8087

> <Gold.PLP.part.hbond>
-1.0000

> <Gold.PLP.part.metal>
0.0000

> <Gold.PLP.part.buried>
0.1839

> <Gold.PLP.part.nonpolar>
-33.3266

> <Gold.PLP.part.repulsive>
1.2824

> <Gold.PLP.ligand.clash>
0.0000

> <Gold.PLP.ligand.torsion>
0.6069

> <Gold.PLP.Chemscore.Hbond>
1.0000

> <Gold.PLP.Chemscore.CHOScore>
1.5960

> <Gold.PLP.Chemscore.Metal>
0.0000

> <Gold.Chemscore.Hbonds>
donor molecule, donor type, donor heavy atom, donor atom, acceptor molecule, acceptor atom, score
      P1  H  7997  8008       L1    12  1.00
      L1  C     5    24       P1  7957  0.61
      L1  C     7    26       P1  8028  0.99

> <Gold.PLP.Chemscore.Internal.Correction>
0.0288

> <Gold.Rescore>
     Score         DG    S(hbond)    S(metal)    S(lipo)     H(rot)  DE(clash)    DE(int)     intcor
     12.34     -14.46       0.97        0.00      89.33       1.84       0.13       1.99       ----

> <Gold.Chemscore.Fitness>
12.3408

> <Gold.Chemscore.DG>
-14.4560

> <Gold.Chemscore.ZeroCoef>
-5.4800

> <Gold.Chemscore.Hbond>
0.9660

> <Gold.Chemscore.Metal>
0.0000

> <Gold.Chemscore.Lipo>
89.3266

> <Gold.Chemscore.Internal_Hbond>
0.0000

> <Gold.Chemscore.DEClash>
0.1268

> <Gold.Chemscore.DEInternal>
1.9884

> <Gold.Chemscore.Rot>
1.8366

> <Gold.Chemscore.Internal.Correction>
   9.000000E+99

> <Gold.Chemscore.Hbonds>
donor molecule, donor type, donor heavy atom, donor atom, acceptor molecule, acceptor atom, score
      P1  H  7997  8008       L1    12  0.70

> <Gold.Chemscore.Hbond.Weighted>
-3.2265

> <Gold.Chemscore.Metal.Weighted>
-0.0000

> <Gold.Chemscore.Lipo.Weighted>
-10.4512

> <Gold.Chemscore.Internal_Hbond.Weighted>
0.0000

> <Gold.Chemscore.DEClash.Weighted>
0.1268

> <Gold.Chemscore.DEInternal.Weighted>
1.9884

> <Gold.Chemscore.Rot.Weighted>
4.7017

> <Gold.Chemscore.Internal.Correction.Weighted>
   9.000000E+99

> <Gold.Protein.RotatedTorsions>
[ 6907 6896 6895 6894 ] final -154.58 input  -60.11 | X-H torsion
[ 7974 7965 7964 7962 ] final  -69.64 input  175.53 | X-H torsion
[ 8008 7997 7996 7995 ] final  -72.54 input   59.86 | X-H torsion
[ 10167 10162 10161 10158 ] final -150.35 input  -65.29 | X-H torsion
[ 10718 10713 10712 10709 ] final  145.00 input   66.30 | X-H torsion
[ 10763 10752 10751 10750 ] final -178.79 input  -60.55 | X-H torsion
[ 11005 11000 10999 10996 ] final -141.65 input  -57.11 | X-H torsion

> <Gold.Protein.ActiveResidues>
 VAL166  LYS551  ARG553  GLY616  TRP617  ASP618  TYR619  PRO620  LYS621  CYS622 
 ASP623  PHE694  ASN695  SER759  ASP760  ASP761  ALA762  ILE779  LEU786  VAL792 
 PHE793  MET794  SER795  GLU796  ALA797  LYS798  CYS799  TRP800  GLU811  SER814 

> <Gold.Protein.RotatedAtoms>
  151.2597  133.4308  159.2615 H   0  0  0  0  0  0  0  0  0  0  0  0  # atno 6907 bound_to 6896
  151.0542  134.9694  159.8237 H   0  0  0  0  0  0  0  0  0  0  0  0  # atno 6908 bound_to 6896
  152.5388  134.2550  159.8966 H   0  0  0  0  0  0  0  0  0  0  0  0  # atno 6909 bound_to 6896
  145.7011  140.9116  143.0730 H   0  0  0  0  0  0  0  0  0  0  0  0  # atno 7974 bound_to 7965
  154.5175  140.0795  156.8108 H   0  0  0  0  0  0  0  0  0  0  0  0  # atno 8008 bound_to 7997
  155.3649  140.3420  155.4223 H   0  0  0  0  0  0  0  0  0  0  0  0  # atno 8009 bound_to 7997
  156.1644  140.1599  156.8544 H   0  0  0  0  0  0  0  0  0  0  0  0  # atno 8010 bound_to 7997
  139.7362  143.8732  152.2549 H   0  0  0  0  0  0  0  0  0  0  0  0  # atno 10167 bound_to 10162
  157.3505  131.0950  151.1004 H   0  0  0  0  0  0  0  0  0  0  0  0  # atno 10718 bound_to 10713
  154.5433  135.2807  155.1076 H   0  0  0  0  0  0  0  0  0  0  0  0  # atno 10763 bound_to 10752
  154.2550  135.6332  153.5257 H   0  0  0  0  0  0  0  0  0  0  0  0  # atno 10764 bound_to 10752
  152.9984  135.5592  154.5978 H   0  0  0  0  0  0  0  0  0  0  0  0  # atno 10765 bound_to 10752
  140.8303  134.2525  157.4860 H   0  0  0  0  0  0  0  0  0  0  0  0  # atno 11005 bound_to 11000
  144.6968  139.8949  143.7455 LP  0  0  0  0  0  0  0  0  0  0  0  0  # atno 17320 bound_to 7965
  146.0796  139.3784  143.0472 LP  0  0  0  0  0  0  0  0  0  0  0  0  # atno 17321 bound_to 7965
  139.8670  144.7088  150.9032 LP  0  0  0  0  0  0  0  0  0  0  0  0  # atno 17342 bound_to 10162
  140.7779  143.3770  151.1545 LP  0  0  0  0  0  0  0  0  0  0  0  0  # atno 17343 bound_to 10162
  157.2182  130.6469  149.5800 LP  0  0  0  0  0  0  0  0  0  0  0  0  # atno 17370 bound_to 10713
  155.9721  130.4638  150.6194 LP  0  0  0  0  0  0  0  0  0  0  0  0  # atno 17371 bound_to 10713
  139.8705  134.9582  156.4294 LP  0  0  0  0  0  0  0  0  0  0  0  0  # atno 17394 bound_to 11000
  140.9005  133.7783  155.9675 LP  0  0  0  0  0  0  0  0  0  0  0  0  # atno 17395 bound_to 11000

$$$$
