AV-unprocessed.smi:1047|AV-procd|sdf|4590|dock7
  -GOLD-   22720 3 73D 1   1.00000     0.00000
 Structure written by MMmdl.
 57 59  0  0  0  0  0  0  0  0  3 V2000
  141.6066  145.2392  154.0554 C   0  0  0  0  0  0  0  0  0  0  0  0
  142.6589  145.9142  154.9465 C   0  0  0  0  0  0  0  0  0  0  0  0
  143.6772  145.0151  155.4872 N   0  0  0  0  0  0  0  0  0  0  0  0
  143.1148  144.0029  156.3780 C   0  0  0  0  0  0  0  0  0  0  0  0
  144.1954  143.0474  156.9121 C   0  0  0  0  0  0  0  0  0  0  0  0
  144.8863  142.4491  155.8201 O   0  0  0  0  0  0  0  0  0  0  0  0
  145.4999  143.4047  154.9583 C   0  0  1  0  0  0  0  0  0  0  0  0
  146.2136  142.6442  153.8325 C   0  0  0  0  0  0  0  0  0  0  0  0
  147.6466  142.4658  154.1384 N   0  3  0  0  0  0  0  0  0  0  0  0
  147.9403  141.2837  154.9730 C   0  0  0  0  0  0  0  0  0  0  0  0
  149.4237  140.8757  154.8798 C   0  0  1  0  0  0  0  0  0  0  0  0
  149.8018  140.8116  153.5193 O   0  0  0  0  0  0  0  0  0  0  0  0
  150.3873  141.8628  155.5702 C   0  0  0  0  0  0  0  0  0  0  0  0
  151.0801  141.2835  156.7299 N   0  0  0  0  0  0  0  0  0  0  0  0
  151.5921  140.0332  156.8949 C   0  0  0  0  0  0  0  0  0  0  0  0
  152.1535  139.9784  158.1340 N   0  3  0  0  0  0  0  0  0  0  0  0
  152.0021  141.2125  158.7696 C   0  0  0  0  0  0  0  0  0  0  0  0
  152.4043  141.6420  160.0286 C   0  0  0  0  0  0  0  0  0  0  0  0
  152.0979  142.9749  160.3841 C   0  0  0  0  0  0  0  0  0  0  0  0
  152.5264  143.4770  161.7528 C   0  0  0  0  0  0  0  0  0  0  0  0
  151.4064  143.8286  159.4864 C   0  0  0  0  0  0  0  0  0  0  0  0
  151.0796  145.2594  159.8794 C   0  0  0  0  0  0  0  0  0  0  0  0
  151.0057  143.3728  158.2101 C   0  0  0  0  0  0  0  0  0  0  0  0
  151.3167  142.0568  157.8738 C   0  0  0  0  0  0  0  0  0  0  0  0
  144.4088  144.3488  154.4155 C   0  0  0  0  0  0  0  0  0  0  0  0
  140.8246  145.9485  153.7837 H   0  0  0  0  0  0  0  0  0  0  0  0
  141.1307  144.4043  154.5706 H   0  0  0  0  0  0  0  0  0  0  0  0
  142.0377  144.8639  153.1278 H   0  0  0  0  0  0  0  0  0  0  0  0
  143.1351  146.7265  154.3952 H   0  0  0  0  0  0  0  0  0  0  0  0
  142.1296  146.3854  155.7758 H   0  0  0  0  0  0  0  0  0  0  0  0
  142.6192  144.4764  157.2251 H   0  0  0  0  0  0  0  0  0  0  0  0
  142.3526  143.4271  155.8505 H   0  0  0  0  0  0  0  0  0  0  0  0
  144.9020  143.5810  157.5500 H   0  0  0  0  0  0  0  0  0  0  0  0
  143.7424  142.2643  157.5204 H   0  0  0  0  0  0  0  0  0  0  0  0
  146.2322  143.9856  155.5226 H   0  0  0  0  0  0  0  0  0  0  0  0
  145.7445  141.6712  153.6794 H   0  0  0  0  0  0  0  0  0  0  0  0
  146.1225  143.1971  152.8968 H   0  0  0  0  0  0  0  0  0  0  0  0
  148.1558  142.3867  153.2697 H   0  0  0  0  0  0  0  0  0  0  0  0
  147.6664  141.4857  156.0098 H   0  0  0  0  0  0  0  0  0  0  0  0
  147.3041  140.4695  154.6265 H   0  0  0  0  0  0  0  0  0  0  0  0
  149.5598  139.8857  155.3174 H   0  0  0  0  0  0  0  0  0  0  0  0
  149.4569  140.0181  153.1394 H   0  0  0  0  0  0  0  0  0  0  0  0
  151.1614  142.1751  154.8674 H   0  0  0  0  0  0  0  0  0  0  0  0
  149.8718  142.7743  155.8733 H   0  0  0  0  0  0  0  0  0  0  0  0
  151.5638  139.2312  156.1710 H   0  0  0  0  0  0  0  0  0  0  0  0
  152.9300  140.9859  160.7069 H   0  0  0  0  0  0  0  0  0  0  0  0
  153.1842  144.3411  161.6562 H   0  0  0  0  0  0  0  0  0  0  0  0
  153.0663  142.7094  162.3084 H   0  0  0  0  0  0  0  0  0  0  0  0
  151.6571  143.7671  162.3438 H   0  0  0  0  0  0  0  0  0  0  0  0
  150.5261  145.7733  159.0929 H   0  0  0  0  0  0  0  0  0  0  0  0
  151.9940  145.8234  160.0656 H   0  0  0  0  0  0  0  0  0  0  0  0
  150.4693  145.2798  160.7826 H   0  0  0  0  0  0  0  0  0  0  0  0
  150.4791  144.0264  157.5308 H   0  0  0  0  0  0  0  0  0  0  0  0
  143.7146  143.7823  153.7925 H   0  0  0  0  0  0  0  0  0  0  0  0
  144.8691  145.0955  153.7671 H   0  0  0  0  0  0  0  0  0  0  0  0
  147.9676  143.2895  154.6275 H   0  0  0  0  0  0  0  0  0  0  0  0
  152.6128  139.1598  158.5131 H   0  0  0  0  0  0  0  0  0  0  0  0
  1  2  1  0  0  0  0
  1 26  1  0  0  0  0
  1 27  1  0  0  0  0
  1 28  1  0  0  0  0
  2  3  1  0  0  0  0
  2 29  1  0  0  0  0
  2 30  1  0  0  0  0
  3 25  1  0  0  0  0
  3  4  1  0  0  0  0
  4  5  1  0  0  0  0
  4 31  1  0  0  0  0
  4 32  1  0  0  0  0
  5  6  1  0  0  0  0
  5 33  1  0  0  0  0
  5 34  1  0  0  0  0
  6  7  1  0  0  0  0
  7  8  1  0  0  0  0
  7 25  1  0  0  0  0
  7 35  1  0  0  0  0
  8  9  1  0  0  0  0
  8 36  1  0  0  0  0
  8 37  1  0  0  0  0
  9 10  1  0  0  0  0
  9 38  1  0  0  0  0
  9 56  1  0  0  0  0
 10 11  1  0  0  0  0
 10 39  1  0  0  0  0
 10 40  1  0  0  0  0
 11 12  1  0  0  0  0
 11 13  1  0  0  0  0
 11 41  1  0  0  0  0
 12 42  1  0  0  0  0
 13 14  1  0  0  0  0
 13 43  1  0  0  0  0
 13 44  1  0  0  0  0
 14 24  1  0  0  0  0
 14 15  1  0  0  0  0
 15 16  2  0  0  0  0
 15 45  1  0  0  0  0
 16 17  1  0  0  0  0
 16 57  1  0  0  0  0
 17 24  2  0  0  0  0
 17 18  1  0  0  0  0
 18 19  2  0  0  0  0
 18 46  1  0  0  0  0
 19 20  1  0  0  0  0
 19 21  1  0  0  0  0
 20 47  1  0  0  0  0
 20 48  1  0  0  0  0
 20 49  1  0  0  0  0
 21 22  1  0  0  0  0
 21 23  2  0  0  0  0
 22 50  1  0  0  0  0
 22 51  1  0  0  0  0
 22 52  1  0  0  0  0
 23 24  1  0  0  0  0
 23 53  1  0  0  0  0
 25 54  1  0  0  0  0
 25 55  1  0  0  0  0
M  CHG  1   9   1
M  CHG  1  16   1
M  END
> <s_m_source_file>
AV-unprocessed.smi

> <i_m_source_file_index>
1047

> <i_lp_mmshare_version>
43012

> <i_f3d_flags>
0

> <s_epik_input>
W0NIM11bQ0gyXU4xW0NIMl1bQ0gyXU9bQ0BIXShbQ0gyXTEpW0NIMl1bTkhdW0NIMl1bQ0BIXShbT0hdKVtDSDJdbihbY0hdbjIpYyhjMjMpW2NIXWMoW0NIM10pYyhbY0hdMylbQ0gzXQ==

> <s_epik_cmdline>
J2VwaWtfcHl0aG9uJywgJy1waCcsICc3LjAnLCAnLXRuJywgJzgnLCAnLW1hJywgJzIwMCcsICctbWV0YWxfYmluZGluZycsICctaW1hZScsICc8aW5maWxlLm1hZT4nLCAnLW9tYWUnLCAnPG91dGZpbGUubWFlPic=

> <r_epik_Ionization_Penalty>
1.75732

> <r_epik_Ionization_Penalty_Charging>
1.18089

> <r_epik_Ionization_Penalty_Neutral>
0.576429

> <r_epik_State_Penalty>
1.69377

> <r_epik_Charging_Adjusted_Penalty>
2.87466

> <i_epik_Tot_Q>
2

> <i_epik_Tot_abs_Q>
2

> <r_epik_Metal_State_Penalty>
5.70174

> <b_epik_Metal_Only>
0

> <s_lp_Force_Field>
OPLS_2005

> <r_lp_Energy>
42.3107

> <b_lp_Chiralities_Consistent>
1

> <s_lp_Variant>
AV-unprocessed.smi:1047-31

> <Gold.Version>
5.8.1

> <Gold.Id.Protein>
6NUR|6NUR_protein|mol2

> <Gold.PLP.Fitness>
59.5679

> <Gold.PLP.PLP>
-52.3193

> <Gold.PLP.part.hbond>
-3.5698

> <Gold.PLP.part.metal>
0.0000

> <Gold.PLP.part.buried>
-6.5085

> <Gold.PLP.part.nonpolar>
-40.4076

> <Gold.PLP.part.repulsive>
0.4604

> <Gold.PLP.ligand.clash>
0.0000

> <Gold.PLP.ligand.torsion>
1.8205

> <Gold.PLP.Chemscore.Hbond>
3.5600

> <Gold.PLP.Chemscore.CHOScore>
0.0000

> <Gold.PLP.Chemscore.Metal>
0.0000

> <Gold.Chemscore.Hbonds>
donor molecule, donor type, donor heavy atom, donor atom, acceptor molecule, acceptor atom, score
      L1  H     9    56       P1  8028  2.00
      L1  H    12    42       P1  7957  0.22
      P1  H  7989  7998       L1    12  0.35
      P1  H  8011  8017       L1    12  1.00

> <Gold.PLP.Chemscore.Internal.Correction>
0.2096

> <Gold.Rescore>
     Score         DG    S(hbond)    S(metal)    S(lipo)     H(rot)  DE(clash)    DE(int)     intcor
     19.12     -21.19       2.21        0.00     130.04       2.69       0.47       1.60       ----

> <Gold.Chemscore.Fitness>
19.1238

> <Gold.Chemscore.DG>
-21.1947

> <Gold.Chemscore.ZeroCoef>
-5.4800

> <Gold.Chemscore.Hbond>
2.2129

> <Gold.Chemscore.Metal>
0.0000

> <Gold.Chemscore.Lipo>
130.0377

> <Gold.Chemscore.Internal_Hbond>
0.0000

> <Gold.Chemscore.DEClash>
0.4682

> <Gold.Chemscore.DEInternal>
1.6027

> <Gold.Chemscore.Rot>
2.6917

> <Gold.Chemscore.Internal.Correction>
   9.000000E+99

> <Gold.Chemscore.Hbonds>
donor molecule, donor type, donor heavy atom, donor atom, acceptor molecule, acceptor atom, score
      L1  H     9    56       P1  8028  0.84
      L1  H    12    42       P1  7957  0.22
      P1  H  7989  7998       L1    12  0.20
      P1  H  8011  8017       L1    12  0.87

> <Gold.Chemscore.Hbond.Weighted>
-7.3910

> <Gold.Chemscore.Metal.Weighted>
-0.0000

> <Gold.Chemscore.Lipo.Weighted>
-15.2144

> <Gold.Chemscore.Internal_Hbond.Weighted>
0.0000

> <Gold.Chemscore.DEClash.Weighted>
0.4682

> <Gold.Chemscore.DEInternal.Weighted>
1.6027

> <Gold.Chemscore.Rot.Weighted>
6.8907

> <Gold.Chemscore.Internal.Correction.Weighted>
   9.000000E+99

> <Gold.Protein.RotatedTorsions>
[ 6907 6896 6895 6894 ] final  137.61 input  -60.11 | X-H torsion
[ 7974 7965 7964 7962 ] final -172.29 input  175.53 | X-H torsion
[ 8008 7997 7996 7995 ] final  165.94 input   59.86 | X-H torsion
[ 10167 10162 10161 10158 ] final   29.94 input  -65.29 | X-H torsion
[ 10718 10713 10712 10709 ] final  106.57 input   66.30 | X-H torsion
[ 10763 10752 10751 10750 ] final  -14.25 input  -60.55 | X-H torsion
[ 11005 11000 10999 10996 ] final  -84.18 input  -57.11 | X-H torsion

> <Gold.Protein.ActiveResidues>
 VAL166  LYS551  ARG553  GLY616  TRP617  ASP618  TYR619  PRO620  LYS621  CYS622 
 ASP623  PHE694  ASN695  SER759  ASP760  ASP761  ALA762  ILE779  LEU786  VAL792 
 PHE793  MET794  SER795  GLU796  ALA797  LYS798  CYS799  TRP800  GLU811  SER814 

> <Gold.Protein.RotatedAtoms>
  152.2761  133.5427  159.5468 H   0  0  0  0  0  0  0  0  0  0  0  0  # atno 6907 bound_to 6896
  150.7177  134.0630  159.3846 H   0  0  0  0  0  0  0  0  0  0  0  0  # atno 6908 bound_to 6896
  151.8542  135.0547  160.0513 H   0  0  0  0  0  0  0  0  0  0  0  0  # atno 6909 bound_to 6896
  144.7148  140.1794  143.6360 H   0  0  0  0  0  0  0  0  0  0  0  0  # atno 7974 bound_to 7965
  156.1760  140.1657  156.8362 H   0  0  0  0  0  0  0  0  0  0  0  0  # atno 8008 bound_to 7997
  154.5307  140.0757  156.8373 H   0  0  0  0  0  0  0  0  0  0  0  0  # atno 8009 bound_to 7997
  155.3413  140.3385  155.4241 H   0  0  0  0  0  0  0  0  0  0  0  0  # atno 8010 bound_to 7997
  140.4722  144.0746  150.6240 H   0  0  0  0  0  0  0  0  0  0  0  0  # atno 10167 bound_to 10162
  157.6663  131.0854  150.6027 H   0  0  0  0  0  0  0  0  0  0  0  0  # atno 10718 bound_to 10713
  153.5255  135.7015  153.5709 H   0  0  0  0  0  0  0  0  0  0  0  0  # atno 10763 bound_to 10752
  153.3740  135.3937  155.1809 H   0  0  0  0  0  0  0  0  0  0  0  0  # atno 10764 bound_to 10752
  154.8690  135.3819  154.4748 H   0  0  0  0  0  0  0  0  0  0  0  0  # atno 10765 bound_to 10752
  141.1652  133.7333  156.8831 H   0  0  0  0  0  0  0  0  0  0  0  0  # atno 11005 bound_to 11000
  145.8870  139.2354  143.1572 LP  0  0  0  0  0  0  0  0  0  0  0  0  # atno 17320 bound_to 7965
  145.9940  140.8578  143.0052 LP  0  0  0  0  0  0  0  0  0  0  0  0  # atno 17321 bound_to 7965
  140.3963  143.2726  152.0000 LP  0  0  0  0  0  0  0  0  0  0  0  0  # atno 17342 bound_to 10162
  139.4820  144.6035  151.7563 LP  0  0  0  0  0  0  0  0  0  0  0  0  # atno 17343 bound_to 10162
  156.6328  130.4436  149.5780 LP  0  0  0  0  0  0  0  0  0  0  0  0  # atno 17370 bound_to 10713
  156.2269  130.6771  151.1424 LP  0  0  0  0  0  0  0  0  0  0  0  0  # atno 17371 bound_to 10713
  140.1701  134.9106  157.2823 LP  0  0  0  0  0  0  0  0  0  0  0  0  # atno 17394 bound_to 11000
  140.2512  134.3681  155.7442 LP  0  0  0  0  0  0  0  0  0  0  0  0  # atno 17395 bound_to 11000

$$$$
