AV-unprocessed.smi:1433|AV-procd|sdf|5846|dock7
  -GOLD-   22720 5513D 1   1.00000     0.00000
 Structure written by MMmdl.
 45 46  0  0  0  0  0  0  0  0  2 V2000
  147.9236  133.2995  152.6605 C   0  0  0  0  0  0  0  0  0  0  0  0
  146.4584  133.5256  153.0750 C   0  0  1  0  0  0  0  0  0  0  0  0
  146.1657  134.9648  153.5458 C   0  0  0  0  0  0  0  0  0  0  0  0
  146.1231  135.9183  152.4036 N   0  3  2  0  0  0  0  0  0  0  0  0
  145.8962  137.3592  152.7506 C   0  0  2  0  0  0  0  0  0  0  0  0
  144.3851  137.6153  152.9418 C   0  0  0  0  0  0  0  0  0  0  0  0
  146.4924  138.3651  151.7255 C   0  0  0  0  0  0  0  0  0  0  0  0
  146.9761  139.5968  152.3426 N   0  0  0  0  0  0  0  0  0  0  0  0
  147.8471  139.6584  153.3620 C   0  0  0  0  0  0  0  0  0  0  0  0
  148.3240  138.6631  153.9071 O   0  0  0  0  0  0  0  0  0  0  0  0
  148.2469  141.0556  153.8367 C   0  0  0  0  0  0  0  0  0  0  0  0
  149.2496  140.9789  154.8830 N   0  0  0  0  0  0  0  0  0  0  0  0
  149.2678  141.6262  156.1011 C   0  0  0  0  0  0  0  0  0  0  0  0
  150.4042  141.2378  156.7507 C   0  0  0  0  0  0  0  0  0  0  0  0
  151.0241  140.3380  155.8392 C   0  0  0  0  0  0  0  0  0  0  0  0
  150.3305  140.1838  154.7225 N   0  0  0  0  0  0  0  0  0  0  0  0
  145.1584  135.4268  151.3852 C   0  0  0  0  0  0  0  0  0  0  0  0
  145.5180  134.0045  150.9232 C   0  0  2  0  0  0  0  0  0  0  0  0
  144.4927  133.4473  149.9294 C   0  0  0  0  0  0  0  0  0  0  0  0
  145.5442  133.1381  152.0519 O   0  0  0  0  0  0  0  0  0  0  0  0
  148.5936  133.4622  153.5050 H   0  0  0  0  0  0  0  0  0  0  0  0
  148.2392  133.9733  151.8644 H   0  0  0  0  0  0  0  0  0  0  0  0
  148.0752  132.2771  152.3135 H   0  0  0  0  0  0  0  0  0  0  0  0
  146.2662  132.8583  153.9158 H   0  0  0  0  0  0  0  0  0  0  0  0
  145.2084  134.9933  154.0691 H   0  0  0  0  0  0  0  0  0  0  0  0
  146.9361  135.2432  154.2644 H   0  0  0  0  0  0  0  0  0  0  0  0
  146.3955  137.5431  153.7033 H   0  0  0  0  0  0  0  0  0  0  0  0
  144.1861  138.6355  153.2694 H   0  0  0  0  0  0  0  0  0  0  0  0
  143.9442  136.9631  153.6944 H   0  0  0  0  0  0  0  0  0  0  0  0
  143.8399  137.4566  152.0106 H   0  0  0  0  0  0  0  0  0  0  0  0
  147.3291  137.9275  151.1791 H   0  0  0  0  0  0  0  0  0  0  0  0
  145.7399  138.6381  150.9847 H   0  0  0  0  0  0  0  0  0  0  0  0
  146.6428  140.4670  151.9521 H   0  0  0  0  0  0  0  0  0  0  0  0
  148.6307  141.6520  153.0069 H   0  0  0  0  0  0  0  0  0  0  0  0
  147.3706  141.5757  154.2259 H   0  0  0  0  0  0  0  0  0  0  0  0
  148.4782  142.3000  156.4001 H   0  0  0  0  0  0  0  0  0  0  0  0
  150.7413  141.5483  157.7285 H   0  0  0  0  0  0  0  0  0  0  0  0
  151.9508  139.7953  155.9554 H   0  0  0  0  0  0  0  0  0  0  0  0
  144.1514  135.4389  151.8064 H   0  0  0  0  0  0  0  0  0  0  0  0
  145.1423  136.0852  150.5181 H   0  0  0  0  0  0  0  0  0  0  0  0
  146.4924  134.0110  150.4346 H   0  0  0  0  0  0  0  0  0  0  0  0
  144.4324  134.0690  149.0359 H   0  0  0  0  0  0  0  0  0  0  0  0
  143.4972  133.4007  150.3724 H   0  0  0  0  0  0  0  0  0  0  0  0
  144.7633  132.4392  149.6142 H   0  0  0  0  0  0  0  0  0  0  0  0
  147.0407  135.8763  151.9833 H   0  0  0  0  0  0  0  0  0  0  0  0
  1  2  1  0  0  0  0
  1 21  1  0  0  0  0
  1 22  1  0  0  0  0
  1 23  1  0  0  0  0
  2 20  1  0  0  0  0
  2  3  1  0  0  0  0
  2 24  1  0  0  0  0
  3  4  1  0  0  0  0
  3 25  1  0  0  0  0
  3 26  1  0  0  0  0
  4  5  1  0  0  0  0
  4 17  1  0  0  0  0
  4 45  1  0  0  0  0
  5  6  1  0  0  0  0
  5  7  1  0  0  0  0
  5 27  1  0  0  0  0
  6 28  1  0  0  0  0
  6 29  1  0  0  0  0
  6 30  1  0  0  0  0
  7  8  1  0  0  0  0
  7 31  1  0  0  0  0
  7 32  1  0  0  0  0
  8  9  1  0  0  0  0
  8 33  1  0  0  0  0
  9 10  2  0  0  0  0
  9 11  1  0  0  0  0
 11 12  1  0  0  0  0
 11 34  1  0  0  0  0
 11 35  1  0  0  0  0
 12 16  1  0  0  0  0
 12 13  1  0  0  0  0
 13 14  2  0  0  0  0
 13 36  1  0  0  0  0
 14 15  1  0  0  0  0
 14 37  1  0  0  0  0
 15 16  2  0  0  0  0
 15 38  1  0  0  0  0
 17 18  1  0  0  0  0
 17 39  1  0  0  0  0
 17 40  1  0  0  0  0
 18 19  1  0  0  0  0
 18 20  1  0  0  0  0
 18 41  1  0  0  0  0
 19 42  1  0  0  0  0
 19 43  1  0  0  0  0
 19 44  1  0  0  0  0
M  CHG  1   4   1
M  END
> <s_m_source_file>
AV-unprocessed.smi

> <i_m_source_file_index>
1433

> <i_lp_mmshare_version>
43012

> <i_f3d_flags>
0

> <s_epik_input>
W0NIM11bQ0BASF0xW0NIMl1OKFtDSDJdW0NASF0oTzEpW0NIM10pW0NASF0oW0NIM10pW0NIMl1bTkhdQyg9TylbQ0gyXW4yW2NIXVtjSF1bY0hdbjI=

> <s_epik_cmdline>
J2VwaWtfcHl0aG9uJywgJy1waCcsICc3LjAnLCAnLXRuJywgJzgnLCAnLW1hJywgJzIwMCcsICctbWV0YWxfYmluZGluZycsICctaW1hZScsICc8aW5maWxlLm1hZT4nLCAnLW9tYWUnLCAnPG91dGZpbGUubWFlPic=

> <r_lp_tautomer_probability>
1

> <r_epik_Ionization_Penalty>
0.748405

> <r_epik_Ionization_Penalty_Charging>
0.748396

> <r_epik_Ionization_Penalty_Neutral>
8.54426e-06

> <r_epik_State_Penalty>
0.775162

> <r_epik_Charging_Adjusted_Penalty>
1.52356

> <i_epik_Tot_Q>
1

> <i_epik_Tot_abs_Q>
1

> <r_epik_Metal_State_Penalty>
0.775167

> <b_epik_Metal_Only>
0

> <s_lp_Force_Field>
OPLS_2005

> <r_lp_Energy>
23.467

> <b_lp_Chiralities_Consistent>
1

> <s_lp_Variant>
AV-unprocessed.smi:1433-12

> <Gold.Version>
5.8.1

> <Gold.Id.Protein>
6NUR|6NUR_protein|mol2

> <Gold.PLP.Fitness>
42.3359

> <Gold.PLP.PLP>
-33.4150

> <Gold.PLP.part.hbond>
-3.0000

> <Gold.PLP.part.metal>
0.0000

> <Gold.PLP.part.buried>
3.5072

> <Gold.PLP.part.nonpolar>
-33.4364

> <Gold.PLP.part.repulsive>
0.4599

> <Gold.PLP.ligand.clash>
0.0000

> <Gold.PLP.ligand.torsion>
0.9921

> <Gold.PLP.Chemscore.Hbond>
2.9000

> <Gold.PLP.Chemscore.CHOScore>
0.7135

> <Gold.PLP.Chemscore.Metal>
0.0000

> <Gold.Chemscore.Hbonds>
donor molecule, donor type, donor heavy atom, donor atom, acceptor molecule, acceptor atom, score
      L1  H     4    45       P1  7948  2.00
      P1  H  7989  7998       L1    16  0.95
      L1  C    13    36       P1  8028  0.63

> <Gold.PLP.Chemscore.Internal.Correction>
0.0645

> <Gold.Rescore>
     Score         DG    S(hbond)    S(metal)    S(lipo)     H(rot)  DE(clash)    DE(int)     intcor
     10.72     -14.36       1.70        0.00      68.30       1.87       0.11       3.52       ----

> <Gold.Chemscore.Fitness>
10.7198

> <Gold.Chemscore.DG>
-14.3561

> <Gold.Chemscore.ZeroCoef>
-5.4800

> <Gold.Chemscore.Hbond>
1.6950

> <Gold.Chemscore.Metal>
0.0000

> <Gold.Chemscore.Lipo>
68.2984

> <Gold.Chemscore.Internal_Hbond>
0.0000

> <Gold.Chemscore.DEClash>
0.1113

> <Gold.Chemscore.DEInternal>
3.5250

> <Gold.Chemscore.Rot>
1.8657

> <Gold.Chemscore.Internal.Correction>
   9.000000E+99

> <Gold.Chemscore.Hbonds>
donor molecule, donor type, donor heavy atom, donor atom, acceptor molecule, acceptor atom, score
      L1  H     4    45       P1  7948  0.98
      P1  H  7989  7998       L1    16  0.19

> <Gold.Chemscore.Hbond.Weighted>
-5.6613

> <Gold.Chemscore.Metal.Weighted>
-0.0000

> <Gold.Chemscore.Lipo.Weighted>
-7.9909

> <Gold.Chemscore.Internal_Hbond.Weighted>
0.0000

> <Gold.Chemscore.DEClash.Weighted>
0.1113

> <Gold.Chemscore.DEInternal.Weighted>
3.5250

> <Gold.Chemscore.Rot.Weighted>
4.7761

> <Gold.Chemscore.Internal.Correction.Weighted>
   9.000000E+99

> <Gold.Protein.RotatedTorsions>
[ 6907 6896 6895 6894 ] final  -71.72 input  -60.11 | X-H torsion
[ 7974 7965 7964 7962 ] final -126.61 input  175.53 | X-H torsion
[ 8008 7997 7996 7995 ] final  -43.89 input   59.86 | X-H torsion
[ 10167 10162 10161 10158 ] final -131.74 input  -65.29 | X-H torsion
[ 10718 10713 10712 10709 ] final -119.17 input   66.30 | X-H torsion
[ 10763 10752 10751 10750 ] final    9.70 input  -60.55 | X-H torsion
[ 11005 11000 10999 10996 ] final  -93.47 input  -57.11 | X-H torsion

> <Gold.Protein.ActiveResidues>
 VAL166  LYS551  ARG553  GLY616  TRP617  ASP618  TYR619  PRO620  LYS621  CYS622 
 ASP623  PHE694  ASN695  SER759  ASP760  ASP761  ALA762  ILE779  LEU786  VAL792 
 PHE793  MET794  SER795  GLU796  ALA797  LYS798  CYS799  TRP800  GLU811  SER814 

> <Gold.Protein.RotatedAtoms>
  150.7200  134.5268  159.5680 H   0  0  0  0  0  0  0  0  0  0  0  0  # atno 6907 bound_to 6896
  152.2810  134.7825  160.0405 H   0  0  0  0  0  0  0  0  0  0  0  0  # atno 6908 bound_to 6896
  151.8472  133.3398  159.3698 H   0  0  0  0  0  0  0  0  0  0  0  0  # atno 6909 bound_to 6896
  144.9855  140.7682  143.4586 H   0  0  0  0  0  0  0  0  0  0  0  0  # atno 7974 bound_to 7965
  154.3997  140.1436  156.3594 H   0  0  0  0  0  0  0  0  0  0  0  0  # atno 8008 bound_to 7997
  155.8195  140.3470  155.5485 H   0  0  0  0  0  0  0  0  0  0  0  0  # atno 8009 bound_to 7997
  155.8302  140.0911  157.1787 H   0  0  0  0  0  0  0  0  0  0  0  0  # atno 8010 bound_to 7997
  139.9158  143.6440  152.2565 H   0  0  0  0  0  0  0  0  0  0  0  0  # atno 10167 bound_to 10162
  156.1161  130.6287  150.9383 H   0  0  0  0  0  0  0  0  0  0  0  0  # atno 10718 bound_to 10713
  153.2111  135.6869  153.8113 H   0  0  0  0  0  0  0  0  0  0  0  0  # atno 10763 bound_to 10752
  153.7345  135.3247  155.3293 H   0  0  0  0  0  0  0  0  0  0  0  0  # atno 10764 bound_to 10752
  154.8222  135.4643  154.0919 H   0  0  0  0  0  0  0  0  0  0  0  0  # atno 10765 bound_to 10752
  141.1496  133.7890  157.0165 H   0  0  0  0  0  0  0  0  0  0  0  0  # atno 11005 bound_to 11000
  145.2360  139.2094  143.5018 LP  0  0  0  0  0  0  0  0  0  0  0  0  # atno 17320 bound_to 7965
  146.3419  140.2246  142.8592 LP  0  0  0  0  0  0  0  0  0  0  0  0  # atno 17321 bound_to 7965
  139.6903  144.7647  151.1450 LP  0  0  0  0  0  0  0  0  0  0  0  0  # atno 17342 bound_to 10162
  140.7674  143.5598  150.9111 LP  0  0  0  0  0  0  0  0  0  0  0  0  # atno 17343 bound_to 10162
  157.6344  131.0917  150.8377 LP  0  0  0  0  0  0  0  0  0  0  0  0  # atno 17370 bound_to 10713
  156.8481  130.5071  149.5314 LP  0  0  0  0  0  0  0  0  0  0  0  0  # atno 17371 bound_to 10713
  140.0844  134.9629  157.1676 LP  0  0  0  0  0  0  0  0  0  0  0  0  # atno 17394 bound_to 11000
  140.3532  134.2575  155.7196 LP  0  0  0  0  0  0  0  0  0  0  0  0  # atno 17395 bound_to 11000

$$$$
