#       Name:                AV-unprocessed.smi:35
#       Creating user name   scv26
#       Creation time:       Thu Mar 26 16:03:41 2020


#       File generated by GOLD software.
#

@<TRIPOS>MOLECULE
AV-unprocessed.smi:35
    41    42     1
SMALL
NO_CHARGES


@<TRIPOS>ATOM
      1 ****         1.3551   4.5561  -1.5442 O.2            1 S1                 0.0000
      2 ****         0.7385   3.5546  -1.1854 C.2            1 S1                 0.0000
      3 ****        -0.1612   2.9121  -1.9839 N.pl3          1 S1                -1.0000
      4 ****        -0.8279   1.7880  -1.5885 C.2            1 S1                 0.0000
      5 ****        -1.6810   1.2398  -2.2859 O.2            1 S1                 0.0000
      6 ****        -0.5400   1.2239  -0.3125 N.am           1 S1                 0.0000
      7 ****        -1.2940  -0.0173   0.1417 C.3            1 S1                 0.0000
      8 ****        -0.8242  -0.4139   1.4021 O.3            1 S1                 0.0000
      9 ****        -0.0006  -1.5769   1.3180 C.3            1 S1                 0.0000
     10 ****         1.4803  -1.1931   1.0895 C.3            1 S1                 0.0000
     11 ****         2.0411  -0.6976   2.2866 O.3            1 S1                 0.0000
     12 ****        -0.6620  -2.3308   0.1594 C.3            1 S1                 0.0000
     13 ****         0.1949  -3.2703  -0.4597 O.3            1 S1                 0.0000
     14 ****        -1.0739  -1.2236  -0.8015 C.3            1 S1                 0.0000
     15 ****        -2.2646  -1.5995  -1.4638 O.3            1 S1                 0.0000
     16 ****         0.3177   1.8990   0.5438 C.2            1 S1                 0.0000
     17 ****         0.9595   3.0183   0.1537 C.2            1 S1                 0.0000
     18 ****         2.1688   3.8579   1.4798 Br             1 S1                 0.0000
     19 ****        -2.3330   0.3072   0.2217 H              1 S1                 0.0000
     20 ****        -0.0845  -2.1600   2.2361 H              1 S1                 0.0000
     21 ****         2.0661  -2.0718   0.8209 H              1 S1                 0.0000
     22 ****         1.6081  -0.4772   0.2793 H              1 S1                 0.0000
     23 ****         2.9446  -0.4732   2.1237 H              1 S1                 0.0000
     24 ****        -1.5445  -2.8477   0.5410 H              1 S1                 0.0000
     25 ****        -0.2678  -3.6568  -1.1877 H              1 S1                 0.0000
     26 ****        -0.2753  -1.0066  -1.5132 H              1 S1                 0.0000
     27 ****        -2.5300  -0.8789  -2.0166 H              1 S1                 0.0000
     28 ****         0.4896   1.5388   1.5462 H              1 S1                 0.0000
     29 ****         2.0013   4.9957  -0.9203 LP             1 S1                 0.0000
     30 ****         1.2104   4.9310  -2.4599 LP             1 S1                 0.0000
     31 ****        -0.3400   3.2794  -2.8967 LP             1 S1                 0.0000
     32 ****        -1.9110   1.6166  -3.1832 LP             1 S1                 0.0000
     33 ****        -2.1442   0.4175  -1.9553 LP             1 S1                 0.0000
     34 ****        -1.6070  -0.6134   1.9914 LP             1 S1                 0.0000
     35 ****        -0.2903   0.3330   1.7985 LP             1 S1                 0.0000
     36 ****         1.9905  -1.3983   2.9982 LP             1 S1                 0.0000
     37 ****         1.5397   0.1153   2.5829 LP             1 S1                 0.0000
     38 ****         0.4482  -3.9813   0.1963 LP             1 S1                 0.0000
     39 ****         1.0200  -2.8108  -0.7885 LP             1 S1                 0.0000
     40 ****        -2.9798  -1.7941  -0.7926 LP             1 S1                 0.0000
     41 ****        -2.1007  -2.4132  -2.0216 LP             1 S1                 0.0000
@<TRIPOS>BOND
    1    1    2 2     
    2    2   17 1     
    3    2    3 1     
    4    3    4 1     
    5    4    5 2     
    6    4    6 am    
    7    6    7 1     
    8    6   16 1     
    9    7   14 1     
   10    7    8 1     
   11    7   19 1     
   12    8    9 1     
   13    9   10 1     
   14    9   12 1     
   15    9   20 1     
   16   10   11 1     
   17   10   21 1     
   18   10   22 1     
   19   11   23 1     
   20   12   13 1     
   21   12   14 1     
   22   12   24 1     
   23   13   25 1     
   24   14   15 1     
   25   14   26 1     
   26   15   27 1     
   27   16   17 2     
   28   16   28 1     
   29   17   18 1     
   30    1   29 1     
   31    1   30 1     
   32    3   31 1     
   33    5   32 1     
   34    5   33 1     
   35    8   34 1     
   36    8   35 1     
   37   11   36 1     
   38   11   37 1     
   39   13   38 1     
   40   13   39 1     
   41   15   40 1     
   42   15   41 1     
@<TRIPOS>SUBSTRUCTURE
      1 S1             1
@<TRIPOS>SET
LONE_PAIRS      STATIC     ATOMS    <user>   **** ""
13 29 30 31 32 33 34 35 36 37 38 39 40 41
DONOR_HYDROGENS      STATIC     ATOMS    <user>   **** ""
3 23 25 27
ATOM$BLUE        STATIC     ATOMS    COLORGROUP SYSTEM
13 29 30 31 32 33 34 35 36 37 38 39 40 41
ATOM$RED        STATIC     ATOMS    COLORGROUP SYSTEM
3 23 25 27
