#       Name:                AV-unprocessed.smi:1046
#       Creating user name   scv26
#       Creation time:       Fri Mar 27 02:58:16 2020


#       File generated by GOLD software.
#

@<TRIPOS>MOLECULE
AV-unprocessed.smi:1046
    59    61     1
SMALL
NO_CHARGES


@<TRIPOS>ATOM
      1 ****        -3.2217   3.8467   5.5646 C.3            1 S1                 0.0000
      2 ****        -2.8379   3.3212   4.1918 C.ar           1 S1                 0.0000
      3 ****        -3.8637   2.8681   3.3321 C.ar           1 S1                 0.0000
      4 ****        -3.4813   2.3959   2.0822 C.ar           1 S1                 0.0000
      5 ****        -4.2411   1.8882   1.0266 N.pl3          1 S1                 1.0000
      6 ****        -3.4187   1.5527  -0.0052 C.2            1 S1                 0.0000
      7 ****        -2.1432   1.8364   0.3758 N.pl3          1 S1                 0.0000
      8 ****        -0.8853   1.6682  -0.3669 C.3            1 S1                 0.0000
      9 ****        -0.3297   0.2324  -0.2886 C.3            1 S1                 0.0000
     10 ****        -0.0708  -0.1049   1.0609 O.3            1 S1                 0.0000
     11 ****         0.9741   0.0812  -1.0982 C.3            1 S1                 0.0000
     12 ****         1.4504  -1.3242  -1.1676 N.4            1 S1                 1.0000
     13 ****         2.9093  -1.4137  -1.4358 C.3            1 S1                 0.0000
     14 ****         3.3701  -2.8859  -1.4326 C.3            1 S1                 0.0000
     15 ****         2.6455  -3.7203  -2.3907 N.3            1 S1                 0.0000
     16 ****         3.0123  -3.4355  -3.7819 C.3            1 S1                 0.0000
     17 ****         2.4835  -4.4471  -4.8114 C.3            1 S1                 0.0000
     18 ****         2.9852  -4.1190  -6.0884 O.3            1 S1                 0.0000
     19 ****         1.2125  -3.6160  -2.1055 C.3            1 S1                 0.0000
     20 ****         0.6879  -2.1660  -2.1289 C.3            1 S1                 0.0000
     21 ****        -2.1335   2.3644   1.6734 C.ar           1 S1                 0.0000
     22 ****        -1.1104   2.8045   2.5106 C.ar           1 S1                 0.0000
     23 ****        -1.4785   3.2871   3.7869 C.ar           1 S1                 0.0000
     24 ****        -0.3826   3.7731   4.7206 C.3            1 S1                 0.0000
     25 ****        -4.3040   3.8650   5.6964 H              1 S1                 0.0000
     26 ****        -2.8531   4.8633   5.7042 H              1 S1                 0.0000
     27 ****        -2.8007   3.2142   6.3467 H              1 S1                 0.0000
     28 ****        -4.9007   2.8885   3.6345 H              1 S1                 0.0000
     29 ****        -3.7247   1.1375  -0.9546 H              1 S1                 0.0000
     30 ****        -1.0950   1.9254  -1.4060 H              1 S1                 0.0000
     31 ****        -0.1556   2.3983  -0.0161 H              1 S1                 0.0000
     32 ****        -1.0923  -0.4485  -0.6654 H              1 S1                 0.0000
     33 ****         0.5442   0.5180   1.4181 H              1 S1                 0.0000
     34 ****         0.8419   0.4624  -2.1121 H              1 S1                 0.0000
     35 ****         1.7411   0.7067  -0.6384 H              1 S1                 0.0000
     36 ****         3.1432  -0.9334  -2.3871 H              1 S1                 0.0000
     37 ****         3.4557  -0.8673  -0.6660 H              1 S1                 0.0000
     38 ****         4.4415  -2.9396  -1.6300 H              1 S1                 0.0000
     39 ****         3.2335  -3.2961  -0.4310 H              1 S1                 0.0000
     40 ****         2.6928  -2.4332  -4.0661 H              1 S1                 0.0000
     41 ****         4.1007  -3.4302  -3.8576 H              1 S1                 0.0000
     42 ****         2.7987  -5.4590  -4.5547 H              1 S1                 0.0000
     43 ****         1.3949  -4.4414  -4.8597 H              1 S1                 0.0000
     44 ****         2.6781  -4.7638  -6.7078 H              1 S1                 0.0000
     45 ****         0.6388  -4.2310  -2.7977 H              1 S1                 0.0000
     46 ****         1.0198  -4.0391  -1.1186 H              1 S1                 0.0000
     47 ****        -0.3692  -2.1732  -1.8668 H              1 S1                 0.0000
     48 ****         0.7561  -1.7448  -3.1325 H              1 S1                 0.0000
     49 ****        -0.0748   2.7805   2.2074 H              1 S1                 0.0000
     50 ****         0.6072   3.6138   4.2915 H              1 S1                 0.0000
     51 ****        -0.4208   3.2399   5.6708 H              1 S1                 0.0000
     52 ****        -0.4941   4.8399   4.9165 H              1 S1                 0.0000
     53 ****         1.3091  -1.7223  -0.2498 H              1 S1                 0.0000
     54 ****        -5.2472   1.7795   1.0087 H              1 S1                 0.0000
     55 ****         0.3171  -1.0253   1.1088 LP             1 S1                 0.0000
     56 ****        -0.9223  -0.0743   1.5843 LP             1 S1                 0.0000
     57 ****         2.9121  -4.6774  -2.2776 LP             1 S1                 0.0000
     58 ****         3.9850  -4.1205  -6.0682 LP             1 S1                 0.0000
     59 ****         2.6587  -3.2124  -6.3560 LP             1 S1                 0.0000
@<TRIPOS>BOND
    1    1    2 1     
    2    1   25 1     
    3    1   26 1     
    4    1   27 1     
    5    2   23 ar    
    6    2    3 ar    
    7    3    4 ar    
    8    3   28 1     
    9    4   21 ar    
   10    4    5 1     
   11    5    6 2     
   12    5   54 1     
   13    6    7 1     
   14    6   29 1     
   15    7    8 1     
   16    7   21 1     
   17    8    9 1     
   18    8   30 1     
   19    8   31 1     
   20    9   10 1     
   21    9   11 1     
   22    9   32 1     
   23   10   33 1     
   24   11   12 1     
   25   11   34 1     
   26   11   35 1     
   27   12   20 1     
   28   12   13 1     
   29   12   53 1     
   30   13   14 1     
   31   13   36 1     
   32   13   37 1     
   33   14   15 1     
   34   14   38 1     
   35   14   39 1     
   36   15   16 1     
   37   15   19 1     
   38   16   17 1     
   39   16   40 1     
   40   16   41 1     
   41   17   18 1     
   42   17   42 1     
   43   17   43 1     
   44   18   44 1     
   45   19   20 1     
   46   19   45 1     
   47   19   46 1     
   48   20   47 1     
   49   20   48 1     
   50   21   22 ar    
   51   22   23 ar    
   52   22   49 1     
   53   23   24 1     
   54   24   50 1     
   55   24   51 1     
   56   24   52 1     
   57   10   55 1     
   58   10   56 1     
   59   15   57 1     
   60   18   58 1     
   61   18   59 1     
@<TRIPOS>SUBSTRUCTURE
      1 S1             1
@<TRIPOS>SET
LONE_PAIRS      STATIC     ATOMS    <user>   **** ""
5 55 56 57 58 59
DONOR_HYDROGENS      STATIC     ATOMS    <user>   **** ""
4 54 33 53 44
ATOM$BLUE        STATIC     ATOMS    COLORGROUP SYSTEM
5 55 56 57 58 59
ATOM$RED        STATIC     ATOMS    COLORGROUP SYSTEM
4 54 33 53 44
