AV-unprocessed.smi:1151|AV-procd|sdf|4896|dock1
  -GOLD-   22720 3473D 1   1.00000     0.00000
 Structure written by MMmdl.
 35 36  0  0  0  0  0  0  0  0  1 V2000
  152.3240  139.0183  155.1902 C   0  0  0  0  0  0  0  0  0  0  0  0
  150.9442  139.5366  154.9700 C   0  0  0  0  0  0  0  0  0  0  0  0
  150.0122  138.8813  154.2732 N   0  0  0  0  0  0  0  0  0  0  0  0
  148.8001  139.5756  154.2104 C   0  0  0  0  0  0  0  0  0  0  0  0
  147.6392  138.9954  153.4553 C   0  0  0  0  0  0  0  0  0  0  0  0
  147.1279  137.6629  154.0406 C   0  0  0  0  0  0  0  0  0  0  0  0
  146.7415  136.7016  153.0118 N   0  0  0  0  0  0  0  0  0  0  0  0
  145.4804  136.3611  152.7061 C   0  0  0  0  0  0  0  0  0  0  0  0
  144.4991  136.7984  153.3078 O   0  0  0  0  0  0  0  0  0  0  0  0
  145.3025  135.3925  151.5296 C   0  0  1  0  0  0  0  0  0  0  0  0
  146.0304  134.0619  151.7833 C   0  0  0  0  0  0  0  0  0  0  0  0
  145.8899  133.1178  150.5783 C   0  0  0  0  0  0  0  0  0  0  0  0
  144.4562  133.0311  150.0340 C   0  0  0  0  0  0  0  0  0  0  0  0
  144.1437  132.0956  149.3011 O   0  0  0  0  0  0  0  0  0  0  0  0
  143.5807  134.0039  150.3427 N   0  0  0  0  0  0  0  0  0  0  0  0
  143.8075  135.1154  151.2665 C   0  0  0  0  0  0  0  0  0  0  0  0
  148.8292  140.7765  154.8752 C   0  0  0  0  0  0  0  0  0  0  0  0
  150.3837  141.0816  155.5984 S   0  0  0  0  0  0  0  0  0  0  0  0
  152.3507  137.9356  155.0630 H   0  0  0  0  0  0  0  0  0  0  0  0
  152.6576  139.2581  156.1999 H   0  0  0  0  0  0  0  0  0  0  0  0
  153.0107  139.4730  154.4762 H   0  0  0  0  0  0  0  0  0  0  0  0
  146.8169  139.7111  153.4273 H   0  0  0  0  0  0  0  0  0  0  0  0
  147.9231  138.8417  152.4135 H   0  0  0  0  0  0  0  0  0  0  0  0
  147.9198  137.2012  154.6310 H   0  0  0  0  0  0  0  0  0  0  0  0
  146.2962  137.8397  154.7244 H   0  0  0  0  0  0  0  0  0  0  0  0
  147.4881  136.2942  152.4675 H   0  0  0  0  0  0  0  0  0  0  0  0
  145.7319  135.8480  150.6351 H   0  0  0  0  0  0  0  0  0  0  0  0
  147.0879  134.2404  151.9832 H   0  0  0  0  0  0  0  0  0  0  0  0
  145.6271  133.5731  152.6722 H   0  0  0  0  0  0  0  0  0  0  0  0
  146.5296  133.4661  149.7668 H   0  0  0  0  0  0  0  0  0  0  0  0
  146.2395  132.1195  150.8439 H   0  0  0  0  0  0  0  0  0  0  0  0
  142.6564  133.9367  149.9417 H   0  0  0  0  0  0  0  0  0  0  0  0
  143.2890  134.8772  152.1966 H   0  0  0  0  0  0  0  0  0  0  0  0
  143.3267  136.0068  150.8620 H   0  0  0  0  0  0  0  0  0  0  0  0
  148.0343  141.5009  154.9746 H   0  0  0  0  0  0  0  0  0  0  0  0
  1  2  1  0  0  0  0
  1 19  1  0  0  0  0
  1 20  1  0  0  0  0
  1 21  1  0  0  0  0
  2 18  1  0  0  0  0
  2  3  2  0  0  0  0
  3  4  1  0  0  0  0
  4  5  1  0  0  0  0
  4 17  2  0  0  0  0
  5  6  1  0  0  0  0
  5 22  1  0  0  0  0
  5 23  1  0  0  0  0
  6  7  1  0  0  0  0
  6 24  1  0  0  0  0
  6 25  1  0  0  0  0
  7  8  1  0  0  0  0
  7 26  1  0  0  0  0
  8  9  2  0  0  0  0
  8 10  1  0  0  0  0
 10 16  1  0  0  0  0
 10 11  1  0  0  0  0
 10 27  1  0  0  0  0
 11 12  1  0  0  0  0
 11 28  1  0  0  0  0
 11 29  1  0  0  0  0
 12 13  1  0  0  0  0
 12 30  1  0  0  0  0
 12 31  1  0  0  0  0
 13 14  2  0  0  0  0
 13 15  1  0  0  0  0
 15 16  1  0  0  0  0
 15 32  1  0  0  0  0
 16 33  1  0  0  0  0
 16 34  1  0  0  0  0
 17 18  1  0  0  0  0
 17 35  1  0  0  0  0
M  END
> <s_m_source_file>
AV-unprocessed.smi

> <i_m_source_file_index>
1151

> <i_lp_mmshare_version>
43012

> <i_f3d_flags>
0

> <s_epik_input>
W0NIM11jMW5jKFtjSF1zMSlbQ0gyXVtDSDJdW05IXUMoPU8pW0NAQEhdMltDSDJdW0NIMl1DKD1PKVtOSF1bQ0gyXTI=

> <s_epik_cmdline>
J2VwaWtfcHl0aG9uJywgJy1waCcsICc3LjAnLCAnLXRuJywgJzgnLCAnLW1hJywgJzIwMCcsICctbWV0YWxfYmluZGluZycsICctaW1hZScsICc8aW5maWxlLm1hZT4nLCAnLW9tYWUnLCAnPG91dGZpbGUubWFlPic=

> <r_epik_Ionization_Penalty>
0.00105008

> <r_epik_Ionization_Penalty_Charging>
0

> <r_epik_Ionization_Penalty_Neutral>
0.00105008

> <r_epik_State_Penalty>
0.000686749

> <r_epik_Charging_Adjusted_Penalty>
0.000686749

> <i_epik_Tot_Q>
0

> <i_epik_Tot_abs_Q>
0

> <r_epik_Metal_State_Penalty>
-0

> <b_epik_Metal_Only>
0

> <s_lp_Force_Field>
OPLS_2005

> <r_lp_Energy>
7.51238

> <b_lp_Chiralities_Consistent>
1

> <s_lp_Variant>
AV-unprocessed.smi:1151-2

> <Gold.Version>
5.8.1

> <Gold.Id.Protein>
6NUR|6NUR_protein|mol2

> <Gold.PLP.Fitness>
38.2929

> <Gold.PLP.PLP>
-31.9818

> <Gold.PLP.part.hbond>
-3.0000

> <Gold.PLP.part.metal>
0.0000

> <Gold.PLP.part.buried>
-3.4244

> <Gold.PLP.part.nonpolar>
-26.0955

> <Gold.PLP.part.repulsive>
0.5768

> <Gold.PLP.ligand.clash>
0.0000

> <Gold.PLP.ligand.torsion>
0.3568

> <Gold.PLP.Chemscore.Hbond>
2.3354

> <Gold.PLP.Chemscore.CHOScore>
0.0000

> <Gold.PLP.Chemscore.Metal>
0.0000

> <Gold.Chemscore.Hbonds>
donor molecule, donor type, donor heavy atom, donor atom, acceptor molecule, acceptor atom, score
      L1  H     7    26       P1  7948  1.00
      L1  H    15    32       P1 10186  1.00
      P1  H 10785 10796       L1    14  0.33

> <Gold.PLP.Chemscore.Internal.Correction>
0.0184

> <Gold.Rescore>
     Score         DG    S(hbond)    S(metal)    S(lipo)     H(rot)  DE(clash)    DE(int)     intcor
     17.32     -17.67       2.66        0.00      65.44       1.70       0.01       0.34       ----

> <Gold.Chemscore.Fitness>
17.3245

> <Gold.Chemscore.DG>
-17.6734

> <Gold.Chemscore.ZeroCoef>
-5.4800

> <Gold.Chemscore.Hbond>
2.6598

> <Gold.Chemscore.Metal>
0.0000

> <Gold.Chemscore.Lipo>
65.4374

> <Gold.Chemscore.Internal_Hbond>
0.0000

> <Gold.Chemscore.DEClash>
0.0092

> <Gold.Chemscore.DEInternal>
0.3398

> <Gold.Chemscore.Rot>
1.6978

> <Gold.Chemscore.Internal.Correction>
   9.000000E+99

> <Gold.Chemscore.Hbonds>
donor molecule, donor type, donor heavy atom, donor atom, acceptor molecule, acceptor atom, score
      L1  H     7    26       P1  7948  0.96
      L1  H    15    32       P1 10186  0.99
      P1  H 10785 10796       L1    14  0.34

> <Gold.Chemscore.Hbond.Weighted>
-8.8836

> <Gold.Chemscore.Metal.Weighted>
-0.0000

> <Gold.Chemscore.Lipo.Weighted>
-7.6562

> <Gold.Chemscore.Internal_Hbond.Weighted>
0.0000

> <Gold.Chemscore.DEClash.Weighted>
0.0092

> <Gold.Chemscore.DEInternal.Weighted>
0.3398

> <Gold.Chemscore.Rot.Weighted>
4.3463

> <Gold.Chemscore.Internal.Correction.Weighted>
   9.000000E+99

> <Gold.Protein.RotatedTorsions>
[ 6907 6896 6895 6894 ] final  -80.68 input  -60.11 | X-H torsion
[ 7974 7965 7964 7962 ] final  172.69 input  175.53 | X-H torsion
[ 8008 7997 7996 7995 ] final  150.94 input   59.86 | X-H torsion
[ 10167 10162 10161 10158 ] final  -95.40 input  -65.29 | X-H torsion
[ 10718 10713 10712 10709 ] final   98.18 input   66.30 | X-H torsion
[ 10763 10752 10751 10750 ] final  126.55 input  -60.55 | X-H torsion
[ 11005 11000 10999 10996 ] final   76.87 input  -57.11 | X-H torsion

> <Gold.Protein.ActiveResidues>
 VAL166  LYS551  ARG553  GLY616  TRP617  ASP618  TYR619  PRO620  LYS621  CYS622 
 ASP623  PHE694  ASN695  SER759  ASP760  ASP761  ALA762  ILE779  LEU786  VAL792 
 PHE793  MET794  SER795  GLU796  ALA797  LYS798  CYS799  TRP800  GLU811  SER814 

> <Gold.Protein.RotatedAtoms>
  150.6925  134.3932  159.5085 H   0  0  0  0  0  0  0  0  0  0  0  0  # atno 6907 bound_to 6896
  152.1717  134.8826  160.0543 H   0  0  0  0  0  0  0  0  0  0  0  0  # atno 6908 bound_to 6896
  151.9849  133.3736  159.4159 H   0  0  0  0  0  0  0  0  0  0  0  0  # atno 6909 bound_to 6896
  144.7262  139.9537  143.6433 H   0  0  0  0  0  0  0  0  0  0  0  0  # atno 7974 bound_to 7965
  156.2695  140.2061  156.6097 H   0  0  0  0  0  0  0  0  0  0  0  0  # atno 8008 bound_to 7997
  154.6841  140.0537  157.0320 H   0  0  0  0  0  0  0  0  0  0  0  0  # atno 8009 bound_to 7997
  155.0959  140.3201  155.4563 H   0  0  0  0  0  0  0  0  0  0  0  0  # atno 8010 bound_to 7997
  140.3045  143.3142  152.0213 H   0  0  0  0  0  0  0  0  0  0  0  0  # atno 10167 bound_to 10162
  157.6900  131.0632  150.4757 H   0  0  0  0  0  0  0  0  0  0  0  0  # atno 10718 bound_to 10713
  153.6951  135.3292  155.3211 H   0  0  0  0  0  0  0  0  0  0  0  0  # atno 10763 bound_to 10752
  154.8429  135.4441  154.1469 H   0  0  0  0  0  0  0  0  0  0  0  0  # atno 10764 bound_to 10752
  153.2521  135.6982  153.7746 H   0  0  0  0  0  0  0  0  0  0  0  0  # atno 10765 bound_to 10752
  139.9279  134.7637  156.1450 H   0  0  0  0  0  0  0  0  0  0  0  0  # atno 11005 bound_to 11000
  146.0692  139.3681  143.0534 LP  0  0  0  0  0  0  0  0  0  0  0  0  # atno 17320 bound_to 7965
  145.7991  140.9779  143.1008 LP  0  0  0  0  0  0  0  0  0  0  0  0  # atno 17321 bound_to 7965
  139.4907  144.6431  151.6836 LP  0  0  0  0  0  0  0  0  0  0  0  0  # atno 17342 bound_to 10162
  140.5622  144.0250  150.6175 LP  0  0  0  0  0  0  0  0  0  0  0  0  # atno 17343 bound_to 10162
  156.5092  130.4135  149.6310 LP  0  0  0  0  0  0  0  0  0  0  0  0  # atno 17370 bound_to 10713
  156.3256  130.7304  151.2224 LP  0  0  0  0  0  0  0  0  0  0  0  0  # atno 17371 bound_to 10713
  141.0849  133.6738  156.2414 LP  0  0  0  0  0  0  0  0  0  0  0  0  # atno 17394 bound_to 11000
  140.6284  134.5289  157.5556 LP  0  0  0  0  0  0  0  0  0  0  0  0  # atno 17395 bound_to 11000

$$$$
