AV-unprocessed.smi:2673|AV-procd|sdf|10357|dock4
  -GOLD-   2272014383D 1   1.00000     0.00000
 Structure written by MMmdl.
 32 33  0  0  0  0  0  0  0  0  1 V2000
  145.1070  137.9820  154.0024 O   0  0  0  0  0  0  0  0  0  0  0  0
  146.1704  137.7304  153.4317 C   0  0  0  0  0  0  0  0  0  0  0  0
  147.1603  138.6128  153.0283 N   0  0  0  0  0  0  0  0  0  0  0  0
  147.2677  139.7821  153.5799 C   0  0  0  0  0  0  0  0  0  0  0  0
  148.2483  140.6785  153.1802 N   0  0  0  0  0  0  0  0  0  0  0  0
  148.3351  141.8648  153.7674 N   0  0  0  0  0  0  0  0  0  0  0  0
  147.4380  141.9966  154.6707 C   0  0  0  0  0  0  0  0  0  0  0  0
  146.3490  140.6238  154.9053 S   0  0  0  0  0  0  0  0  0  0  0  0
  146.5338  136.4770  153.1106 N   0  0  0  0  0  0  0  0  0  0  0  0
  145.8367  135.1987  153.3392 C   0  0  0  0  0  0  0  0  0  0  0  0
  146.3304  134.5565  154.6680 C   0  0  0  0  0  0  0  0  0  0  0  0
  147.6611  134.4685  154.6787 F   0  0  0  0  0  0  0  0  0  0  0  0
  145.9550  135.3006  155.7099 F   0  0  0  0  0  0  0  0  0  0  0  0
  145.8445  133.3269  154.8359 F   0  0  0  0  0  0  0  0  0  0  0  0
  144.2888  135.3622  153.3411 C   0  0  0  0  0  0  0  0  0  0  0  0
  143.7371  135.8888  152.0036 C   0  0  0  0  0  0  0  0  0  0  0  0
  144.1448  134.9724  150.8413 C   0  0  0  0  0  0  0  0  0  0  0  0
  145.6673  134.7780  150.7961 C   0  0  0  0  0  0  0  0  0  0  0  0
  146.2105  134.2747  152.1484 C   0  0  0  0  0  0  0  0  0  0  0  0
  147.2872  142.8716  155.3027 H   0  0  0  0  0  0  0  0  0  0  0  0
  147.4271  136.3895  152.6487 H   0  0  0  0  0  0  0  0  0  0  0  0
  143.8289  134.3940  153.5425 H   0  0  0  0  0  0  0  0  0  0  0  0
  143.9565  136.0062  154.1540 H   0  0  0  0  0  0  0  0  0  0  0  0
  142.6502  135.9584  152.0540 H   0  0  0  0  0  0  0  0  0  0  0  0
  144.0994  136.9010  151.8211 H   0  0  0  0  0  0  0  0  0  0  0  0
  143.6575  134.0031  150.9538 H   0  0  0  0  0  0  0  0  0  0  0  0
  143.7924  135.3876  149.8967 H   0  0  0  0  0  0  0  0  0  0  0  0
  145.9236  134.0685  150.0089 H   0  0  0  0  0  0  0  0  0  0  0  0
  146.1483  135.7187  150.5255 H   0  0  0  0  0  0  0  0  0  0  0  0
  147.2936  134.1625  152.0825 H   0  0  0  0  0  0  0  0  0  0  0  0
  145.8178  133.2723  152.3218 H   0  0  0  0  0  0  0  0  0  0  0  0
  148.9076  140.4490  152.4503 H   0  0  0  0  0  0  0  0  0  0  0  0
  1  2  2  0  0  0  0
  2  3  1  0  0  0  0
  2  9  1  0  0  0  0
  3  4  2  0  0  0  0
  4  8  1  0  0  0  0
  4  5  1  0  0  0  0
  5  6  1  0  0  0  0
  5 32  1  0  0  0  0
  6  7  2  0  0  0  0
  7  8  1  0  0  0  0
  7 20  1  0  0  0  0
  9 10  1  0  0  0  0
  9 21  1  0  0  0  0
 10 19  1  0  0  0  0
 10 11  1  0  0  0  0
 10 15  1  0  0  0  0
 11 12  1  0  0  0  0
 11 13  1  0  0  0  0
 11 14  1  0  0  0  0
 15 16  1  0  0  0  0
 15 22  1  0  0  0  0
 15 23  1  0  0  0  0
 16 17  1  0  0  0  0
 16 24  1  0  0  0  0
 16 25  1  0  0  0  0
 17 18  1  0  0  0  0
 17 26  1  0  0  0  0
 17 27  1  0  0  0  0
 18 19  1  0  0  0  0
 18 28  1  0  0  0  0
 18 29  1  0  0  0  0
 19 30  1  0  0  0  0
 19 31  1  0  0  0  0
M  END
> <s_m_source_file>
AV-unprocessed.smi

> <i_m_source_file_index>
2673

> <i_lp_mmshare_version>
43012

> <i_f3d_flags>
0

> <s_epik_input>
czFbY0hdbm5jMVtOSF1DKD1PKVtOSF1DMihDKEYpKEYpRilbQ0gyXVtDSDJdW0NIMl1bQ0gyXVtDSDJdMg==

> <s_epik_cmdline>
J2VwaWtfcHl0aG9uJywgJy1waCcsICc3LjAnLCAnLXRuJywgJzgnLCAnLW1hJywgJzIwMCcsICctbWV0YWxfYmluZGluZycsICctaW1hZScsICc8aW5maWxlLm1hZT4nLCAnLW9tYWUnLCAnPG91dGZpbGUubWFlPic=

> <r_epik_Ionization_Penalty>
1.69703

> <r_epik_Ionization_Penalty_Charging>
1.69675

> <r_epik_Ionization_Penalty_Neutral>
0.00027895

> <r_epik_State_Penalty>
1.84993

> <r_epik_Charging_Adjusted_Penalty>
3.54668

> <i_epik_Tot_Q>
0

> <i_epik_Tot_abs_Q>
0

> <r_epik_Metal_State_Penalty>
1.90085

> <b_epik_Metal_Only>
0

> <s_lp_Force_Field>
OPLS_2005

> <r_lp_Energy>
22.7267

> <b_lp_Chiralities_Consistent>
1

> <s_lp_Variant>
AV-unprocessed.smi:2673-3

> <Gold.Version>
5.8.1

> <Gold.Id.Protein>
6NUR|6NUR_protein|mol2

> <Gold.PLP.Fitness>
29.4190

> <Gold.PLP.PLP>
-21.4706

> <Gold.PLP.part.hbond>
-2.9524

> <Gold.PLP.part.metal>
0.0000

> <Gold.PLP.part.buried>
-4.3800

> <Gold.PLP.part.nonpolar>
-14.9918

> <Gold.PLP.part.repulsive>
0.7135

> <Gold.PLP.ligand.clash>
0.0000

> <Gold.PLP.ligand.torsion>
0.7115

> <Gold.PLP.Chemscore.Hbond>
2.1653

> <Gold.PLP.Chemscore.CHOScore>
0.9481

> <Gold.PLP.Chemscore.Metal>
0.0000

> <Gold.Chemscore.Hbonds>
donor molecule, donor type, donor heavy atom, donor atom, acceptor molecule, acceptor atom, score
      L1  H     5    32       P1  7957  0.98
      L1  H     9    21       P1  7948  1.00
      P1  H  8011  8017       L1     6  0.17
      L1  C     7    20       P1  8028  0.94

> <Gold.PLP.Chemscore.Internal.Correction>
0.0310

> <Gold.Rescore>
     Score         DG    S(hbond)    S(metal)    S(lipo)     H(rot)  DE(clash)    DE(int)     intcor
     11.55     -13.64       2.00        0.00      34.62       1.00       0.02       2.08       ----

> <Gold.Chemscore.Fitness>
11.5496

> <Gold.Chemscore.DG>
-13.6430

> <Gold.Chemscore.ZeroCoef>
-5.4800

> <Gold.Chemscore.Hbond>
1.9977

> <Gold.Chemscore.Metal>
0.0000

> <Gold.Chemscore.Lipo>
34.6227

> <Gold.Chemscore.Internal_Hbond>
0.0000

> <Gold.Chemscore.DEClash>
0.0158

> <Gold.Chemscore.DEInternal>
2.0776

> <Gold.Chemscore.Rot>
1.0000

> <Gold.Chemscore.Internal.Correction>
   9.000000E+99

> <Gold.Chemscore.Hbonds>
donor molecule, donor type, donor heavy atom, donor atom, acceptor molecule, acceptor atom, score
      L1  H     5    32       P1  7957  0.91
      L1  H     9    21       P1  7948  1.00
      P1  H  8011  8017       L1     6  0.01

> <Gold.Chemscore.Hbond.Weighted>
-6.6722

> <Gold.Chemscore.Metal.Weighted>
-0.0000

> <Gold.Chemscore.Lipo.Weighted>
-4.0509

> <Gold.Chemscore.Internal_Hbond.Weighted>
0.0000

> <Gold.Chemscore.DEClash.Weighted>
0.0158

> <Gold.Chemscore.DEInternal.Weighted>
2.0776

> <Gold.Chemscore.Rot.Weighted>
2.5600

> <Gold.Chemscore.Internal.Correction.Weighted>
   9.000000E+99

> <Gold.Protein.RotatedTorsions>
[ 6907 6896 6895 6894 ] final   30.22 input  -60.11 | X-H torsion
[ 7974 7965 7964 7962 ] final  -17.68 input  175.53 | X-H torsion
[ 8008 7997 7996 7995 ] final  -10.08 input   59.86 | X-H torsion
[ 10167 10162 10161 10158 ] final -161.31 input  -65.29 | X-H torsion
[ 10718 10713 10712 10709 ] final  -77.37 input   66.30 | X-H torsion
[ 10763 10752 10751 10750 ] final  -28.56 input  -60.55 | X-H torsion
[ 11005 11000 10999 10996 ] final -165.50 input  -57.11 | X-H torsion

> <Gold.Protein.ActiveResidues>
 VAL166  LYS551  ARG553  GLY616  TRP617  ASP618  TYR619  PRO620  LYS621  CYS622 
 ASP623  PHE694  ASN695  SER759  ASP760  ASP761  ALA762  ILE779  LEU786  VAL792 
 PHE793  MET794  SER795  GLU796  ALA797  LYS798  CYS799  TRP800  GLU811  SER814 

> <Gold.Protein.RotatedAtoms>
  152.0428  134.9701  160.0573 H   0  0  0  0  0  0  0  0  0  0  0  0  # atno 6907 bound_to 6896
  152.1133  133.4308  159.4649 H   0  0  0  0  0  0  0  0  0  0  0  0  # atno 6908 bound_to 6896
  150.6844  134.2541  159.4566 H   0  0  0  0  0  0  0  0  0  0  0  0  # atno 6909 bound_to 6896
  146.1929  140.3813  142.8451 H   0  0  0  0  0  0  0  0  0  0  0  0  # atno 7974 bound_to 7965
  154.5588  140.2338  155.8368 H   0  0  0  0  0  0  0  0  0  0  0  0  # atno 8008 bound_to 7997
  156.2011  140.3052  155.9488 H   0  0  0  0  0  0  0  0  0  0  0  0  # atno 8009 bound_to 7997
  155.2929  140.0427  157.3015 H   0  0  0  0  0  0  0  0  0  0  0  0  # atno 8010 bound_to 7997
  139.6474  144.0146  152.2137 H   0  0  0  0  0  0  0  0  0  0  0  0  # atno 10167 bound_to 10162
  156.0147  130.4489  150.3334 H   0  0  0  0  0  0  0  0  0  0  0  0  # atno 10718 bound_to 10713
  153.7504  135.6926  153.4947 H   0  0  0  0  0  0  0  0  0  0  0  0  # atno 10763 bound_to 10752
  153.2007  135.4437  155.0262 H   0  0  0  0  0  0  0  0  0  0  0  0  # atno 10764 bound_to 10752
  154.8189  135.3412  154.7025 H   0  0  0  0  0  0  0  0  0  0  0  0  # atno 10765 bound_to 10752
  140.5750  134.5199  157.5168 H   0  0  0  0  0  0  0  0  0  0  0  0  # atno 11005 bound_to 11000
  144.8522  140.7018  143.6160 LP  0  0  0  0  0  0  0  0  0  0  0  0  # atno 17320 bound_to 7965
  145.3735  139.1653  143.4319 LP  0  0  0  0  0  0  0  0  0  0  0  0  # atno 17321 bound_to 7965
  139.9852  144.6400  150.7864 LP  0  0  0  0  0  0  0  0  0  0  0  0  # atno 17342 bound_to 10162
  140.7521  143.2985  151.3142 LP  0  0  0  0  0  0  0  0  0  0  0  0  # atno 17343 bound_to 10162
  157.1432  131.0302  151.2918 LP  0  0  0  0  0  0  0  0  0  0  0  0  # atno 17370 bound_to 10713
  157.4454  130.7568  149.7105 LP  0  0  0  0  0  0  0  0  0  0  0  0  # atno 17371 bound_to 10713
  139.9344  134.7904  156.0844 LP  0  0  0  0  0  0  0  0  0  0  0  0  # atno 17394 bound_to 11000
  141.1032  133.6669  156.2803 LP  0  0  0  0  0  0  0  0  0  0  0  0  # atno 17395 bound_to 11000

$$$$
