#       Name:                AV-unprocessed.smi:1893
#       Creating user name   scv26
#       Creation time:       Fri Mar 27 09:40:53 2020


#       File generated by GOLD software.
#

@<TRIPOS>MOLECULE
AV-unprocessed.smi:1893
    47    48     1
SMALL
NO_CHARGES


@<TRIPOS>ATOM
      1 ****        -1.3122   2.0986   1.8881 C.3            1 S1                 0.0000
      2 ****        -2.2750   1.5359   0.8203 C.3            1 S1                 0.0000
      3 ****        -3.7161   1.6264   1.3714 C.3            1 S1                 0.0000
      4 ****        -4.7493   1.0853   0.3812 C.3            1 S1                 0.0000
      5 ****        -4.3820  -0.3493   0.0054 C.3            1 S1                 0.0000
      6 ****        -2.9547  -0.4078  -0.5554 C.3            1 S1                 0.0000
      7 ****        -1.9485   0.1303   0.4062 N.4            1 S1                 1.0000
      8 ****        -0.5580  -0.0493  -0.1026 C.3            1 S1                 0.0000
      9 ****        -0.0964  -1.5221  -0.0964 C.3            1 S1                 0.0000
     10 ****         1.2935  -1.6407  -0.5206 N.am           1 S1                 0.0000
     11 ****         2.3585  -1.4059   0.2628 C.2            1 S1                 0.0000
     12 ****         2.2586  -1.0930   1.4500 O.2            1 S1                 0.0000
     13 ****         3.7371  -1.5329  -0.4056 C.3            1 S1                 0.0000
     14 ****         4.8823  -1.7207   0.6102 C.3            1 S1                 0.0000
     15 ****         3.9735  -0.3981  -1.2898 N.pl3          1 S1                 0.0000
     16 ****         3.8848  -0.3120  -2.6189 C.2            1 S1                 0.0000
     17 ****         4.1257   0.9003  -3.0976 N.2            1 S1                 0.0000
     18 ****         4.3703   1.5630  -1.9284 C.2            1 S1                 0.0000
     19 ****         4.2807   0.8353  -0.8152 N.2            1 S1                 0.0000
     20 ****        -1.6894   3.0372   2.2955 H              1 S1                 0.0000
     21 ****        -0.3259   2.3261   1.4857 H              1 S1                 0.0000
     22 ****        -1.1920   1.4063   2.7220 H              1 S1                 0.0000
     23 ****        -2.2082   2.1708  -0.0649 H              1 S1                 0.0000
     24 ****        -3.7878   1.0700   2.3073 H              1 S1                 0.0000
     25 ****        -3.9607   2.6618   1.6122 H              1 S1                 0.0000
     26 ****        -5.7474   1.1187   0.8190 H              1 S1                 0.0000
     27 ****        -4.7754   1.7116  -0.5116 H              1 S1                 0.0000
     28 ****        -4.4628  -0.9962   0.8802 H              1 S1                 0.0000
     29 ****        -5.0884  -0.7329  -0.7315 H              1 S1                 0.0000
     30 ****        -2.7383  -1.4455  -0.8020 H              1 S1                 0.0000
     31 ****        -2.8999   0.1533  -1.4897 H              1 S1                 0.0000
     32 ****        -0.4747   0.3761  -1.1038 H              1 S1                 0.0000
     33 ****         0.1484   0.4972   0.5161 H              1 S1                 0.0000
     34 ****        -0.2243  -1.9607   0.8949 H              1 S1                 0.0000
     35 ****        -0.6854  -2.1269  -0.7840 H              1 S1                 0.0000
     36 ****         1.4589  -1.8981  -1.4832 H              1 S1                 0.0000
     37 ****         3.7105  -2.4274  -1.0305 H              1 S1                 0.0000
     38 ****         4.7171  -2.6017   1.2314 H              1 S1                 0.0000
     39 ****         4.9859  -0.8622   1.2751 H              1 S1                 0.0000
     40 ****         5.8357  -1.8574   0.0990 H              1 S1                 0.0000
     41 ****         3.6330  -1.1522  -3.2494 H              1 S1                 0.0000
     42 ****         4.6140   2.6148  -1.8962 H              1 S1                 0.0000
     43 ****        -2.0178  -0.4280   1.2451 H              1 S1                 0.0000
     44 ****         1.3552  -1.0042   1.8693 LP             1 S1                 0.0000
     45 ****         3.0810  -0.9277   1.9944 LP             1 S1                 0.0000
     46 ****         4.1278   1.2331  -4.0406 LP             1 S1                 0.0000
     47 ****         4.4082   1.1260   0.1331 LP             1 S1                 0.0000
@<TRIPOS>BOND
    1    1    2 1     
    2    1   20 1     
    3    1   21 1     
    4    1   22 1     
    5    2    7 1     
    6    2    3 1     
    7    2   23 1     
    8    3    4 1     
    9    3   24 1     
   10    3   25 1     
   11    4    5 1     
   12    4   26 1     
   13    4   27 1     
   14    5    6 1     
   15    5   28 1     
   16    5   29 1     
   17    6    7 1     
   18    6   30 1     
   19    6   31 1     
   20    7    8 1     
   21    7   43 1     
   22    8    9 1     
   23    8   32 1     
   24    8   33 1     
   25    9   10 1     
   26    9   34 1     
   27    9   35 1     
   28   10   11 am    
   29   10   36 1     
   30   11   12 2     
   31   11   13 1     
   32   13   14 1     
   33   13   15 1     
   34   13   37 1     
   35   14   38 1     
   36   14   39 1     
   37   14   40 1     
   38   15   19 1     
   39   15   16 1     
   40   16   17 2     
   41   16   41 1     
   42   17   18 1     
   43   18   19 2     
   44   18   42 1     
   45   12   44 1     
   46   12   45 1     
   47   17   46 1     
   48   19   47 1     
@<TRIPOS>SUBSTRUCTURE
      1 S1             1
@<TRIPOS>SET
LONE_PAIRS      STATIC     ATOMS    <user>   **** ""
4 44 45 46 47
DONOR_HYDROGENS      STATIC     ATOMS    <user>   **** ""
2 43 36
ATOM$BLUE        STATIC     ATOMS    COLORGROUP SYSTEM
4 44 45 46 47
ATOM$RED        STATIC     ATOMS    COLORGROUP SYSTEM
2 43 36
