AV-unprocessed.smi:2481|AV-procd|sdf|9772|dock10
  -GOLD-   2272013413D 1   1.00000     0.00000
 Structure written by MMmdl.
 37 38  0  0  0  0  0  0  0  0  1 V2000
  147.4133  132.8625  152.2209 C   0  0  0  0  0  0  0  0  0  0  0  0
  148.4058  132.3960  153.1697 N   0  0  0  0  0  0  0  0  0  0  0  0
  148.6451  131.0736  153.3337 N   0  0  0  0  0  0  0  0  0  0  0  0
  149.5993  131.0615  154.2648 C   0  0  0  0  0  0  0  0  0  0  0  0
  150.0037  132.2826  154.7238 N   0  0  0  0  0  0  0  0  0  0  0  0
  149.2154  133.0662  153.9949 C   0  0  0  0  0  0  0  0  0  0  0  0
  149.1785  134.4859  154.0341 N   0  0  0  0  0  0  0  0  0  0  0  0
  149.3641  135.2847  155.0985 C   0  0  0  0  0  0  0  0  0  0  0  0
  149.6120  134.8990  156.2412 O   0  0  0  0  0  0  0  0  0  0  0  0
  149.2501  136.5768  154.7596 N   0  0  0  0  0  0  0  0  0  0  0  0
  149.3954  137.7122  155.6724 C   0  0  1  0  0  0  0  0  0  0  0  0
  150.6446  137.5410  156.5633 C   0  0  0  0  0  0  0  0  0  0  0  0
  151.9507  137.6848  155.7644 C   0  0  0  0  0  0  0  0  0  0  0  0
  151.9907  139.0186  155.0049 C   0  0  0  0  0  0  0  0  0  0  0  0
  150.7589  139.1856  154.1009 C   0  0  0  0  0  0  0  0  0  0  0  0
  149.4428  139.0566  154.8978 C   0  0  1  0  0  0  0  0  0  0  0  0
  148.2175  139.2908  153.9887 C   0  0  0  0  0  0  0  0  0  0  0  0
  148.2246  138.3976  152.8948 O   0  0  0  0  0  0  0  0  0  0  0  0
  147.9009  133.4452  151.4389 H   0  0  0  0  0  0  0  0  0  0  0  0
  146.6833  133.4907  152.7323 H   0  0  0  0  0  0  0  0  0  0  0  0
  146.8943  132.0196  151.7625 H   0  0  0  0  0  0  0  0  0  0  0  0
  150.0207  130.1357  154.6278 H   0  0  0  0  0  0  0  0  0  0  0  0
  148.9903  134.9417  153.1535 H   0  0  0  0  0  0  0  0  0  0  0  0
  149.0482  136.7981  153.7959 H   0  0  0  0  0  0  0  0  0  0  0  0
  148.5224  137.7361  156.3271 H   0  0  0  0  0  0  0  0  0  0  0  0
  150.6254  138.2950  157.3511 H   0  0  0  0  0  0  0  0  0  0  0  0
  150.6220  136.5762  157.0716 H   0  0  0  0  0  0  0  0  0  0  0  0
  152.8059  137.6153  156.4371 H   0  0  0  0  0  0  0  0  0  0  0  0
  152.0466  136.8579  155.0596 H   0  0  0  0  0  0  0  0  0  0  0  0
  152.0341  139.8431  155.7178 H   0  0  0  0  0  0  0  0  0  0  0  0
  152.9010  139.0788  154.4079 H   0  0  0  0  0  0  0  0  0  0  0  0
  150.8027  140.1588  153.6107 H   0  0  0  0  0  0  0  0  0  0  0  0
  150.7876  138.4414  153.3040 H   0  0  0  0  0  0  0  0  0  0  0  0
  149.4455  139.8572  155.6397 H   0  0  0  0  0  0  0  0  0  0  0  0
  147.2965  139.1263  154.5489 H   0  0  0  0  0  0  0  0  0  0  0  0
  148.1827  140.3158  153.6188 H   0  0  0  0  0  0  0  0  0  0  0  0
  148.6064  138.8360  152.1497 H   0  0  0  0  0  0  0  0  0  0  0  0
  1  2  1  0  0  0  0
  1 19  1  0  0  0  0
  1 20  1  0  0  0  0
  1 21  1  0  0  0  0
  2  6  1  0  0  0  0
  2  3  1  0  0  0  0
  3  4  2  0  0  0  0
  4  5  1  0  0  0  0
  4 22  1  0  0  0  0
  5  6  2  0  0  0  0
  6  7  1  0  0  0  0
  7  8  1  0  0  0  0
  7 23  1  0  0  0  0
  8  9  2  0  0  0  0
  8 10  1  0  0  0  0
 10 11  1  0  0  0  0
 10 24  1  0  0  0  0
 11 16  1  0  0  0  0
 11 12  1  0  0  0  0
 11 25  1  0  0  0  0
 12 13  1  0  0  0  0
 12 26  1  0  0  0  0
 12 27  1  0  0  0  0
 13 14  1  0  0  0  0
 13 28  1  0  0  0  0
 13 29  1  0  0  0  0
 14 15  1  0  0  0  0
 14 30  1  0  0  0  0
 14 31  1  0  0  0  0
 15 16  1  0  0  0  0
 15 32  1  0  0  0  0
 15 33  1  0  0  0  0
 16 17  1  0  0  0  0
 16 34  1  0  0  0  0
 17 18  1  0  0  0  0
 17 35  1  0  0  0  0
 17 36  1  0  0  0  0
 18 37  1  0  0  0  0
M  END
> <s_m_source_file>
AV-unprocessed.smi

> <i_m_source_file_index>
2481

> <i_lp_mmshare_version>
43012

> <i_f3d_flags>
0

> <s_epik_input>
W0NIM11uMW5bY0hdbmMxW05IXUMoPU8pW05IXVtDQEBIXTJbQ0gyXVtDSDJdW0NIMl1bQ0gyXVtDQEhdMltDSDJdW09IXQ==

> <s_epik_cmdline>
J2VwaWtfcHl0aG9uJywgJy1waCcsICc3LjAnLCAnLXRuJywgJzgnLCAnLW1hJywgJzIwMCcsICctbWV0YWxfYmluZGluZycsICctaW1hZScsICc8aW5maWxlLm1hZT4nLCAnLW9tYWUnLCAnPG91dGZpbGUubWFlPic=

> <r_lp_tautomer_probability>
1

> <r_epik_Ionization_Penalty>
2.32704e-05

> <r_epik_Ionization_Penalty_Charging>
0

> <r_epik_Ionization_Penalty_Neutral>
2.32704e-05

> <r_epik_State_Penalty>
-0

> <r_epik_Charging_Adjusted_Penalty>
0

> <i_epik_Tot_Q>
0

> <i_epik_Tot_abs_Q>
0

> <r_epik_Metal_State_Penalty>
-0

> <b_epik_Metal_Only>
0

> <s_lp_Force_Field>
OPLS_2005

> <r_lp_Energy>
12.0368

> <b_lp_Chiralities_Consistent>
1

> <s_lp_Variant>
AV-unprocessed.smi:2481-2

> <Gold.Version>
5.8.1

> <Gold.Id.Protein>
6NUR|6NUR_protein|mol2

> <Gold.PLP.Fitness>
35.1164

> <Gold.PLP.PLP>
-26.9760

> <Gold.PLP.part.hbond>
-3.9617

> <Gold.PLP.part.metal>
0.0000

> <Gold.PLP.part.buried>
-1.9002

> <Gold.PLP.part.nonpolar>
-20.8853

> <Gold.PLP.part.repulsive>
0.1383

> <Gold.PLP.ligand.clash>
0.0000

> <Gold.PLP.ligand.torsion>
0.3899

> <Gold.PLP.Chemscore.Hbond>
2.9675

> <Gold.PLP.Chemscore.CHOScore>
0.0000

> <Gold.PLP.Chemscore.Metal>
0.0000

> <Gold.Chemscore.Hbonds>
donor molecule, donor type, donor heavy atom, donor atom, acceptor molecule, acceptor atom, score
      L1  H     7    23       P1  7948  0.85
      L1  H    10    24       P1  7948  0.99
      L1  H    18    37       P1  7957  1.00

> <Gold.PLP.Chemscore.Internal.Correction>
0.0179

> <Gold.Rescore>
     Score         DG    S(hbond)    S(metal)    S(lipo)     H(rot)  DE(clash)    DE(int)     intcor
      8.65     -12.86       2.17        0.00      44.50       1.99       0.98       3.23       ----

> <Gold.Chemscore.Fitness>
8.6467

> <Gold.Chemscore.DG>
-12.8574

> <Gold.Chemscore.ZeroCoef>
-5.4800

> <Gold.Chemscore.Hbond>
2.1736

> <Gold.Chemscore.Metal>
0.0000

> <Gold.Chemscore.Lipo>
44.4959

> <Gold.Chemscore.Internal_Hbond>
0.0000

> <Gold.Chemscore.DEClash>
0.9769

> <Gold.Chemscore.DEInternal>
3.2337

> <Gold.Chemscore.Rot>
1.9877

> <Gold.Chemscore.Internal.Correction>
   9.000000E+99

> <Gold.Chemscore.Hbonds>
donor molecule, donor type, donor heavy atom, donor atom, acceptor molecule, acceptor atom, score
      L1  H     7    23       P1  7948  0.15
      L1  H    10    24       P1  7948  0.89
      L1  H    18    37       P1  7957  0.94

> <Gold.Chemscore.Hbond.Weighted>
-7.2599

> <Gold.Chemscore.Metal.Weighted>
-0.0000

> <Gold.Chemscore.Lipo.Weighted>
-5.2060

> <Gold.Chemscore.Internal_Hbond.Weighted>
0.0000

> <Gold.Chemscore.DEClash.Weighted>
0.9769

> <Gold.Chemscore.DEInternal.Weighted>
3.2337

> <Gold.Chemscore.Rot.Weighted>
5.0885

> <Gold.Chemscore.Internal.Correction.Weighted>
   9.000000E+99

> <Gold.Protein.RotatedTorsions>
[ 6907 6896 6895 6894 ] final  125.00 input  -60.11 | X-H torsion
[ 7974 7965 7964 7962 ] final  -84.89 input  175.53 | X-H torsion
[ 8008 7997 7996 7995 ] final  -97.36 input   59.86 | X-H torsion
[ 10167 10162 10161 10158 ] final  -88.14 input  -65.29 | X-H torsion
[ 10718 10713 10712 10709 ] final -104.27 input   66.30 | X-H torsion
[ 10763 10752 10751 10750 ] final   56.84 input  -60.55 | X-H torsion
[ 11005 11000 10999 10996 ] final  -47.71 input  -57.11 | X-H torsion

> <Gold.Protein.ActiveResidues>
 VAL166  LYS551  ARG553  GLY616  TRP617  ASP618  TYR619  PRO620  LYS621  CYS622 
 ASP623  PHE694  ASN695  SER759  ASP760  ASP761  ALA762  ILE779  LEU786  VAL792 
 PHE793  MET794  SER795  GLU796  ALA797  LYS798  CYS799  TRP800  GLU811  SER814 

> <Gold.Protein.RotatedAtoms>
  152.4029  133.6845  159.6331 H   0  0  0  0  0  0  0  0  0  0  0  0  # atno 6907 bound_to 6896
  150.7918  133.8759  159.3280 H   0  0  0  0  0  0  0  0  0  0  0  0  # atno 6908 bound_to 6896
  151.6520  135.1002  160.0214 H   0  0  0  0  0  0  0  0  0  0  0  0  # atno 6909 bound_to 6896
  145.5006  140.9547  143.1762 H   0  0  0  0  0  0  0  0  0  0  0  0  # atno 7974 bound_to 7965
  154.7867  140.0463  157.1169 H   0  0  0  0  0  0  0  0  0  0  0  0  # atno 8008 bound_to 7997
  154.9639  140.3081  155.4998 H   0  0  0  0  0  0  0  0  0  0  0  0  # atno 8009 bound_to 7997
  156.2944  140.2265  156.4727 H   0  0  0  0  0  0  0  0  0  0  0  0  # atno 8010 bound_to 7997
  140.3776  143.2764  151.9423 H   0  0  0  0  0  0  0  0  0  0  0  0  # atno 10167 bound_to 10162
  156.0298  130.5507  150.7372 H   0  0  0  0  0  0  0  0  0  0  0  0  # atno 10718 bound_to 10713
  152.9839  135.5662  154.5294 H   0  0  0  0  0  0  0  0  0  0  0  0  # atno 10763 bound_to 10752
  154.4768  135.2787  155.1603 H   0  0  0  0  0  0  0  0  0  0  0  0  # atno 10764 bound_to 10752
  154.3128  135.6285  153.5526 H   0  0  0  0  0  0  0  0  0  0  0  0  # atno 10765 bound_to 10752
  141.0657  133.6694  156.3337 H   0  0  0  0  0  0  0  0  0  0  0  0  # atno 11005 bound_to 11000
  144.7782  139.6583  143.7165 LP  0  0  0  0  0  0  0  0  0  0  0  0  # atno 17320 bound_to 7965
  146.2228  139.5667  142.9607 LP  0  0  0  0  0  0  0  0  0  0  0  0  # atno 17321 bound_to 7965
  139.4798  144.5848  151.7871 LP  0  0  0  0  0  0  0  0  0  0  0  0  # atno 17342 bound_to 10162
  140.4970  144.1226  150.5962 LP  0  0  0  0  0  0  0  0  0  0  0  0  # atno 17343 bound_to 10162
  157.4950  131.0914  151.0382 LP  0  0  0  0  0  0  0  0  0  0  0  0  # atno 17370 bound_to 10713
  157.0779  130.5891  149.5415 LP  0  0  0  0  0  0  0  0  0  0  0  0  # atno 17371 bound_to 10713
  140.5778  134.5776  157.5472 LP  0  0  0  0  0  0  0  0  0  0  0  0  # atno 17394 bound_to 11000
  139.9474  134.7677  156.0529 LP  0  0  0  0  0  0  0  0  0  0  0  0  # atno 17395 bound_to 11000

$$$$
