#       Name:                AV-unprocessed.smi:1218
#       Creating user name   scv26
#       Creation time:       Fri Mar 27 04:16:14 2020


#       File generated by GOLD software.
#

@<TRIPOS>MOLECULE
AV-unprocessed.smi:1218
    50    51     1
SMALL
NO_CHARGES


@<TRIPOS>ATOM
      1 ****        -0.3916   2.2684   4.4406 C.3            1 S1                 0.0000
      2 ****        -0.9156   1.8832   3.0470 C.3            1 S1                 0.0000
      3 ****        -2.4450   2.0149   2.9947 C.3            1 S1                 0.0000
      4 ****        -0.4808   0.4585   2.6401 C.3            1 S1                 0.0000
      5 ****         0.9954   0.3091   2.5179 N.4            1 S1                 1.0000
      6 ****         1.4642  -1.0895   2.6736 C.3            1 S1                 0.0000
      7 ****         1.2229  -1.9027   1.3891 C.3            1 S1                 0.0000
      8 ****         1.8679  -1.2610   0.2959 O.3            1 S1                 0.0000
      9 ****         1.3530   0.0441   0.0480 C.3            1 S1                 0.0000
     10 ****         2.0646   0.6210  -1.1888 C.3            1 S1                 0.0000
     11 ****         1.7653  -0.1389  -2.3978 N.am           1 S1                 0.0000
     12 ****         0.6201  -0.0601  -3.0927 C.2            1 S1                 0.0000
     13 ****        -0.3181   0.6660  -2.7607 O.2            1 S1                 0.0000
     14 ****         0.5345  -0.9304  -4.3517 C.3            1 S1                 0.0000
     15 ****        -0.8267  -1.3468  -4.6464 N.pl3          1 S1                 0.0000
     16 ****        -1.5714  -2.3377  -4.0402 C.2            1 S1                 0.0000
     17 ****        -2.7900  -2.3652  -4.6557 C.2            1 S1                 0.0000
     18 ****        -2.6944  -1.3419  -5.6400 C.2            1 S1                 0.0000
     19 ****        -1.5183  -0.7354  -5.6330 N.2            1 S1                 0.0000
     20 ****         1.5886   0.9186   1.2995 C.3            1 S1                 0.0000
     21 ****        -0.7628   1.5872   5.2070 H              1 S1                 0.0000
     22 ****        -0.7074   3.2761   4.7125 H              1 S1                 0.0000
     23 ****         0.6979   2.2506   4.4780 H              1 S1                 0.0000
     24 ****        -0.5176   2.6002   2.3299 H              1 S1                 0.0000
     25 ****        -2.9275   1.3304   3.6931 H              1 S1                 0.0000
     26 ****        -2.8253   1.7948   1.9966 H              1 S1                 0.0000
     27 ****        -2.7617   3.0270   3.2483 H              1 S1                 0.0000
     28 ****        -0.8516  -0.2354   3.3959 H              1 S1                 0.0000
     29 ****        -0.9643   0.1670   1.7079 H              1 S1                 0.0000
     30 ****         2.5329  -1.0704   2.8916 H              1 S1                 0.0000
     31 ****         0.9872  -1.5646   3.5314 H              1 S1                 0.0000
     32 ****         1.6354  -2.9057   1.4986 H              1 S1                 0.0000
     33 ****         0.1573  -2.0195   1.1856 H              1 S1                 0.0000
     34 ****         0.2845  -0.0231  -0.1593 H              1 S1                 0.0000
     35 ****         1.7788   1.6637  -1.3381 H              1 S1                 0.0000
     36 ****         3.1445   0.6161  -1.0372 H              1 S1                 0.0000
     37 ****         2.4863  -0.7590  -2.7377 H              1 S1                 0.0000
     38 ****         0.9370  -0.3748  -5.2002 H              1 S1                 0.0000
     39 ****         1.1474  -1.8252  -4.2332 H              1 S1                 0.0000
     40 ****        -1.1761  -2.9330  -3.2303 H              1 S1                 0.0000
     41 ****        -3.6228  -3.0170  -4.4371 H              1 S1                 0.0000
     42 ****        -3.4389  -1.0243  -6.3550 H              1 S1                 0.0000
     43 ****         1.2089   1.9267   1.1393 H              1 S1                 0.0000
     44 ****         2.6613   1.0247   1.4672 H              1 S1                 0.0000
     45 ****         1.3734   0.8144   3.3068 H              1 S1                 0.0000
     46 ****         1.7385  -1.8179  -0.5245 LP             1 S1                 0.0000
     47 ****         2.8444  -1.1874   0.4981 LP             1 S1                 0.0000
     48 ****        -0.2461   1.2318  -1.9394 LP             1 S1                 0.0000
     49 ****        -1.1517   0.6895  -3.3126 LP             1 S1                 0.0000
     50 ****        -1.2103   0.0090  -6.2255 LP             1 S1                 0.0000
@<TRIPOS>BOND
    1    1    2 1     
    2    1   21 1     
    3    1   22 1     
    4    1   23 1     
    5    2    3 1     
    6    2    4 1     
    7    2   24 1     
    8    3   25 1     
    9    3   26 1     
   10    3   27 1     
   11    4    5 1     
   12    4   28 1     
   13    4   29 1     
   14    5   20 1     
   15    5    6 1     
   16    5   45 1     
   17    6    7 1     
   18    6   30 1     
   19    6   31 1     
   20    7    8 1     
   21    7   32 1     
   22    7   33 1     
   23    8    9 1     
   24    9   10 1     
   25    9   20 1     
   26    9   34 1     
   27   10   11 1     
   28   10   35 1     
   29   10   36 1     
   30   11   12 am    
   31   11   37 1     
   32   12   13 2     
   33   12   14 1     
   34   14   15 1     
   35   14   38 1     
   36   14   39 1     
   37   15   19 1     
   38   15   16 1     
   39   16   17 2     
   40   16   40 1     
   41   17   18 1     
   42   17   41 1     
   43   18   19 2     
   44   18   42 1     
   45   20   43 1     
   46   20   44 1     
   47    8   46 1     
   48    8   47 1     
   49   13   48 1     
   50   13   49 1     
   51   19   50 1     
@<TRIPOS>SUBSTRUCTURE
      1 S1             1
@<TRIPOS>SET
LONE_PAIRS      STATIC     ATOMS    <user>   **** ""
5 46 47 48 49 50
DONOR_HYDROGENS      STATIC     ATOMS    <user>   **** ""
2 45 37
ATOM$BLUE        STATIC     ATOMS    COLORGROUP SYSTEM
5 46 47 48 49 50
ATOM$RED        STATIC     ATOMS    COLORGROUP SYSTEM
2 45 37
