AV-unprocessed.smi:2764|AV-procd|sdf|10643|dock9
  -GOLD-   2272015 93D 1   1.00000     0.00000
 Structure written by MMmdl.
 47 49  0  0  0  0  0  0  0  0  2 V2000
  149.5427  140.2531  156.2754 O   0  0  0  0  0  0  0  0  0  0  0  0
  149.4108  141.4679  156.1248 C   0  0  0  0  0  0  0  0  0  0  0  0
  150.0479  142.4149  156.8360 N   0  0  0  0  0  0  0  0  0  0  0  0
  150.9971  142.2402  157.8782 C   0  0  0  0  0  0  0  0  0  0  0  0
  151.4958  143.4377  158.4399 C   0  0  0  0  0  0  0  0  0  0  0  0
  152.4429  143.3733  159.4807 C   0  0  0  0  0  0  0  0  0  0  0  0
  152.8659  142.1104  159.9319 C   0  0  0  0  0  0  0  0  0  0  0  0
  153.7736  141.9983  160.9303 F   0  0  0  0  0  0  0  0  0  0  0  0
  152.3212  140.9668  159.3193 C   0  0  0  0  0  0  0  0  0  0  0  0
  151.4138  141.0273  158.3213 N   0  0  0  0  0  0  0  0  0  0  0  0
  148.5969  142.0131  155.2084 N   0  0  0  0  0  0  0  0  0  0  0  0
  147.7493  141.2660  154.2791 C   0  0  2  0  0  0  0  0  0  0  0  0
  146.9809  142.1972  153.3213 C   0  0  0  0  0  0  0  0  0  0  0  0
  145.8825  142.9926  154.0479 C   0  0  0  0  0  0  0  0  0  0  0  0
  144.9387  142.0897  154.7583 N   0  3  2  0  0  0  0  0  0  0  0  0
  143.7931  142.8305  155.3507 C   0  0  0  0  0  0  0  0  0  0  0  0
  144.1518  144.2748  155.7601 C   0  0  1  0  0  0  0  0  0  0  0  0
  143.9514  145.3413  154.6858 C   0  0  0  0  0  0  0  0  0  0  0  0
  143.4114  146.5602  155.4414 C   0  0  0  0  0  0  0  0  0  0  0  0
  143.4688  146.2070  156.8149 O   0  0  0  0  0  0  0  0  0  0  0  0
  143.2790  144.8064  156.8960 C   0  0  0  0  0  0  0  0  0  0  0  0
  145.6508  141.2217  155.7339 C   0  0  0  0  0  0  0  0  0  0  0  0
  146.7495  140.3873  155.0495 C   0  0  0  0  0  0  0  0  0  0  0  0
  149.8323  143.3731  156.6040 H   0  0  0  0  0  0  0  0  0  0  0  0
  151.1586  144.3993  158.0810 H   0  0  0  0  0  0  0  0  0  0  0  0
  152.8361  144.2763  159.9236 H   0  0  0  0  0  0  0  0  0  0  0  0
  152.6198  139.9788  159.6375 H   0  0  0  0  0  0  0  0  0  0  0  0
  148.5466  143.0203  155.1616 H   0  0  0  0  0  0  0  0  0  0  0  0
  148.3946  140.6101  153.6917 H   0  0  0  0  0  0  0  0  0  0  0  0
  147.6640  142.8801  152.8151 H   0  0  0  0  0  0  0  0  0  0  0  0
  146.5219  141.5972  152.5342 H   0  0  0  0  0  0  0  0  0  0  0  0
  146.3260  143.6922  154.7582 H   0  0  0  0  0  0  0  0  0  0  0  0
  145.3404  143.5898  153.3135 H   0  0  0  0  0  0  0  0  0  0  0  0
  142.9266  142.8022  154.6885 H   0  0  0  0  0  0  0  0  0  0  0  0
  143.4844  142.3124  156.2600 H   0  0  0  0  0  0  0  0  0  0  0  0
  145.1875  144.3113  156.1023 H   0  0  0  0  0  0  0  0  0  0  0  0
  144.8896  145.5705  154.1801 H   0  0  0  0  0  0  0  0  0  0  0  0
  143.2301  145.0278  153.9303 H   0  0  0  0  0  0  0  0  0  0  0  0
  143.9907  147.4633  155.2482 H   0  0  0  0  0  0  0  0  0  0  0  0
  142.3751  146.7551  155.1626 H   0  0  0  0  0  0  0  0  0  0  0  0
  142.2256  144.5692  156.7360 H   0  0  0  0  0  0  0  0  0  0  0  0
  143.5759  144.4189  157.8710 H   0  0  0  0  0  0  0  0  0  0  0  0
  146.0807  141.8379  156.5249 H   0  0  0  0  0  0  0  0  0  0  0  0
  144.9535  140.5395  156.2144 H   0  0  0  0  0  0  0  0  0  0  0  0
  146.2823  139.6868  154.3561 H   0  0  0  0  0  0  0  0  0  0  0  0
  147.2723  139.7774  155.7874 H   0  0  0  0  0  0  0  0  0  0  0  0
  144.5500  141.4833  154.0502 H   0  0  0  0  0  0  0  0  0  0  0  0
  1  2  2  0  0  0  0
  2  3  1  0  0  0  0
  2 11  1  0  0  0  0
  3  4  1  0  0  0  0
  3 24  1  0  0  0  0
  4 10  1  0  0  0  0
  4  5  2  0  0  0  0
  5  6  1  0  0  0  0
  5 25  1  0  0  0  0
  6  7  2  0  0  0  0
  6 26  1  0  0  0  0
  7  8  1  0  0  0  0
  7  9  1  0  0  0  0
  9 10  2  0  0  0  0
  9 27  1  0  0  0  0
 11 12  1  0  0  0  0
 11 28  1  0  0  0  0
 12 23  1  0  0  0  0
 12 13  1  0  0  0  0
 12 29  1  0  0  0  0
 13 14  1  0  0  0  0
 13 30  1  0  0  0  0
 13 31  1  0  0  0  0
 14 15  1  0  0  0  0
 14 32  1  0  0  0  0
 14 33  1  0  0  0  0
 15 16  1  0  0  0  0
 15 22  1  0  0  0  0
 15 47  1  0  0  0  0
 16 17  1  0  0  0  0
 16 34  1  0  0  0  0
 16 35  1  0  0  0  0
 17 21  1  0  0  0  0
 17 18  1  0  0  0  0
 17 36  1  0  0  0  0
 18 19  1  0  0  0  0
 18 37  1  0  0  0  0
 18 38  1  0  0  0  0
 19 20  1  0  0  0  0
 19 39  1  0  0  0  0
 19 40  1  0  0  0  0
 20 21  1  0  0  0  0
 21 41  1  0  0  0  0
 21 42  1  0  0  0  0
 22 23  1  0  0  0  0
 22 43  1  0  0  0  0
 22 44  1  0  0  0  0
 23 45  1  0  0  0  0
 23 46  1  0  0  0  0
M  CHG  1  15   1
M  END
> <s_m_source_file>
AV-unprocessed.smi

> <i_m_source_file_index>
2764

> <i_lp_mmshare_version>
43012

> <i_f3d_flags>
0

> <s_epik_input>
bjFbY0hdYyhGKVtjSF1bY0hdYzFbTkhdQyg9TylbTkhdW0NIXTJbQ0gyXVtDSDJdTihbQ0gyXVtDSDJdMilbQ0gyXVtDQEBIXTNbQ0gyXVtDSDJdT1tDSDJdMw==

> <s_epik_cmdline>
J2VwaWtfcHl0aG9uJywgJy1waCcsICc3LjAnLCAnLXRuJywgJzgnLCAnLW1hJywgJzIwMCcsICctbWV0YWxfYmluZGluZycsICctaW1hZScsICc8aW5maWxlLm1hZT4nLCAnLW9tYWUnLCAnPG91dGZpbGUubWFlPic=

> <r_epik_Ionization_Penalty>
0.0075076

> <r_epik_Ionization_Penalty_Charging>
0.00747775

> <r_epik_Ionization_Penalty_Neutral>
2.98483e-05

> <r_epik_State_Penalty>
0.00558817

> <r_epik_Charging_Adjusted_Penalty>
0.0130659

> <i_epik_Tot_Q>
1

> <i_epik_Tot_abs_Q>
1

> <r_epik_Metal_State_Penalty>
-0

> <b_epik_Metal_Only>
0

> <s_lp_Force_Field>
OPLS_2005

> <r_lp_Energy>
38.1344

> <b_lp_Chiralities_Consistent>
1

> <s_lp_Variant>
AV-unprocessed.smi:2764-4

> <Gold.Version>
5.8.1

> <Gold.Id.Protein>
6NUR|6NUR_protein|mol2

> <Gold.PLP.Fitness>
51.8947

> <Gold.PLP.PLP>
-41.4423

> <Gold.PLP.part.hbond>
-3.0000

> <Gold.PLP.part.metal>
0.0000

> <Gold.PLP.part.buried>
-7.6345

> <Gold.PLP.part.nonpolar>
-32.1726

> <Gold.PLP.part.repulsive>
0.2310

> <Gold.PLP.ligand.clash>
0.0000

> <Gold.PLP.ligand.torsion>
0.7854

> <Gold.PLP.Chemscore.Hbond>
4.0000

> <Gold.PLP.Chemscore.CHOScore>
0.0000

> <Gold.PLP.Chemscore.Metal>
0.0000

> <Gold.Chemscore.Hbonds>
donor molecule, donor type, donor heavy atom, donor atom, acceptor molecule, acceptor atom, score
      L1  H     3    24       P1  8028  1.00
      L1  H    11    28       P1  8028  1.00
      L1  H    15    47       P1 10175  2.00

> <Gold.PLP.Chemscore.Internal.Correction>
0.0231

> <Gold.Rescore>
     Score         DG    S(hbond)    S(metal)    S(lipo)     H(rot)  DE(clash)    DE(int)     intcor
     18.00     -21.61       2.73        0.00      92.46       1.49       1.51       2.10       ----

> <Gold.Chemscore.Fitness>
17.9995

> <Gold.Chemscore.DG>
-21.6084

> <Gold.Chemscore.ZeroCoef>
-5.4800

> <Gold.Chemscore.Hbond>
2.7315

> <Gold.Chemscore.Metal>
0.0000

> <Gold.Chemscore.Lipo>
92.4573

> <Gold.Chemscore.Internal_Hbond>
0.0000

> <Gold.Chemscore.DEClash>
1.5125

> <Gold.Chemscore.DEInternal>
2.0965

> <Gold.Chemscore.Rot>
1.4891

> <Gold.Chemscore.Internal.Correction>
   9.000000E+99

> <Gold.Chemscore.Hbonds>
donor molecule, donor type, donor heavy atom, donor atom, acceptor molecule, acceptor atom, score
      L1  H     3    24       P1  8028  0.97
      L1  H    11    28       P1  8028  0.99
      L1  H    15    47       P1 10175  0.28

> <Gold.Chemscore.Hbond.Weighted>
-9.1230

> <Gold.Chemscore.Metal.Weighted>
-0.0000

> <Gold.Chemscore.Lipo.Weighted>
-10.8175

> <Gold.Chemscore.Internal_Hbond.Weighted>
0.0000

> <Gold.Chemscore.DEClash.Weighted>
1.5125

> <Gold.Chemscore.DEInternal.Weighted>
2.0965

> <Gold.Chemscore.Rot.Weighted>
3.8121

> <Gold.Chemscore.Internal.Correction.Weighted>
   9.000000E+99

> <Gold.Protein.RotatedTorsions>
[ 6907 6896 6895 6894 ] final  -96.60 input  -60.11 | X-H torsion
[ 7974 7965 7964 7962 ] final  -69.56 input  175.53 | X-H torsion
[ 8008 7997 7996 7995 ] final  -78.71 input   59.86 | X-H torsion
[ 10167 10162 10161 10158 ] final  -75.78 input  -65.29 | X-H torsion
[ 10718 10713 10712 10709 ] final   -8.32 input   66.30 | X-H torsion
[ 10763 10752 10751 10750 ] final   -2.94 input  -60.55 | X-H torsion
[ 11005 11000 10999 10996 ] final -111.23 input  -57.11 | X-H torsion

> <Gold.Protein.ActiveResidues>
 VAL166  LYS551  ARG553  GLY616  TRP617  ASP618  TYR619  PRO620  LYS621  CYS622 
 ASP623  PHE694  ASN695  SER759  ASP760  ASP761  ALA762  ILE779  LEU786  VAL792 
 PHE793  MET794  SER795  GLU796  ALA797  LYS798  CYS799  TRP800  GLU811  SER814 

> <Gold.Protein.RotatedAtoms>
  150.6993  134.1478  159.4128 H   0  0  0  0  0  0  0  0  0  0  0  0  # atno 6907 bound_to 6896
  151.9461  135.0188  160.0548 H   0  0  0  0  0  0  0  0  0  0  0  0  # atno 6908 bound_to 6896
  152.2051  133.4834  159.5116 H   0  0  0  0  0  0  0  0  0  0  0  0  # atno 6909 bound_to 6896
  145.7021  140.9112  143.0725 H   0  0  0  0  0  0  0  0  0  0  0  0  # atno 7974 bound_to 7965
  154.5715  140.0690  156.8972 H   0  0  0  0  0  0  0  0  0  0  0  0  # atno 8008 bound_to 7997
  155.2625  140.3359  155.4254 H   0  0  0  0  0  0  0  0  0  0  0  0  # atno 8009 bound_to 7997
  156.2122  140.1764  156.7655 H   0  0  0  0  0  0  0  0  0  0  0  0  # atno 8010 bound_to 7997
  140.4913  143.2380  151.7902 H   0  0  0  0  0  0  0  0  0  0  0  0  # atno 10167 bound_to 10162
  156.7044  130.5103  149.5908 H   0  0  0  0  0  0  0  0  0  0  0  0  # atno 10718 bound_to 10713
  153.3647  135.6992  153.6685 H   0  0  0  0  0  0  0  0  0  0  0  0  # atno 10763 bound_to 10752
  153.5359  135.3583  155.2697 H   0  0  0  0  0  0  0  0  0  0  0  0  # atno 10764 bound_to 10752
  154.8673  135.4192  154.2912 H   0  0  0  0  0  0  0  0  0  0  0  0  # atno 10765 bound_to 10752
  141.0746  133.9323  157.2416 H   0  0  0  0  0  0  0  0  0  0  0  0  # atno 11005 bound_to 11000
  144.6965  139.8962  143.7456 LP  0  0  0  0  0  0  0  0  0  0  0  0  # atno 17320 bound_to 7965
  146.0788  139.3776  143.0477 LP  0  0  0  0  0  0  0  0  0  0  0  0  # atno 17321 bound_to 7965
  139.4852  144.4645  151.9500 LP  0  0  0  0  0  0  0  0  0  0  0  0  # atno 17342 bound_to 10162
  140.3732  144.2829  150.5917 LP  0  0  0  0  0  0  0  0  0  0  0  0  # atno 17343 bound_to 10162
  156.1706  130.6434  151.0832 LP  0  0  0  0  0  0  0  0  0  0  0  0  # atno 17370 bound_to 10713
  157.6961  131.0793  150.6965 LP  0  0  0  0  0  0  0  0  0  0  0  0  # atno 17371 bound_to 10713
  139.9558  135.0166  156.9124 LP  0  0  0  0  0  0  0  0  0  0  0  0  # atno 17394 bound_to 11000
  140.5601  134.0543  155.7396 LP  0  0  0  0  0  0  0  0  0  0  0  0  # atno 17395 bound_to 11000

$$$$
