AV-unprocessed.smi:1541|AV-procd|sdf|6202|dock4
  -GOLD-   22720 6373D 1   1.00000     0.00000
 Structure written by MMmdl.
 40 41  0  0  0  0  0  0  0  0  1 V2000
  146.4188  137.8356  151.8414 C   0  0  0  0  0  0  0  0  0  0  0  0
  146.4067  139.3605  151.9997 C   0  0  0  0  0  0  0  0  0  0  0  0
  147.3247  139.7989  153.0330 N   0  0  0  0  0  0  0  0  0  0  0  0
  147.4740  141.0665  153.5594 C   0  0  0  0  0  0  0  0  0  0  0  0
  148.4654  140.9641  154.4940 C   0  0  0  0  0  0  0  0  0  0  0  0
  149.0172  141.9647  155.3336 N   0  0  0  0  0  0  0  0  0  0  0  0
  150.0664  141.8445  156.1635 C   0  0  0  0  0  0  0  0  0  0  0  0
  150.7194  140.8146  156.3333 O   0  0  0  0  0  0  0  0  0  0  0  0
  150.3208  142.9989  156.7968 N   0  0  0  0  0  0  0  0  0  0  0  0
  151.3993  143.2213  157.7577 C   0  0  0  0  0  0  0  0  0  0  0  0
  151.5147  141.9950  158.6872 C   0  0  0  0  0  0  0  0  0  0  0  0
  152.5868  142.1015  159.7852 C   0  0  0  0  0  0  0  0  0  0  0  0
  152.1762  143.0422  160.9295 C   0  0  0  0  0  0  0  0  0  0  0  0
  152.5046  144.5298  160.7118 C   0  0  0  0  0  0  0  0  0  0  0  0
  152.3605  145.0630  159.2757 C   0  0  0  0  0  0  0  0  0  0  0  0
  151.1377  144.5509  158.4959 C   0  0  0  0  0  0  0  0  0  0  0  0
  148.8715  139.6043  154.4800 C   0  0  0  0  0  0  0  0  0  0  0  0
  148.1782  138.9062  153.5931 N   0  0  0  0  0  0  0  0  0  0  0  0
  145.7317  137.5221  151.0555 H   0  0  0  0  0  0  0  0  0  0  0  0
  146.1166  137.3400  152.7645 H   0  0  0  0  0  0  0  0  0  0  0  0
  147.4137  137.4758  151.5775 H   0  0  0  0  0  0  0  0  0  0  0  0
  146.6853  139.8387  151.0600 H   0  0  0  0  0  0  0  0  0  0  0  0
  145.4031  139.7095  152.2473 H   0  0  0  0  0  0  0  0  0  0  0  0
  146.8743  141.9003  153.2250 H   0  0  0  0  0  0  0  0  0  0  0  0
  148.5679  142.8679  155.2953 H   0  0  0  0  0  0  0  0  0  0  0  0
  149.7273  143.7899  156.5945 H   0  0  0  0  0  0  0  0  0  0  0  0
  152.3336  143.3259  157.2024 H   0  0  0  0  0  0  0  0  0  0  0  0
  150.5468  141.7826  159.1439 H   0  0  0  0  0  0  0  0  0  0  0  0
  151.7470  141.1211  158.0771 H   0  0  0  0  0  0  0  0  0  0  0  0
  152.7252  141.1050  160.2060 H   0  0  0  0  0  0  0  0  0  0  0  0
  153.5540  142.3845  159.3679 H   0  0  0  0  0  0  0  0  0  0  0  0
  151.1091  142.9294  161.1248 H   0  0  0  0  0  0  0  0  0  0  0  0
  152.6693  142.7209  161.8478 H   0  0  0  0  0  0  0  0  0  0  0  0
  151.8714  145.1181  161.3770 H   0  0  0  0  0  0  0  0  0  0  0  0
  153.5273  144.7204  161.0398 H   0  0  0  0  0  0  0  0  0  0  0  0
  152.3130  146.1511  159.3296 H   0  0  0  0  0  0  0  0  0  0  0  0
  153.2686  144.8466  158.7117 H   0  0  0  0  0  0  0  0  0  0  0  0
  150.8887  145.3079  157.7505 H   0  0  0  0  0  0  0  0  0  0  0  0
  150.2652  144.4765  159.1466 H   0  0  0  0  0  0  0  0  0  0  0  0
  149.6300  139.1106  155.0696 H   0  0  0  0  0  0  0  0  0  0  0  0
  1  2  1  0  0  0  0
  1 19  1  0  0  0  0
  1 20  1  0  0  0  0
  1 21  1  0  0  0  0
  2  3  1  0  0  0  0
  2 22  1  0  0  0  0
  2 23  1  0  0  0  0
  3 18  1  0  0  0  0
  3  4  1  0  0  0  0
  4  5  2  0  0  0  0
  4 24  1  0  0  0  0
  5  6  1  0  0  0  0
  5 17  1  0  0  0  0
  6  7  1  0  0  0  0
  6 25  1  0  0  0  0
  7  8  2  0  0  0  0
  7  9  1  0  0  0  0
  9 10  1  0  0  0  0
  9 26  1  0  0  0  0
 10 16  1  0  0  0  0
 10 11  1  0  0  0  0
 10 27  1  0  0  0  0
 11 12  1  0  0  0  0
 11 28  1  0  0  0  0
 11 29  1  0  0  0  0
 12 13  1  0  0  0  0
 12 30  1  0  0  0  0
 12 31  1  0  0  0  0
 13 14  1  0  0  0  0
 13 32  1  0  0  0  0
 13 33  1  0  0  0  0
 14 15  1  0  0  0  0
 14 34  1  0  0  0  0
 14 35  1  0  0  0  0
 15 16  1  0  0  0  0
 15 36  1  0  0  0  0
 15 37  1  0  0  0  0
 16 38  1  0  0  0  0
 16 39  1  0  0  0  0
 17 18  2  0  0  0  0
 17 40  1  0  0  0  0
M  END
> <s_m_source_file>
AV-unprocessed.smi

> <i_m_source_file_index>
1541

> <i_lp_mmshare_version>
43012

> <i_f3d_flags>
0

> <s_epik_input>
W0NIM11bQ0gyXW4xW2NIXWMoW2NIXW4xKVtOSF1DKD1PKVtOSF1bQ0hdMltDSDJdW0NIMl1bQ0gyXVtDSDJdW0NIMl1bQ0gyXTI=

> <s_epik_cmdline>
J2VwaWtfcHl0aG9uJywgJy1waCcsICc3LjAnLCAnLXRuJywgJzgnLCAnLW1hJywgJzIwMCcsICctbWV0YWxfYmluZGluZycsICctaW1hZScsICc8aW5maWxlLm1hZT4nLCAnLW9tYWUnLCAnPG91dGZpbGUubWFlPic=

> <r_lp_tautomer_probability>
1

> <r_epik_Ionization_Penalty>
0.000192371

> <r_epik_Ionization_Penalty_Charging>
0

> <r_epik_Ionization_Penalty_Neutral>
0.000192371

> <r_epik_State_Penalty>
-0

> <r_epik_Charging_Adjusted_Penalty>
0

> <i_epik_Tot_Q>
0

> <i_epik_Tot_abs_Q>
0

> <r_epik_Metal_State_Penalty>
-0

> <b_epik_Metal_Only>
0

> <s_lp_Force_Field>
OPLS_2005

> <r_lp_Energy>
18.5955

> <b_lp_Chiralities_Consistent>
1

> <s_lp_Variant>
AV-unprocessed.smi:1541-1

> <Gold.Version>
5.8.1

> <Gold.Id.Protein>
6NUR|6NUR_protein|mol2

> <Gold.PLP.Fitness>
43.2489

> <Gold.PLP.PLP>
-38.2070

> <Gold.PLP.part.hbond>
-1.9198

> <Gold.PLP.part.metal>
0.0000

> <Gold.PLP.part.buried>
0.5836

> <Gold.PLP.part.nonpolar>
-37.8547

> <Gold.PLP.part.repulsive>
1.8410

> <Gold.PLP.ligand.clash>
0.0000

> <Gold.PLP.ligand.torsion>
0.2829

> <Gold.PLP.Chemscore.Hbond>
1.8640

> <Gold.PLP.Chemscore.CHOScore>
0.0000

> <Gold.PLP.Chemscore.Metal>
0.0000

> <Gold.Chemscore.Hbonds>
donor molecule, donor type, donor heavy atom, donor atom, acceptor molecule, acceptor atom, score
      L1  H     6    25       P1  8028  0.86
      L1  H     9    26       P1  8028  1.00

> <Gold.PLP.Chemscore.Internal.Correction>
0.0157

> <Gold.Rescore>
     Score         DG    S(hbond)    S(metal)    S(lipo)     H(rot)  DE(clash)    DE(int)     intcor
     15.82     -22.54       1.84        0.00     118.64       1.16       3.62       3.11       ----

> <Gold.Chemscore.Fitness>
15.8175

> <Gold.Chemscore.DG>
-22.5441

> <Gold.Chemscore.ZeroCoef>
-5.4800

> <Gold.Chemscore.Hbond>
1.8427

> <Gold.Chemscore.Metal>
0.0000

> <Gold.Chemscore.Lipo>
118.6370

> <Gold.Chemscore.Internal_Hbond>
0.0000

> <Gold.Chemscore.DEClash>
3.6170

> <Gold.Chemscore.DEInternal>
3.1096

> <Gold.Chemscore.Rot>
1.1606

> <Gold.Chemscore.Internal.Correction>
   9.000000E+99

> <Gold.Chemscore.Hbonds>
donor molecule, donor type, donor heavy atom, donor atom, acceptor molecule, acceptor atom, score
      L1  H     6    25       P1  8028  0.85
      L1  H     9    26       P1  8028  0.94

> <Gold.Chemscore.Hbond.Weighted>
-6.1548

> <Gold.Chemscore.Metal.Weighted>
-0.0000

> <Gold.Chemscore.Lipo.Weighted>
-13.8805

> <Gold.Chemscore.Internal_Hbond.Weighted>
0.0000

> <Gold.Chemscore.DEClash.Weighted>
3.6170

> <Gold.Chemscore.DEInternal.Weighted>
3.1096

> <Gold.Chemscore.Rot.Weighted>
2.9712

> <Gold.Chemscore.Internal.Correction.Weighted>
   9.000000E+99

> <Gold.Protein.RotatedTorsions>
[ 6907 6896 6895 6894 ] final  113.29 input  -60.11 | X-H torsion
[ 7974 7965 7964 7962 ] final -159.43 input  175.53 | X-H torsion
[ 8008 7997 7996 7995 ] final  155.90 input   59.86 | X-H torsion
[ 10167 10162 10161 10158 ] final  -71.76 input  -65.29 | X-H torsion
[ 10718 10713 10712 10709 ] final -154.05 input   66.30 | X-H torsion
[ 10763 10752 10751 10750 ] final   90.44 input  -60.55 | X-H torsion
[ 11005 11000 10999 10996 ] final  -89.27 input  -57.11 | X-H torsion

> <Gold.Protein.ActiveResidues>
 VAL166  LYS551  ARG553  GLY616  TRP617  ASP618  TYR619  PRO620  LYS621  CYS622 
 ASP623  PHE694  ASN695  SER759  ASP760  ASP761  ALA762  ILE779  LEU786  VAL792 
 PHE793  MET794  SER795  GLU796  ALA797  LYS798  CYS799  TRP800  GLU811  SER814 

> <Gold.Protein.RotatedAtoms>
  152.4869  133.8396  159.7145 H   0  0  0  0  0  0  0  0  0  0  0  0  # atno 6907 bound_to 6896
  150.8963  133.7167  159.2897 H   0  0  0  0  0  0  0  0  0  0  0  0  # atno 6908 bound_to 6896
  151.4623  135.1043  159.9780 H   0  0  0  0  0  0  0  0  0  0  0  0  # atno 6909 bound_to 6896
  144.7465  140.3686  143.6081 H   0  0  0  0  0  0  0  0  0  0  0  0  # atno 7974 bound_to 7965
  156.2453  140.1927  156.6872 H   0  0  0  0  0  0  0  0  0  0  0  0  # atno 8008 bound_to 7997
  154.6278  140.0600  156.9721 H   0  0  0  0  0  0  0  0  0  0  0  0  # atno 8009 bound_to 7997
  155.1759  140.3272  155.4386 H   0  0  0  0  0  0  0  0  0  0  0  0  # atno 8010 bound_to 7997
  140.5247  143.2327  151.7369 H   0  0  0  0  0  0  0  0  0  0  0  0  # atno 10167 bound_to 10162
  156.4940  130.8361  151.2582 H   0  0  0  0  0  0  0  0  0  0  0  0  # atno 10718 bound_to 10713
  153.1976  135.4433  155.0227 H   0  0  0  0  0  0  0  0  0  0  0  0  # atno 10763 bound_to 10752
  154.8128  135.3302  154.7261 H   0  0  0  0  0  0  0  0  0  0  0  0  # atno 10764 bound_to 10752
  153.7709  135.6984  153.4962 H   0  0  0  0  0  0  0  0  0  0  0  0  # atno 10765 bound_to 10752
  141.1587  133.7620  156.9570 H   0  0  0  0  0  0  0  0  0  0  0  0  # atno 11005 bound_to 11000
  145.7102  139.1683  143.2543 LP  0  0  0  0  0  0  0  0  0  0  0  0  # atno 17320 bound_to 7965
  146.1353  140.7131  142.9393 LP  0  0  0  0  0  0  0  0  0  0  0  0  # atno 17321 bound_to 7965
  139.4934  144.4204  151.9984 LP  0  0  0  0  0  0  0  0  0  0  0  0  # atno 17342 bound_to 10162
  140.3302  144.3325  150.5989 LP  0  0  0  0  0  0  0  0  0  0  0  0  # atno 17343 bound_to 10162
  157.7470  131.0004  150.2924 LP  0  0  0  0  0  0  0  0  0  0  0  0  # atno 17370 bound_to 10713
  156.3398  130.3813  149.7419 LP  0  0  0  0  0  0  0  0  0  0  0  0  # atno 17371 bound_to 10713
  140.1218  134.9412  157.2215 LP  0  0  0  0  0  0  0  0  0  0  0  0  # atno 17394 bound_to 11000
  140.3062  134.3075  155.7277 LP  0  0  0  0  0  0  0  0  0  0  0  0  # atno 17395 bound_to 11000

$$$$
