AV-unprocessed.smi:3117|AV-procd|sdf|11878|dock4
  -GOLD-   2272017263D 1   1.00000     0.00000
 Structure written by MMmdl.
 37 37  0  0  0  0  0  0  0  0  2 V2000
  149.3038  142.1955  158.2335 C   0  0  0  0  0  0  0  0  0  0  0  0
  150.4993  142.3191  157.2701 C   0  0  2  0  0  0  0  0  0  0  0  0
  150.0611  142.0265  155.8857 N   0  3  0  0  0  0  0  0  0  0  0  0
  149.0878  140.9226  155.7402 C   0  0  0  0  0  0  0  0  0  0  0  0
  148.5033  140.8563  154.3134 C   0  0  0  0  0  0  0  0  0  0  0  0
  147.8795  139.4746  154.0562 C   0  0  0  0  0  0  0  0  0  0  0  0
  147.4675  141.9672  154.0552 C   0  0  0  0  0  0  0  0  0  0  0  0
  149.5636  141.0063  153.3893 O   0  0  0  0  0  0  0  0  0  0  0  0
  151.6776  141.3852  157.6508 C   0  0  2  0  0  0  0  0  0  0  0  0
  151.2752  139.9031  157.7713 C   0  0  0  0  0  0  0  0  0  0  0  0
  152.3071  141.8319  158.8897 N   0  0  0  0  0  0  0  0  0  0  0  0
  153.4071  141.3097  159.5417 C   0  0  0  0  0  0  0  0  0  0  0  0
  153.5876  142.0345  160.6847 C   0  0  0  0  0  0  0  0  0  0  0  0
  152.5298  142.9848  160.6530 C   0  0  0  0  0  0  0  0  0  0  0  0
  151.7607  142.8543  159.5845 N   0  0  0  0  0  0  0  0  0  0  0  0
  149.5722  142.4896  159.2477 H   0  0  0  0  0  0  0  0  0  0  0  0
  148.9285  141.1722  158.2702 H   0  0  0  0  0  0  0  0  0  0  0  0
  148.4779  142.8396  157.9328 H   0  0  0  0  0  0  0  0  0  0  0  0
  150.8655  143.3465  157.3029 H   0  0  0  0  0  0  0  0  0  0  0  0
  149.6111  142.8602  155.5344 H   0  0  0  0  0  0  0  0  0  0  0  0
  149.5703  139.9784  155.9945 H   0  0  0  0  0  0  0  0  0  0  0  0
  148.2770  141.0662  156.4558 H   0  0  0  0  0  0  0  0  0  0  0  0
  147.0498  139.2840  154.7379 H   0  0  0  0  0  0  0  0  0  0  0  0
  148.6083  138.6752  154.1950 H   0  0  0  0  0  0  0  0  0  0  0  0
  147.4930  139.3937  153.0394 H   0  0  0  0  0  0  0  0  0  0  0  0
  146.6384  141.9032  154.7608 H   0  0  0  0  0  0  0  0  0  0  0  0
  147.0491  141.8923  153.0507 H   0  0  0  0  0  0  0  0  0  0  0  0
  147.9032  142.9624  154.1499 H   0  0  0  0  0  0  0  0  0  0  0  0
  149.5296  140.2912  152.7716 H   0  0  0  0  0  0  0  0  0  0  0  0
  152.4293  141.4475  156.8612 H   0  0  0  0  0  0  0  0  0  0  0  0
  150.9695  139.4898  156.8105 H   0  0  0  0  0  0  0  0  0  0  0  0
  150.4500  139.7653  158.4705 H   0  0  0  0  0  0  0  0  0  0  0  0
  152.1127  139.2988  158.1220 H   0  0  0  0  0  0  0  0  0  0  0  0
  153.9635  140.4735  159.1449 H   0  0  0  0  0  0  0  0  0  0  0  0
  154.3565  141.9035  161.4317 H   0  0  0  0  0  0  0  0  0  0  0  0
  152.2959  143.7557  161.3725 H   0  0  0  0  0  0  0  0  0  0  0  0
  150.8691  141.8389  155.3090 H   0  0  0  0  0  0  0  0  0  0  0  0
  1  2  1  0  0  0  0
  1 16  1  0  0  0  0
  1 17  1  0  0  0  0
  1 18  1  0  0  0  0
  2  3  1  0  0  0  0
  2  9  1  0  0  0  0
  2 19  1  0  0  0  0
  3  4  1  0  0  0  0
  3 20  1  0  0  0  0
  3 37  1  0  0  0  0
  4  5  1  0  0  0  0
  4 21  1  0  0  0  0
  4 22  1  0  0  0  0
  5  6  1  0  0  0  0
  5  7  1  0  0  0  0
  5  8  1  0  0  0  0
  6 23  1  0  0  0  0
  6 24  1  0  0  0  0
  6 25  1  0  0  0  0
  7 26  1  0  0  0  0
  7 27  1  0  0  0  0
  7 28  1  0  0  0  0
  8 29  1  0  0  0  0
  9 10  1  0  0  0  0
  9 11  1  0  0  0  0
  9 30  1  0  0  0  0
 10 31  1  0  0  0  0
 10 32  1  0  0  0  0
 10 33  1  0  0  0  0
 11 15  1  0  0  0  0
 11 12  1  0  0  0  0
 12 13  2  0  0  0  0
 12 34  1  0  0  0  0
 13 14  1  0  0  0  0
 13 35  1  0  0  0  0
 14 15  2  0  0  0  0
 14 36  1  0  0  0  0
M  CHG  1   3   1
M  END
> <s_m_source_file>
AV-unprocessed.smi

> <i_m_source_file_index>
3117

> <i_lp_mmshare_version>
43012

> <i_f3d_flags>
0

> <s_epik_input>
W0NIM11DKFtDSDNdKShbT0hdKVtDSDJdW05IXVtDQEBIXShbQ0gzXSlbQ0BIXShbQ0gzXSluMVtjSF1bY0hdW2NIXW4x

> <s_epik_cmdline>
J2VwaWtfcHl0aG9uJywgJy1waCcsICc3LjAnLCAnLXRuJywgJzgnLCAnLW1hJywgJzIwMCcsICctbWV0YWxfYmluZGluZycsICctaW1hZScsICc8aW5maWxlLm1hZT4nLCAnLW9tYWUnLCAnPG91dGZpbGUubWFlPic=

> <r_lp_tautomer_probability>
1

> <r_epik_Ionization_Penalty>
0.0164263

> <r_epik_Ionization_Penalty_Charging>
0.0164138

> <r_epik_Ionization_Penalty_Neutral>
1.24697e-05

> <r_epik_State_Penalty>
0.0129543

> <r_epik_Charging_Adjusted_Penalty>
0.0293681

> <i_epik_Tot_Q>
1

> <i_epik_Tot_abs_Q>
1

> <r_epik_Metal_State_Penalty>
0.0129806

> <b_epik_Metal_Only>
0

> <s_lp_Force_Field>
OPLS_2005

> <r_lp_Energy>
12.2787

> <b_lp_Chiralities_Consistent>
1

> <s_lp_Variant>
AV-unprocessed.smi:3117-1

> <Gold.Version>
5.8.1

> <Gold.Id.Protein>
6NUR|6NUR_protein|mol2

> <Gold.PLP.Fitness>
45.1531

> <Gold.PLP.PLP>
-34.3489

> <Gold.PLP.part.hbond>
-3.7639

> <Gold.PLP.part.metal>
0.0000

> <Gold.PLP.part.buried>
-5.4964

> <Gold.PLP.part.nonpolar>
-25.2843

> <Gold.PLP.part.repulsive>
0.1255

> <Gold.PLP.ligand.clash>
0.0000

> <Gold.PLP.ligand.torsion>
0.5651

> <Gold.PLP.Chemscore.Hbond>
3.9376

> <Gold.PLP.Chemscore.CHOScore>
0.0000

> <Gold.PLP.Chemscore.Metal>
0.0000

> <Gold.Chemscore.Hbonds>
donor molecule, donor type, donor heavy atom, donor atom, acceptor molecule, acceptor atom, score
      L1  H     3    20       P1  8028  2.00
      L1  H     8    29       P1  7957  0.78
      P1  H  7989  7998       L1     8  0.12
      P1  H  8011  8017       L1     8  1.00

> <Gold.PLP.Chemscore.Internal.Correction>
0.1218

> <Gold.Rescore>
     Score         DG    S(hbond)    S(metal)    S(lipo)     H(rot)  DE(clash)    DE(int)     intcor
     15.04     -16.87       2.39        0.00      79.02       2.27       0.02       1.81       ----

> <Gold.Chemscore.Fitness>
15.0406

> <Gold.Chemscore.DG>
-16.8746

> <Gold.Chemscore.ZeroCoef>
-5.4800

> <Gold.Chemscore.Hbond>
2.3854

> <Gold.Chemscore.Metal>
0.0000

> <Gold.Chemscore.Lipo>
79.0169

> <Gold.Chemscore.Internal_Hbond>
0.0000

> <Gold.Chemscore.DEClash>
0.0239

> <Gold.Chemscore.DEInternal>
1.8102

> <Gold.Chemscore.Rot>
2.2725

> <Gold.Chemscore.Internal.Correction>
   9.000000E+99

> <Gold.Chemscore.Hbonds>
donor molecule, donor type, donor heavy atom, donor atom, acceptor molecule, acceptor atom, score
      L1  H     3    20       P1  8028  0.95
      L1  H     8    29       P1  7957  0.77
      P1  H  7989  7998       L1     8  0.01
      P1  H  8011  8017       L1     8  0.34

> <Gold.Chemscore.Hbond.Weighted>
-7.9673

> <Gold.Chemscore.Metal.Weighted>
-0.0000

> <Gold.Chemscore.Lipo.Weighted>
-9.2450

> <Gold.Chemscore.Internal_Hbond.Weighted>
0.0000

> <Gold.Chemscore.DEClash.Weighted>
0.0239

> <Gold.Chemscore.DEInternal.Weighted>
1.8102

> <Gold.Chemscore.Rot.Weighted>
5.8176

> <Gold.Chemscore.Internal.Correction.Weighted>
   9.000000E+99

> <Gold.Protein.RotatedTorsions>
[ 6907 6896 6895 6894 ] final -148.55 input  -60.11 | X-H torsion
[ 7974 7965 7964 7962 ] final    1.56 input  175.53 | X-H torsion
[ 8008 7997 7996 7995 ] final  131.14 input   59.86 | X-H torsion
[ 10167 10162 10161 10158 ] final -126.15 input  -65.29 | X-H torsion
[ 10718 10713 10712 10709 ] final  136.31 input   66.30 | X-H torsion
[ 10763 10752 10751 10750 ] final  151.38 input  -60.55 | X-H torsion
[ 11005 11000 10999 10996 ] final  -83.12 input  -57.11 | X-H torsion

> <Gold.Protein.ActiveResidues>
 VAL166  LYS551  ARG553  GLY616  TRP617  ASP618  TYR619  PRO620  LYS621  CYS622 
 ASP623  PHE694  ASN695  SER759  ASP760  ASP761  ALA762  ILE779  LEU786  VAL792 
 PHE793  MET794  SER795  GLU796  ALA797  LYS798  CYS799  TRP800  GLU811  SER814 

> <Gold.Protein.RotatedAtoms>
  151.1715  133.4781  159.2593 H   0  0  0  0  0  0  0  0  0  0  0  0  # atno 6907 bound_to 6896
  151.1352  135.0150  159.8610 H   0  0  0  0  0  0  0  0  0  0  0  0  # atno 6908 bound_to 6896
  152.5461  134.1614  159.8612 H   0  0  0  0  0  0  0  0  0  0  0  0  # atno 6909 bound_to 6896
  146.2441  140.0969  142.8349 H   0  0  0  0  0  0  0  0  0  0  0  0  # atno 7974 bound_to 7965
  156.2965  140.2579  156.2876 H   0  0  0  0  0  0  0  0  0  0  0  0  # atno 8008 bound_to 7997
  154.9541  140.0394  157.2177 H   0  0  0  0  0  0  0  0  0  0  0  0  # atno 8009 bound_to 7997
  154.8008  140.2828  155.5927 H   0  0  0  0  0  0  0  0  0  0  0  0  # atno 8010 bound_to 7997
  139.9745  143.5809  152.2401 H   0  0  0  0  0  0  0  0  0  0  0  0  # atno 10167 bound_to 10162
  157.4480  131.1063  151.0067 H   0  0  0  0  0  0  0  0  0  0  0  0  # atno 10718 bound_to 10713
  154.1029  135.2844  155.3247 H   0  0  0  0  0  0  0  0  0  0  0  0  # atno 10763 bound_to 10752
  154.6543  135.5358  153.7943 H   0  0  0  0  0  0  0  0  0  0  0  0  # atno 10764 bound_to 10752
  153.0372  135.6518  154.1192 H   0  0  0  0  0  0  0  0  0  0  0  0  # atno 10765 bound_to 10752
  141.1659  133.7278  156.8672 H   0  0  0  0  0  0  0  0  0  0  0  0  # atno 11005 bound_to 11000
  145.0602  140.9082  143.4943 LP  0  0  0  0  0  0  0  0  0  0  0  0  # atno 17320 bound_to 7965
  145.1083  139.2774  143.5650 LP  0  0  0  0  0  0  0  0  0  0  0  0  # atno 17321 bound_to 7965
  139.6456  144.7658  151.2251 LP  0  0  0  0  0  0  0  0  0  0  0  0  # atno 17342 bound_to 10162
  140.7510  143.6245  150.8481 LP  0  0  0  0  0  0  0  0  0  0  0  0  # atno 17343 bound_to 10162
  157.0907  130.5941  149.5439 LP  0  0  0  0  0  0  0  0  0  0  0  0  # atno 17370 bound_to 10713
  155.9975  130.5047  150.7537 LP  0  0  0  0  0  0  0  0  0  0  0  0  # atno 17371 bound_to 10713
  140.1807  134.9035  157.2944 LP  0  0  0  0  0  0  0  0  0  0  0  0  # atno 17394 bound_to 11000
  140.2399  134.3808  155.7485 LP  0  0  0  0  0  0  0  0  0  0  0  0  # atno 17395 bound_to 11000

$$$$
