AV-unprocessed.smi:2305|AV-procd|sdf|9246|dock10
  -GOLD-   2272012463D 1   1.00000     0.00000
 Structure written by MMmdl.
 40 41  0  0  0  0  0  0  0  0  1 V2000
  153.5229  141.9036  160.2080 C   0  0  0  0  0  0  0  0  0  0  0  0
  152.5994  141.6915  159.0213 C   0  0  0  0  0  0  0  0  0  0  0  0
  152.1534  142.8549  158.3879 N   0  0  0  0  0  0  0  0  0  0  0  0
  151.3644  142.7716  157.3670 C   0  0  0  0  0  0  0  0  0  0  0  0
  150.9287  141.5321  156.8707 N   0  0  0  0  0  0  0  0  0  0  0  0
  150.0313  141.5748  155.7038 C   0  0  0  0  0  0  0  0  0  0  0  0
  148.5434  141.4797  156.1100 C   0  0  2  0  0  0  0  0  0  0  0  0
  148.3349  140.2371  156.7524 O   0  0  0  0  0  0  0  0  0  0  0  0
  147.6101  141.5385  154.8855 C   0  0  0  0  0  0  0  0  0  0  0  0
  146.5475  142.6161  155.0090 C   0  0  0  0  0  0  0  0  0  0  0  0
  145.8238  142.7605  156.2102 C   0  0  0  0  0  0  0  0  0  0  0  0
  144.8354  143.7568  156.3261 C   0  0  0  0  0  0  0  0  0  0  0  0
  144.5620  144.6208  155.2440 C   0  0  0  0  0  0  0  0  0  0  0  0
  143.4854  145.6878  155.3782 C   0  0  0  0  0  0  0  0  0  0  0  0
  143.4081  146.4426  154.2816 F   0  0  0  0  0  0  0  0  0  0  0  0
  142.3064  145.0998  155.5770 F   0  0  0  0  0  0  0  0  0  0  0  0
  143.7487  146.4840  156.4148 F   0  0  0  0  0  0  0  0  0  0  0  0
  145.2847  144.4698  154.0399 C   0  0  0  0  0  0  0  0  0  0  0  0
  146.2743  143.4742  153.9240 C   0  0  0  0  0  0  0  0  0  0  0  0
  151.3217  140.3486  157.4247 C   0  0  0  0  0  0  0  0  0  0  0  0
  150.9444  139.2659  156.9717 O   0  0  0  0  0  0  0  0  0  0  0  0
  152.2211  140.4591  158.5845 C   0  0  0  0  0  0  0  0  0  0  0  0
  152.6790  139.1576  159.2308 C   0  0  0  0  0  0  0  0  0  0  0  0
  153.0955  141.4630  161.1091 H   0  0  0  0  0  0  0  0  0  0  0  0
  153.6855  142.9649  160.4003 H   0  0  0  0  0  0  0  0  0  0  0  0
  154.4946  141.4454  160.0220 H   0  0  0  0  0  0  0  0  0  0  0  0
  150.9953  143.6486  156.8322 H   0  0  0  0  0  0  0  0  0  0  0  0
  150.2077  142.5148  155.1779 H   0  0  0  0  0  0  0  0  0  0  0  0
  150.2758  140.8083  154.9650 H   0  0  0  0  0  0  0  0  0  0  0  0
  148.2895  142.2909  156.7937 H   0  0  0  0  0  0  0  0  0  0  0  0
  149.1754  139.8264  156.8879 H   0  0  0  0  0  0  0  0  0  0  0  0
  148.1927  141.7638  153.9913 H   0  0  0  0  0  0  0  0  0  0  0  0
  147.1453  140.5682  154.7034 H   0  0  0  0  0  0  0  0  0  0  0  0
  146.0233  142.1050  157.0456 H   0  0  0  0  0  0  0  0  0  0  0  0
  144.2845  143.8551  157.2499 H   0  0  0  0  0  0  0  0  0  0  0  0
  145.0840  145.1143  153.1971 H   0  0  0  0  0  0  0  0  0  0  0  0
  146.8206  143.3695  152.9978 H   0  0  0  0  0  0  0  0  0  0  0  0
  153.2081  138.5422  158.5022 H   0  0  0  0  0  0  0  0  0  0  0  0
  151.8180  138.5924  159.5891 H   0  0  0  0  0  0  0  0  0  0  0  0
  153.3475  139.3097  160.0766 H   0  0  0  0  0  0  0  0  0  0  0  0
  1  2  1  0  0  0  0
  1 24  1  0  0  0  0
  1 25  1  0  0  0  0
  1 26  1  0  0  0  0
  2 22  2  0  0  0  0
  2  3  1  0  0  0  0
  3  4  2  0  0  0  0
  4  5  1  0  0  0  0
  4 27  1  0  0  0  0
  5  6  1  0  0  0  0
  5 20  1  0  0  0  0
  6  7  1  0  0  0  0
  6 28  1  0  0  0  0
  6 29  1  0  0  0  0
  7  8  1  0  0  0  0
  7  9  1  0  0  0  0
  7 30  1  0  0  0  0
  8 31  1  0  0  0  0
  9 10  1  0  0  0  0
  9 32  1  0  0  0  0
  9 33  1  0  0  0  0
 10 19  1  0  0  0  0
 10 11  2  0  0  0  0
 11 12  1  0  0  0  0
 11 34  1  0  0  0  0
 12 13  2  0  0  0  0
 12 35  1  0  0  0  0
 13 14  1  0  0  0  0
 13 18  1  0  0  0  0
 14 15  1  0  0  0  0
 14 16  1  0  0  0  0
 14 17  1  0  0  0  0
 18 19  2  0  0  0  0
 18 36  1  0  0  0  0
 19 37  1  0  0  0  0
 20 21  2  0  0  0  0
 20 22  1  0  0  0  0
 22 23  1  0  0  0  0
 23 38  1  0  0  0  0
 23 39  1  0  0  0  0
 23 40  1  0  0  0  0
M  END
> <s_m_source_file>
AV-unprocessed.smi

> <i_m_source_file_index>
2305

> <i_lp_mmshare_version>
43012

> <i_f3d_flags>
0

> <s_epik_input>
W0NIM11jMW5bY0hdbihjKD1PKWMxW0NIM10pW0NIMl1bQ0BIXShbT0hdKVtDSDJdYzJbY0hdW2NIXWMoQyhGKShGKUYpW2NIXVtjSF0y

> <s_epik_cmdline>
J2VwaWtfcHl0aG9uJywgJy1waCcsICc3LjAnLCAnLXRuJywgJzgnLCAnLW1hJywgJzIwMCcsICctbWV0YWxfYmluZGluZycsICctaW1hZScsICc8aW5maWxlLm1hZT4nLCAnLW9tYWUnLCAnPG91dGZpbGUubWFlPic=

> <r_lp_tautomer_probability>
1

> <r_epik_Ionization_Penalty>
8.92636e-05

> <r_epik_Ionization_Penalty_Charging>
8.63033e-08

> <r_epik_Ionization_Penalty_Neutral>
8.91773e-05

> <r_epik_State_Penalty>
-0

> <r_epik_Charging_Adjusted_Penalty>
8.63033e-08

> <i_epik_Tot_Q>
0

> <i_epik_Tot_abs_Q>
0

> <r_epik_Metal_State_Penalty>
-0

> <b_epik_Metal_Only>
0

> <s_lp_Force_Field>
OPLS_2005

> <r_lp_Energy>
20.2426

> <b_lp_Chiralities_Consistent>
1

> <s_lp_Variant>
AV-unprocessed.smi:2305-1

> <Gold.Version>
5.8.1

> <Gold.Id.Protein>
6NUR|6NUR_protein|mol2

> <Gold.PLP.Fitness>
44.3949

> <Gold.PLP.PLP>
-43.8629

> <Gold.PLP.part.hbond>
0.0000

> <Gold.PLP.part.metal>
0.0000

> <Gold.PLP.part.buried>
-7.0091

> <Gold.PLP.part.nonpolar>
-37.2779

> <Gold.PLP.part.repulsive>
0.0276

> <Gold.PLP.ligand.clash>
0.5985

> <Gold.PLP.ligand.torsion>
1.2740

> <Gold.PLP.Chemscore.Hbond>
0.0000

> <Gold.PLP.Chemscore.CHOScore>
1.0000

> <Gold.PLP.Chemscore.Metal>
0.0000

> <Gold.Chemscore.Hbonds>
donor molecule, donor type, donor heavy atom, donor atom, acceptor molecule, acceptor atom, score
      L1  C     4    27       P1  8028  0.77

> <Gold.PLP.Chemscore.Internal.Correction>
0.6785

> <Gold.Rescore>
     Score         DG    S(hbond)    S(metal)    S(lipo)     H(rot)  DE(clash)    DE(int)     intcor
      8.67      -9.98       0.00        0.00      90.25       2.37       0.06       1.24       ----

> <Gold.Chemscore.Fitness>
8.6746

> <Gold.Chemscore.DG>
-9.9770

> <Gold.Chemscore.ZeroCoef>
-5.4800

> <Gold.Chemscore.Hbond>
0.0000

> <Gold.Chemscore.Metal>
0.0000

> <Gold.Chemscore.Lipo>
90.2512

> <Gold.Chemscore.Internal_Hbond>
0.0000

> <Gold.Chemscore.DEClash>
0.0635

> <Gold.Chemscore.DEInternal>
1.2389

> <Gold.Chemscore.Rot>
2.3681

> <Gold.Chemscore.Internal.Correction>
   9.000000E+99

> <Gold.Chemscore.Hbond.Weighted>
-0.0000

> <Gold.Chemscore.Metal.Weighted>
-0.0000

> <Gold.Chemscore.Lipo.Weighted>
-10.5594

> <Gold.Chemscore.Internal_Hbond.Weighted>
0.0000

> <Gold.Chemscore.DEClash.Weighted>
0.0635

> <Gold.Chemscore.DEInternal.Weighted>
1.2389

> <Gold.Chemscore.Rot.Weighted>
6.0624

> <Gold.Chemscore.Internal.Correction.Weighted>
   9.000000E+99

> <Gold.Protein.RotatedTorsions>
[ 6907 6896 6895 6894 ] final  116.79 input  -60.11 | X-H torsion
[ 7974 7965 7964 7962 ] final  -74.37 input  175.53 | X-H torsion
[ 8008 7997 7996 7995 ] final   50.65 input   59.86 | X-H torsion
[ 10167 10162 10161 10158 ] final -130.86 input  -65.29 | X-H torsion
[ 10718 10713 10712 10709 ] final -169.89 input   66.30 | X-H torsion
[ 10763 10752 10751 10750 ] final  -68.62 input  -60.55 | X-H torsion
[ 11005 11000 10999 10996 ] final -139.38 input  -57.11 | X-H torsion

> <Gold.Protein.ActiveResidues>
 VAL166  LYS551  ARG553  GLY616  TRP617  ASP618  TYR619  PRO620  LYS621  CYS622 
 ASP623  PHE694  ASN695  SER759  ASP760  ASP761  ALA762  ILE779  LEU786  VAL792 
 PHE793  MET794  SER795  GLU796  ALA797  LYS798  CYS799  TRP800  GLU811  SER814 

> <Gold.Protein.RotatedAtoms>
  152.4655  133.7913  159.6903 H   0  0  0  0  0  0  0  0  0  0  0  0  # atno 6907 bound_to 6896
  150.8617  133.7624  159.2996 H   0  0  0  0  0  0  0  0  0  0  0  0  # atno 6908 bound_to 6896
  151.5187  135.1070  159.9925 H   0  0  0  0  0  0  0  0  0  0  0  0  # atno 6909 bound_to 6896
  145.6400  140.9314  143.1041 H   0  0  0  0  0  0  0  0  0  0  0  0  # atno 7974 bound_to 7965
  155.4223  140.3447  155.4272 H   0  0  0  0  0  0  0  0  0  0  0  0  # atno 8008 bound_to 7997
  156.1386  140.1535  156.8987 H   0  0  0  0  0  0  0  0  0  0  0  0  # atno 8009 bound_to 7997
  154.4952  140.0830  156.7661 H   0  0  0  0  0  0  0  0  0  0  0  0  # atno 8010 bound_to 7997
  139.9249  143.6339  152.2544 H   0  0  0  0  0  0  0  0  0  0  0  0  # atno 10167 bound_to 10162
  156.7182  130.9260  151.3095 H   0  0  0  0  0  0  0  0  0  0  0  0  # atno 10718 bound_to 10713
  154.3916  135.6051  153.5846 H   0  0  0  0  0  0  0  0  0  0  0  0  # atno 10763 bound_to 10752
  152.9787  135.5885  154.4290 H   0  0  0  0  0  0  0  0  0  0  0  0  # atno 10764 bound_to 10752
  154.4075  135.2844  155.2036 H   0  0  0  0  0  0  0  0  0  0  0  0  # atno 10765 bound_to 10752
  140.8525  134.2268  157.4752 H   0  0  0  0  0  0  0  0  0  0  0  0  # atno 11005 bound_to 11000
  144.7161  139.8192  143.7398 LP  0  0  0  0  0  0  0  0  0  0  0  0  # atno 17320 bound_to 7965
  146.1289  139.4320  143.0181 LP  0  0  0  0  0  0  0  0  0  0  0  0  # atno 17321 bound_to 7965
  139.6830  144.7654  151.1574 LP  0  0  0  0  0  0  0  0  0  0  0  0  # atno 17342 bound_to 10162
  140.7653  143.5697  150.9009 LP  0  0  0  0  0  0  0  0  0  0  0  0  # atno 17343 bound_to 10162
  157.6909  130.9232  150.0510 LP  0  0  0  0  0  0  0  0  0  0  0  0  # atno 17370 bound_to 10713
  156.1613  130.3644  149.9295 LP  0  0  0  0  0  0  0  0  0  0  0  0  # atno 17371 bound_to 10713
  139.8704  134.9690  156.4651 LP  0  0  0  0  0  0  0  0  0  0  0  0  # atno 17394 bound_to 11000
  140.8774  133.7943  155.9430 LP  0  0  0  0  0  0  0  0  0  0  0  0  # atno 17395 bound_to 11000

$$$$
