AV-unprocessed.smi:2004|AV-procd|sdf|8123|dock1
  -GOLD-   2272010353D 1   1.00000     0.00000
 Structure written by MMmdl.
 40 42  0  0  0  0  0  0  0  0  2 V2000
  146.3998  138.0456  150.9440 O   0  0  0  0  0  0  0  0  0  0  0  0
  146.0784  137.6941  152.2730 C   0  0  2  0  0  0  0  0  0  0  0  0
  146.8911  138.5806  153.2370 C   0  0  0  0  0  0  0  0  0  0  0  0
  146.9925  139.8719  152.6628 O   0  0  0  0  0  0  0  0  0  0  0  0
  147.8942  140.7406  153.3206 C   0  0  0  0  0  0  0  0  0  0  0  0
  147.1471  141.6350  154.2893 C   0  0  0  0  0  0  0  0  0  0  0  0
  146.2488  142.6052  153.7979 C   0  0  0  0  0  0  0  0  0  0  0  0
  145.5315  143.4236  154.6917 C   0  0  0  0  0  0  0  0  0  0  0  0
  145.7114  143.2762  156.0806 C   0  0  0  0  0  0  0  0  0  0  0  0
  146.6114  142.3123  156.5751 C   0  0  0  0  0  0  0  0  0  0  0  0
  147.3302  141.4944  155.6813 C   0  0  0  0  0  0  0  0  0  0  0  0
  146.2942  136.1694  152.4434 C   0  0  0  0  0  0  0  0  0  0  0  0
  145.3045  135.3394  151.7412 N   0  0  0  0  0  0  0  0  0  0  0  0
  144.1588  135.7015  151.1019 C   0  0  0  0  0  0  0  0  0  0  0  0
  143.6125  134.5753  150.5656 N   0  3  0  0  0  0  0  0  0  0  0  0
  144.4173  133.4760  150.8709 C   0  0  0  0  0  0  0  0  0  0  0  0
  144.2876  132.1317  150.5371 C   0  0  0  0  0  0  0  0  0  0  0  0
  145.2956  131.2641  151.0059 C   0  0  0  0  0  0  0  0  0  0  0  0
  146.3741  131.7407  151.7796 C   0  0  0  0  0  0  0  0  0  0  0  0
  146.4936  133.1056  152.1150 C   0  0  0  0  0  0  0  0  0  0  0  0
  145.4980  133.9574  151.6398 C   0  0  0  0  0  0  0  0  0  0  0  0
  145.6604  138.4938  150.5630 H   0  0  0  0  0  0  0  0  0  0  0  0
  145.0215  137.9258  152.4075 H   0  0  0  0  0  0  0  0  0  0  0  0
  146.4119  138.6135  154.2168 H   0  0  0  0  0  0  0  0  0  0  0  0
  147.8983  138.1843  153.3748 H   0  0  0  0  0  0  0  0  0  0  0  0
  148.6430  140.1623  153.8643 H   0  0  0  0  0  0  0  0  0  0  0  0
  148.4210  141.3547  152.5888 H   0  0  0  0  0  0  0  0  0  0  0  0
  146.1028  142.7183  152.7336 H   0  0  0  0  0  0  0  0  0  0  0  0
  144.8428  144.1637  154.3118 H   0  0  0  0  0  0  0  0  0  0  0  0
  145.1611  143.9035  156.7662 H   0  0  0  0  0  0  0  0  0  0  0  0
  146.7501  142.2006  157.6404 H   0  0  0  0  0  0  0  0  0  0  0  0
  148.0144  140.7544  156.0695 H   0  0  0  0  0  0  0  0  0  0  0  0
  147.2917  135.8746  152.1153 H   0  0  0  0  0  0  0  0  0  0  0  0
  146.2241  135.9027  153.4992 H   0  0  0  0  0  0  0  0  0  0  0  0
  143.7647  136.7039  151.0182 H   0  0  0  0  0  0  0  0  0  0  0  0
  143.4636  131.7646  149.9429 H   0  0  0  0  0  0  0  0  0  0  0  0
  145.2403  130.2119  150.7668 H   0  0  0  0  0  0  0  0  0  0  0  0
  147.1271  131.0454  152.1210 H   0  0  0  0  0  0  0  0  0  0  0  0
  147.3250  133.4625  152.7043 H   0  0  0  0  0  0  0  0  0  0  0  0
  142.7567  134.5614  150.0261 H   0  0  0  0  0  0  0  0  0  0  0  0
  1  2  1  0  0  0  0
  1 22  1  0  0  0  0
  2  3  1  0  0  0  0
  2 12  1  0  0  0  0
  2 23  1  0  0  0  0
  3  4  1  0  0  0  0
  3 24  1  0  0  0  0
  3 25  1  0  0  0  0
  4  5  1  0  0  0  0
  5  6  1  0  0  0  0
  5 26  1  0  0  0  0
  5 27  1  0  0  0  0
  6 11  1  0  0  0  0
  6  7  2  0  0  0  0
  7  8  1  0  0  0  0
  7 28  1  0  0  0  0
  8  9  2  0  0  0  0
  8 29  1  0  0  0  0
  9 10  1  0  0  0  0
  9 30  1  0  0  0  0
 10 11  2  0  0  0  0
 10 31  1  0  0  0  0
 11 32  1  0  0  0  0
 12 13  1  0  0  0  0
 12 33  1  0  0  0  0
 12 34  1  0  0  0  0
 13 21  1  0  0  0  0
 13 14  1  0  0  0  0
 14 15  2  0  0  0  0
 14 35  1  0  0  0  0
 15 16  1  0  0  0  0
 15 40  1  0  0  0  0
 16 21  2  0  0  0  0
 16 17  1  0  0  0  0
 17 18  2  0  0  0  0
 17 36  1  0  0  0  0
 18 19  1  0  0  0  0
 18 37  1  0  0  0  0
 19 20  2  0  0  0  0
 19 38  1  0  0  0  0
 20 21  1  0  0  0  0
 20 39  1  0  0  0  0
M  CHG  1  15   1
M  END
> <s_m_source_file>
AV-unprocessed.smi

> <i_m_source_file_index>
2004

> <i_lp_mmshare_version>
43012

> <i_f3d_flags>
0

> <s_epik_input>
W2NIXTFbY0hdW2NIXVtjSF1jKGMxMiluKFtjSF1uMilbQ0gyXVtDQEhdKFtPSF0pW0NIMl1PW0NIMl1jM1tjSF1bY0hdW2NIXVtjSF1bY0hdMw==

> <s_epik_cmdline>
J2VwaWtfcHl0aG9uJywgJy1waCcsICc3LjAnLCAnLXRuJywgJzgnLCAnLW1hJywgJzIwMCcsICctbWV0YWxfYmluZGluZycsICctaW1hZScsICc8aW5maWxlLm1hZT4nLCAnLW9tYWUnLCAnPG91dGZpbGUubWFlPic=

> <r_epik_Ionization_Penalty>
1.28975

> <r_epik_Ionization_Penalty_Charging>
1.28975

> <r_epik_Ionization_Penalty_Neutral>
1.07667e-06

> <r_epik_State_Penalty>
1.36276

> <r_epik_Charging_Adjusted_Penalty>
2.65251

> <i_epik_Tot_Q>
1

> <i_epik_Tot_abs_Q>
1

> <r_epik_Metal_State_Penalty>
5.39298

> <b_epik_Metal_Only>
0

> <s_lp_Force_Field>
OPLS_2005

> <r_lp_Energy>
17.8954

> <b_lp_Chiralities_Consistent>
1

> <s_lp_Variant>
AV-unprocessed.smi:2004-3

> <Gold.Version>
5.8.1

> <Gold.Id.Protein>
6NUR|6NUR_protein|mol2

> <Gold.PLP.Fitness>
54.0465

> <Gold.PLP.PLP>
-40.3305

> <Gold.PLP.part.hbond>
-3.6469

> <Gold.PLP.part.metal>
0.0000

> <Gold.PLP.part.buried>
-3.9477

> <Gold.PLP.part.nonpolar>
-34.7655

> <Gold.PLP.part.repulsive>
0.7076

> <Gold.PLP.ligand.clash>
0.0000

> <Gold.PLP.ligand.torsion>
0.7196

> <Gold.PLP.Chemscore.Hbond>
3.9840

> <Gold.PLP.Chemscore.CHOScore>
1.0000

> <Gold.PLP.Chemscore.Metal>
0.0000

> <Gold.Chemscore.Hbonds>
donor molecule, donor type, donor heavy atom, donor atom, acceptor molecule, acceptor atom, score
      L1  H     1    22       P1 10171  1.00
      L1  H    15    40       P1 10186  2.00
      P1  H  7954  7966       L1     1  0.93
      L1  C    14    35       P1 10171  1.00

> <Gold.PLP.Chemscore.Internal.Correction>
0.2033

> <Gold.Rescore>
     Score         DG    S(hbond)    S(metal)    S(lipo)     H(rot)  DE(clash)    DE(int)     intcor
     17.28     -18.90       2.62        0.00      92.89       2.43       0.98       0.63       ----

> <Gold.Chemscore.Fitness>
17.2790

> <Gold.Chemscore.DG>
-18.8982

> <Gold.Chemscore.ZeroCoef>
-5.4800

> <Gold.Chemscore.Hbond>
2.6235

> <Gold.Chemscore.Metal>
0.0000

> <Gold.Chemscore.Lipo>
92.8932

> <Gold.Chemscore.Internal_Hbond>
0.0000

> <Gold.Chemscore.DEClash>
0.9843

> <Gold.Chemscore.DEInternal>
0.6348

> <Gold.Chemscore.Rot>
2.4269

> <Gold.Chemscore.Internal.Correction>
   9.000000E+99

> <Gold.Chemscore.Hbonds>
donor molecule, donor type, donor heavy atom, donor atom, acceptor molecule, acceptor atom, score
      L1  H     1    22       P1 10171  0.98
      L1  H    15    40       P1 10186  0.78
      P1  H  7954  7966       L1     1  0.85

> <Gold.Chemscore.Hbond.Weighted>
-8.7624

> <Gold.Chemscore.Metal.Weighted>
-0.0000

> <Gold.Chemscore.Lipo.Weighted>
-10.8685

> <Gold.Chemscore.Internal_Hbond.Weighted>
0.0000

> <Gold.Chemscore.DEClash.Weighted>
0.9843

> <Gold.Chemscore.DEInternal.Weighted>
0.6348

> <Gold.Chemscore.Rot.Weighted>
6.2127

> <Gold.Chemscore.Internal.Correction.Weighted>
   9.000000E+99

> <Gold.Protein.RotatedTorsions>
[ 6907 6896 6895 6894 ] final -143.24 input  -60.11 | X-H torsion
[ 7974 7965 7964 7962 ] final  118.89 input  175.53 | X-H torsion
[ 8008 7997 7996 7995 ] final   21.60 input   59.86 | X-H torsion
[ 10167 10162 10161 10158 ] final  147.27 input  -65.29 | X-H torsion
[ 10718 10713 10712 10709 ] final -140.55 input   66.30 | X-H torsion
[ 10763 10752 10751 10750 ] final  -26.62 input  -60.55 | X-H torsion
[ 11005 11000 10999 10996 ] final  144.93 input  -57.11 | X-H torsion

> <Gold.Protein.ActiveResidues>
 VAL166  LYS551  ARG553  GLY616  TRP617  ASP618  TYR619  PRO620  LYS621  CYS622 
 ASP623  PHE694  ASN695  SER759  ASP760  ASP761  ALA762  ILE779  LEU786  VAL792 
 PHE793  MET794  SER795  GLU796  ALA797  LYS798  CYS799  TRP800  GLU811  SER814 

> <Gold.Protein.RotatedAtoms>
  151.0979  133.5266  159.2611 H   0  0  0  0  0  0  0  0  0  0  0  0  # atno 6907 bound_to 6896
  151.2108  135.0480  159.8920 H   0  0  0  0  0  0  0  0  0  0  0  0  # atno 6908 bound_to 6896
  152.5440  134.0795  159.8282 H   0  0  0  0  0  0  0  0  0  0  0  0  # atno 6909 bound_to 6896
  145.1497  139.3218  143.4573 H   0  0  0  0  0  0  0  0  0  0  0  0  # atno 7974 bound_to 7965
  154.9530  140.3068  155.5066 H   0  0  0  0  0  0  0  0  0  0  0  0  # atno 8008 bound_to 7997
  156.2985  140.2315  156.4547 H   0  0  0  0  0  0  0  0  0  0  0  0  # atno 8009 bound_to 7997
  154.8036  140.0432  157.1280 H   0  0  0  0  0  0  0  0  0  0  0  0  # atno 8010 bound_to 7997
  139.4893  144.5768  151.6950 H   0  0  0  0  0  0  0  0  0  0  0  0  # atno 10167 bound_to 10162
  156.3236  130.7548  151.1651 H   0  0  0  0  0  0  0  0  0  0  0  0  # atno 10718 bound_to 10713
  153.7189  135.6946  153.5018 H   0  0  0  0  0  0  0  0  0  0  0  0  # atno 10763 bound_to 10752
  153.2218  135.4367  155.0497 H   0  0  0  0  0  0  0  0  0  0  0  0  # atno 10764 bound_to 10752
  154.8291  135.3462  154.6723 H   0  0  0  0  0  0  0  0  0  0  0  0  # atno 10765 bound_to 10752
  140.0671  134.9172  157.1283 H   0  0  0  0  0  0  0  0  0  0  0  0  # atno 11005 bound_to 11000
  146.3496  140.1566  142.8591 LP  0  0  0  0  0  0  0  0  0  0  0  0  # atno 17320 bound_to 7965
  145.0444  140.8970  143.5033 LP  0  0  0  0  0  0  0  0  0  0  0  0  # atno 17321 bound_to 7965
  140.5366  144.0647  150.6072 LP  0  0  0  0  0  0  0  0  0  0  0  0  # atno 17342 bound_to 10162
  140.3655  143.2884  152.0337 LP  0  0  0  0  0  0  0  0  0  0  0  0  # atno 17343 bound_to 10162
  157.7417  131.0500  150.5080 LP  0  0  0  0  0  0  0  0  0  0  0  0  # atno 17370 bound_to 10713
  156.5236  130.4168  149.6238 LP  0  0  0  0  0  0  0  0  0  0  0  0  # atno 17371 bound_to 10713
  140.3682  134.2419  155.7180 LP  0  0  0  0  0  0  0  0  0  0  0  0  # atno 17394 bound_to 11000
  141.1997  133.8005  157.0524 LP  0  0  0  0  0  0  0  0  0  0  0  0  # atno 17395 bound_to 11000

$$$$
