AV-unprocessed.smi:2963|AV-procd|sdf|11320|dock9
  -GOLD-   2272016223D 1   1.00000     0.00000
 Structure written by MMmdl.
 42 44  0  0  0  0  0  0  0  0  2 V2000
  145.5112  143.7533  153.5220 C   0  0  0  0  0  0  0  0  0  0  0  0
  145.4696  142.9202  154.6698 O   0  0  0  0  0  0  0  0  0  0  0  0
  146.1506  141.6841  154.5134 C   0  0  0  0  0  0  0  0  0  0  0  0
  147.5492  141.8765  153.9022 C   0  0  0  0  0  0  0  0  0  0  0  0
  148.2587  140.5990  153.7565 N   0  0  0  0  0  0  0  0  0  0  0  0
  147.9998  139.5268  152.9567 C   0  0  0  0  0  0  0  0  0  0  0  0
  146.6662  139.3759  151.8116 S   0  0  0  0  0  0  0  0  0  0  0  0
  146.3832  137.5900  151.6167 C   0  0  0  0  0  0  0  0  0  0  0  0
  145.3646  136.9940  152.6035 C   0  0  0  0  0  0  0  0  0  0  0  0
  144.9688  137.6946  153.5385 O   0  0  0  0  0  0  0  0  0  0  0  0
  144.9478  135.7175  152.3864 N   0  0  0  0  0  0  0  0  0  0  0  0
  145.4288  134.8885  151.2796 C   0  0  0  0  0  0  0  0  0  0  0  0
  144.6845  133.5679  151.4456 C   0  0  0  0  0  0  0  0  0  0  0  0
  143.8867  133.8176  152.6202 N   0  0  0  0  0  0  0  0  0  0  0  0
  144.0494  135.0372  153.1384 C   0  0  0  0  0  0  0  0  0  0  0  0
  143.4534  135.4340  154.1402 O   0  0  0  0  0  0  0  0  0  0  0  0
  148.9634  138.5933  153.1932 N   0  3  0  0  0  0  0  0  0  0  0  0
  149.8558  139.0770  154.1516 C   0  0  0  0  0  0  0  0  0  0  0  0
  150.9931  138.5026  154.7110 C   0  0  0  0  0  0  0  0  0  0  0  0
  151.6867  139.2735  155.6671 C   0  0  0  0  0  0  0  0  0  0  0  0
  151.2438  140.5610  156.0343 C   0  0  0  0  0  0  0  0  0  0  0  0
  150.0887  141.1333  155.4616 C   0  0  0  0  0  0  0  0  0  0  0  0
  149.4093  140.3647  154.5172 C   0  0  0  0  0  0  0  0  0  0  0  0
  144.9209  144.6510  153.7052 H   0  0  0  0  0  0  0  0  0  0  0  0
  145.0896  143.2486  152.6516 H   0  0  0  0  0  0  0  0  0  0  0  0
  146.5272  144.0691  153.2864 H   0  0  0  0  0  0  0  0  0  0  0  0
  146.2549  141.2451  155.5063 H   0  0  0  0  0  0  0  0  0  0  0  0
  145.5524  140.9841  153.9280 H   0  0  0  0  0  0  0  0  0  0  0  0
  147.5059  142.3609  152.9268 H   0  0  0  0  0  0  0  0  0  0  0  0
  148.1511  142.5222  154.5421 H   0  0  0  0  0  0  0  0  0  0  0  0
  146.0365  137.4120  150.5984 H   0  0  0  0  0  0  0  0  0  0  0  0
  147.3424  137.0857  151.7334 H   0  0  0  0  0  0  0  0  0  0  0  0
  145.1988  135.3445  150.3155 H   0  0  0  0  0  0  0  0  0  0  0  0
  146.5070  134.7340  151.3444 H   0  0  0  0  0  0  0  0  0  0  0  0
  144.0472  133.3441  150.5893 H   0  0  0  0  0  0  0  0  0  0  0  0
  145.3633  132.7310  151.6136 H   0  0  0  0  0  0  0  0  0  0  0  0
  143.2628  133.1236  153.0064 H   0  0  0  0  0  0  0  0  0  0  0  0
  151.3366  137.5173  154.4315 H   0  0  0  0  0  0  0  0  0  0  0  0
  152.5768  138.8694  156.1275 H   0  0  0  0  0  0  0  0  0  0  0  0
  151.8022  141.1221  156.7695 H   0  0  0  0  0  0  0  0  0  0  0  0
  149.7589  142.1215  155.7473 H   0  0  0  0  0  0  0  0  0  0  0  0
  149.0076  137.6959  152.7284 H   0  0  0  0  0  0  0  0  0  0  0  0
  1  2  1  0  0  0  0
  1 24  1  0  0  0  0
  1 25  1  0  0  0  0
  1 26  1  0  0  0  0
  2  3  1  0  0  0  0
  3  4  1  0  0  0  0
  3 27  1  0  0  0  0
  3 28  1  0  0  0  0
  4  5  1  0  0  0  0
  4 29  1  0  0  0  0
  4 30  1  0  0  0  0
  5 23  1  0  0  0  0
  5  6  1  0  0  0  0
  6  7  1  0  0  0  0
  6 17  2  0  0  0  0
  7  8  1  0  0  0  0
  8  9  1  0  0  0  0
  8 31  1  0  0  0  0
  8 32  1  0  0  0  0
  9 10  2  0  0  0  0
  9 11  1  0  0  0  0
 11 15  1  0  0  0  0
 11 12  1  0  0  0  0
 12 13  1  0  0  0  0
 12 33  1  0  0  0  0
 12 34  1  0  0  0  0
 13 14  1  0  0  0  0
 13 35  1  0  0  0  0
 13 36  1  0  0  0  0
 14 15  1  0  0  0  0
 14 37  1  0  0  0  0
 15 16  2  0  0  0  0
 17 18  1  0  0  0  0
 17 42  1  0  0  0  0
 18 23  2  0  0  0  0
 18 19  1  0  0  0  0
 19 20  2  0  0  0  0
 19 38  1  0  0  0  0
 20 21  1  0  0  0  0
 20 39  1  0  0  0  0
 21 22  2  0  0  0  0
 21 40  1  0  0  0  0
 22 23  1  0  0  0  0
 22 41  1  0  0  0  0
M  CHG  1  17   1
M  END
> <s_m_source_file>
AV-unprocessed.smi

> <i_m_source_file_index>
2963

> <i_lp_mmshare_version>
43012

> <i_f3d_flags>
0

> <s_epik_input>
W2NIXTFbY0hdW2NIXVtjSF1jKGMxMiluKFtDSDJdW0NIMl1PW0NIM10pYyhuMilTW0NIMl1DKD1PKU4zW0NIMl1bQ0gyXVtOSF1DMz1P

> <s_epik_cmdline>
J2VwaWtfcHl0aG9uJywgJy1waCcsICc3LjAnLCAnLXRuJywgJzgnLCAnLW1hJywgJzIwMCcsICctbWV0YWxfYmluZGluZycsICctaW1hZScsICc8aW5maWxlLm1hZT4nLCAnLW9tYWUnLCAnPG91dGZpbGUubWFlPic=

> <r_lp_tautomer_probability>
0.9999

> <r_epik_Ionization_Penalty>
1.70838

> <r_epik_Ionization_Penalty_Charging>
1.70836

> <r_epik_Ionization_Penalty_Neutral>
2.53969e-05

> <r_epik_State_Penalty>
1.81492

> <r_epik_Charging_Adjusted_Penalty>
3.52327

> <i_epik_Tot_Q>
1

> <i_epik_Tot_abs_Q>
1

> <r_epik_Metal_State_Penalty>
1.84772

> <b_epik_Metal_Only>
0

> <s_lp_Force_Field>
OPLS_2005

> <r_lp_Energy>
48.5569

> <b_lp_Chiralities_Consistent>
1

> <s_lp_Variant>
AV-unprocessed.smi:2963-2

> <Gold.Version>
5.8.1

> <Gold.Id.Protein>
6NUR|6NUR_protein|mol2

> <Gold.PLP.Fitness>
50.0204

> <Gold.PLP.PLP>
-42.3941

> <Gold.PLP.part.hbond>
-3.0000

> <Gold.PLP.part.metal>
0.0000

> <Gold.PLP.part.buried>
3.7899

> <Gold.PLP.part.nonpolar>
-43.4046

> <Gold.PLP.part.repulsive>
0.4829

> <Gold.PLP.ligand.clash>
0.0000

> <Gold.PLP.ligand.torsion>
0.7101

> <Gold.PLP.Chemscore.Hbond>
3.0000

> <Gold.PLP.Chemscore.CHOScore>
0.0000

> <Gold.PLP.Chemscore.Metal>
0.0000

> <Gold.Chemscore.Hbonds>
donor molecule, donor type, donor heavy atom, donor atom, acceptor molecule, acceptor atom, score
      L1  H    14    37       P1 10957  0.31
      L1  H    17    42       P1  7948  2.00

> <Gold.PLP.Chemscore.Internal.Correction>
0.0465

> <Gold.Rescore>
     Score         DG    S(hbond)    S(metal)    S(lipo)     H(rot)  DE(clash)    DE(int)     intcor
     11.74     -16.08       1.95        0.00      87.32       2.39       2.24       2.10       ----

> <Gold.Chemscore.Fitness>
11.7363

> <Gold.Chemscore.DG>
-16.0796

> <Gold.Chemscore.ZeroCoef>
-5.4800

> <Gold.Chemscore.Hbond>
1.9491

> <Gold.Chemscore.Metal>
0.0000

> <Gold.Chemscore.Lipo>
87.3215

> <Gold.Chemscore.Internal_Hbond>
0.0000

> <Gold.Chemscore.DEClash>
2.2417

> <Gold.Chemscore.DEInternal>
2.1016

> <Gold.Chemscore.Rot>
2.3933

> <Gold.Chemscore.Internal.Correction>
   9.000000E+99

> <Gold.Chemscore.Hbonds>
donor molecule, donor type, donor heavy atom, donor atom, acceptor molecule, acceptor atom, score
      L1  H    14    37       P1 10957  0.19
      L1  H    17    42       P1  7948  1.00

> <Gold.Chemscore.Hbond.Weighted>
-6.5099

> <Gold.Chemscore.Metal.Weighted>
-0.0000

> <Gold.Chemscore.Lipo.Weighted>
-10.2166

> <Gold.Chemscore.Internal_Hbond.Weighted>
0.0000

> <Gold.Chemscore.DEClash.Weighted>
2.2417

> <Gold.Chemscore.DEInternal.Weighted>
2.1016

> <Gold.Chemscore.Rot.Weighted>
6.1270

> <Gold.Chemscore.Internal.Correction.Weighted>
   9.000000E+99

> <Gold.Protein.RotatedTorsions>
[ 6907 6896 6895 6894 ] final  -61.31 input  -60.11 | X-H torsion
[ 7974 7965 7964 7962 ] final -130.84 input  175.53 | X-H torsion
[ 8008 7997 7996 7995 ] final   -1.00 input   59.86 | X-H torsion
[ 10167 10162 10161 10158 ] final -110.70 input  -65.29 | X-H torsion
[ 10718 10713 10712 10709 ] final  -81.72 input   66.30 | X-H torsion
[ 10763 10752 10751 10750 ] final  -41.46 input  -60.55 | X-H torsion
[ 11005 11000 10999 10996 ] final  171.13 input  -57.11 | X-H torsion

> <Gold.Protein.ActiveResidues>
 VAL166  LYS551  ARG553  GLY616  TRP617  ASP618  TYR619  PRO620  LYS621  CYS622 
 ASP623  PHE694  ASN695  SER759  ASP760  ASP761  ALA762  ILE779  LEU786  VAL792 
 PHE793  MET794  SER795  GLU796  ALA797  LYS798  CYS799  TRP800  GLU811  SER814 

> <Gold.Protein.RotatedAtoms>
  150.7793  134.6721  159.6396 H   0  0  0  0  0  0  0  0  0  0  0  0  # atno 6907 bound_to 6896
  152.3873  134.6494  160.0130 H   0  0  0  0  0  0  0  0  0  0  0  0  # atno 6908 bound_to 6896
  151.6805  133.3275  159.3254 H   0  0  0  0  0  0  0  0  0  0  0  0  # atno 6909 bound_to 6896
  144.9436  140.7266  143.4831 H   0  0  0  0  0  0  0  0  0  0  0  0  # atno 7974 bound_to 7965
  154.6517  140.2570  155.7206 H   0  0  0  0  0  0  0  0  0  0  0  0  # atno 8008 bound_to 7997
  156.2578  140.2866  156.0874 H   0  0  0  0  0  0  0  0  0  0  0  0  # atno 8009 bound_to 7997
  155.1441  140.0381  157.2796 H   0  0  0  0  0  0  0  0  0  0  0  0  # atno 8010 bound_to 7997
  140.1417  143.4274  152.1558 H   0  0  0  0  0  0  0  0  0  0  0  0  # atno 10167 bound_to 10162
  156.0045  130.4612  150.3996 H   0  0  0  0  0  0  0  0  0  0  0  0  # atno 10718 bound_to 10713
  153.9628  135.6737  153.4745 H   0  0  0  0  0  0  0  0  0  0  0  0  # atno 10763 bound_to 10752
  153.0830  135.4913  154.8537 H   0  0  0  0  0  0  0  0  0  0  0  0  # atno 10764 bound_to 10752
  154.7263  135.3128  154.8926 H   0  0  0  0  0  0  0  0  0  0  0  0  # atno 10765 bound_to 10752
  140.3158  134.7479  157.4026 H   0  0  0  0  0  0  0  0  0  0  0  0  # atno 11005 bound_to 11000
  145.2953  139.1869  143.4718 LP  0  0  0  0  0  0  0  0  0  0  0  0  # atno 17320 bound_to 7965
  146.3295  140.2936  142.8616 LP  0  0  0  0  0  0  0  0  0  0  0  0  # atno 17321 bound_to 7965
  139.5469  144.7306  151.4556 LP  0  0  0  0  0  0  0  0  0  0  0  0  # atno 17342 bound_to 10162
  140.6757  143.8196  150.7055 LP  0  0  0  0  0  0  0  0  0  0  0  0  # atno 17343 bound_to 10162
  157.2066  131.0450  151.2622 LP  0  0  0  0  0  0  0  0  0  0  0  0  # atno 17370 bound_to 10713
  157.3927  130.7291  149.6709 LP  0  0  0  0  0  0  0  0  0  0  0  0  # atno 17371 bound_to 10713
  140.0985  134.5504  155.8375 LP  0  0  0  0  0  0  0  0  0  0  0  0  # atno 17394 bound_to 11000
  141.2098  133.6688  156.6464 LP  0  0  0  0  0  0  0  0  0  0  0  0  # atno 17395 bound_to 11000

$$$$
