AV-unprocessed.smi:3206|AV-procd|sdf|12256|dock1
  -GOLD-   2272018 93D 1   1.00000     0.00000
 Structure written by MMmdl.
 42 43  0  0  0  0  0  0  0  0  2 V2000
  143.2357  133.6185  151.9505 C   0  0  0  0  0  0  0  0  0  0  0  0
  143.8858  134.9812  151.6708 C   0  0  2  0  0  0  0  0  0  0  0  0
  145.3626  134.8296  151.2613 C   0  0  0  0  0  0  0  0  0  0  0  0
  146.0168  136.1940  150.9885 C   0  0  0  0  0  0  0  0  0  0  0  0
  145.9029  137.1356  152.2035 C   0  0  1  0  0  0  0  0  0  0  0  0
  146.5640  138.4949  151.9093 C   0  0  0  0  0  0  0  0  0  0  0  0
  147.9567  138.5385  152.3966 N   0  3  0  0  0  0  0  0  0  0  0  0
  148.1041  139.0964  153.7562 C   0  0  0  0  0  0  0  0  0  0  0  0
  149.5812  139.2691  154.1424 C   0  0  0  0  0  0  0  0  0  0  0  0
  150.1186  138.1274  154.9511 C   0  0  0  0  0  0  0  0  0  0  0  0
  149.3904  137.0933  155.3596 N   0  0  0  0  0  0  0  0  0  0  0  0
  150.3432  136.3649  156.0113 C   0  0  0  0  0  0  0  0  0  0  0  0
  151.5700  136.8799  156.0058 N   0  0  0  0  0  0  0  0  0  0  0  0
  151.4062  138.0274  155.3085 N   0  0  0  0  0  0  0  0  0  0  0  0
  152.5326  138.9075  155.0629 C   0  0  0  0  0  0  0  0  0  0  0  0
  144.4210  137.2868  152.6088 C   0  0  0  0  0  0  0  0  0  0  0  0
  143.7635  135.9241  152.8822 C   0  0  0  0  0  0  0  0  0  0  0  0
  143.7261  133.1075  152.7797 H   0  0  0  0  0  0  0  0  0  0  0  0
  143.2943  132.9681  151.0772 H   0  0  0  0  0  0  0  0  0  0  0  0
  142.1819  133.7313  152.2056 H   0  0  0  0  0  0  0  0  0  0  0  0
  143.3500  135.4347  150.8354 H   0  0  0  0  0  0  0  0  0  0  0  0
  145.9132  134.3140  152.0495 H   0  0  0  0  0  0  0  0  0  0  0  0
  145.4404  134.2036  150.3716 H   0  0  0  0  0  0  0  0  0  0  0  0
  147.0654  136.0458  150.7276 H   0  0  0  0  0  0  0  0  0  0  0  0
  145.5459  136.6547  150.1188 H   0  0  0  0  0  0  0  0  0  0  0  0
  146.4403  136.6708  153.0320 H   0  0  0  0  0  0  0  0  0  0  0  0
  146.5731  138.6769  150.8337 H   0  0  0  0  0  0  0  0  0  0  0  0
  145.9890  139.3025  152.3646 H   0  0  0  0  0  0  0  0  0  0  0  0
  148.3275  137.5989  152.3930 H   0  0  0  0  0  0  0  0  0  0  0  0
  147.5889  140.0563  153.8153 H   0  0  0  0  0  0  0  0  0  0  0  0
  147.6169  138.4271  154.4660 H   0  0  0  0  0  0  0  0  0  0  0  0
  150.1854  139.3862  153.2424 H   0  0  0  0  0  0  0  0  0  0  0  0
  149.7109  140.1904  154.7118 H   0  0  0  0  0  0  0  0  0  0  0  0
  150.1270  135.4253  156.4980 H   0  0  0  0  0  0  0  0  0  0  0  0
  152.6174  139.1086  153.9948 H   0  0  0  0  0  0  0  0  0  0  0  0
  153.4605  138.4497  155.4089 H   0  0  0  0  0  0  0  0  0  0  0  0
  152.3846  139.8483  155.5934 H   0  0  0  0  0  0  0  0  0  0  0  0
  144.3326  137.9096  153.4994 H   0  0  0  0  0  0  0  0  0  0  0  0
  143.8723  137.8008  151.8183 H   0  0  0  0  0  0  0  0  0  0  0  0
  142.7128  136.0705  153.1354 H   0  0  0  0  0  0  0  0  0  0  0  0
  144.2291  135.4655  153.7559 H   0  0  0  0  0  0  0  0  0  0  0  0
  148.5028  139.1004  151.7586 H   0  0  0  0  0  0  0  0  0  0  0  0
  1  2  1  0  0  0  0
  1 18  1  0  0  0  0
  1 19  1  0  0  0  0
  1 20  1  0  0  0  0
  2 17  1  0  0  0  0
  2  3  1  0  0  0  0
  2 21  1  0  0  0  0
  3  4  1  0  0  0  0
  3 22  1  0  0  0  0
  3 23  1  0  0  0  0
  4  5  1  0  0  0  0
  4 24  1  0  0  0  0
  4 25  1  0  0  0  0
  5  6  1  0  0  0  0
  5 16  1  0  0  0  0
  5 26  1  0  0  0  0
  6  7  1  0  0  0  0
  6 27  1  0  0  0  0
  6 28  1  0  0  0  0
  7  8  1  0  0  0  0
  7 29  1  0  0  0  0
  7 42  1  0  0  0  0
  8  9  1  0  0  0  0
  8 30  1  0  0  0  0
  8 31  1  0  0  0  0
  9 10  1  0  0  0  0
  9 32  1  0  0  0  0
  9 33  1  0  0  0  0
 10 14  1  0  0  0  0
 10 11  2  0  0  0  0
 11 12  1  0  0  0  0
 12 13  2  0  0  0  0
 12 34  1  0  0  0  0
 13 14  1  0  0  0  0
 14 15  1  0  0  0  0
 15 35  1  0  0  0  0
 15 36  1  0  0  0  0
 15 37  1  0  0  0  0
 16 17  1  0  0  0  0
 16 38  1  0  0  0  0
 16 39  1  0  0  0  0
 17 40  1  0  0  0  0
 17 41  1  0  0  0  0
M  CHG  1   7   1
M  END
> <s_m_source_file>
AV-unprocessed.smi

> <i_m_source_file_index>
3206

> <i_lp_mmshare_version>
43012

> <i_f3d_flags>
0

> <s_epik_input>
W0NIM11bQ0BASF0xW0NIMl1bQ0gyXVtDQEhdKFtDSDJdW0NIMl0xKVtDSDJdW05IXVtDSDJdW0NIMl1jMm5bY0hdbm4yW0NIM10=

> <s_epik_cmdline>
J2VwaWtfcHl0aG9uJywgJy1waCcsICc3LjAnLCAnLXRuJywgJzgnLCAnLW1hJywgJzIwMCcsICctbWV0YWxfYmluZGluZycsICctaW1hZScsICc8aW5maWxlLm1hZT4nLCAnLW9tYWUnLCAnPG91dGZpbGUubWFlPic=

> <r_lp_tautomer_probability>
1

> <r_epik_Ionization_Penalty>
0.00114491

> <r_epik_Ionization_Penalty_Charging>
0.00114083

> <r_epik_Ionization_Penalty_Neutral>
4.0852e-06

> <r_epik_State_Penalty>
-0

> <r_epik_Charging_Adjusted_Penalty>
0.00114083

> <i_epik_Tot_Q>
1

> <i_epik_Tot_abs_Q>
1

> <r_epik_Metal_State_Penalty>
-0

> <b_epik_Metal_Only>
0

> <s_lp_Force_Field>
OPLS_2005

> <r_lp_Energy>
13.9676

> <b_lp_Chiralities_Consistent>
1

> <s_lp_Variant>
AV-unprocessed.smi:3206-1

> <Gold.Version>
5.8.1

> <Gold.Id.Protein>
6NUR|6NUR_protein|mol2

> <Gold.PLP.Fitness>
45.1533

> <Gold.PLP.PLP>
-35.1260

> <Gold.PLP.part.hbond>
-3.0000

> <Gold.PLP.part.metal>
0.0000

> <Gold.PLP.part.buried>
-1.5261

> <Gold.PLP.part.nonpolar>
-31.1904

> <Gold.PLP.part.repulsive>
0.2995

> <Gold.PLP.ligand.clash>
0.0000

> <Gold.PLP.ligand.torsion>
1.0028

> <Gold.PLP.Chemscore.Hbond>
4.0000

> <Gold.PLP.Chemscore.CHOScore>
0.0000

> <Gold.PLP.Chemscore.Metal>
0.0000

> <Gold.Chemscore.Hbonds>
donor molecule, donor type, donor heavy atom, donor atom, acceptor molecule, acceptor atom, score
      L1  H     7    29       P1  7948  2.00
      L1  H     7    42       P1  7957  1.00
      P1  H 10752 10764       L1    13  0.36

> <Gold.PLP.Chemscore.Internal.Correction>
0.0330

> <Gold.Rescore>
     Score         DG    S(hbond)    S(metal)    S(lipo)     H(rot)  DE(clash)    DE(int)     intcor
     16.45     -17.97       2.88        0.00      69.34       2.05       0.53       0.99       ----

> <Gold.Chemscore.Fitness>
16.4452

> <Gold.Chemscore.DG>
-17.9714

> <Gold.Chemscore.ZeroCoef>
-5.4800

> <Gold.Chemscore.Hbond>
2.8842

> <Gold.Chemscore.Metal>
0.0000

> <Gold.Chemscore.Lipo>
69.3447

> <Gold.Chemscore.Internal_Hbond>
0.0000

> <Gold.Chemscore.DEClash>
0.5341

> <Gold.Chemscore.DEInternal>
0.9921

> <Gold.Chemscore.Rot>
2.0528

> <Gold.Chemscore.Internal.Correction>
   9.000000E+99

> <Gold.Chemscore.Hbonds>
donor molecule, donor type, donor heavy atom, donor atom, acceptor molecule, acceptor atom, score
      L1  H     7    29       P1  7948  0.97
      L1  H     7    42       P1  7957  0.87
      P1  H 10752 10764       L1    13  0.23

> <Gold.Chemscore.Hbond.Weighted>
-9.6332

> <Gold.Chemscore.Metal.Weighted>
-0.0000

> <Gold.Chemscore.Lipo.Weighted>
-8.1133

> <Gold.Chemscore.Internal_Hbond.Weighted>
0.0000

> <Gold.Chemscore.DEClash.Weighted>
0.5341

> <Gold.Chemscore.DEInternal.Weighted>
0.9921

> <Gold.Chemscore.Rot.Weighted>
5.2551

> <Gold.Chemscore.Internal.Correction.Weighted>
   9.000000E+99

> <Gold.Protein.RotatedTorsions>
[ 6907 6896 6895 6894 ] final  153.02 input  -60.11 | X-H torsion
[ 7974 7965 7964 7962 ] final  169.38 input  175.53 | X-H torsion
[ 8008 7997 7996 7995 ] final   60.38 input   59.86 | X-H torsion
[ 10167 10162 10161 10158 ] final -163.88 input  -65.29 | X-H torsion
[ 10718 10713 10712 10709 ] final -153.41 input   66.30 | X-H torsion
[ 10763 10752 10751 10750 ] final  -39.72 input  -60.55 | X-H torsion
[ 11005 11000 10999 10996 ] final  -93.69 input  -57.11 | X-H torsion

> <Gold.Protein.ActiveResidues>
 VAL166  LYS551  ARG553  GLY616  TRP617  ASP618  TYR619  PRO620  LYS621  CYS622 
 ASP623  PHE694  ASN695  SER759  ASP760  ASP761  ALA762  ILE779  LEU786  VAL792 
 PHE793  MET794  SER795  GLU796  ALA797  LYS798  CYS799  TRP800  GLU811  SER814 

> <Gold.Protein.RotatedAtoms>
  152.0785  133.4141  159.4490 H   0  0  0  0  0  0  0  0  0  0  0  0  # atno 6907 bound_to 6896
  150.6862  134.3010  159.4715 H   0  0  0  0  0  0  0  0  0  0  0  0  # atno 6908 bound_to 6896
  152.0849  134.9446  160.0623 H   0  0  0  0  0  0  0  0  0  0  0  0  # atno 6909 bound_to 6896
  144.7357  139.9046  143.6411 H   0  0  0  0  0  0  0  0  0  0  0  0  # atno 7974 bound_to 7965
  155.5813  140.3491  155.4541 H   0  0  0  0  0  0  0  0  0  0  0  0  # atno 8008 bound_to 7997
  156.0371  140.1287  157.0221 H   0  0  0  0  0  0  0  0  0  0  0  0  # atno 8009 bound_to 7997
  154.4376  140.1031  156.6168 H   0  0  0  0  0  0  0  0  0  0  0  0  # atno 8010 bound_to 7997
  139.6289  144.0477  152.1999 H   0  0  0  0  0  0  0  0  0  0  0  0  # atno 10167 bound_to 10162
  156.4854  130.8322  151.2548 H   0  0  0  0  0  0  0  0  0  0  0  0  # atno 10718 bound_to 10713
  153.9340  135.6769  153.4745 H   0  0  0  0  0  0  0  0  0  0  0  0  # atno 10763 bound_to 10752
  153.0965  135.4849  154.8785 H   0  0  0  0  0  0  0  0  0  0  0  0  # atno 10764 bound_to 10752
  154.7413  135.3161  154.8681 H   0  0  0  0  0  0  0  0  0  0  0  0  # atno 10765 bound_to 10752
  141.1490  133.7905  157.0195 H   0  0  0  0  0  0  0  0  0  0  0  0  # atno 11005 bound_to 11000
  146.1046  139.4045  143.0325 LP  0  0  0  0  0  0  0  0  0  0  0  0  # atno 17320 bound_to 7965
  145.7530  140.9965  143.1240 LP  0  0  0  0  0  0  0  0  0  0  0  0  # atno 17321 bound_to 7965
  140.0138  144.6204  150.7624 LP  0  0  0  0  0  0  0  0  0  0  0  0  # atno 17342 bound_to 10162
  140.7427  143.2836  151.3526 LP  0  0  0  0  0  0  0  0  0  0  0  0  # atno 17343 bound_to 10162
  157.7479  131.0031  150.3025 LP  0  0  0  0  0  0  0  0  0  0  0  0  # atno 17370 bound_to 10713
  156.3479  130.3826  149.7353 LP  0  0  0  0  0  0  0  0  0  0  0  0  # atno 17371 bound_to 10713
  140.0825  134.9640  157.1647 LP  0  0  0  0  0  0  0  0  0  0  0  0  # atno 17394 bound_to 11000
  140.3557  134.2549  155.7193 LP  0  0  0  0  0  0  0  0  0  0  0  0  # atno 17395 bound_to 11000

$$$$
