AV-unprocessed.smi:2229|AV-procd|sdf|9028|dock3
  -GOLD-   2272012233D 1   1.00000     0.00000
 Structure written by MMmdl.
 44 45  0  0  0  0  0  0  0  0  1 V2000
  151.9615  144.2483  159.3866 C   0  0  0  0  0  0  0  0  0  0  0  0
  152.1098  142.7791  159.8191 C   0  0  0  0  0  0  0  0  0  0  0  0
  153.3664  142.6014  160.6848 C   0  0  0  0  0  0  0  0  0  0  0  0
  152.1287  141.8043  158.6228 C   0  0  0  0  0  0  0  0  0  0  0  0
  150.7897  141.7264  157.8698 C   0  0  0  0  0  0  0  0  0  0  0  0
  150.9029  141.1679  156.4333 C   0  0  1  0  0  0  0  0  0  0  0  0
  150.9684  139.6389  156.3587 C   0  0  0  0  0  0  0  0  0  0  0  0
  150.6469  139.3240  154.9014 C   0  0  0  0  0  0  0  0  0  0  0  0
  149.5819  140.3500  154.5079 C   0  0  0  0  0  0  0  0  0  0  0  0
  149.7668  141.5579  155.4492 C   0  0  1  0  0  0  0  0  0  0  0  0
  148.5056  141.8661  156.1260 N   0  0  0  0  0  0  0  0  0  0  0  0
  147.7259  140.9804  156.7656 C   0  0  0  0  0  0  0  0  0  0  0  0
  148.0245  139.7951  156.9143 O   0  0  0  0  0  0  0  0  0  0  0  0
  146.4015  141.5151  157.3201 C   0  0  0  0  0  0  0  0  0  0  0  0
  145.4364  141.7807  156.2524 N   0  0  0  0  0  0  0  0  0  0  0  0
  145.7508  142.4538  155.0909 C   0  0  0  0  0  0  0  0  0  0  0  0
  144.7274  142.5812  154.3168 N   0  0  0  0  0  0  0  0  0  0  0  0
  143.7461  141.9694  155.0224 N   0  0  0  0  0  0  0  0  0  0  0  0
  144.1423  141.4762  156.1964 C   0  0  0  0  0  0  0  0  0  0  0  0
  143.4631  140.8787  157.0295 O   0  0  0  0  0  0  0  0  0  0  0  0
  142.8139  141.9254  154.6362 H   0  0  0  0  0  0  0  0  0  0  0  0
  152.7698  144.5488  158.7193 H   0  0  0  0  0  0  0  0  0  0  0  0
  151.9809  144.9132  160.2504 H   0  0  0  0  0  0  0  0  0  0  0  0
  151.0185  144.4269  158.8709 H   0  0  0  0  0  0  0  0  0  0  0  0
  151.2510  142.5286  160.4437 H   0  0  0  0  0  0  0  0  0  0  0  0
  154.2709  142.8355  160.1224 H   0  0  0  0  0  0  0  0  0  0  0  0
  153.4552  141.5769  161.0475 H   0  0  0  0  0  0  0  0  0  0  0  0
  153.3387  143.2548  161.5575 H   0  0  0  0  0  0  0  0  0  0  0  0
  152.9248  142.0823  157.9312 H   0  0  0  0  0  0  0  0  0  0  0  0
  152.3809  140.8096  158.9907 H   0  0  0  0  0  0  0  0  0  0  0  0
  150.0900  141.1208  158.4467 H   0  0  0  0  0  0  0  0  0  0  0  0
  150.3640  142.7276  157.8155 H   0  0  0  0  0  0  0  0  0  0  0  0
  151.8307  141.5495  156.0036 H   0  0  0  0  0  0  0  0  0  0  0  0
  151.9384  139.2425  156.6603 H   0  0  0  0  0  0  0  0  0  0  0  0
  150.2100  139.1974  157.0070 H   0  0  0  0  0  0  0  0  0  0  0  0
  151.5394  139.4697  154.2915 H   0  0  0  0  0  0  0  0  0  0  0  0
  150.3118  138.2962  154.7586 H   0  0  0  0  0  0  0  0  0  0  0  0
  149.6725  140.6349  153.4592 H   0  0  0  0  0  0  0  0  0  0  0  0
  148.5924  139.9063  154.6314 H   0  0  0  0  0  0  0  0  0  0  0  0
  150.0880  142.4193  154.8607 H   0  0  0  0  0  0  0  0  0  0  0  0
  148.1773  142.8186  156.0575 H   0  0  0  0  0  0  0  0  0  0  0  0
  146.0023  140.7895  158.0306 H   0  0  0  0  0  0  0  0  0  0  0  0
  146.5712  142.4361  157.8812 H   0  0  0  0  0  0  0  0  0  0  0  0
  146.7713  142.8053  154.9289 H   0  0  0  0  0  0  0  0  0  0  0  0
  1  2  1  0  0  0  0
  1 22  1  0  0  0  0
  1 23  1  0  0  0  0
  1 24  1  0  0  0  0
  2  3  1  0  0  0  0
  2  4  1  0  0  0  0
  2 25  1  0  0  0  0
  3 26  1  0  0  0  0
  3 27  1  0  0  0  0
  3 28  1  0  0  0  0
  4  5  1  0  0  0  0
  4 29  1  0  0  0  0
  4 30  1  0  0  0  0
  5  6  1  0  0  0  0
  5 31  1  0  0  0  0
  5 32  1  0  0  0  0
  6 10  1  0  0  0  0
  6  7  1  0  0  0  0
  6 33  1  0  0  0  0
  7  8  1  0  0  0  0
  7 34  1  0  0  0  0
  7 35  1  0  0  0  0
  8  9  1  0  0  0  0
  8 36  1  0  0  0  0
  8 37  1  0  0  0  0
  9 10  1  0  0  0  0
  9 38  1  0  0  0  0
  9 39  1  0  0  0  0
 10 11  1  0  0  0  0
 10 40  1  0  0  0  0
 11 12  1  0  0  0  0
 11 41  1  0  0  0  0
 12 13  2  0  0  0  0
 12 14  1  0  0  0  0
 14 15  1  0  0  0  0
 14 42  1  0  0  0  0
 14 43  1  0  0  0  0
 15 19  1  0  0  0  0
 15 16  1  0  0  0  0
 16 17  2  0  0  0  0
 16 44  1  0  0  0  0
 17 18  1  0  0  0  0
 18 21  1  0  0  0  0
 18 19  1  0  0  0  0
 19 20  2  0  0  0  0
M  END
> <s_m_source_file>
AV-unprocessed.smi

> <i_m_source_file_index>
2229

> <i_lp_mmshare_version>
43012

> <i_f3d_flags>
0

> <s_epik_input>
W0NIM11bQ0hdKFtDSDNdKVtDSDJdW0NIMl1bQ0BASF0xW0NIMl1bQ0gyXVtDSDJdW0NASF0xW05IXUMoPU8pW0NIMl1uMltjSF1uW25IXWMyPU8=

> <s_epik_cmdline>
J2VwaWtfcHl0aG9uJywgJy1waCcsICc3LjAnLCAnLXRuJywgJzgnLCAnLW1hJywgJzIwMCcsICctbWV0YWxfYmluZGluZycsICctaW1hZScsICc8aW5maWxlLm1hZT4nLCAnLW9tYWUnLCAnPG91dGZpbGUubWFlPic=

> <r_lp_tautomer_probability>
1

> <r_epik_Ionization_Penalty>
4.14174e-05

> <r_epik_Ionization_Penalty_Charging>
4.13165e-05

> <r_epik_Ionization_Penalty_Neutral>
1.00911e-07

> <r_epik_State_Penalty>
-0

> <r_epik_Charging_Adjusted_Penalty>
4.13165e-05

> <i_epik_Tot_Q>
0

> <i_epik_Tot_abs_Q>
0

> <r_epik_Metal_State_Penalty>
0.0399369

> <b_epik_Metal_Only>
0

> <s_lp_Force_Field>
OPLS_2005

> <r_lp_Energy>
36.1569

> <b_lp_Chiralities_Consistent>
1

> <s_lp_Variant>
AV-unprocessed.smi:2229-2

> <Gold.Version>
5.8.1

> <Gold.Id.Protein>
6NUR|6NUR_protein|mol2

> <Gold.PLP.Fitness>
42.2724

> <Gold.PLP.PLP>
-35.8486

> <Gold.PLP.part.hbond>
-2.7516

> <Gold.PLP.part.metal>
0.0000

> <Gold.PLP.part.buried>
-1.7305

> <Gold.PLP.part.nonpolar>
-31.6319

> <Gold.PLP.part.repulsive>
0.3822

> <Gold.PLP.ligand.clash>
0.0000

> <Gold.PLP.ligand.torsion>
0.7685

> <Gold.PLP.Chemscore.Hbond>
1.6400

> <Gold.PLP.Chemscore.CHOScore>
1.0000

> <Gold.PLP.Chemscore.Metal>
0.0000

> <Gold.Chemscore.Hbonds>
donor molecule, donor type, donor heavy atom, donor atom, acceptor molecule, acceptor atom, score
      L1  H    11    41       P1  8028  0.78
      L1  C    16    44       P1  8028  0.06

> <Gold.PLP.Chemscore.Internal.Correction>
0.0409

> <Gold.Rescore>
     Score         DG    S(hbond)    S(metal)    S(lipo)     H(rot)  DE(clash)    DE(int)     intcor
     10.36     -13.70       1.49        0.00      85.36       2.64       0.18       3.16       ----

> <Gold.Chemscore.Fitness>
10.3591

> <Gold.Chemscore.DG>
-13.7000

> <Gold.Chemscore.ZeroCoef>
-5.4800

> <Gold.Chemscore.Hbond>
1.4919

> <Gold.Chemscore.Metal>
0.0000

> <Gold.Chemscore.Lipo>
85.3590

> <Gold.Chemscore.Internal_Hbond>
0.0000

> <Gold.Chemscore.DEClash>
0.1842

> <Gold.Chemscore.DEInternal>
3.1566

> <Gold.Chemscore.Rot>
2.6368

> <Gold.Chemscore.Internal.Correction>
   9.000000E+99

> <Gold.Chemscore.Hbonds>
donor molecule, donor type, donor heavy atom, donor atom, acceptor molecule, acceptor atom, score
      L1  H    11    41       P1  8028  0.60

> <Gold.Chemscore.Hbond.Weighted>
-4.9830

> <Gold.Chemscore.Metal.Weighted>
-0.0000

> <Gold.Chemscore.Lipo.Weighted>
-9.9870

> <Gold.Chemscore.Internal_Hbond.Weighted>
0.0000

> <Gold.Chemscore.DEClash.Weighted>
0.1842

> <Gold.Chemscore.DEInternal.Weighted>
3.1566

> <Gold.Chemscore.Rot.Weighted>
6.7501

> <Gold.Chemscore.Internal.Correction.Weighted>
   9.000000E+99

> <Gold.Protein.RotatedTorsions>
[ 6907 6896 6895 6894 ] final -140.39 input  -60.11 | X-H torsion
[ 7974 7965 7964 7962 ] final  -78.85 input  175.53 | X-H torsion
[ 8008 7997 7996 7995 ] final  140.11 input   59.86 | X-H torsion
[ 10167 10162 10161 10158 ] final   66.38 input  -65.29 | X-H torsion
[ 10718 10713 10712 10709 ] final    7.30 input   66.30 | X-H torsion
[ 10763 10752 10751 10750 ] final -149.18 input  -60.55 | X-H torsion
[ 11005 11000 10999 10996 ] final   35.82 input  -57.11 | X-H torsion

> <Gold.Protein.ActiveResidues>
 VAL166  LYS551  ARG553  GLY616  TRP617  ASP618  TYR619  PRO620  LYS621  CYS622 
 ASP623  PHE694  ASN695  SER759  ASP760  ASP761  ALA762  ILE779  LEU786  VAL792 
 PHE793  MET794  SER795  GLU796  ALA797  LYS798  CYS799  TRP800  GLU811  SER814 

> <Gold.Protein.RotatedAtoms>
  151.0601  133.5551  159.2634 H   0  0  0  0  0  0  0  0  0  0  0  0  # atno 6907 bound_to 6896
  151.2530  135.0628  159.9079 H   0  0  0  0  0  0  0  0  0  0  0  0  # atno 6908 bound_to 6896
  152.5396  134.0358  159.8099 H   0  0  0  0  0  0  0  0  0  0  0  0  # atno 6909 bound_to 6896
  145.5810  140.9448  143.1344 H   0  0  0  0  0  0  0  0  0  0  0  0  # atno 7974 bound_to 7965
  156.2983  140.2350  156.4347 H   0  0  0  0  0  0  0  0  0  0  0  0  # atno 8008 bound_to 7997
  154.8239  140.0436  157.1450 H   0  0  0  0  0  0  0  0  0  0  0  0  # atno 8009 bound_to 7997
  154.9284  140.3013  155.5184 H   0  0  0  0  0  0  0  0  0  0  0  0  # atno 8010 bound_to 7997
  140.1010  144.4903  150.7037 H   0  0  0  0  0  0  0  0  0  0  0  0  # atno 10167 bound_to 10162
  156.9349  130.5840  149.5650 H   0  0  0  0  0  0  0  0  0  0  0  0  # atno 10718 bound_to 10713
  154.8192  135.3315  154.7089 H   0  0  0  0  0  0  0  0  0  0  0  0  # atno 10763 bound_to 10752
  153.7725  135.6924  153.4908 H   0  0  0  0  0  0  0  0  0  0  0  0  # atno 10764 bound_to 10752
  153.2035  135.4507  155.0243 H   0  0  0  0  0  0  0  0  0  0  0  0  # atno 10765 bound_to 10752
  140.2388  134.3439  155.7934 H   0  0  0  0  0  0  0  0  0  0  0  0  # atno 11005 bound_to 11000
  144.7394  139.7492  143.7317 LP  0  0  0  0  0  0  0  0  0  0  0  0  # atno 17320 bound_to 7965
  146.1716  139.4869  142.9924 LP  0  0  0  0  0  0  0  0  0  0  0  0  # atno 17321 bound_to 7965
  140.6978  143.2414  151.4952 LP  0  0  0  0  0  0  0  0  0  0  0  0  # atno 17342 bound_to 10162
  139.5671  144.2016  152.1781 LP  0  0  0  0  0  0  0  0  0  0  0  0  # atno 17343 bound_to 10162
  156.0430  130.5510  150.8816 LP  0  0  0  0  0  0  0  0  0  0  0  0  # atno 17370 bound_to 10713
  157.5822  131.0946  150.9252 LP  0  0  0  0  0  0  0  0  0  0  0  0  # atno 17371 bound_to 10713
  141.2212  133.7287  156.8852 LP  0  0  0  0  0  0  0  0  0  0  0  0  # atno 17394 bound_to 11000
  140.1674  134.9123  157.2791 LP  0  0  0  0  0  0  0  0  0  0  0  0  # atno 17395 bound_to 11000

$$$$
