AV-unprocessed.smi:3031|AV-procd|sdf|11550|dock2
  -GOLD-   2272016503D 1   1.00000     0.00000
 Structure written by MMmdl.
 48 49  0  0  0  0  0  0  0  0  3 V2000
  151.6628  139.6028  158.7745 C   0  0  0  0  0  0  0  0  0  0  0  0
  151.2911  140.0287  157.3834 C   0  0  0  0  0  0  0  0  0  0  0  0
  151.9178  139.6607  156.1588 C   0  0  0  0  0  0  0  0  0  0  0  0
  151.3426  140.2101  155.1015 N   0  0  0  0  0  0  0  0  0  0  0  0
  150.3333  140.9472  155.6116 N   0  0  0  0  0  0  0  0  0  0  0  0
  149.4685  141.7022  154.7229 C   0  0  0  0  0  0  0  0  0  0  0  0
  148.0590  141.0818  154.5760 C   0  0  1  0  0  0  0  0  0  0  0  0
  146.9863  142.1180  154.1987 C   0  0  0  0  0  0  0  0  0  0  0  0
  148.0598  139.9980  153.5678 N   0  3  0  0  0  0  0  0  0  0  0  0
  146.7283  139.5906  153.0662 C   0  0  0  0  0  0  0  0  0  0  0  0
  146.8226  138.3226  152.1986 C   0  0  2  0  0  0  0  0  0  0  0  0
  146.7148  138.6992  150.8390 O   0  0  0  0  0  0  0  0  0  0  0  0
  145.6941  137.3193  152.5169 C   0  0  0  0  0  0  0  0  0  0  0  0
  146.0851  135.9110  152.2483 N   0  3  0  0  0  0  0  0  0  0  0  0
  146.1676  135.0734  153.4713 C   0  0  0  0  0  0  0  0  0  0  0  0
  146.6114  133.6437  153.1169 C   0  0  0  0  0  0  0  0  0  0  0  0
  145.7097  133.0857  152.1698 O   0  0  0  0  0  0  0  0  0  0  0  0
  145.6871  133.8270  150.9567 C   0  0  0  0  0  0  0  0  0  0  0  0
  145.2137  135.2635  151.2384 C   0  0  0  0  0  0  0  0  0  0  0  0
  150.2775  140.8541  156.9862 C   0  0  0  0  0  0  0  0  0  0  0  0
  152.6035  139.0519  158.7925 H   0  0  0  0  0  0  0  0  0  0  0  0
  150.9034  138.9548  159.2125 H   0  0  0  0  0  0  0  0  0  0  0  0
  151.7798  140.4583  159.4398 H   0  0  0  0  0  0  0  0  0  0  0  0
  152.7688  139.0129  156.0080 H   0  0  0  0  0  0  0  0  0  0  0  0
  149.3925  142.7254  155.0956 H   0  0  0  0  0  0  0  0  0  0  0  0
  149.9683  141.7630  153.7562 H   0  0  0  0  0  0  0  0  0  0  0  0
  147.7646  140.6495  155.5336 H   0  0  0  0  0  0  0  0  0  0  0  0
  146.8692  142.8763  154.9730 H   0  0  0  0  0  0  0  0  0  0  0  0
  146.0127  141.6449  154.0663 H   0  0  0  0  0  0  0  0  0  0  0  0
  147.2375  142.6283  153.2683 H   0  0  0  0  0  0  0  0  0  0  0  0
  148.5895  140.3234  152.7712 H   0  0  0  0  0  0  0  0  0  0  0  0
  146.0769  139.3917  153.9169 H   0  0  0  0  0  0  0  0  0  0  0  0
  146.2754  140.4081  152.5028 H   0  0  0  0  0  0  0  0  0  0  0  0
  147.7966  137.8608  152.3586 H   0  0  0  0  0  0  0  0  0  0  0  0
  145.8053  138.6633  150.5818 H   0  0  0  0  0  0  0  0  0  0  0  0
  145.3844  137.4074  153.5597 H   0  0  0  0  0  0  0  0  0  0  0  0
  144.8179  137.5806  151.9206 H   0  0  0  0  0  0  0  0  0  0  0  0
  146.8718  135.5011  154.1839 H   0  0  0  0  0  0  0  0  0  0  0  0
  145.1939  135.0456  153.9633 H   0  0  0  0  0  0  0  0  0  0  0  0
  147.6278  133.6373  152.7198 H   0  0  0  0  0  0  0  0  0  0  0  0
  146.6148  133.0195  154.0107 H   0  0  0  0  0  0  0  0  0  0  0  0
  146.6762  133.8250  150.4960 H   0  0  0  0  0  0  0  0  0  0  0  0
  145.0089  133.3385  150.2570 H   0  0  0  0  0  0  0  0  0  0  0  0
  144.1829  135.2540  151.5963 H   0  0  0  0  0  0  0  0  0  0  0  0
  145.2272  135.8398  150.3125 H   0  0  0  0  0  0  0  0  0  0  0  0
  149.5298  141.3777  157.5634 H   0  0  0  0  0  0  0  0  0  0  0  0
  148.5334  139.1943  153.9550 H   0  0  0  0  0  0  0  0  0  0  0  0
  147.0106  135.9398  151.8435 H   0  0  0  0  0  0  0  0  0  0  0  0
  1  2  1  0  0  0  0
  1 21  1  0  0  0  0
  1 22  1  0  0  0  0
  1 23  1  0  0  0  0
  2 20  2  0  0  0  0
  2  3  1  0  0  0  0
  3  4  2  0  0  0  0
  3 24  1  0  0  0  0
  4  5  1  0  0  0  0
  5  6  1  0  0  0  0
  5 20  1  0  0  0  0
  6  7  1  0  0  0  0
  6 25  1  0  0  0  0
  6 26  1  0  0  0  0
  7  8  1  0  0  0  0
  7  9  1  0  0  0  0
  7 27  1  0  0  0  0
  8 28  1  0  0  0  0
  8 29  1  0  0  0  0
  8 30  1  0  0  0  0
  9 10  1  0  0  0  0
  9 31  1  0  0  0  0
  9 47  1  0  0  0  0
 10 11  1  0  0  0  0
 10 32  1  0  0  0  0
 10 33  1  0  0  0  0
 11 12  1  0  0  0  0
 11 13  1  0  0  0  0
 11 34  1  0  0  0  0
 12 35  1  0  0  0  0
 13 14  1  0  0  0  0
 13 36  1  0  0  0  0
 13 37  1  0  0  0  0
 14 19  1  0  0  0  0
 14 15  1  0  0  0  0
 14 48  1  0  0  0  0
 15 16  1  0  0  0  0
 15 38  1  0  0  0  0
 15 39  1  0  0  0  0
 16 17  1  0  0  0  0
 16 40  1  0  0  0  0
 16 41  1  0  0  0  0
 17 18  1  0  0  0  0
 18 19  1  0  0  0  0
 18 42  1  0  0  0  0
 18 43  1  0  0  0  0
 19 44  1  0  0  0  0
 19 45  1  0  0  0  0
 20 46  1  0  0  0  0
M  CHG  1   9   1
M  CHG  1  14   1
M  END
> <s_m_source_file>
AV-unprocessed.smi

> <i_m_source_file_index>
3031

> <i_lp_mmshare_version>
43012

> <i_f3d_flags>
0

> <s_epik_input>
W0NIM11jMVtjSF1ubihbY0hdMSlbQ0gyXVtDQEhdKFtDSDNdKVtOSF1bQ0gyXVtDQEhdKFtPSF0pW0NIMl1OMltDSDJdW0NIMl1PW0NIMl1bQ0gyXTI=

> <s_epik_cmdline>
J2VwaWtfcHl0aG9uJywgJy1waCcsICc3LjAnLCAnLXRuJywgJzgnLCAnLW1hJywgJzIwMCcsICctbWV0YWxfYmluZGluZycsICctaW1hZScsICc8aW5maWxlLm1hZT4nLCAnLW9tYWUnLCAnPG91dGZpbGUubWFlPic=

> <r_lp_tautomer_probability>
1

> <r_epik_Ionization_Penalty>
1.76542

> <r_epik_Ionization_Penalty_Charging>
1.76348

> <r_epik_Ionization_Penalty_Neutral>
0.00194017

> <r_epik_State_Penalty>
1.49348

> <r_epik_Charging_Adjusted_Penalty>
3.25696

> <i_epik_Tot_Q>
2

> <i_epik_Tot_abs_Q>
2

> <r_epik_Metal_State_Penalty>
1.49349

> <b_epik_Metal_Only>
0

> <s_lp_Force_Field>
OPLS_2005

> <r_lp_Energy>
28.4524

> <b_lp_Chiralities_Consistent>
1

> <s_lp_Variant>
AV-unprocessed.smi:3031-10

> <Gold.Version>
5.8.1

> <Gold.Id.Protein>
6NUR|6NUR_protein|mol2

> <Gold.PLP.Fitness>
51.8550

> <Gold.PLP.PLP>
-38.4459

> <Gold.PLP.part.hbond>
-5.6775

> <Gold.PLP.part.metal>
0.0000

> <Gold.PLP.part.buried>
-1.3113

> <Gold.PLP.part.nonpolar>
-31.1885

> <Gold.PLP.part.repulsive>
0.2586

> <Gold.PLP.ligand.clash>
0.0000

> <Gold.PLP.ligand.torsion>
2.3007

> <Gold.PLP.Chemscore.Hbond>
5.8320

> <Gold.PLP.Chemscore.CHOScore>
0.0000

> <Gold.PLP.Chemscore.Metal>
0.0000

> <Gold.Chemscore.Hbonds>
donor molecule, donor type, donor heavy atom, donor atom, acceptor molecule, acceptor atom, score
      L1  H     9    31       P1  7957  1.00
      L1  H    12    35       P1 10171  0.93
      L1  H    14    48       P1  7948  2.00
      P1  H  7954  7966       L1    12  0.88
      P1  H  7989  7998       L1     4  1.00

> <Gold.PLP.Chemscore.Internal.Correction>
0.5145

> <Gold.Rescore>
     Score         DG    S(hbond)    S(metal)    S(lipo)     H(rot)  DE(clash)    DE(int)     intcor
     19.18     -21.82       4.13        0.00      81.88       2.74       0.53       2.11       ----

> <Gold.Chemscore.Fitness>
19.1822

> <Gold.Chemscore.DG>
-21.8192

> <Gold.Chemscore.ZeroCoef>
-5.4800

> <Gold.Chemscore.Hbond>
4.1265

> <Gold.Chemscore.Metal>
0.0000

> <Gold.Chemscore.Lipo>
81.8799

> <Gold.Chemscore.Internal_Hbond>
0.0000

> <Gold.Chemscore.DEClash>
0.5296

> <Gold.Chemscore.DEInternal>
2.1074

> <Gold.Chemscore.Rot>
2.7434

> <Gold.Chemscore.Internal.Correction>
   9.000000E+99

> <Gold.Chemscore.Hbonds>
donor molecule, donor type, donor heavy atom, donor atom, acceptor molecule, acceptor atom, score
      L1  H     9    31       P1  7957  0.96
      L1  H    12    35       P1 10171  0.89
      L1  H    14    48       P1  7948  0.98
      P1  H  7954  7966       L1    12  0.56
      P1  H  7989  7998       L1     4  0.49

> <Gold.Chemscore.Hbond.Weighted>
-13.7824

> <Gold.Chemscore.Metal.Weighted>
-0.0000

> <Gold.Chemscore.Lipo.Weighted>
-9.5800

> <Gold.Chemscore.Internal_Hbond.Weighted>
0.0000

> <Gold.Chemscore.DEClash.Weighted>
0.5296

> <Gold.Chemscore.DEInternal.Weighted>
2.1074

> <Gold.Chemscore.Rot.Weighted>
7.0231

> <Gold.Chemscore.Internal.Correction.Weighted>
   9.000000E+99

> <Gold.Protein.RotatedTorsions>
[ 6907 6896 6895 6894 ] final  -47.60 input  -60.11 | X-H torsion
[ 7974 7965 7964 7962 ] final -127.98 input  175.53 | X-H torsion
[ 8008 7997 7996 7995 ] final -116.42 input   59.86 | X-H torsion
[ 10167 10162 10161 10158 ] final  -21.16 input  -65.29 | X-H torsion
[ 10718 10713 10712 10709 ] final -107.23 input   66.30 | X-H torsion
[ 10763 10752 10751 10750 ] final  178.27 input  -60.55 | X-H torsion
[ 11005 11000 10999 10996 ] final  -96.19 input  -57.11 | X-H torsion

> <Gold.Protein.ActiveResidues>
 VAL166  LYS551  ARG553  GLY616  TRP617  ASP618  TYR619  PRO620  LYS621  CYS622 
 ASP623  PHE694  ASN695  SER759  ASP760  ASP761  ALA762  ILE779  LEU786  VAL792 
 PHE793  MET794  SER795  GLU796  ALA797  LYS798  CYS799  TRP800  GLU811  SER814 

> <Gold.Protein.RotatedAtoms>
  150.8991  134.8402  159.7347 H   0  0  0  0  0  0  0  0  0  0  0  0  # atno 6907 bound_to 6896
  152.4882  134.4530  159.9590 H   0  0  0  0  0  0  0  0  0  0  0  0  # atno 6908 bound_to 6896
  151.4584  133.3560  159.2841 H   0  0  0  0  0  0  0  0  0  0  0  0  # atno 6909 bound_to 6896
  144.9716  140.7551  143.4667 H   0  0  0  0  0  0  0  0  0  0  0  0  # atno 7974 bound_to 7965
  155.0676  140.0393  157.2598 H   0  0  0  0  0  0  0  0  0  0  0  0  # atno 8008 bound_to 7997
  154.7008  140.2673  155.6697 H   0  0  0  0  0  0  0  0  0  0  0  0  # atno 8009 bound_to 7997
  156.2760  140.2741  156.1618 H   0  0  0  0  0  0  0  0  0  0  0  0  # atno 8010 bound_to 7997
  140.7280  143.4654  151.0321 H   0  0  0  0  0  0  0  0  0  0  0  0  # atno 10167 bound_to 10162
  156.0427  130.5652  150.7793 H   0  0  0  0  0  0  0  0  0  0  0  0  # atno 10718 bound_to 10713
  154.5054  135.2785  155.1386 H   0  0  0  0  0  0  0  0  0  0  0  0  # atno 10763 bound_to 10752
  154.3003  135.6249  153.5425 H   0  0  0  0  0  0  0  0  0  0  0  0  # atno 10764 bound_to 10752
  152.9909  135.5695  154.5507 H   0  0  0  0  0  0  0  0  0  0  0  0  # atno 10765 bound_to 10752
  141.1419  133.8080  157.0538 H   0  0  0  0  0  0  0  0  0  0  0  0  # atno 11005 bound_to 11000
  145.2550  139.2016  143.4922 LP  0  0  0  0  0  0  0  0  0  0  0  0  # atno 17320 bound_to 7965
  146.3384  140.2470  142.8597 LP  0  0  0  0  0  0  0  0  0  0  0  0  # atno 17321 bound_to 7965
  139.8342  143.7650  152.3180 LP  0  0  0  0  0  0  0  0  0  0  0  0  # atno 17342 bound_to 10162
  139.7776  144.7455  151.0134 LP  0  0  0  0  0  0  0  0  0  0  0  0  # atno 17343 bound_to 10162
  157.5265  131.0934  151.0011 LP  0  0  0  0  0  0  0  0  0  0  0  0  # atno 17370 bound_to 10713
  157.0328  130.5718  149.5345 LP  0  0  0  0  0  0  0  0  0  0  0  0  # atno 17371 bound_to 10713
  140.0615  134.9752  157.1313 LP  0  0  0  0  0  0  0  0  0  0  0  0  # atno 17394 bound_to 11000
  140.3841  134.2255  155.7169 LP  0  0  0  0  0  0  0  0  0  0  0  0  # atno 17395 bound_to 11000

$$$$
