#       Name:                AV-unprocessed.smi:1626
#       Creating user name   scv26
#       Creation time:       Fri Mar 27 07:17:39 2020


#       File generated by GOLD software.
#

@<TRIPOS>MOLECULE
AV-unprocessed.smi:1626
    53    55     1
SMALL
NO_CHARGES


@<TRIPOS>ATOM
      1 ****        -2.4676   3.8954  -3.0478 C.3            1 S1                 0.0000
      2 ****        -2.4541   2.6118  -2.2366 C.ar           1 S1                 0.0000
      3 ****        -3.0878   2.5909  -0.9739 C.ar           1 S1                 0.0000
      4 ****        -3.0959   1.4188  -0.1868 C.ar           1 S1                 0.0000
      5 ****        -3.6449   1.1783   1.0607 N.2            1 S1                 0.0000
      6 ****        -3.3197  -0.0958   1.2561 C.2            1 S1                 0.0000
      7 ****        -2.6111  -0.7073   0.2871 N.pl3          1 S1                 0.0000
      8 ****        -2.1370  -2.0800   0.2841 C.3            1 S1                 0.0000
      9 ****        -0.5992  -2.1788   0.3456 C.3            1 S1                 0.0000
     10 ****        -0.2603  -3.5508   0.3741 O.3            1 S1                 0.0000
     11 ****         0.0159  -1.4802   1.5798 C.3            1 S1                 0.0000
     12 ****         1.4948  -1.3742   1.4948 N.4            1 S1                 1.0000
     13 ****         2.1336  -1.3103   2.8344 C.3            1 S1                 0.0000
     14 ****         3.6685  -1.3544   2.7227 C.3            1 S1                 0.0000
     15 ****         4.2107  -0.2494   1.8012 C.3            1 S1                 0.0000
     16 ****         4.0568   1.0139   2.4166 O.3            1 S1                 0.0000
     17 ****         3.4794  -0.2743   0.4486 C.3            1 S1                 0.0000
     18 ****         1.9498  -0.2583   0.6222 C.3            1 S1                 0.0000
     19 ****        -2.4476   0.2580  -0.7015 C.ar           1 S1                 0.0000
     20 ****        -1.8190   0.2649  -1.9594 C.ar           1 S1                 0.0000
     21 ****        -1.8165   1.4457  -2.7308 C.ar           1 S1                 0.0000
     22 ****        -1.1270   1.4453  -4.0837 C.3            1 S1                 0.0000
     23 ****        -3.0655   4.6671  -2.5620 H              1 S1                 0.0000
     24 ****        -2.8902   3.7211  -4.0375 H              1 S1                 0.0000
     25 ****        -1.4544   4.2803  -3.1662 H              1 S1                 0.0000
     26 ****        -3.5742   3.4790  -0.5977 H              1 S1                 0.0000
     27 ****        -3.6042  -0.6116   2.1617 H              1 S1                 0.0000
     28 ****        -2.5836  -2.6029   1.1315 H              1 S1                 0.0000
     29 ****        -2.5130  -2.5664  -0.6171 H              1 S1                 0.0000
     30 ****        -0.1929  -1.7598  -0.5733 H              1 S1                 0.0000
     31 ****         0.6706  -3.6419   0.2413 H              1 S1                 0.0000
     32 ****        -0.3891  -0.4764   1.7126 H              1 S1                 0.0000
     33 ****        -0.2742  -2.0379   2.4717 H              1 S1                 0.0000
     34 ****         1.8151  -0.4021   3.3486 H              1 S1                 0.0000
     35 ****         1.7993  -2.1517   3.4425 H              1 S1                 0.0000
     36 ****         4.1203  -1.2783   3.7126 H              1 S1                 0.0000
     37 ****         3.9670  -2.3262   2.3272 H              1 S1                 0.0000
     38 ****         5.2786  -0.4028   1.6417 H              1 S1                 0.0000
     39 ****         4.4726   1.6679   1.8748 H              1 S1                 0.0000
     40 ****         3.7969   0.5661  -0.1700 H              1 S1                 0.0000
     41 ****         3.7649  -1.1758  -0.0953 H              1 S1                 0.0000
     42 ****         1.4833  -0.3262  -0.3598 H              1 S1                 0.0000
     43 ****         1.6303   0.6929   1.0506 H              1 S1                 0.0000
     44 ****        -1.3420  -0.6305  -2.3291 H              1 S1                 0.0000
     45 ****        -0.6345   0.4923  -4.2792 H              1 S1                 0.0000
     46 ****        -0.3688   2.2274  -4.1279 H              1 S1                 0.0000
     47 ****        -1.8507   1.6184  -4.8805 H              1 S1                 0.0000
     48 ****         1.8175  -2.2332   1.0735 H              1 S1                 0.0000
     49 ****        -4.1525   1.7994   1.6578 LP             1 S1                 0.0000
     50 ****        -0.7509  -4.0321  -0.3523 LP             1 S1                 0.0000
     51 ****        -0.5118  -3.9395   1.2604 LP             1 S1                 0.0000
     52 ****         4.4860   1.0028   3.3197 LP             1 S1                 0.0000
     53 ****         3.0841   1.2253   2.5124 LP             1 S1                 0.0000
@<TRIPOS>BOND
    1    1    2 1     
    2    1   23 1     
    3    1   24 1     
    4    1   25 1     
    5    2   21 ar    
    6    2    3 ar    
    7    3    4 ar    
    8    3   26 1     
    9    4   19 ar    
   10    4    5 1     
   11    5    6 2     
   12    6    7 1     
   13    6   27 1     
   14    7    8 1     
   15    7   19 1     
   16    8    9 1     
   17    8   28 1     
   18    8   29 1     
   19    9   10 1     
   20    9   11 1     
   21    9   30 1     
   22   10   31 1     
   23   11   12 1     
   24   11   32 1     
   25   11   33 1     
   26   12   18 1     
   27   12   13 1     
   28   12   48 1     
   29   13   14 1     
   30   13   34 1     
   31   13   35 1     
   32   14   15 1     
   33   14   36 1     
   34   14   37 1     
   35   15   16 1     
   36   15   17 1     
   37   15   38 1     
   38   16   39 1     
   39   17   18 1     
   40   17   40 1     
   41   17   41 1     
   42   18   42 1     
   43   18   43 1     
   44   19   20 ar    
   45   20   21 ar    
   46   20   44 1     
   47   21   22 1     
   48   22   45 1     
   49   22   46 1     
   50   22   47 1     
   51    5   49 1     
   52   10   50 1     
   53   10   51 1     
   54   16   52 1     
   55   16   53 1     
@<TRIPOS>SUBSTRUCTURE
      1 S1             1
@<TRIPOS>SET
LONE_PAIRS      STATIC     ATOMS    <user>   **** ""
5 49 50 51 52 53
DONOR_HYDROGENS      STATIC     ATOMS    <user>   **** ""
3 31 48 39
ATOM$BLUE        STATIC     ATOMS    COLORGROUP SYSTEM
5 49 50 51 52 53
ATOM$RED        STATIC     ATOMS    COLORGROUP SYSTEM
3 31 48 39
