#       Name:                AV-unprocessed.smi:1904
#       Creating user name   scv26
#       Creation time:       Fri Mar 27 09:46:38 2020


#       File generated by GOLD software.
#

@<TRIPOS>MOLECULE
AV-unprocessed.smi:1904
    53    54     1
SMALL
NO_CHARGES


@<TRIPOS>ATOM
      1 ****        -3.6103   0.2026   0.4943 C.3            1 S1                 0.0000
      2 ****        -3.1918   0.9310   1.7395 C.2            1 S1                 0.0000
      3 ****        -3.4931   2.2120   1.8690 N.2            1 S1                 0.0000
      4 ****        -2.9811   2.5673   3.0643 N.pl3          1 S1                 0.0000
      5 ****        -3.1380   3.9324   3.5268 C.3            1 S1                 0.0000
      6 ****        -2.3463   1.5105   3.6875 C.2            1 S1                 0.0000
      7 ****        -1.6834   1.6540   5.0197 C.3            1 S1                 0.0000
      8 ****        -2.4664   0.4262   2.8594 C.2            1 S1                 0.0000
      9 ****        -1.9487  -0.9753   3.0627 C.3            1 S1                 0.0000
     10 ****        -0.6335  -1.1425   2.3026 C.2            1 S1                 0.0000
     11 ****         0.4059  -0.6626   2.7551 O.2            1 S1                 0.0000
     12 ****        -0.6951  -1.8030   1.1361 N.am           1 S1                 0.0000
     13 ****         0.4300  -2.0036   0.2319 C.3            1 S1                 0.0000
     14 ****         0.6536  -0.7639  -0.6556 C.3            1 S1                 0.0000
     15 ****         1.8357  -0.8980  -1.5440 N.4            1 S1                 1.0000
     16 ****         2.3192   0.4215  -2.0270 C.3            1 S1                 0.0000
     17 ****         3.6244   0.2809  -2.8308 C.3            1 S1                 0.0000
     18 ****         3.4823  -0.7035  -4.0056 C.3            1 S1                 0.0000
     19 ****         2.6661  -0.1241  -5.1745 C.3            1 S1                 0.0000
     20 ****         2.9154  -2.0376  -3.4880 C.3            1 S1                 0.0000
     21 ****         1.6252  -1.8468  -2.6699 C.3            1 S1                 0.0000
     22 ****        -3.8991  -0.8243   0.7175 H              1 S1                 0.0000
     23 ****        -2.7945   0.1683  -0.2277 H              1 S1                 0.0000
     24 ****        -4.4615   0.6852   0.0126 H              1 S1                 0.0000
     25 ****        -3.5106   3.9341   4.5513 H              1 S1                 0.0000
     26 ****        -3.8448   4.4738   2.8963 H              1 S1                 0.0000
     27 ****        -2.1743   4.4413   3.4963 H              1 S1                 0.0000
     28 ****        -1.0665   0.7860   5.2509 H              1 S1                 0.0000
     29 ****        -2.4255   1.7602   5.8110 H              1 S1                 0.0000
     30 ****        -1.0373   2.5318   5.0409 H              1 S1                 0.0000
     31 ****        -1.7733  -1.1921   4.1166 H              1 S1                 0.0000
     32 ****        -2.6708  -1.7189   2.7229 H              1 S1                 0.0000
     33 ****        -1.5906  -2.1673   0.8435 H              1 S1                 0.0000
     34 ****         1.3324  -2.2392   0.7986 H              1 S1                 0.0000
     35 ****         0.2030  -2.8814  -0.3718 H              1 S1                 0.0000
     36 ****        -0.2348  -0.5495  -1.2521 H              1 S1                 0.0000
     37 ****         0.8010   0.0993  -0.0046 H              1 S1                 0.0000
     38 ****         1.5454   0.8965  -2.6318 H              1 S1                 0.0000
     39 ****         2.4992   1.0802  -1.1765 H              1 S1                 0.0000
     40 ****         3.9486   1.2574  -3.1924 H              1 S1                 0.0000
     41 ****         4.4129  -0.0705  -2.1638 H              1 S1                 0.0000
     42 ****         4.4823  -0.8989  -4.3954 H              1 S1                 0.0000
     43 ****         1.6403   0.1051  -4.8882 H              1 S1                 0.0000
     44 ****         2.6261  -0.8268  -6.0074 H              1 S1                 0.0000
     45 ****         3.1173   0.7961  -5.5471 H              1 S1                 0.0000
     46 ****         2.7339  -2.7185  -4.3202 H              1 S1                 0.0000
     47 ****         3.6634  -2.5229  -2.8593 H              1 S1                 0.0000
     48 ****         1.3115  -2.8193  -2.2928 H              1 S1                 0.0000
     49 ****         0.8176  -1.4859  -3.3081 H              1 S1                 0.0000
     50 ****         2.5787  -1.2767  -0.9741 H              1 S1                 0.0000
     51 ****        -3.9911   2.7899   1.2226 LP             1 S1                 0.0000
     52 ****         0.3903  -0.1627   3.6210 LP             1 S1                 0.0000
     53 ****         1.2659  -0.7727   2.2568 LP             1 S1                 0.0000
@<TRIPOS>BOND
    1    1    2 1     
    2    1   22 1     
    3    1   23 1     
    4    1   24 1     
    5    2    8 1     
    6    2    3 2     
    7    3    4 1     
    8    4    5 1     
    9    4    6 1     
   10    5   25 1     
   11    5   26 1     
   12    5   27 1     
   13    6    7 1     
   14    6    8 2     
   15    7   28 1     
   16    7   29 1     
   17    7   30 1     
   18    8    9 1     
   19    9   10 1     
   20    9   31 1     
   21    9   32 1     
   22   10   11 2     
   23   10   12 am    
   24   12   13 1     
   25   12   33 1     
   26   13   14 1     
   27   13   34 1     
   28   13   35 1     
   29   14   15 1     
   30   14   36 1     
   31   14   37 1     
   32   15   21 1     
   33   15   16 1     
   34   15   50 1     
   35   16   17 1     
   36   16   38 1     
   37   16   39 1     
   38   17   18 1     
   39   17   40 1     
   40   17   41 1     
   41   18   19 1     
   42   18   20 1     
   43   18   42 1     
   44   19   43 1     
   45   19   44 1     
   46   19   45 1     
   47   20   21 1     
   48   20   46 1     
   49   20   47 1     
   50   21   48 1     
   51   21   49 1     
   52    3   51 1     
   53   11   52 1     
   54   11   53 1     
@<TRIPOS>SUBSTRUCTURE
      1 S1             1
@<TRIPOS>SET
LONE_PAIRS      STATIC     ATOMS    <user>   **** ""
3 51 52 53
DONOR_HYDROGENS      STATIC     ATOMS    <user>   **** ""
2 33 50
ATOM$BLUE        STATIC     ATOMS    COLORGROUP SYSTEM
3 51 52 53
ATOM$RED        STATIC     ATOMS    COLORGROUP SYSTEM
2 33 50
