AV-unprocessed.smi:1825|AV-procd|sdf|7413|dock6
  -GOLD-   22720 9 93D 1   1.00000     0.00000
 Structure written by MMmdl.
 34 35  0  0  0  0  0  0  0  0  1 V2000
  145.9725  139.1174  153.4246 O   0  0  0  0  0  0  0  0  0  0  0  0
  146.8469  138.4217  152.9073 C   0  0  0  0  0  0  0  0  0  0  0  0
  146.5950  137.2821  152.2480 N   0  0  0  0  0  0  0  0  0  0  0  0
  145.2754  136.6761  152.0871 C   0  0  0  0  0  0  0  0  0  0  0  0
  145.2717  135.4613  151.1242 C   0  0  0  0  0  0  0  0  0  0  0  0
  145.4441  135.9697  149.8139 O   0  0  0  0  0  0  0  0  0  0  0  0
  146.4929  134.5588  151.4250 C   0  0  0  0  0  0  0  0  0  0  0  0
  146.5271  133.2802  150.5687 C   0  0  0  0  0  0  0  0  0  0  0  0
  145.2216  132.4848  150.7036 C   0  0  0  0  0  0  0  0  0  0  0  0
  144.0108  133.3545  150.3388 C   0  0  0  0  0  0  0  0  0  0  0  0
  143.9594  134.6374  151.1882 C   0  0  0  0  0  0  0  0  0  0  0  0
  148.1646  138.6875  152.9279 N   0  0  0  0  0  0  0  0  0  0  0  0
  148.8283  139.7920  153.5230 C   0  0  0  0  0  0  0  0  0  0  0  0
  149.9617  139.7014  154.2289 N   0  0  0  0  0  0  0  0  0  0  0  0
  150.3881  140.9462  154.6983 C   0  0  0  0  0  0  0  0  0  0  0  0
  149.5612  141.9811  154.3386 C   0  0  0  0  0  0  0  0  0  0  0  0
  148.2054  141.4301  153.3912 S   0  0  0  0  0  0  0  0  0  0  0  0
  147.3754  136.7780  151.8537 H   0  0  0  0  0  0  0  0  0  0  0  0
  144.8382  136.4133  153.0523 H   0  0  0  0  0  0  0  0  0  0  0  0
  144.6357  137.4591  151.6788 H   0  0  0  0  0  0  0  0  0  0  0  0
  145.6299  135.2469  149.2345 H   0  0  0  0  0  0  0  0  0  0  0  0
  147.4195  135.1179  151.2866 H   0  0  0  0  0  0  0  0  0  0  0  0
  146.4738  134.2668  152.4760 H   0  0  0  0  0  0  0  0  0  0  0  0
  146.6940  133.5380  149.5221 H   0  0  0  0  0  0  0  0  0  0  0  0
  147.3713  132.6587  150.8680 H   0  0  0  0  0  0  0  0  0  0  0  0
  145.2541  131.6040  150.0617 H   0  0  0  0  0  0  0  0  0  0  0  0
  145.1172  132.1203  151.7264 H   0  0  0  0  0  0  0  0  0  0  0  0
  144.0528  133.6148  149.2805 H   0  0  0  0  0  0  0  0  0  0  0  0
  143.0915  132.7845  150.4766 H   0  0  0  0  0  0  0  0  0  0  0  0
  143.7609  134.3628  152.2252 H   0  0  0  0  0  0  0  0  0  0  0  0
  143.1091  135.2394  150.8658 H   0  0  0  0  0  0  0  0  0  0  0  0
  148.7645  138.0171  152.4703 H   0  0  0  0  0  0  0  0  0  0  0  0
  151.2942  141.0044  155.2831 H   0  0  0  0  0  0  0  0  0  0  0  0
  149.6669  143.0297  154.5730 H   0  0  0  0  0  0  0  0  0  0  0  0
  1  2  2  0  0  0  0
  2  3  1  0  0  0  0
  2 12  1  0  0  0  0
  3  4  1  0  0  0  0
  3 18  1  0  0  0  0
  4  5  1  0  0  0  0
  4 19  1  0  0  0  0
  4 20  1  0  0  0  0
  5 11  1  0  0  0  0
  5  6  1  0  0  0  0
  5  7  1  0  0  0  0
  6 21  1  0  0  0  0
  7  8  1  0  0  0  0
  7 22  1  0  0  0  0
  7 23  1  0  0  0  0
  8  9  1  0  0  0  0
  8 24  1  0  0  0  0
  8 25  1  0  0  0  0
  9 10  1  0  0  0  0
  9 26  1  0  0  0  0
  9 27  1  0  0  0  0
 10 11  1  0  0  0  0
 10 28  1  0  0  0  0
 10 29  1  0  0  0  0
 11 30  1  0  0  0  0
 11 31  1  0  0  0  0
 12 13  1  0  0  0  0
 12 32  1  0  0  0  0
 13 17  1  0  0  0  0
 13 14  2  0  0  0  0
 14 15  1  0  0  0  0
 15 16  2  0  0  0  0
 15 33  1  0  0  0  0
 16 17  1  0  0  0  0
 16 34  1  0  0  0  0
M  END
> <s_m_source_file>
AV-unprocessed.smi

> <i_m_source_file_index>
1825

> <i_lp_mmshare_version>
43012

> <i_f3d_flags>
0

> <s_epik_input>
czFbY0hdW2NIXW5jMVtOSF1DKD1PKVtOSF1bQ0gyXUMyKFtPSF0pW0NIMl1bQ0gyXVtDSDJdW0NIMl1bQ0gyXTI=

> <s_epik_cmdline>
J2VwaWtfcHl0aG9uJywgJy1waCcsICc3LjAnLCAnLXRuJywgJzgnLCAnLW1hJywgJzIwMCcsICctbWV0YWxfYmluZGluZycsICctaW1hZScsICc8aW5maWxlLm1hZT4nLCAnLW9tYWUnLCAnPG91dGZpbGUubWFlPic=

> <r_lp_tautomer_probability>
0.999

> <r_epik_Ionization_Penalty>
0.000358719

> <r_epik_Ionization_Penalty_Charging>
0

> <r_epik_Ionization_Penalty_Neutral>
0.000358719

> <r_epik_State_Penalty>
0.000177984

> <r_epik_Charging_Adjusted_Penalty>
0.000177984

> <i_epik_Tot_Q>
0

> <i_epik_Tot_abs_Q>
0

> <r_epik_Metal_State_Penalty>
0.00708714

> <b_epik_Metal_Only>
0

> <s_lp_Force_Field>
OPLS_2005

> <r_lp_Energy>
11.7205

> <b_lp_Chiralities_Consistent>
1

> <s_lp_Variant>
AV-unprocessed.smi:1825-1

> <Gold.Version>
5.8.1

> <Gold.Id.Protein>
6NUR|6NUR_protein|mol2

> <Gold.PLP.Fitness>
42.3627

> <Gold.PLP.PLP>
-31.3985

> <Gold.PLP.part.hbond>
-4.8011

> <Gold.PLP.part.metal>
0.0000

> <Gold.PLP.part.buried>
-1.4431

> <Gold.PLP.part.nonpolar>
-25.6894

> <Gold.PLP.part.repulsive>
0.3505

> <Gold.PLP.ligand.clash>
0.0000

> <Gold.PLP.ligand.torsion>
0.5094

> <Gold.PLP.Chemscore.Hbond>
2.9920

> <Gold.PLP.Chemscore.CHOScore>
1.0000

> <Gold.PLP.Chemscore.Metal>
0.0000

> <Gold.Chemscore.Hbonds>
donor molecule, donor type, donor heavy atom, donor atom, acceptor molecule, acceptor atom, score
      L1  H     3    18       P1  7948  1.00
      L1  H     6    21       P1  7921  0.88
      L1  H    12    32       P1  7948  0.96
      L1  C    16    34       P1  8028  1.00

> <Gold.PLP.Chemscore.Internal.Correction>
0.0069

> <Gold.Rescore>
     Score         DG    S(hbond)    S(metal)    S(lipo)     H(rot)  DE(clash)    DE(int)     intcor
     17.50     -18.09       2.89        0.00      65.77       1.86       0.22       0.36       ----

> <Gold.Chemscore.Fitness>
17.5025

> <Gold.Chemscore.DG>
-18.0860

> <Gold.Chemscore.ZeroCoef>
-5.4800

> <Gold.Chemscore.Hbond>
2.8938

> <Gold.Chemscore.Metal>
0.0000

> <Gold.Chemscore.Lipo>
65.7724

> <Gold.Chemscore.Internal_Hbond>
0.0000

> <Gold.Chemscore.DEClash>
0.2225

> <Gold.Chemscore.DEInternal>
0.3610

> <Gold.Chemscore.Rot>
1.8572

> <Gold.Chemscore.Internal.Correction>
   9.000000E+99

> <Gold.Chemscore.Hbonds>
donor molecule, donor type, donor heavy atom, donor atom, acceptor molecule, acceptor atom, score
      L1  H     3    18       P1  7948  0.98
      L1  H     6    21       P1  7921  0.86
      L1  H    12    32       P1  7948  0.92

> <Gold.Chemscore.Hbond.Weighted>
-9.6652

> <Gold.Chemscore.Metal.Weighted>
-0.0000

> <Gold.Chemscore.Lipo.Weighted>
-7.6954

> <Gold.Chemscore.Internal_Hbond.Weighted>
0.0000

> <Gold.Chemscore.DEClash.Weighted>
0.2225

> <Gold.Chemscore.DEInternal.Weighted>
0.3610

> <Gold.Chemscore.Rot.Weighted>
4.7545

> <Gold.Chemscore.Internal.Correction.Weighted>
   9.000000E+99

> <Gold.Protein.RotatedTorsions>
[ 6907 6896 6895 6894 ] final  -71.71 input  -60.11 | X-H torsion
[ 7974 7965 7964 7962 ] final   31.53 input  175.53 | X-H torsion
[ 8008 7997 7996 7995 ] final  -80.70 input   59.86 | X-H torsion
[ 10167 10162 10161 10158 ] final   91.98 input  -65.29 | X-H torsion
[ 10718 10713 10712 10709 ] final  -31.34 input   66.30 | X-H torsion
[ 10763 10752 10751 10750 ] final  -72.15 input  -60.55 | X-H torsion
[ 11005 11000 10999 10996 ] final   39.01 input  -57.11 | X-H torsion

> <Gold.Protein.ActiveResidues>
 VAL166  LYS551  ARG553  GLY616  TRP617  ASP618  TYR619  PRO620  LYS621  CYS622 
 ASP623  PHE694  ASN695  SER759  ASP760  ASP761  ALA762  ILE779  LEU786  VAL792 
 PHE793  MET794  SER795  GLU796  ALA797  LYS798  CYS799  TRP800  GLU811  SER814 

> <Gold.Protein.RotatedAtoms>
  150.7200  134.5269  159.5680 H   0  0  0  0  0  0  0  0  0  0  0  0  # atno 6907 bound_to 6896
  152.2811  134.7825  160.0405 H   0  0  0  0  0  0  0  0  0  0  0  0  # atno 6908 bound_to 6896
  151.8471  133.3398  159.3698 H   0  0  0  0  0  0  0  0  0  0  0  0  # atno 6909 bound_to 6896
  146.1544  139.6644  142.9077 H   0  0  0  0  0  0  0  0  0  0  0  0  # atno 7974 bound_to 7965
  154.5909  140.0659  156.9237 H   0  0  0  0  0  0  0  0  0  0  0  0  # atno 8008 bound_to 7997
  155.2297  140.3336  155.4287 H   0  0  0  0  0  0  0  0  0  0  0  0  # atno 8009 bound_to 7997
  156.2255  140.1817  156.7357 H   0  0  0  0  0  0  0  0  0  0  0  0  # atno 8010 bound_to 7997
  139.8321  144.6682  150.9386 H   0  0  0  0  0  0  0  0  0  0  0  0  # atno 10167 bound_to 10162
  156.3885  130.4368  149.7413 H   0  0  0  0  0  0  0  0  0  0  0  0  # atno 10718 bound_to 10713
  154.4417  135.5939  153.6134 H   0  0  0  0  0  0  0  0  0  0  0  0  # atno 10763 bound_to 10752
  152.9806  135.6000  154.3714 H   0  0  0  0  0  0  0  0  0  0  0  0  # atno 10764 bound_to 10752
  154.3564  135.2841  155.2322 H   0  0  0  0  0  0  0  0  0  0  0  0  # atno 10765 bound_to 10752
  140.2069  134.3802  155.8068 H   0  0  0  0  0  0  0  0  0  0  0  0  # atno 11005 bound_to 11000
  145.4745  141.0437  143.2680 LP  0  0  0  0  0  0  0  0  0  0  0  0  # atno 17320 bound_to 7965
  144.7944  139.6263  143.7099 LP  0  0  0  0  0  0  0  0  0  0  0  0  # atno 17321 bound_to 7965
  140.7806  143.3991  151.1180 LP  0  0  0  0  0  0  0  0  0  0  0  0  # atno 17342 bound_to 10162
  139.7643  143.8588  152.3107 LP  0  0  0  0  0  0  0  0  0  0  0  0  # atno 17343 bound_to 10162
  156.4475  130.7891  151.2912 LP  0  0  0  0  0  0  0  0  0  0  0  0  # atno 17370 bound_to 10713
  157.7497  131.0105  150.3311 LP  0  0  0  0  0  0  0  0  0  0  0  0  # atno 17371 bound_to 10713
  141.2227  133.7123  156.8353 LP  0  0  0  0  0  0  0  0  0  0  0  0  # atno 17394 bound_to 11000
  140.1993  134.8909  157.3150 LP  0  0  0  0  0  0  0  0  0  0  0  0  # atno 17395 bound_to 11000

$$$$
