AV-unprocessed.smi:1584|AV-procd|sdf|6367|dock6
  -GOLD-   22720 6593D 1   1.00000     0.00000
 Structure written by MMmdl.
 39 40  0  0  0  0  0  0  0  0  1 V2000
  150.6260  140.6169  157.3816 C   0  0  0  0  0  0  0  0  0  0  0  0
  150.2473  142.0597  157.0092 C   0  0  2  0  0  0  0  0  0  0  0  0
  149.6907  142.8703  158.2006 C   0  0  0  0  0  0  0  0  0  0  0  0
  150.7116  143.6567  158.8694 N   0  0  0  0  0  0  0  0  0  0  0  0
  150.7580  145.0237  159.0433 C   0  0  0  0  0  0  0  0  0  0  0  0
  151.9036  145.3075  159.7299 C   0  0  0  0  0  0  0  0  0  0  0  0
  152.4984  144.0314  159.9364 C   0  0  0  0  0  0  0  0  0  0  0  0
  151.7818  143.0449  159.4220 N   0  0  0  0  0  0  0  0  0  0  0  0
  149.2749  142.0321  155.9203 N   0  0  0  0  0  0  0  0  0  0  0  0
  149.3557  141.2606  154.8247 C   0  0  0  0  0  0  0  0  0  0  0  0
  150.2815  140.4738  154.6238 O   0  0  0  0  0  0  0  0  0  0  0  0
  148.2100  141.3934  153.8060 C   0  0  1  0  0  0  0  0  0  0  0  0
  147.3854  140.1063  153.6639 C   0  0  0  0  0  0  0  0  0  0  0  0
  146.4731  139.8718  154.8755 C   0  0  0  0  0  0  0  0  0  0  0  0
  145.7026  141.0616  155.2571 N   0  0  0  0  0  0  0  0  0  0  0  0
  144.5135  140.7935  156.0685 C   0  0  0  0  0  0  0  0  0  0  0  0
  146.0541  142.3355  154.9572 C   0  0  0  0  0  0  0  0  0  0  0  0
  145.3939  143.3043  155.3336 O   0  0  0  0  0  0  0  0  0  0  0  0
  147.3050  142.6116  154.1010 C   0  0  0  0  0  0  0  0  0  0  0  0
  151.4204  140.5919  158.1277 H   0  0  0  0  0  0  0  0  0  0  0  0
  150.9855  140.0682  156.5103 H   0  0  0  0  0  0  0  0  0  0  0  0
  149.7712  140.0752  157.7876 H   0  0  0  0  0  0  0  0  0  0  0  0
  151.1539  142.5498  156.6490 H   0  0  0  0  0  0  0  0  0  0  0  0
  148.9116  143.5553  157.8639 H   0  0  0  0  0  0  0  0  0  0  0  0
  149.2232  142.2037  158.9273 H   0  0  0  0  0  0  0  0  0  0  0  0
  149.9808  145.6724  158.6662 H   0  0  0  0  0  0  0  0  0  0  0  0
  152.2618  146.2785  160.0384 H   0  0  0  0  0  0  0  0  0  0  0  0
  153.4229  143.7945  160.4419 H   0  0  0  0  0  0  0  0  0  0  0  0
  148.4790  142.6476  156.0071 H   0  0  0  0  0  0  0  0  0  0  0  0
  148.6784  141.5770  152.8373 H   0  0  0  0  0  0  0  0  0  0  0  0
  146.7723  140.1772  152.7644 H   0  0  0  0  0  0  0  0  0  0  0  0
  148.0374  139.2443  153.5160 H   0  0  0  0  0  0  0  0  0  0  0  0
  145.7971  139.0465  154.6475 H   0  0  0  0  0  0  0  0  0  0  0  0
  147.0627  139.5552  155.7366 H   0  0  0  0  0  0  0  0  0  0  0  0
  144.5409  141.3622  156.9993 H   0  0  0  0  0  0  0  0  0  0  0  0
  144.4266  139.7402  156.3380 H   0  0  0  0  0  0  0  0  0  0  0  0
  143.6106  141.0723  155.5237 H   0  0  0  0  0  0  0  0  0  0  0  0
  147.8765  143.4174  154.5648 H   0  0  0  0  0  0  0  0  0  0  0  0
  146.9495  143.0160  153.1526 H   0  0  0  0  0  0  0  0  0  0  0  0
  1  2  1  0  0  0  0
  1 20  1  0  0  0  0
  1 21  1  0  0  0  0
  1 22  1  0  0  0  0
  2  3  1  0  0  0  0
  2  9  1  0  0  0  0
  2 23  1  0  0  0  0
  3  4  1  0  0  0  0
  3 24  1  0  0  0  0
  3 25  1  0  0  0  0
  4  8  1  0  0  0  0
  4  5  1  0  0  0  0
  5  6  2  0  0  0  0
  5 26  1  0  0  0  0
  6  7  1  0  0  0  0
  6 27  1  0  0  0  0
  7  8  2  0  0  0  0
  7 28  1  0  0  0  0
  9 10  1  0  0  0  0
  9 29  1  0  0  0  0
 10 11  2  0  0  0  0
 10 12  1  0  0  0  0
 12 19  1  0  0  0  0
 12 13  1  0  0  0  0
 12 30  1  0  0  0  0
 13 14  1  0  0  0  0
 13 31  1  0  0  0  0
 13 32  1  0  0  0  0
 14 15  1  0  0  0  0
 14 33  1  0  0  0  0
 14 34  1  0  0  0  0
 15 16  1  0  0  0  0
 15 17  1  0  0  0  0
 16 35  1  0  0  0  0
 16 36  1  0  0  0  0
 16 37  1  0  0  0  0
 17 18  2  0  0  0  0
 17 19  1  0  0  0  0
 19 38  1  0  0  0  0
 19 39  1  0  0  0  0
M  END
> <s_m_source_file>
AV-unprocessed.smi

> <i_m_source_file_index>
1584

> <i_lp_mmshare_version>
43012

> <i_f3d_flags>
0

> <s_epik_input>
bjFbY0hdW2NIXVtjSF1uMVtDSDJdW0NAQEhdKFtDSDNdKVtOSF1DKD1PKVtDQEBIXTJbQ0gyXVtDSDJdTihbQ0gzXSlDKD1PKVtDSDJdMg==

> <s_epik_cmdline>
J2VwaWtfcHl0aG9uJywgJy1waCcsICc3LjAnLCAnLXRuJywgJzgnLCAnLW1hJywgJzIwMCcsICctbWV0YWxfYmluZGluZycsICctaW1hZScsICc8aW5maWxlLm1hZT4nLCAnLW9tYWUnLCAnPG91dGZpbGUubWFlPic=

> <r_lp_tautomer_probability>
1

> <r_epik_Ionization_Penalty>
0.000299422

> <r_epik_Ionization_Penalty_Charging>
0

> <r_epik_Ionization_Penalty_Neutral>
0.000299422

> <r_epik_State_Penalty>
-0

> <r_epik_Charging_Adjusted_Penalty>
0

> <i_epik_Tot_Q>
0

> <i_epik_Tot_abs_Q>
0

> <r_epik_Metal_State_Penalty>
-0

> <b_epik_Metal_Only>
0

> <s_lp_Force_Field>
OPLS_2005

> <r_lp_Energy>
12.5002

> <b_lp_Chiralities_Consistent>
1

> <s_lp_Variant>
AV-unprocessed.smi:1584-3

> <Gold.Version>
5.8.1

> <Gold.Id.Protein>
6NUR|6NUR_protein|mol2

> <Gold.PLP.Fitness>
41.3545

> <Gold.PLP.PLP>
-36.4605

> <Gold.PLP.part.hbond>
-2.0000

> <Gold.PLP.part.metal>
0.0000

> <Gold.PLP.part.buried>
-4.2984

> <Gold.PLP.part.nonpolar>
-30.2296

> <Gold.PLP.part.repulsive>
0.3926

> <Gold.PLP.ligand.clash>
0.2414

> <Gold.PLP.ligand.torsion>
0.7720

> <Gold.PLP.Chemscore.Hbond>
1.2048

> <Gold.PLP.Chemscore.CHOScore>
1.0000

> <Gold.PLP.Chemscore.Metal>
0.0000

> <Gold.Chemscore.Hbonds>
donor molecule, donor type, donor heavy atom, donor atom, acceptor molecule, acceptor atom, score
      L1  H     9    29       P1  8028  0.24
      P1  H  7989  7998       L1    11  0.98
      L1  C     5    26       P1  8029  1.00

> <Gold.PLP.Chemscore.Internal.Correction>
0.0650

> <Gold.Rescore>
     Score         DG    S(hbond)    S(metal)    S(lipo)     H(rot)  DE(clash)    DE(int)     intcor
     12.47     -14.47       1.18        0.00      79.61       1.67       0.11       1.88       ----

> <Gold.Chemscore.Fitness>
12.4682

> <Gold.Chemscore.DG>
-14.4654

> <Gold.Chemscore.ZeroCoef>
-5.4800

> <Gold.Chemscore.Hbond>
1.1842

> <Gold.Chemscore.Metal>
0.0000

> <Gold.Chemscore.Lipo>
79.6075

> <Gold.Chemscore.Internal_Hbond>
0.0000

> <Gold.Chemscore.DEClash>
0.1137

> <Gold.Chemscore.DEInternal>
1.8835

> <Gold.Chemscore.Rot>
1.6734

> <Gold.Chemscore.Internal.Correction>
   9.000000E+99

> <Gold.Chemscore.Hbonds>
donor molecule, donor type, donor heavy atom, donor atom, acceptor molecule, acceptor atom, score
      L1  H     9    29       P1  8028  0.24
      P1  H  7989  7998       L1    11  0.92

> <Gold.Chemscore.Hbond.Weighted>
-3.9553

> <Gold.Chemscore.Metal.Weighted>
-0.0000

> <Gold.Chemscore.Lipo.Weighted>
-9.3141

> <Gold.Chemscore.Internal_Hbond.Weighted>
0.0000

> <Gold.Chemscore.DEClash.Weighted>
0.1137

> <Gold.Chemscore.DEInternal.Weighted>
1.8835

> <Gold.Chemscore.Rot.Weighted>
4.2840

> <Gold.Chemscore.Internal.Correction.Weighted>
   9.000000E+99

> <Gold.Protein.RotatedTorsions>
[ 6907 6896 6895 6894 ] final   -4.14 input  -60.11 | X-H torsion
[ 7974 7965 7964 7962 ] final   62.08 input  175.53 | X-H torsion
[ 8008 7997 7996 7995 ] final  126.50 input   59.86 | X-H torsion
[ 10167 10162 10161 10158 ] final  -33.33 input  -65.29 | X-H torsion
[ 10718 10713 10712 10709 ] final  104.30 input   66.30 | X-H torsion
[ 10763 10752 10751 10750 ] final  131.06 input  -60.55 | X-H torsion
[ 11005 11000 10999 10996 ] final  -67.83 input  -57.11 | X-H torsion

> <Gold.Protein.ActiveResidues>
 VAL166  LYS551  ARG553  GLY616  TRP617  ASP618  TYR619  PRO620  LYS621  CYS622 
 ASP623  PHE694  ASN695  SER759  ASP760  ASP761  ALA762  ILE779  LEU786  VAL792 
 PHE793  MET794  SER795  GLU796  ALA797  LYS798  CYS799  TRP800  GLU811  SER814 

> <Gold.Protein.RotatedAtoms>
  151.5024  135.1062  159.9832 H   0  0  0  0  0  0  0  0  0  0  0  0  # atno 6907 bound_to 6896
  152.4696  133.7996  159.6956 H   0  0  0  0  0  0  0  0  0  0  0  0  # atno 6908 bound_to 6896
  150.8698  133.7459  159.2991 H   0  0  0  0  0  0  0  0  0  0  0  0  # atno 6909 bound_to 6896
  145.8774  139.3419  143.0726 H   0  0  0  0  0  0  0  0  0  0  0  0  # atno 7974 bound_to 7965
  156.2865  140.2691  156.2121 H   0  0  0  0  0  0  0  0  0  0  0  0  # atno 8008 bound_to 7997
  155.0253  140.0386  157.2471 H   0  0  0  0  0  0  0  0  0  0  0  0  # atno 8009 bound_to 7997
  154.7400  140.2723  155.6386 H   0  0  0  0  0  0  0  0  0  0  0  0  # atno 8010 bound_to 7997
  140.7206  143.3628  151.1929 H   0  0  0  0  0  0  0  0  0  0  0  0  # atno 10167 bound_to 10162
  157.6745  131.0800  150.5685 H   0  0  0  0  0  0  0  0  0  0  0  0  # atno 10718 bound_to 10713
  153.7682  135.3186  155.3348 H   0  0  0  0  0  0  0  0  0  0  0  0  # atno 10763 bound_to 10752
  154.8206  135.4606  154.0771 H   0  0  0  0  0  0  0  0  0  0  0  0  # atno 10764 bound_to 10752
  153.2022  135.6924  153.8301 H   0  0  0  0  0  0  0  0  0  0  0  0  # atno 10765 bound_to 10752
  141.1517  133.6727  156.6353 H   0  0  0  0  0  0  0  0  0  0  0  0  # atno 11005 bound_to 11000
  145.9065  140.9209  143.0476 LP  0  0  0  0  0  0  0  0  0  0  0  0  # atno 17320 bound_to 7965
  144.6726  140.1102  143.7456 LP  0  0  0  0  0  0  0  0  0  0  0  0  # atno 17321 bound_to 7965
  139.7184  143.9263  152.2976 LP  0  0  0  0  0  0  0  0  0  0  0  0  # atno 17342 bound_to 10162
  139.9012  144.6911  150.8663 LP  0  0  0  0  0  0  0  0  0  0  0  0  # atno 17343 bound_to 10162
  156.5987  130.4348  149.5906 LP  0  0  0  0  0  0  0  0  0  0  0  0  # atno 17370 bound_to 10713
  156.2524  130.6915  151.1657 LP  0  0  0  0  0  0  0  0  0  0  0  0  # atno 17371 bound_to 10713
  140.3435  134.7828  157.4415 LP  0  0  0  0  0  0  0  0  0  0  0  0  # atno 17394 bound_to 11000
  140.0918  134.5590  155.8437 LP  0  0  0  0  0  0  0  0  0  0  0  0  # atno 17395 bound_to 11000

$$$$
