AV-unprocessed.smi:220|AV-procd|sdf|1683|dock5
  -GOLD-   2262020123D 1   1.00000     0.00000
 Structure written by MMmdl.
 51 55  0  0  0  0  0  0  0  0  1 V2000
  150.2419  141.4091  157.0112 N   0  0  0  0  0  0  0  0  0  0  0  0
  150.6949  141.9157  158.1603 C   0  0  0  0  0  0  0  0  0  0  0  0
  149.9334  142.2625  159.0620 O   0  0  0  0  0  0  0  0  0  0  0  0
  152.2269  142.0636  158.2977 C   0  0  1  0  0  0  0  0  0  0  0  0
  152.7305  143.4568  158.7678 C   0  0  1  0  0  0  0  0  0  0  0  0
  151.8604  144.7214  158.5644 C   0  0  0  0  0  0  0  0  0  0  0  0
  151.8972  145.4506  159.9112 C   0  0  0  0  0  0  0  0  0  0  0  0
  152.0253  144.3312  160.9440 C   0  0  0  0  0  0  0  0  0  0  0  0
  152.9797  143.3373  160.2761 C   0  0  1  0  0  0  0  0  0  0  0  0
  152.7884  141.8574  160.6191 C   0  0  0  0  0  0  0  0  0  0  0  0
  152.7606  141.1720  159.3309 N   0  0  0  0  0  0  0  0  0  0  0  0
  152.6658  139.8134  159.2597 C   0  0  0  0  0  0  0  0  0  0  0  0
  152.6825  139.1024  160.4191 N   0  0  0  0  0  0  0  0  0  0  0  0
  152.5853  137.7708  160.4069 C   0  0  0  0  0  0  0  0  0  0  0  0
  152.4682  136.9546  159.3601 N   0  0  0  0  0  0  0  0  0  0  0  0
  152.4607  137.6519  158.1890 C   0  0  0  0  0  0  0  0  0  0  0  0
  152.5584  139.0672  158.0465 C   0  0  0  0  0  0  0  0  0  0  0  0
  152.5325  139.3955  156.6951 N   0  0  0  0  0  0  0  0  0  0  0  0
  152.4156  138.2515  156.0808 C   0  0  0  0  0  0  0  0  0  0  0  0
  152.3536  137.1508  156.9025 N   0  0  0  0  0  0  0  0  0  0  0  0
  152.2220  135.7613  156.4905 C   0  0  0  0  0  0  0  0  0  0  0  0
  150.8030  135.3860  156.0175 C   0  0  0  0  0  0  0  0  0  0  0  0
  150.2748  136.4324  155.0207 C   0  0  0  0  0  0  0  0  0  0  0  0
  148.9826  136.0959  154.5585 O   0  0  0  0  0  0  0  0  0  0  0  0
  150.6070  133.9302  155.5703 C   0  0  0  0  0  0  0  0  0  0  0  0
  149.4651  133.7574  156.4354 O   0  0  0  0  0  0  0  0  0  0  0  0
  149.8132  134.9807  157.1182 C   0  0  0  0  0  0  0  0  0  0  0  0
  149.2489  141.2885  156.8746 H   0  0  0  0  0  0  0  0  0  0  0  0
  150.8923  141.1445  156.2855 H   0  0  0  0  0  0  0  0  0  0  0  0
  152.6954  141.8552  157.3368 H   0  0  0  0  0  0  0  0  0  0  0  0
  153.6979  143.6350  158.2949 H   0  0  0  0  0  0  0  0  0  0  0  0
  152.2388  145.3484  157.7566 H   0  0  0  0  0  0  0  0  0  0  0  0
  150.8225  144.4989  158.3255 H   0  0  0  0  0  0  0  0  0  0  0  0
  152.7759  146.0954  159.9582 H   0  0  0  0  0  0  0  0  0  0  0  0
  151.0177  146.0741  160.0748 H   0  0  0  0  0  0  0  0  0  0  0  0
  152.3940  144.6849  161.9069 H   0  0  0  0  0  0  0  0  0  0  0  0
  151.0467  143.8766  161.1052 H   0  0  0  0  0  0  0  0  0  0  0  0
  154.0095  143.6346  160.4809 H   0  0  0  0  0  0  0  0  0  0  0  0
  153.6083  141.4976  161.2422 H   0  0  0  0  0  0  0  0  0  0  0  0
  151.8548  141.6835  161.1561 H   0  0  0  0  0  0  0  0  0  0  0  0
  152.6033  137.2914  161.3744 H   0  0  0  0  0  0  0  0  0  0  0  0
  152.3708  138.1825  155.0041 H   0  0  0  0  0  0  0  0  0  0  0  0
  152.9473  135.5849  155.6951 H   0  0  0  0  0  0  0  0  0  0  0  0
  152.5366  135.1216  157.3158 H   0  0  0  0  0  0  0  0  0  0  0  0
  150.2492  137.4305  155.4581 H   0  0  0  0  0  0  0  0  0  0  0  0
  150.9306  136.5008  154.1522 H   0  0  0  0  0  0  0  0  0  0  0  0
  149.0381  135.8810  153.6399 H   0  0  0  0  0  0  0  0  0  0  0  0
  150.3562  133.8185  154.5147 H   0  0  0  0  0  0  0  0  0  0  0  0
  151.4225  133.2616  155.8495 H   0  0  0  0  0  0  0  0  0  0  0  0
  150.2805  134.7852  158.0846 H   0  0  0  0  0  0  0  0  0  0  0  0
  148.9642  135.6564  157.2270 H   0  0  0  0  0  0  0  0  0  0  0  0
  1  2  1  0  0  0  0
  1 28  1  0  0  0  0
  1 29  1  0  0  0  0
  2  3  2  0  0  0  0
  2  4  1  0  0  0  0
  4 11  1  0  0  0  0
  4  5  1  0  0  0  0
  4 30  1  0  0  0  0
  5  9  1  0  0  0  0
  5  6  1  0  0  0  0
  5 31  1  0  0  0  0
  6  7  1  0  0  0  0
  6 32  1  0  0  0  0
  6 33  1  0  0  0  0
  7  8  1  0  0  0  0
  7 34  1  0  0  0  0
  7 35  1  0  0  0  0
  8  9  1  0  0  0  0
  8 36  1  0  0  0  0
  8 37  1  0  0  0  0
  9 10  1  0  0  0  0
  9 38  1  0  0  0  0
 10 11  1  0  0  0  0
 10 39  1  0  0  0  0
 10 40  1  0  0  0  0
 11 12  1  0  0  0  0
 12 17  1  0  0  0  0
 12 13  2  0  0  0  0
 13 14  1  0  0  0  0
 14 15  2  0  0  0  0
 14 41  1  0  0  0  0
 15 16  1  0  0  0  0
 16 20  1  0  0  0  0
 16 17  2  0  0  0  0
 17 18  1  0  0  0  0
 18 19  2  0  0  0  0
 19 20  1  0  0  0  0
 19 42  1  0  0  0  0
 20 21  1  0  0  0  0
 21 22  1  0  0  0  0
 21 43  1  0  0  0  0
 21 44  1  0  0  0  0
 22 27  1  0  0  0  0
 22 23  1  0  0  0  0
 22 25  1  0  0  0  0
 23 24  1  0  0  0  0
 23 45  1  0  0  0  0
 23 46  1  0  0  0  0
 24 47  1  0  0  0  0
 25 26  1  0  0  0  0
 25 48  1  0  0  0  0
 25 49  1  0  0  0  0
 26 27  1  0  0  0  0
 27 50  1  0  0  0  0
 27 51  1  0  0  0  0
M  END
> <s_m_source_file>
AV-unprocessed.smi

> <i_m_source_file_index>
220

> <i_lp_mmshare_version>
43012

> <i_f3d_flags>
0

> <s_epik_input>
W0NIMl0xW0NIMl1bQ0gyXVtDQEhdKFtDQEhdMTIpW0NIMl1OKFtDQEBIXTJDKD1PKVtOSDJdKWMobltjSF1uMyljKGMzNCluW2NIXW40W0NIMl1DNShbQ0gyXVtPSF0pW0NIMl1PW0NIMl01

> <s_epik_cmdline>
J2VwaWtfcHl0aG9uJywgJy1waCcsICc3LjAnLCAnLXRuJywgJzgnLCAnLW1hJywgJzIwMCcsICctbWV0YWxfYmluZGluZycsICctaW1hZScsICc8aW5maWxlLm1hZT4nLCAnLW9tYWUnLCAnPG91dGZpbGUubWFlPic=

> <r_lp_tautomer_probability>
1

> <r_epik_Ionization_Penalty>
0.00118987

> <r_epik_Ionization_Penalty_Charging>
0

> <r_epik_Ionization_Penalty_Neutral>
0.00118987

> <r_epik_State_Penalty>
0.000654261

> <r_epik_Charging_Adjusted_Penalty>
0.000654261

> <i_epik_Tot_Q>
0

> <i_epik_Tot_abs_Q>
0

> <r_epik_Metal_State_Penalty>
-0

> <b_epik_Metal_Only>
0

> <s_lp_Force_Field>
OPLS_2005

> <r_lp_Energy>
61.4398

> <b_lp_Chiralities_Consistent>
1

> <s_lp_Variant>
AV-unprocessed.smi:220-2

> <Gold.Version>
5.8.1

> <Gold.Id.Protein>
6NUR|6NUR_protein|mol2

> <Gold.PLP.Fitness>
49.5285

> <Gold.PLP.PLP>
-41.4512

> <Gold.PLP.part.hbond>
-4.0000

> <Gold.PLP.part.metal>
0.0000

> <Gold.PLP.part.buried>
-1.5722

> <Gold.PLP.part.nonpolar>
-37.0454

> <Gold.PLP.part.repulsive>
0.0846

> <Gold.PLP.ligand.clash>
0.0000

> <Gold.PLP.ligand.torsion>
0.7376

> <Gold.PLP.Chemscore.Hbond>
2.9913

> <Gold.PLP.Chemscore.CHOScore>
0.0000

> <Gold.PLP.Chemscore.Metal>
0.0000

> <Gold.Chemscore.Hbonds>
donor molecule, donor type, donor heavy atom, donor atom, acceptor molecule, acceptor atom, score
      L1  H    24    47       P1  7948  1.00
      P1  H  6896  6909       L1    15  0.98
      P1  H  7997  8010       L1    18  1.00

> <Gold.PLP.Chemscore.Internal.Correction>
0.5787

> <Gold.Rescore>
     Score         DG    S(hbond)    S(metal)    S(lipo)     H(rot)  DE(clash)    DE(int)     intcor
     13.67     -19.19       2.46        0.00     110.05       2.89       3.03       2.50       ----

> <Gold.Chemscore.Fitness>
13.6650

> <Gold.Chemscore.DG>
-19.1945

> <Gold.Chemscore.ZeroCoef>
-5.4800

> <Gold.Chemscore.Hbond>
2.4637

> <Gold.Chemscore.Metal>
0.0000

> <Gold.Chemscore.Lipo>
110.0545

> <Gold.Chemscore.Internal_Hbond>
0.0000

> <Gold.Chemscore.DEClash>
3.0319

> <Gold.Chemscore.DEInternal>
2.4976

> <Gold.Chemscore.Rot>
2.8869

> <Gold.Chemscore.Internal.Correction>
   9.000000E+99

> <Gold.Chemscore.Hbonds>
donor molecule, donor type, donor heavy atom, donor atom, acceptor molecule, acceptor atom, score
      L1  H    24    47       P1  7948  0.89
      P1  H  6896  6909       L1    15  0.63
      P1  H  7997  8010       L1    18  0.36

> <Gold.Chemscore.Hbond.Weighted>
-8.2286

> <Gold.Chemscore.Metal.Weighted>
-0.0000

> <Gold.Chemscore.Lipo.Weighted>
-12.8764

> <Gold.Chemscore.Internal_Hbond.Weighted>
0.0000

> <Gold.Chemscore.DEClash.Weighted>
3.0319

> <Gold.Chemscore.DEInternal.Weighted>
2.4976

> <Gold.Chemscore.Rot.Weighted>
7.3905

> <Gold.Chemscore.Internal.Correction.Weighted>
   9.000000E+99

> <Gold.Protein.RotatedTorsions>
[ 6907 6896 6895 6894 ] final  133.34 input  -60.11 | X-H torsion
[ 7974 7965 7964 7962 ] final -117.93 input  175.53 | X-H torsion
[ 8008 7997 7996 7995 ] final   86.49 input   59.86 | X-H torsion
[ 10167 10162 10161 10158 ] final   60.04 input  -65.29 | X-H torsion
[ 10718 10713 10712 10709 ] final  114.24 input   66.30 | X-H torsion
[ 10763 10752 10751 10750 ] final  123.21 input  -60.55 | X-H torsion
[ 11005 11000 10999 10996 ] final -157.48 input  -57.11 | X-H torsion

> <Gold.Protein.ActiveResidues>
 VAL166  LYS551  ARG553  GLY616  TRP617  ASP618  TYR619  PRO620  LYS621  CYS622 
 ASP623  PHE694  ASN695  SER759  ASP760  ASP761  ALA762  ILE779  LEU786  VAL792 
 PHE793  MET794  SER795  GLU796  ALA797  LYS798  CYS799  TRP800  GLU811  SER814 

> <Gold.Protein.RotatedAtoms>
  152.3230  133.5874  159.5757 H   0  0  0  0  0  0  0  0  0  0  0  0  # atno 6907 bound_to 6896
  150.7381  133.9983  159.3638 H   0  0  0  0  0  0  0  0  0  0  0  0  # atno 6908 bound_to 6896
  151.7865  135.0748  160.0432 H   0  0  0  0  0  0  0  0  0  0  0  0  # atno 6909 bound_to 6896
  145.0797  140.8417  143.4046 H   0  0  0  0  0  0  0  0  0  0  0  0  # atno 7974 bound_to 7965
  155.9635  140.3391  155.6511 H   0  0  0  0  0  0  0  0  0  0  0  0  # atno 8008 bound_to 7997
  155.6767  140.0733  157.2518 H   0  0  0  0  0  0  0  0  0  0  0  0  # atno 8009 bound_to 7997
  154.4149  140.1681  156.1926 H   0  0  0  0  0  0  0  0  0  0  0  0  # atno 8010 bound_to 7997
  140.1699  144.4287  150.6667 H   0  0  0  0  0  0  0  0  0  0  0  0  # atno 10167 bound_to 10162
  157.6293  131.0995  150.7156 H   0  0  0  0  0  0  0  0  0  0  0  0  # atno 10718 bound_to 10713
  153.6419  135.3378  155.3074 H   0  0  0  0  0  0  0  0  0  0  0  0  # atno 10763 bound_to 10752
  154.8557  135.4320  154.1995 H   0  0  0  0  0  0  0  0  0  0  0  0  # atno 10764 bound_to 10752
  153.2917  135.7017  153.7361 H   0  0  0  0  0  0  0  0  0  0  0  0  # atno 10765 bound_to 10752
  140.6642  134.4317  157.5233 H   0  0  0  0  0  0  0  0  0  0  0  0  # atno 11005 bound_to 11000
  145.1193  139.2704  143.5596 LP  0  0  0  0  0  0  0  0  0  0  0  0  # atno 17320 bound_to 7965
  146.3531  140.0813  142.8617 LP  0  0  0  0  0  0  0  0  0  0  0  0  # atno 17321 bound_to 7965
  140.6589  143.2246  151.5903 LP  0  0  0  0  0  0  0  0  0  0  0  0  # atno 17342 bound_to 10162
  139.5343  144.2826  152.1216 LP  0  0  0  0  0  0  0  0  0  0  0  0  # atno 17343 bound_to 10162
  156.7499  130.4765  149.5459 LP  0  0  0  0  0  0  0  0  0  0  0  0  # atno 17370 bound_to 10713
  156.1485  130.6294  151.0564 LP  0  0  0  0  0  0  0  0  0  0  0  0  # atno 17371 bound_to 10713
  139.9003  134.8572  156.1925 LP  0  0  0  0  0  0  0  0  0  0  0  0  # atno 17394 bound_to 11000
  141.0442  133.6922  156.1653 LP  0  0  0  0  0  0  0  0  0  0  0  0  # atno 17395 bound_to 11000

$$$$
