AV-unprocessed.smi:2886|AV-procd|sdf|11092|dock3
  -GOLD-   2272015563D 1   1.00000     0.00000
 Structure written by MMmdl.
 28 30  0  0  0  0  0  0  0  0  3 V2000
  152.2717  136.2649  156.6839 O   0  0  0  0  0  0  0  0  0  0  0  0
  152.3900  137.0186  157.6480 C   0  0  0  0  0  0  0  0  0  0  0  0
  152.6219  136.5766  158.9200 N   0  5  0  0  0  0  0  0  0  0  0  0
  152.7456  137.4059  159.9323 N   0  3  0  0  0  0  0  0  0  0  0  0
  152.6593  138.7273  159.8166 C   0  0  0  0  0  0  0  0  0  0  0  0
  152.4127  139.3185  158.5459 C   0  0  0  0  0  0  0  0  0  0  0  0
  152.3143  140.6930  158.3695 N   0  0  0  0  0  0  0  0  0  0  0  0
  152.4296  141.7615  159.3539 C   0  0  1  0  0  0  0  0  0  0  0  0
  153.5459  142.7585  159.0405 C   0  0  0  0  0  0  0  0  0  0  0  0
  152.7857  144.0924  159.0671 C   0  0  1  0  0  0  0  0  0  0  0  0
  151.9276  144.2753  157.8086 C   0  0  0  0  0  0  0  0  0  0  0  0
  150.7982  143.2769  158.0554 C   0  0  0  0  0  0  0  0  0  0  0  0
  151.1942  142.6758  159.4154 C   0  0  2  0  0  0  0  0  0  0  0  0
  151.7785  143.8140  160.0267 O   0  0  0  0  0  0  0  0  0  0  0  0
  152.2848  138.4794  157.4775 C   0  0  0  0  0  0  0  0  0  0  0  0
  151.9899  139.1051  155.8884 Cl  0  0  0  0  0  0  0  0  0  0  0  0
  152.9239  137.0486  160.8841 H   0  0  0  0  0  0  0  0  0  0  0  0
  152.7877  139.3072  160.7214 H   0  0  0  0  0  0  0  0  0  0  0  0
  152.0199  141.0031  157.4538 H   0  0  0  0  0  0  0  0  0  0  0  0
  152.5884  141.3495  160.3498 H   0  0  0  0  0  0  0  0  0  0  0  0
  154.3098  142.7266  159.8181 H   0  0  0  0  0  0  0  0  0  0  0  0
  154.0326  142.5839  158.0799 H   0  0  0  0  0  0  0  0  0  0  0  0
  153.4102  144.9539  159.3049 H   0  0  0  0  0  0  0  0  0  0  0  0
  151.5342  145.2908  157.7501 H   0  0  0  0  0  0  0  0  0  0  0  0
  152.4828  144.0704  156.8926 H   0  0  0  0  0  0  0  0  0  0  0  0
  149.8436  143.7986  158.1318 H   0  0  0  0  0  0  0  0  0  0  0  0
  150.7089  142.5309  157.2656 H   0  0  0  0  0  0  0  0  0  0  0  0
  150.3577  142.2496  159.9699 H   0  0  0  0  0  0  0  0  0  0  0  0
  1  2  2  0  0  0  0
  2  3  1  0  0  0  0
  2 15  1  0  0  0  0
  3  4  1  0  0  0  0
  4  5  2  0  0  0  0
  4 17  1  0  0  0  0
  5  6  1  0  0  0  0
  5 18  1  0  0  0  0
  6 15  2  0  0  0  0
  6  7  1  0  0  0  0
  7  8  1  0  0  0  0
  7 19  1  0  0  0  0
  8 13  1  0  0  0  0
  8  9  1  0  0  0  0
  8 20  1  0  0  0  0
  9 10  1  0  0  0  0
  9 21  1  0  0  0  0
  9 22  1  0  0  0  0
 10 14  1  0  0  0  0
 10 11  1  0  0  0  0
 10 23  1  0  0  0  0
 11 12  1  0  0  0  0
 11 24  1  0  0  0  0
 11 25  1  0  0  0  0
 12 13  1  0  0  0  0
 12 26  1  0  0  0  0
 12 27  1  0  0  0  0
 13 14  1  0  0  0  0
 13 28  1  0  0  0  0
 15 16  1  0  0  0  0
M  CHG  1   3  -1
M  CHG  1   4   1
M  END
> <s_m_source_file>
AV-unprocessed.smi

> <i_m_source_file_index>
2886

> <i_lp_mmshare_version>
43012

> <i_f3d_flags>
0

> <s_epik_input>
Tz1jMVtuSF1uW2NIXWMoYzFDbClbTkhdW0NASF0oW0NIMl1bQ0BASF0yMylbQ0BASF0oTzMpW0NIMl1bQ0gyXTI=

> <s_epik_cmdline>
J2VwaWtfcHl0aG9uJywgJy1waCcsICc3LjAnLCAnLXRuJywgJzgnLCAnLW1hJywgJzIwMCcsICctbWV0YWxfYmluZGluZycsICctaW1hZScsICc8aW5maWxlLm1hZT4nLCAnLW9tYWUnLCAnPG91dGZpbGUubWFlPic=

> <r_lp_tautomer_probability>
0.0138196

> <r_epik_Ionization_Penalty>
2.43027

> <r_epik_Ionization_Penalty_Charging>
2.43027

> <r_epik_Ionization_Penalty_Neutral>
1.33267e-06

> <r_epik_State_Penalty>
2.7044

> <r_epik_Charging_Adjusted_Penalty>
5.13467

> <i_epik_Tot_Q>
0

> <i_epik_Tot_abs_Q>
2

> <r_epik_Metal_State_Penalty>
2.98589

> <b_epik_Metal_Only>
0

> <s_lp_Force_Field>
OPLS_2005

> <r_lp_Energy>
57.8077

> <b_lp_Chiralities_Consistent>
1

> <s_lp_Variant>
AV-unprocessed.smi:2886-6

> <Gold.Version>
5.8.1

> <Gold.Id.Protein>
6NUR|6NUR_protein|mol2

> <Gold.PLP.Fitness>
34.6076

> <Gold.PLP.PLP>
-25.6093

> <Gold.PLP.part.hbond>
-2.0000

> <Gold.PLP.part.metal>
0.0000

> <Gold.PLP.part.buried>
-3.8275

> <Gold.PLP.part.nonpolar>
-21.2985

> <Gold.PLP.part.repulsive>
0.2480

> <Gold.PLP.ligand.clash>
0.0000

> <Gold.PLP.ligand.torsion>
0.0055

> <Gold.PLP.Chemscore.Hbond>
3.0000

> <Gold.PLP.Chemscore.CHOScore>
0.0000

> <Gold.PLP.Chemscore.Metal>
0.0000

> <Gold.Chemscore.Hbonds>
donor molecule, donor type, donor heavy atom, donor atom, acceptor molecule, acceptor atom, score
      P1  H  6896  6909       L1     3  1.18
      P1  H 10752 10765       L1     1  1.00

> <Gold.PLP.Chemscore.Internal.Correction>
0.0093

> <Gold.Rescore>
     Score         DG    S(hbond)    S(metal)    S(lipo)     H(rot)  DE(clash)    DE(int)     intcor
     18.50     -18.64       1.62        0.00      88.25       1.00       0.13       0.01       ----

> <Gold.Chemscore.Fitness>
18.4993

> <Gold.Chemscore.DG>
-18.6399

> <Gold.Chemscore.ZeroCoef>
-5.4800

> <Gold.Chemscore.Hbond>
1.6150

> <Gold.Chemscore.Metal>
0.0000

> <Gold.Chemscore.Lipo>
88.2542

> <Gold.Chemscore.Internal_Hbond>
0.0000

> <Gold.Chemscore.DEClash>
0.1334

> <Gold.Chemscore.DEInternal>
0.0072

> <Gold.Chemscore.Rot>
1.0000

> <Gold.Chemscore.Internal.Correction>
   9.000000E+99

> <Gold.Chemscore.Hbonds>
donor molecule, donor type, donor heavy atom, donor atom, acceptor molecule, acceptor atom, score
      P1  H  6896  6909       L1     3  0.08
      P1  H 10752 10765       L1     1  0.97

> <Gold.Chemscore.Hbond.Weighted>
-5.3941

> <Gold.Chemscore.Metal.Weighted>
-0.0000

> <Gold.Chemscore.Lipo.Weighted>
-10.3257

> <Gold.Chemscore.Internal_Hbond.Weighted>
0.0000

> <Gold.Chemscore.DEClash.Weighted>
0.1334

> <Gold.Chemscore.DEInternal.Weighted>
0.0072

> <Gold.Chemscore.Rot.Weighted>
2.5600

> <Gold.Chemscore.Internal.Correction.Weighted>
   9.000000E+99

> <Gold.Protein.RotatedTorsions>
[ 6907 6896 6895 6894 ] final  156.71 input  -60.11 | X-H torsion
[ 7974 7965 7964 7962 ] final   78.94 input  175.53 | X-H torsion
[ 8008 7997 7996 7995 ] final   35.87 input   59.86 | X-H torsion
[ 10167 10162 10161 10158 ] final   95.11 input  -65.29 | X-H torsion
[ 10718 10713 10712 10709 ] final  -89.98 input   66.30 | X-H torsion
[ 10763 10752 10751 10750 ] final -133.66 input  -60.55 | X-H torsion
[ 11005 11000 10999 10996 ] final  -38.52 input  -57.11 | X-H torsion

> <Gold.Protein.ActiveResidues>
 VAL166  LYS551  ARG553  GLY616  TRP617  ASP618  TYR619  PRO620  LYS621  CYS622 
 ASP623  PHE694  ASN695  SER759  ASP760  ASP761  ALA762  ILE779  LEU786  VAL792 
 PHE793  MET794  SER795  GLU796  ALA797  LYS798  CYS799  TRP800  GLU811  SER814 

> <Gold.Protein.RotatedAtoms>
  152.0257  133.3917  159.4276 H   0  0  0  0  0  0  0  0  0  0  0  0  # atno 6907 bound_to 6896
  150.6886  134.3576  159.4945 H   0  0  0  0  0  0  0  0  0  0  0  0  # atno 6908 bound_to 6896
  152.1356  134.9101  160.0607 H   0  0  0  0  0  0  0  0  0  0  0  0  # atno 6909 bound_to 6896
  145.6707  139.2496  143.1870 H   0  0  0  0  0  0  0  0  0  0  0  0  # atno 7974 bound_to 7965
  155.1781  140.3297  155.4380 H   0  0  0  0  0  0  0  0  0  0  0  0  # atno 8008 bound_to 7997
  156.2486  140.1931  156.6831 H   0  0  0  0  0  0  0  0  0  0  0  0  # atno 8009 bound_to 7997
  154.6290  140.0585  156.9695 H   0  0  0  0  0  0  0  0  0  0  0  0  # atno 8010 bound_to 7997
  139.8019  144.6810  150.9753 H   0  0  0  0  0  0  0  0  0  0  0  0  # atno 10167 bound_to 10162
  155.9986  130.4892  150.5253 H   0  0  0  0  0  0  0  0  0  0  0  0  # atno 10718 bound_to 10713
  154.8730  135.3759  154.4609 H   0  0  0  0  0  0  0  0  0  0  0  0  # atno 10763 bound_to 10752
  153.5278  135.7028  153.5704 H   0  0  0  0  0  0  0  0  0  0  0  0  # atno 10764 bound_to 10752
  153.3922  135.3969  155.1896 H   0  0  0  0  0  0  0  0  0  0  0  0  # atno 10765 bound_to 10752
  141.0033  133.6944  156.2064 H   0  0  0  0  0  0  0  0  0  0  0  0  # atno 11005 bound_to 11000
  146.1048  140.7500  142.9531 LP  0  0  0  0  0  0  0  0  0  0  0  0  # atno 17320 bound_to 7965
  144.7058  140.3845  143.7119 LP  0  0  0  0  0  0  0  0  0  0  0  0  # atno 17321 bound_to 7965
  140.7820  143.4272  151.0749 LP  0  0  0  0  0  0  0  0  0  0  0  0  # atno 17342 bound_to 10162
  139.7944  143.8173  152.3156 LP  0  0  0  0  0  0  0  0  0  0  0  0  # atno 17343 bound_to 10162
  157.3209  131.0681  151.1932 LP  0  0  0  0  0  0  0  0  0  0  0  0  # atno 17370 bound_to 10713
  157.2846  130.6766  149.6083 LP  0  0  0  0  0  0  0  0  0  0  0  0  # atno 17371 bound_to 10713
  140.6853  134.4723  157.5589 LP  0  0  0  0  0  0  0  0  0  0  0  0  # atno 17394 bound_to 11000
  139.9050  134.8469  156.1742 LP  0  0  0  0  0  0  0  0  0  0  0  0  # atno 17395 bound_to 11000

$$$$
