#       Name:                AV-unprocessed.smi:2580
#       Creating user name   scv26
#       Creation time:       Fri Mar 27 14:14:46 2020


#       File generated by GOLD software.
#

@<TRIPOS>MOLECULE
AV-unprocessed.smi:2580
    34    35     1
SMALL
NO_CHARGES


@<TRIPOS>ATOM
      1 ****        -2.3548  -2.5446  -1.2787 C.3            1 S1                 0.0000
      2 ****        -2.0472  -1.0424  -1.3847 C.3            1 S1                 0.0000
      3 ****        -3.2796  -0.1850  -1.5893 C.3            1 S1                 0.0000
      4 ****        -2.7751   1.1966  -1.1888 C.3            1 S1                 0.0000
      5 ****        -1.7936   0.9732  -0.1816 O.3            1 S1                 0.0000
      6 ****        -1.4529  -0.4129  -0.1139 C.3            1 S1                 0.0000
      7 ****         0.0671  -0.5733   0.0474 C.2            1 S1                 0.0000
      8 ****         0.6354  -1.5577  -0.4260 O.2            1 S1                 0.0000
      9 ****         0.6878   0.4045   0.7340 N.am           1 S1                 0.0000
     10 ****         2.0690   0.5351   1.0451 C.ar           1 S1                 0.0000
     11 ****         2.9978  -0.3881   0.6888 N.ar           1 S1                 0.0000
     12 ****         4.2902  -0.1914   1.0220 C.ar           1 S1                 0.0000
     13 ****         4.7380   0.9371   1.7313 C.ar           1 S1                 0.0000
     14 ****         3.7873   1.9017   2.1082 C.ar           1 S1                 0.0000
     15 ****         2.4359   1.7021   1.7630 C.ar           1 S1                 0.0000
     16 ****         1.2640   2.8882   2.2255 Cl             1 S1                 0.0000
     17 ****        -3.0312  -2.7550  -0.4498 H              1 S1                 0.0000
     18 ****        -1.4473  -3.1273  -1.1219 H              1 S1                 0.0000
     19 ****        -2.8250  -2.9094  -2.1921 H              1 S1                 0.0000
     20 ****        -1.3700  -0.8771  -2.2250 H              1 S1                 0.0000
     21 ****        -3.6611  -0.2181  -2.6102 H              1 S1                 0.0000
     22 ****        -4.0787  -0.4985  -0.9157 H              1 S1                 0.0000
     23 ****        -2.2950   1.6863  -2.0368 H              1 S1                 0.0000
     24 ****        -3.5746   1.8452  -0.8304 H              1 S1                 0.0000
     25 ****        -1.9435  -0.8271   0.7682 H              1 S1                 0.0000
     26 ****         0.0975   1.1548   1.0638 H              1 S1                 0.0000
     27 ****         4.9870  -0.9569   0.7143 H              1 S1                 0.0000
     28 ****         5.7820   1.0586   1.9796 H              1 S1                 0.0000
     29 ****         4.0908   2.7826   2.6546 H              1 S1                 0.0000
     30 ****        -2.1569   1.2664   0.7027 LP             1 S1                 0.0000
     31 ****        -0.9738   1.5034  -0.3976 LP             1 S1                 0.0000
     32 ****         0.1080  -2.2524  -0.9152 LP             1 S1                 0.0000
     33 ****         1.6244  -1.6626  -0.3213 LP             1 S1                 0.0000
     34 ****         2.7264  -1.2073   0.1835 LP             1 S1                 0.0000
@<TRIPOS>BOND
    1    1    2 1     
    2    1   17 1     
    3    1   18 1     
    4    1   19 1     
    5    2    6 1     
    6    2    3 1     
    7    2   20 1     
    8    3    4 1     
    9    3   21 1     
   10    3   22 1     
   11    4    5 1     
   12    4   23 1     
   13    4   24 1     
   14    5    6 1     
   15    6    7 1     
   16    6   25 1     
   17    7    8 2     
   18    7    9 am    
   19    9   10 1     
   20    9   26 1     
   21   10   15 ar    
   22   10   11 ar    
   23   11   12 ar    
   24   12   13 ar    
   25   12   27 1     
   26   13   14 ar    
   27   13   28 1     
   28   14   15 ar    
   29   14   29 1     
   30   15   16 1     
   31    5   30 1     
   32    5   31 1     
   33    8   32 1     
   34    8   33 1     
   35   11   34 1     
@<TRIPOS>SUBSTRUCTURE
      1 S1             1
@<TRIPOS>SET
LONE_PAIRS      STATIC     ATOMS    <user>   **** ""
5 30 31 32 33 34
DONOR_HYDROGENS      STATIC     ATOMS    <user>   **** ""
1 26
ATOM$BLUE        STATIC     ATOMS    COLORGROUP SYSTEM
5 30 31 32 33 34
ATOM$RED        STATIC     ATOMS    COLORGROUP SYSTEM
1 26
