AV-unprocessed.smi:3128|AV-procd|sdf|11920|dock3
  -GOLD-   2272017303D 1   1.00000     0.00000
 Structure written by MMmdl.
 39 39  0  0  0  0  0  0  0  0  1 V2000
  150.3573  141.1797  155.7320 C   0  0  0  0  0  0  0  0  0  0  0  0
  149.5516  140.8122  154.4729 C   0  0  0  0  0  0  0  0  0  0  0  0
  148.2878  141.6914  154.4006 C   0  0  0  0  0  0  0  0  0  0  0  0
  149.2203  139.2978  154.4039 C   0  0  2  0  0  0  0  0  0  0  0  0
  150.4703  138.3974  154.4640 C   0  0  0  0  0  0  0  0  0  0  0  0
  148.4860  138.9985  153.1759 N   0  0  0  0  0  0  0  0  0  0  0  0
  147.1538  139.0638  153.0276 C   0  0  0  0  0  0  0  0  0  0  0  0
  146.3874  139.4213  153.9216 O   0  0  0  0  0  0  0  0  0  0  0  0
  146.5925  138.6354  151.6686 C   0  0  0  0  0  0  0  0  0  0  0  0
  145.4207  137.7575  151.7887 N   0  0  0  0  0  0  0  0  0  0  0  0
  145.7576  136.3370  151.8057 C   0  0  0  0  0  0  0  0  0  0  0  0
  144.5534  135.5068  151.3348 C   0  0  0  0  0  0  0  0  0  0  0  0
  144.9502  134.1664  150.9405 N   0  0  0  0  0  0  0  0  0  0  0  0
  144.1939  133.1952  150.3190 C   0  0  0  0  0  0  0  0  0  0  0  0
  144.9872  132.0931  150.1752 C   0  0  0  0  0  0  0  0  0  0  0  0
  146.2275  132.4924  150.7470 C   0  0  0  0  0  0  0  0  0  0  0  0
  146.2029  133.7342  151.2033 N   0  0  0  0  0  0  0  0  0  0  0  0
  149.8245  140.8953  156.6400 H   0  0  0  0  0  0  0  0  0  0  0  0
  150.5419  142.2535  155.7795 H   0  0  0  0  0  0  0  0  0  0  0  0
  151.3318  140.6930  155.7480 H   0  0  0  0  0  0  0  0  0  0  0  0
  150.1675  141.0626  153.6081 H   0  0  0  0  0  0  0  0  0  0  0  0
  147.6003  141.4612  155.2152 H   0  0  0  0  0  0  0  0  0  0  0  0
  147.7495  141.5575  153.4623 H   0  0  0  0  0  0  0  0  0  0  0  0
  148.5413  142.7495  154.4714 H   0  0  0  0  0  0  0  0  0  0  0  0
  148.5831  139.0560  155.2568 H   0  0  0  0  0  0  0  0  0  0  0  0
  150.9917  138.4911  155.4158 H   0  0  0  0  0  0  0  0  0  0  0  0
  151.1747  138.6417  153.6683 H   0  0  0  0  0  0  0  0  0  0  0  0
  150.2052  137.3450  154.3557 H   0  0  0  0  0  0  0  0  0  0  0  0
  149.0328  138.6890  152.3856 H   0  0  0  0  0  0  0  0  0  0  0  0
  146.2944  139.5365  151.1320 H   0  0  0  0  0  0  0  0  0  0  0  0
  147.3608  138.1538  151.0613 H   0  0  0  0  0  0  0  0  0  0  0  0
  144.7407  137.9319  151.0629 H   0  0  0  0  0  0  0  0  0  0  0  0
  146.6111  136.1765  151.1466 H   0  0  0  0  0  0  0  0  0  0  0  0
  146.0580  135.9920  152.7948 H   0  0  0  0  0  0  0  0  0  0  0  0
  143.7930  135.4400  152.1140 H   0  0  0  0  0  0  0  0  0  0  0  0
  144.0817  135.9903  150.4783 H   0  0  0  0  0  0  0  0  0  0  0  0
  143.1642  133.3655  150.0412 H   0  0  0  0  0  0  0  0  0  0  0  0
  144.7205  131.1448  149.7329 H   0  0  0  0  0  0  0  0  0  0  0  0
  147.1384  131.9205  150.8445 H   0  0  0  0  0  0  0  0  0  0  0  0
  1  2  1  0  0  0  0
  1 18  1  0  0  0  0
  1 19  1  0  0  0  0
  1 20  1  0  0  0  0
  2  3  1  0  0  0  0
  2  4  1  0  0  0  0
  2 21  1  0  0  0  0
  3 22  1  0  0  0  0
  3 23  1  0  0  0  0
  3 24  1  0  0  0  0
  4  5  1  0  0  0  0
  4  6  1  0  0  0  0
  4 25  1  0  0  0  0
  5 26  1  0  0  0  0
  5 27  1  0  0  0  0
  5 28  1  0  0  0  0
  6  7  1  0  0  0  0
  6 29  1  0  0  0  0
  7  8  2  0  0  0  0
  7  9  1  0  0  0  0
  9 10  1  0  0  0  0
  9 30  1  0  0  0  0
  9 31  1  0  0  0  0
 10 11  1  0  0  0  0
 10 32  1  0  0  0  0
 11 12  1  0  0  0  0
 11 33  1  0  0  0  0
 11 34  1  0  0  0  0
 12 13  1  0  0  0  0
 12 35  1  0  0  0  0
 12 36  1  0  0  0  0
 13 17  1  0  0  0  0
 13 14  1  0  0  0  0
 14 15  2  0  0  0  0
 14 37  1  0  0  0  0
 15 16  1  0  0  0  0
 15 38  1  0  0  0  0
 16 17  2  0  0  0  0
 16 39  1  0  0  0  0
M  END
> <s_m_source_file>
AV-unprocessed.smi

> <i_m_source_file_index>
3128

> <i_lp_mmshare_version>
43012

> <i_f3d_flags>
0

> <s_epik_input>
W0NIM11bQ0hdKFtDSDNdKVtDQEhdKFtDSDNdKVtOSF1DKD1PKVtDSDJdW05IXVtDSDJdW0NIMl1uMVtjSF1bY0hdW2NIXW4x

> <s_epik_cmdline>
J2VwaWtfcHl0aG9uJywgJy1waCcsICc3LjAnLCAnLXRuJywgJzgnLCAnLW1hJywgJzIwMCcsICctbWV0YWxfYmluZGluZycsICctaW1hZScsICc8aW5maWxlLm1hZT4nLCAnLW9tYWUnLCAnPG91dGZpbGUubWFlPic=

> <r_lp_tautomer_probability>
1

> <r_epik_Ionization_Penalty>
0.724947

> <r_epik_Ionization_Penalty_Charging>
0

> <r_epik_Ionization_Penalty_Neutral>
0.724947

> <r_epik_State_Penalty>
0.747959

> <r_epik_Charging_Adjusted_Penalty>
0.747959

> <i_epik_Tot_Q>
0

> <i_epik_Tot_abs_Q>
0

> <r_epik_Metal_State_Penalty>
0.746178

> <b_epik_Metal_Only>
0

> <s_lp_Force_Field>
OPLS_2005

> <r_lp_Energy>
7.88811

> <b_lp_Chiralities_Consistent>
1

> <s_lp_Variant>
AV-unprocessed.smi:3128-3

> <Gold.Version>
5.8.1

> <Gold.Id.Protein>
6NUR|6NUR_protein|mol2

> <Gold.PLP.Fitness>
48.7385

> <Gold.PLP.PLP>
-40.3267

> <Gold.PLP.part.hbond>
-3.0878

> <Gold.PLP.part.metal>
0.0000

> <Gold.PLP.part.buried>
-2.9501

> <Gold.PLP.part.nonpolar>
-35.2967

> <Gold.PLP.part.repulsive>
0.4369

> <Gold.PLP.ligand.clash>
0.0000

> <Gold.PLP.ligand.torsion>
1.0565

> <Gold.PLP.Chemscore.Hbond>
1.4320

> <Gold.PLP.Chemscore.CHOScore>
2.0000

> <Gold.PLP.Chemscore.Metal>
0.0000

> <Gold.Chemscore.Hbonds>
donor molecule, donor type, donor heavy atom, donor atom, acceptor molecule, acceptor atom, score
      L1  H     6    29       P1  7957  0.35
      L1  H    10    32       P1 10171  1.00
      L1  C    14    37       P1 10186  1.00
      L1  C    16    39       P1 10747  1.00

> <Gold.PLP.Chemscore.Internal.Correction>
0.2289

> <Gold.Rescore>
     Score         DG    S(hbond)    S(metal)    S(lipo)     H(rot)  DE(clash)    DE(int)     intcor
     14.74     -15.80       1.78        0.00      84.41       2.15       0.00       1.06       ----

> <Gold.Chemscore.Fitness>
14.7395

> <Gold.Chemscore.DG>
-15.8033

> <Gold.Chemscore.ZeroCoef>
-5.4800

> <Gold.Chemscore.Hbond>
1.7809

> <Gold.Chemscore.Metal>
0.0000

> <Gold.Chemscore.Lipo>
84.4120

> <Gold.Chemscore.Internal_Hbond>
0.0000

> <Gold.Chemscore.DEClash>
0.0029

> <Gold.Chemscore.DEInternal>
1.0608

> <Gold.Chemscore.Rot>
2.1488

> <Gold.Chemscore.Internal.Correction>
   9.000000E+99

> <Gold.Chemscore.Hbonds>
donor molecule, donor type, donor heavy atom, donor atom, acceptor molecule, acceptor atom, score
      L1  H     6    29       P1  7957  0.31
      L1  H    10    32       P1 10171  1.00

> <Gold.Chemscore.Hbond.Weighted>
-5.9481

> <Gold.Chemscore.Metal.Weighted>
-0.0000

> <Gold.Chemscore.Lipo.Weighted>
-9.8762

> <Gold.Chemscore.Internal_Hbond.Weighted>
0.0000

> <Gold.Chemscore.DEClash.Weighted>
0.0029

> <Gold.Chemscore.DEInternal.Weighted>
1.0608

> <Gold.Chemscore.Rot.Weighted>
5.5010

> <Gold.Chemscore.Internal.Correction.Weighted>
   9.000000E+99

> <Gold.Protein.RotatedTorsions>
[ 6907 6896 6895 6894 ] final -108.78 input  -60.11 | X-H torsion
[ 7974 7965 7964 7962 ] final  166.89 input  175.53 | X-H torsion
[ 8008 7997 7996 7995 ] final  -53.69 input   59.86 | X-H torsion
[ 10167 10162 10161 10158 ] final    9.50 input  -65.29 | X-H torsion
[ 10718 10713 10712 10709 ] final   47.50 input   66.30 | X-H torsion
[ 10763 10752 10751 10750 ] final -106.08 input  -60.55 | X-H torsion
[ 11005 11000 10999 10996 ] final  126.82 input  -57.11 | X-H torsion

> <Gold.Protein.ActiveResidues>
 VAL166  LYS551  ARG553  GLY616  TRP617  ASP618  TYR619  PRO620  LYS621  CYS622 
 ASP623  PHE694  ASN695  SER759  ASP760  ASP761  ALA762  ILE779  LEU786  VAL792 
 PHE793  MET794  SER795  GLU796  ALA797  LYS798  CYS799  TRP800  GLU811  SER814 

> <Gold.Protein.RotatedAtoms>
  150.7522  133.9627  159.3520 H   0  0  0  0  0  0  0  0  0  0  0  0  # atno 6907 bound_to 6896
  151.7554  135.0821  160.0347 H   0  0  0  0  0  0  0  0  0  0  0  0  # atno 6908 bound_to 6896
  152.3438  133.6061  159.5932 H   0  0  0  0  0  0  0  0  0  0  0  0  # atno 6909 bound_to 6896
  144.7445  139.8681  143.6386 H   0  0  0  0  0  0  0  0  0  0  0  0  # atno 7974 bound_to 7965
  154.4140  140.1194  156.5195 H   0  0  0  0  0  0  0  0  0  0  0  0  # atno 8008 bound_to 7997
  155.6717  140.3496  155.4801 H   0  0  0  0  0  0  0  0  0  0  0  0  # atno 8009 bound_to 7997
  155.9627  140.1126  157.0871 H   0  0  0  0  0  0  0  0  0  0  0  0  # atno 8010 bound_to 7997
  140.6251  143.8119  150.7223 H   0  0  0  0  0  0  0  0  0  0  0  0  # atno 10167 bound_to 10162
  157.4591  130.8185  149.7868 H   0  0  0  0  0  0  0  0  0  0  0  0  # atno 10718 bound_to 10713
  154.7989  135.4725  154.0228 H   0  0  0  0  0  0  0  0  0  0  0  0  # atno 10763 bound_to 10752
  153.1749  135.6831  153.8564 H   0  0  0  0  0  0  0  0  0  0  0  0  # atno 10764 bound_to 10752
  153.8134  135.3214  155.3381 H   0  0  0  0  0  0  0  0  0  0  0  0  # atno 10765 bound_to 10752
  139.9475  134.9627  156.8763 H   0  0  0  0  0  0  0  0  0  0  0  0  # atno 11005 bound_to 11000
  146.1300  139.4333  143.0175 LP  0  0  0  0  0  0  0  0  0  0  0  0  # atno 17320 bound_to 7965
  145.7178  141.0085  143.1419 LP  0  0  0  0  0  0  0  0  0  0  0  0  # atno 17321 bound_to 7965
  140.1718  143.4188  152.1996 LP  0  0  0  0  0  0  0  0  0  0  0  0  # atno 17342 bound_to 10162
  139.5473  144.7309  151.4544 LP  0  0  0  0  0  0  0  0  0  0  0  0  # atno 17343 bound_to 10162
  156.0020  130.3875  150.2568 LP  0  0  0  0  0  0  0  0  0  0  0  0  # atno 17370 bound_to 10713
  157.0745  131.0126  151.3178 LP  0  0  0  0  0  0  0  0  0  0  0  0  # atno 17371 bound_to 10713
  140.5798  134.0363  155.7460 LP  0  0  0  0  0  0  0  0  0  0  0  0  # atno 17394 bound_to 11000
  141.1130  133.9586  157.2875 LP  0  0  0  0  0  0  0  0  0  0  0  0  # atno 17395 bound_to 11000

$$$$
