AV-unprocessed.smi:304|AV-procd|sdf|2278|dock7
  -GOLD-   2262022173D 1   1.00000     0.00000
 Structure written by MMmdl.
 37 39  0  0  0  0  0  0  0  0  2 V2000
  144.3437  138.2143  151.9781 O   0  0  0  0  0  0  0  0  0  0  0  0
  145.6919  137.8933  152.2573 C   0  0  2  0  0  0  0  0  0  0  0  0
  146.5267  139.1842  152.2465 C   0  0  0  0  0  0  0  0  0  0  0  0
  146.7451  139.6154  153.5790 O   0  0  0  0  0  0  0  0  0  0  0  0
  147.2723  140.9279  153.6669 C   0  0  0  0  0  0  0  0  0  0  0  0
  148.5208  140.8660  154.4906 C   0  0  0  0  0  0  0  0  0  0  0  0
  148.9329  141.7829  155.4240 C   0  0  0  0  0  0  0  0  0  0  0  0
  150.1680  141.4382  156.0478 C   0  0  0  0  0  0  0  0  0  0  0  0
  150.6847  140.2572  155.5868 C   0  0  0  0  0  0  0  0  0  0  0  0
  149.6610  139.5429  154.3726 S   0  0  0  0  0  0  0  0  0  0  0  0
  146.2335  136.8055  151.3060 C   0  0  0  0  0  0  0  0  0  0  0  0
  145.3476  135.6374  151.2068 N   0  0  0  0  0  0  0  0  0  0  0  0
  144.1076  135.5307  150.6569 C   0  0  0  0  0  0  0  0  0  0  0  0
  143.6932  134.2441  150.8239 N   0  3  0  0  0  0  0  0  0  0  0  0
  144.6828  133.5177  151.4901 C   0  0  0  0  0  0  0  0  0  0  0  0
  144.7247  132.1844  151.8847 C   0  0  0  0  0  0  0  0  0  0  0  0
  145.8930  131.7540  152.5475 C   0  0  0  0  0  0  0  0  0  0  0  0
  145.9859  130.4653  152.9523 F   0  0  0  0  0  0  0  0  0  0  0  0
  146.9646  132.6384  152.7943 C   0  0  0  0  0  0  0  0  0  0  0  0
  148.0695  132.1829  153.4307 F   0  0  0  0  0  0  0  0  0  0  0  0
  146.9102  133.9886  152.3901 C   0  0  0  0  0  0  0  0  0  0  0  0
  145.7502  134.4060  151.7379 C   0  0  0  0  0  0  0  0  0  0  0  0
  144.1847  139.1043  152.2520 H   0  0  0  0  0  0  0  0  0  0  0  0
  145.7009  137.4985  153.2739 H   0  0  0  0  0  0  0  0  0  0  0  0
  147.4730  139.0328  151.7244 H   0  0  0  0  0  0  0  0  0  0  0  0
  145.9819  139.9616  151.7090 H   0  0  0  0  0  0  0  0  0  0  0  0
  147.4958  141.3131  152.6712 H   0  0  0  0  0  0  0  0  0  0  0  0
  146.5502  141.5987  154.1340 H   0  0  0  0  0  0  0  0  0  0  0  0
  148.3944  142.6836  155.6783 H   0  0  0  0  0  0  0  0  0  0  0  0
  150.6270  142.0595  156.8027 H   0  0  0  0  0  0  0  0  0  0  0  0
  151.5987  139.7653  155.8850 H   0  0  0  0  0  0  0  0  0  0  0  0
  146.4109  137.1982  150.3048 H   0  0  0  0  0  0  0  0  0  0  0  0
  147.1997  136.4494  151.6652 H   0  0  0  0  0  0  0  0  0  0  0  0
  143.5512  136.3238  150.1782 H   0  0  0  0  0  0  0  0  0  0  0  0
  143.9075  131.5036  151.6969 H   0  0  0  0  0  0  0  0  0  0  0  0
  147.7393  134.6541  152.5806 H   0  0  0  0  0  0  0  0  0  0  0  0
  142.7990  133.8912  150.5070 H   0  0  0  0  0  0  0  0  0  0  0  0
  1  2  1  0  0  0  0
  1 23  1  0  0  0  0
  2  3  1  0  0  0  0
  2 11  1  0  0  0  0
  2 24  1  0  0  0  0
  3  4  1  0  0  0  0
  3 25  1  0  0  0  0
  3 26  1  0  0  0  0
  4  5  1  0  0  0  0
  5  6  1  0  0  0  0
  5 27  1  0  0  0  0
  5 28  1  0  0  0  0
  6 10  1  0  0  0  0
  6  7  2  0  0  0  0
  7  8  1  0  0  0  0
  7 29  1  0  0  0  0
  8  9  2  0  0  0  0
  8 30  1  0  0  0  0
  9 10  1  0  0  0  0
  9 31  1  0  0  0  0
 11 12  1  0  0  0  0
 11 32  1  0  0  0  0
 11 33  1  0  0  0  0
 12 22  1  0  0  0  0
 12 13  1  0  0  0  0
 13 14  2  0  0  0  0
 13 34  1  0  0  0  0
 14 15  1  0  0  0  0
 14 37  1  0  0  0  0
 15 22  2  0  0  0  0
 15 16  1  0  0  0  0
 16 17  2  0  0  0  0
 16 35  1  0  0  0  0
 17 18  1  0  0  0  0
 17 19  1  0  0  0  0
 19 20  1  0  0  0  0
 19 21  2  0  0  0  0
 21 22  1  0  0  0  0
 21 36  1  0  0  0  0
M  CHG  1  14   1
M  END
> <s_m_source_file>
AV-unprocessed.smi

> <i_m_source_file_index>
304

> <i_lp_mmshare_version>
43012

> <i_f3d_flags>
0

> <s_epik_input>
W2NIXTFjKEYpYyhGKVtjSF1jKGMxMiluKFtjSF1uMilbQ0gyXVtDQEhdKFtPSF0pW0NIMl1PW0NIMl1jM1tjSF1bY0hdW2NIXXMz

> <s_epik_cmdline>
J2VwaWtfcHl0aG9uJywgJy1waCcsICc3LjAnLCAnLXRuJywgJzgnLCAnLW1hJywgJzIwMCcsICctbWV0YWxfYmluZGluZycsICctaW1hZScsICc8aW5maWxlLm1hZT4nLCAnLW9tYWUnLCAnPG91dGZpbGUubWFlPic=

> <r_epik_Ionization_Penalty>
2.17745

> <r_epik_Ionization_Penalty_Charging>
2.17744

> <r_epik_Ionization_Penalty_Neutral>
1.26231e-06

> <r_epik_State_Penalty>
2.31922

> <r_epik_Charging_Adjusted_Penalty>
4.49666

> <i_epik_Tot_Q>
1

> <i_epik_Tot_abs_Q>
1

> <r_epik_Metal_State_Penalty>
6.40003

> <b_epik_Metal_Only>
0

> <s_lp_Force_Field>
OPLS_2005

> <r_lp_Energy>
12.8656

> <b_lp_Chiralities_Consistent>
1

> <s_lp_Variant>
AV-unprocessed.smi:304-3

> <Gold.Version>
5.8.1

> <Gold.Id.Protein>
6NUR|6NUR_protein|mol2

> <Gold.PLP.Fitness>
53.9055

> <Gold.PLP.PLP>
-44.9599

> <Gold.PLP.part.hbond>
-2.3441

> <Gold.PLP.part.metal>
0.0000

> <Gold.PLP.part.buried>
3.3178

> <Gold.PLP.part.nonpolar>
-45.8458

> <Gold.PLP.part.repulsive>
0.1995

> <Gold.PLP.ligand.clash>
0.0000

> <Gold.PLP.ligand.torsion>
1.4043

> <Gold.PLP.Chemscore.Hbond>
2.8880

> <Gold.PLP.Chemscore.CHOScore>
1.0000

> <Gold.PLP.Chemscore.Metal>
0.0000

> <Gold.Chemscore.Hbonds>
donor molecule, donor type, donor heavy atom, donor atom, acceptor molecule, acceptor atom, score
      L1  H     1    23       P1 10175  0.80
      L1  H    14    37       P1 10186  1.46
      L1  C    13    34       P1 10171  1.00

> <Gold.PLP.Chemscore.Internal.Correction>
0.0902

> <Gold.Rescore>
     Score         DG    S(hbond)    S(metal)    S(lipo)     H(rot)  DE(clash)    DE(int)     intcor
     12.92     -15.92       1.85        0.00      95.96       2.73       1.58       1.42       ----

> <Gold.Chemscore.Fitness>
12.9200

> <Gold.Chemscore.DG>
-15.9191

> <Gold.Chemscore.ZeroCoef>
-5.4800

> <Gold.Chemscore.Hbond>
1.8534

> <Gold.Chemscore.Metal>
0.0000

> <Gold.Chemscore.Lipo>
95.9560

> <Gold.Chemscore.Internal_Hbond>
0.0000

> <Gold.Chemscore.DEClash>
1.5807

> <Gold.Chemscore.DEInternal>
1.4184

> <Gold.Chemscore.Rot>
2.7258

> <Gold.Chemscore.Internal.Correction>
   9.000000E+99

> <Gold.Chemscore.Hbonds>
donor molecule, donor type, donor heavy atom, donor atom, acceptor molecule, acceptor atom, score
      L1  H     1    23       P1 10175  0.79
      L1  H    14    37       P1 10186  0.67

> <Gold.Chemscore.Hbond.Weighted>
-6.1903

> <Gold.Chemscore.Metal.Weighted>
-0.0000

> <Gold.Chemscore.Lipo.Weighted>
-11.2269

> <Gold.Chemscore.Internal_Hbond.Weighted>
0.0000

> <Gold.Chemscore.DEClash.Weighted>
1.5807

> <Gold.Chemscore.DEInternal.Weighted>
1.4184

> <Gold.Chemscore.Rot.Weighted>
6.9781

> <Gold.Chemscore.Internal.Correction.Weighted>
   9.000000E+99

> <Gold.Protein.RotatedTorsions>
[ 6907 6896 6895 6894 ] final   66.68 input  -60.11 | X-H torsion
[ 7974 7965 7964 7962 ] final   53.53 input  175.53 | X-H torsion
[ 8008 7997 7996 7995 ] final -110.44 input   59.86 | X-H torsion
[ 10167 10162 10161 10158 ] final   82.79 input  -65.29 | X-H torsion
[ 10718 10713 10712 10709 ] final   87.77 input   66.30 | X-H torsion
[ 10763 10752 10751 10750 ] final   63.35 input  -60.55 | X-H torsion
[ 11005 11000 10999 10996 ] final  141.42 input  -57.11 | X-H torsion

> <Gold.Protein.ActiveResidues>
 VAL166  LYS551  ARG553  GLY616  TRP617  ASP618  TYR619  PRO620  LYS621  CYS622 
 ASP623  PHE694  ASN695  SER759  ASP760  ASP761  ALA762  ILE779  LEU786  VAL792 
 PHE793  MET794  SER795  GLU796  ALA797  LYS798  CYS799  TRP800  GLU811  SER814 

> <Gold.Protein.RotatedAtoms>
  152.4498  134.5417  159.9840 H   0  0  0  0  0  0  0  0  0  0  0  0  # atno 6907 bound_to 6896
  151.5493  133.3414  159.2958 H   0  0  0  0  0  0  0  0  0  0  0  0  # atno 6908 bound_to 6896
  150.8424  134.7753  159.7006 H   0  0  0  0  0  0  0  0  0  0  0  0  # atno 6909 bound_to 6896
  145.9702  139.4142  143.0195 H   0  0  0  0  0  0  0  0  0  0  0  0  # atno 7974 bound_to 7965
  154.9746  140.0397  157.2250 H   0  0  0  0  0  0  0  0  0  0  0  0  # atno 8008 bound_to 7997
  154.7769  140.2812  155.6071 H   0  0  0  0  0  0  0  0  0  0  0  0  # atno 8009 bound_to 7997
  156.2930  140.2599  156.2586 H   0  0  0  0  0  0  0  0  0  0  0  0  # atno 8010 bound_to 7997
  139.9251  144.6188  150.8401 H   0  0  0  0  0  0  0  0  0  0  0  0  # atno 10167 bound_to 10162
  157.6943  131.0268  150.3174 H   0  0  0  0  0  0  0  0  0  0  0  0  # atno 10718 bound_to 10713
  153.0015  135.5432  154.6338 H   0  0  0  0  0  0  0  0  0  0  0  0  # atno 10763 bound_to 10752
  154.5610  135.2834  155.0922 H   0  0  0  0  0  0  0  0  0  0  0  0  # atno 10764 bound_to 10752
  154.2124  135.6465  153.5172 H   0  0  0  0  0  0  0  0  0  0  0  0  # atno 10765 bound_to 10752
  140.0400  134.9309  157.0825 H   0  0  0  0  0  0  0  0  0  0  0  0  # atno 11005 bound_to 11000
  145.7917  140.9811  143.1045 LP  0  0  0  0  0  0  0  0  0  0  0  0  # atno 17320 bound_to 7965
  144.6835  139.9691  143.7482 LP  0  0  0  0  0  0  0  0  0  0  0  0  # atno 17321 bound_to 7965
  140.7652  143.3269  151.2496 LP  0  0  0  0  0  0  0  0  0  0  0  0  # atno 17342 bound_to 10162
  139.6829  143.9824  152.2818 LP  0  0  0  0  0  0  0  0  0  0  0  0  # atno 17343 bound_to 10162
  156.3666  130.3856  149.7209 LP  0  0  0  0  0  0  0  0  0  0  0  0  # atno 17370 bound_to 10713
  156.4637  130.7964  151.2983 LP  0  0  0  0  0  0  0  0  0  0  0  0  # atno 17371 bound_to 10713
  140.4084  134.2007  155.7163 LP  0  0  0  0  0  0  0  0  0  0  0  0  # atno 17394 bound_to 11000
  141.1878  133.8274  157.1019 LP  0  0  0  0  0  0  0  0  0  0  0  0  # atno 17395 bound_to 11000

$$$$
