AV-unprocessed.smi:1198|AV-procd|sdf|5013|dock5
  -GOLD-   22720 4 33D 1   1.00000     0.00000
 Structure written by MMmdl.
 40 41  0  0  0  0  0  0  0  0  2 V2000
  154.3454  143.9015  164.5640 C   0  0  0  0  0  0  0  0  0  0  0  0
  154.6178  142.6174  164.0127 O   0  0  0  0  0  0  0  0  0  0  0  0
  154.0277  142.2824  162.8111 C   0  0  0  0  0  0  0  0  0  0  0  0
  152.9548  143.0667  162.3435 C   0  0  0  0  0  0  0  0  0  0  0  0
  152.3489  142.7264  161.1193 C   0  0  0  0  0  0  0  0  0  0  0  0
  152.8244  141.6098  160.4023 C   0  0  0  0  0  0  0  0  0  0  0  0
  152.2045  141.2995  159.1613 N   0  0  0  0  0  0  0  0  0  0  0  0
  151.2268  141.9677  158.5252 C   0  0  0  0  0  0  0  0  0  0  0  0
  150.7232  143.0246  158.9048 O   0  0  0  0  0  0  0  0  0  0  0  0
  150.8728  141.3488  157.3895 N   0  0  0  0  0  0  0  0  0  0  0  0
  149.8244  141.7943  156.4760 C   0  0  0  0  0  0  0  0  0  0  0  0
  149.7878  140.9670  155.1761 C   0  0  1  0  0  0  0  0  0  0  0  0
  149.8679  139.4580  155.4081 C   0  0  0  0  0  0  0  0  0  0  0  0
  149.2560  138.8374  154.1454 C   0  0  0  0  0  0  0  0  0  0  0  0
  148.4955  139.9133  153.4684 N   0  3  1  0  0  0  0  0  0  0  0  0
  147.1531  139.5156  152.9959 C   0  0  0  0  0  0  0  0  0  0  0  0
  148.5017  141.0924  154.3562 C   0  0  0  0  0  0  0  0  0  0  0  0
  153.9173  140.8937  160.9497 C   0  0  0  0  0  0  0  0  0  0  0  0
  154.5028  141.2155  162.1225 N   0  0  0  0  0  0  0  0  0  0  0  0
  154.8826  144.0121  165.5058 H   0  0  0  0  0  0  0  0  0  0  0  0
  153.2823  144.0285  164.7733 H   0  0  0  0  0  0  0  0  0  0  0  0
  154.6774  144.7000  163.8987 H   0  0  0  0  0  0  0  0  0  0  0  0
  152.6035  143.9141  162.9139 H   0  0  0  0  0  0  0  0  0  0  0  0
  151.5264  143.3155  160.7404 H   0  0  0  0  0  0  0  0  0  0  0  0
  152.5766  140.4921  158.6829 H   0  0  0  0  0  0  0  0  0  0  0  0
  151.3444  140.4879  157.1525 H   0  0  0  0  0  0  0  0  0  0  0  0
  148.8717  141.6925  156.9963 H   0  0  0  0  0  0  0  0  0  0  0  0
  149.9348  142.8572  156.2535 H   0  0  0  0  0  0  0  0  0  0  0  0
  150.6288  141.2588  154.5444 H   0  0  0  0  0  0  0  0  0  0  0  0
  150.8864  139.1150  155.5925 H   0  0  0  0  0  0  0  0  0  0  0  0
  149.2650  139.1816  156.2745 H   0  0  0  0  0  0  0  0  0  0  0  0
  150.0328  138.4818  153.4679 H   0  0  0  0  0  0  0  0  0  0  0  0
  148.6256  137.9846  154.4025 H   0  0  0  0  0  0  0  0  0  0  0  0
  146.5174  139.2096  153.8280 H   0  0  0  0  0  0  0  0  0  0  0  0
  147.2273  138.6829  152.2958 H   0  0  0  0  0  0  0  0  0  0  0  0
  146.6692  140.3468  152.4821 H   0  0  0  0  0  0  0  0  0  0  0  0
  147.6340  141.0576  155.0174 H   0  0  0  0  0  0  0  0  0  0  0  0
  148.4543  142.0196  153.7843 H   0  0  0  0  0  0  0  0  0  0  0  0
  154.3627  140.0518  160.4437 H   0  0  0  0  0  0  0  0  0  0  0  0
  149.0366  140.1701  152.6551 H   0  0  0  0  0  0  0  0  0  0  0  0
  1  2  1  0  0  0  0
  1 20  1  0  0  0  0
  1 21  1  0  0  0  0
  1 22  1  0  0  0  0
  2  3  1  0  0  0  0
  3 19  1  0  0  0  0
  3  4  2  0  0  0  0
  4  5  1  0  0  0  0
  4 23  1  0  0  0  0
  5  6  2  0  0  0  0
  5 24  1  0  0  0  0
  6  7  1  0  0  0  0
  6 18  1  0  0  0  0
  7  8  1  0  0  0  0
  7 25  1  0  0  0  0
  8  9  2  0  0  0  0
  8 10  1  0  0  0  0
 10 11  1  0  0  0  0
 10 26  1  0  0  0  0
 11 12  1  0  0  0  0
 11 27  1  0  0  0  0
 11 28  1  0  0  0  0
 12 17  1  0  0  0  0
 12 13  1  0  0  0  0
 12 29  1  0  0  0  0
 13 14  1  0  0  0  0
 13 30  1  0  0  0  0
 13 31  1  0  0  0  0
 14 15  1  0  0  0  0
 14 32  1  0  0  0  0
 14 33  1  0  0  0  0
 15 16  1  0  0  0  0
 15 17  1  0  0  0  0
 15 40  1  0  0  0  0
 16 34  1  0  0  0  0
 16 35  1  0  0  0  0
 16 36  1  0  0  0  0
 17 37  1  0  0  0  0
 17 38  1  0  0  0  0
 18 19  2  0  0  0  0
 18 39  1  0  0  0  0
M  CHG  1  15   1
M  END
> <s_m_source_file>
AV-unprocessed.smi

> <i_m_source_file_index>
1198

> <i_lp_mmshare_version>
43012

> <i_f3d_flags>
0

> <s_epik_input>
W0NIM11PYzFbY0hdW2NIXWMoW2NIXW4xKVtOSF1DKD1PKVtOSF1bQ0gyXVtDQEBIXTJbQ0gyXVtDSDJdTihbQ0gzXSlbQ0gyXTI=

> <s_epik_cmdline>
J2VwaWtfcHl0aG9uJywgJy1waCcsICc3LjAnLCAnLXRuJywgJzgnLCAnLW1hJywgJzIwMCcsICctbWV0YWxfYmluZGluZycsICctaW1hZScsICc8aW5maWxlLm1hZT4nLCAnLW9tYWUnLCAnPG91dGZpbGUubWFlPic=

> <r_lp_tautomer_probability>
1

> <r_epik_Ionization_Penalty>
0.00131396

> <r_epik_Ionization_Penalty_Charging>
0.0012301

> <r_epik_Ionization_Penalty_Neutral>
8.38549e-05

> <r_epik_State_Penalty>
0.00081314

> <r_epik_Charging_Adjusted_Penalty>
0.00204324

> <i_epik_Tot_Q>
1

> <i_epik_Tot_abs_Q>
1

> <r_epik_Metal_State_Penalty>
-0

> <b_epik_Metal_Only>
0

> <s_lp_Force_Field>
OPLS_2005

> <r_lp_Energy>
29.2509

> <b_lp_Chiralities_Consistent>
1

> <s_lp_Variant>
AV-unprocessed.smi:1198-4

> <Gold.Version>
5.8.1

> <Gold.Id.Protein>
6NUR|6NUR_protein|mol2

> <Gold.PLP.Fitness>
42.3207

> <Gold.PLP.PLP>
-39.9814

> <Gold.PLP.part.hbond>
-3.0000

> <Gold.PLP.part.metal>
0.0000

> <Gold.PLP.part.buried>
-2.6818

> <Gold.PLP.part.nonpolar>
-33.4665

> <Gold.PLP.part.repulsive>
0.3859

> <Gold.PLP.ligand.clash>
0.0088

> <Gold.PLP.ligand.torsion>
0.3312

> <Gold.PLP.Chemscore.Hbond>
1.0000

> <Gold.PLP.Chemscore.CHOScore>
0.0000

> <Gold.PLP.Chemscore.Metal>
0.0000

> <Gold.Chemscore.Hbonds>
donor molecule, donor type, donor heavy atom, donor atom, acceptor molecule, acceptor atom, score
      L1  H    15    40       P1  7957  1.00

> <Gold.PLP.Chemscore.Internal.Correction>
0.0106

> <Gold.Rescore>
     Score         DG    S(hbond)    S(metal)    S(lipo)     H(rot)  DE(clash)    DE(int)     intcor
     13.57     -15.58       0.95        0.00      92.26       1.51       0.47       1.54       ----

> <Gold.Chemscore.Fitness>
13.5695

> <Gold.Chemscore.DG>
-15.5815

> <Gold.Chemscore.ZeroCoef>
-5.4800

> <Gold.Chemscore.Hbond>
0.9537

> <Gold.Chemscore.Metal>
0.0000

> <Gold.Chemscore.Lipo>
92.2584

> <Gold.Chemscore.Internal_Hbond>
0.0000

> <Gold.Chemscore.DEClash>
0.4731

> <Gold.Chemscore.DEInternal>
1.5390

> <Gold.Chemscore.Rot>
1.5149

> <Gold.Chemscore.Internal.Correction>
   9.000000E+99

> <Gold.Chemscore.Hbonds>
donor molecule, donor type, donor heavy atom, donor atom, acceptor molecule, acceptor atom, score
      L1  H    15    40       P1  7957  0.98

> <Gold.Chemscore.Hbond.Weighted>
-3.1854

> <Gold.Chemscore.Metal.Weighted>
-0.0000

> <Gold.Chemscore.Lipo.Weighted>
-10.7942

> <Gold.Chemscore.Internal_Hbond.Weighted>
0.0000

> <Gold.Chemscore.DEClash.Weighted>
0.4731

> <Gold.Chemscore.DEInternal.Weighted>
1.5390

> <Gold.Chemscore.Rot.Weighted>
3.8781

> <Gold.Chemscore.Internal.Correction.Weighted>
   9.000000E+99

> <Gold.Protein.RotatedTorsions>
[ 6907 6896 6895 6894 ] final -143.65 input  -60.11 | X-H torsion
[ 7974 7965 7964 7962 ] final  161.13 input  175.53 | X-H torsion
[ 8008 7997 7996 7995 ] final -157.94 input   59.86 | X-H torsion
[ 10167 10162 10161 10158 ] final   21.44 input  -65.29 | X-H torsion
[ 10718 10713 10712 10709 ] final  106.00 input   66.30 | X-H torsion
[ 10763 10752 10751 10750 ] final -166.45 input  -60.55 | X-H torsion
[ 11005 11000 10999 10996 ] final  -13.08 input  -57.11 | X-H torsion

> <Gold.Protein.ActiveResidues>
 VAL166  LYS551  ARG553  GLY616  TRP617  ASP618  TYR619  PRO620  LYS621  CYS622 
 ASP623  PHE694  ASN695  SER759  ASP760  ASP761  ALA762  ILE779  LEU786  VAL792 
 PHE793  MET794  SER795  GLU796  ALA797  LYS798  CYS799  TRP800  GLU811  SER814 

> <Gold.Protein.RotatedAtoms>
  151.1034  133.5226  159.2608 H   0  0  0  0  0  0  0  0  0  0  0  0  # atno 6907 bound_to 6896
  151.2049  135.0457  159.8897 H   0  0  0  0  0  0  0  0  0  0  0  0  # atno 6908 bound_to 6896
  152.5445  134.0857  159.8308 H   0  0  0  0  0  0  0  0  0  0  0  0  # atno 6909 bound_to 6896
  144.7701  139.7855  143.6300 H   0  0  0  0  0  0  0  0  0  0  0  0  # atno 7974 bound_to 7965
  155.7401  140.0813  157.2250 H   0  0  0  0  0  0  0  0  0  0  0  0  # atno 8008 bound_to 7997
  154.4023  140.1579  156.2661 H   0  0  0  0  0  0  0  0  0  0  0  0  # atno 8009 bound_to 7997
  155.9029  140.3408  155.6042 H   0  0  0  0  0  0  0  0  0  0  0  0  # atno 8010 bound_to 7997
  140.5427  143.9649  150.6529 H   0  0  0  0  0  0  0  0  0  0  0  0  # atno 10167 bound_to 10162
  157.6684  131.0841  150.5941 H   0  0  0  0  0  0  0  0  0  0  0  0  # atno 10718 bound_to 10713
  154.6832  135.2958  154.9584 H   0  0  0  0  0  0  0  0  0  0  0  0  # atno 10763 bound_to 10752
  154.0572  135.6636  153.4811 H   0  0  0  0  0  0  0  0  0  0  0  0  # atno 10764 bound_to 10752
  153.0561  135.5144  154.7886 H   0  0  0  0  0  0  0  0  0  0  0  0  # atno 10765 bound_to 10752
  140.7724  133.8428  155.9218 H   0  0  0  0  0  0  0  0  0  0  0  0  # atno 11005 bound_to 11000
  146.1841  139.5047  142.9848 LP  0  0  0  0  0  0  0  0  0  0  0  0  # atno 17320 bound_to 7965
  145.6350  141.0296  143.1843 LP  0  0  0  0  0  0  0  0  0  0  0  0  # atno 17321 bound_to 7965
  140.3054  143.3233  152.0931 LP  0  0  0  0  0  0  0  0  0  0  0  0  # atno 17342 bound_to 10162
  139.4995  144.6670  151.6332 LP  0  0  0  0  0  0  0  0  0  0  0  0  # atno 17343 bound_to 10162
  156.6242  130.4414  149.5811 LP  0  0  0  0  0  0  0  0  0  0  0  0  # atno 17370 bound_to 10713
  156.2332  130.6807  151.1484 LP  0  0  0  0  0  0  0  0  0  0  0  0  # atno 17371 bound_to 10713
  140.9561  134.1716  157.4690 LP  0  0  0  0  0  0  0  0  0  0  0  0  # atno 17394 bound_to 11000
  139.8754  134.9927  156.5611 LP  0  0  0  0  0  0  0  0  0  0  0  0  # atno 17395 bound_to 11000

$$$$
