#       Name:                AV-unprocessed.smi:1056
#       Creating user name   scv26
#       Creation time:       Fri Mar 27 03:14:06 2020


#       File generated by GOLD software.
#

@<TRIPOS>MOLECULE
AV-unprocessed.smi:1056
    50    52     1
SMALL
NO_CHARGES


@<TRIPOS>ATOM
      1 ****        -2.9350   4.5917  -2.3659 C.3            1 S1                 0.0000
      2 ****        -2.6087   3.4679  -1.3968 C.ar           1 S1                 0.0000
      3 ****        -2.7694   3.7037  -0.0126 C.ar           1 S1                 0.0000
      4 ****        -2.4637   2.6568   0.8486 C.ar           1 S1                 0.0000
      5 ****        -2.5168   2.5720   2.2416 N.pl3          1 S1                 1.0000
      6 ****        -2.1178   1.3315   2.6372 C.2            1 S1                 0.0000
      7 ****        -1.8075   0.6235   1.5166 N.pl3          1 S1                 0.0000
      8 ****        -1.3236  -0.7563   1.3717 C.3            1 S1                 0.0000
      9 ****         0.2042  -0.8373   1.1813 C.3            1 S1                 0.0000
     10 ****         0.8420  -0.2617   2.3056 O.3            1 S1                 0.0000
     11 ****         0.6863  -2.2932   1.0227 C.3            1 S1                 0.0000
     12 ****         2.1398  -2.3860   0.7309 N.4            1 S1                 1.0000
     13 ****         2.4897  -2.0765  -0.6763 C.3            1 S1                 0.0000
     14 ****         4.0177  -1.9812  -0.8324 C.3            1 S1                 0.0000
     15 ****         4.7297  -3.0498  -0.1352 N.am           1 S1                 0.0000
     16 ****         4.2012  -3.8574   0.7987 C.2            1 S1                 0.0000
     17 ****         4.8669  -4.7288   1.3520 O.2            1 S1                 0.0000
     18 ****         2.7214  -3.6797   1.1726 C.3            1 S1                 0.0000
     19 ****        -2.0114   1.4092   0.3771 C.ar           1 S1                 0.0000
     20 ****        -1.8481   1.1594  -0.9831 C.ar           1 S1                 0.0000
     21 ****        -2.1553   2.2114  -1.8758 C.ar           1 S1                 0.0000
     22 ****        -1.9886   1.9690  -3.3664 C.3            1 S1                 0.0000
     23 ****        -3.2196   5.5030  -1.8388 H              1 S1                 0.0000
     24 ****        -3.7648   4.3084  -3.0140 H              1 S1                 0.0000
     25 ****        -2.0716   4.8248  -2.9892 H              1 S1                 0.0000
     26 ****        -3.1153   4.6572   0.3593 H              1 S1                 0.0000
     27 ****        -2.0559   0.9765   3.6559 H              1 S1                 0.0000
     28 ****        -1.6263  -1.3052   2.2646 H              1 S1                 0.0000
     29 ****        -1.8474  -1.2184   0.5340 H              1 S1                 0.0000
     30 ****         0.4772  -0.2517   0.3043 H              1 S1                 0.0000
     31 ****         0.5628  -0.7220   3.0828 H              1 S1                 0.0000
     32 ****         0.4625  -2.8338   1.9444 H              1 S1                 0.0000
     33 ****         0.1296  -2.7986   0.2320 H              1 S1                 0.0000
     34 ****         2.0946  -2.8611  -1.3238 H              1 S1                 0.0000
     35 ****         2.0368  -1.1412  -1.0030 H              1 S1                 0.0000
     36 ****         4.2939  -1.9895  -1.8869 H              1 S1                 0.0000
     37 ****         4.3686  -1.0326  -0.4243 H              1 S1                 0.0000
     38 ****         5.7021  -3.1824  -0.3756 H              1 S1                 0.0000
     39 ****         2.6179  -3.7716   2.2548 H              1 S1                 0.0000
     40 ****         2.1595  -4.5011   0.7255 H              1 S1                 0.0000
     41 ****        -1.5033   0.2034  -1.3478 H              1 S1                 0.0000
     42 ****        -1.6721   0.9458  -3.5716 H              1 S1                 0.0000
     43 ****        -1.2360   2.6400  -3.7809 H              1 S1                 0.0000
     44 ****        -2.9298   2.1372  -3.8902 H              1 S1                 0.0000
     45 ****         2.5859  -1.6783   1.2975 H              1 S1                 0.0000
     46 ****        -2.8041   3.3052   2.8775 H              1 S1                 0.0000
     47 ****         0.5899   0.7033   2.3777 LP             1 S1                 0.0000
     48 ****         1.8340  -0.3406   2.2064 LP             1 S1                 0.0000
     49 ****         5.8295  -4.8516   1.1106 LP             1 S1                 0.0000
     50 ****         4.4463  -5.3156   2.0440 LP             1 S1                 0.0000
@<TRIPOS>BOND
    1    1    2 1     
    2    1   23 1     
    3    1   24 1     
    4    1   25 1     
    5    2   21 ar    
    6    2    3 ar    
    7    3    4 ar    
    8    3   26 1     
    9    4   19 ar    
   10    4    5 1     
   11    5    6 2     
   12    5   46 1     
   13    6    7 1     
   14    6   27 1     
   15    7    8 1     
   16    7   19 1     
   17    8    9 1     
   18    8   28 1     
   19    8   29 1     
   20    9   10 1     
   21    9   11 1     
   22    9   30 1     
   23   10   31 1     
   24   11   12 1     
   25   11   32 1     
   26   11   33 1     
   27   12   18 1     
   28   12   13 1     
   29   12   45 1     
   30   13   14 1     
   31   13   34 1     
   32   13   35 1     
   33   14   15 1     
   34   14   36 1     
   35   14   37 1     
   36   15   16 am    
   37   15   38 1     
   38   16   17 2     
   39   16   18 1     
   40   18   39 1     
   41   18   40 1     
   42   19   20 ar    
   43   20   21 ar    
   44   20   41 1     
   45   21   22 1     
   46   22   42 1     
   47   22   43 1     
   48   22   44 1     
   49   10   47 1     
   50   10   48 1     
   51   17   49 1     
   52   17   50 1     
@<TRIPOS>SUBSTRUCTURE
      1 S1             1
@<TRIPOS>SET
LONE_PAIRS      STATIC     ATOMS    <user>   **** ""
4 47 48 49 50
DONOR_HYDROGENS      STATIC     ATOMS    <user>   **** ""
4 46 31 45 38
ATOM$BLUE        STATIC     ATOMS    COLORGROUP SYSTEM
4 47 48 49 50
ATOM$RED        STATIC     ATOMS    COLORGROUP SYSTEM
4 46 31 45 38
