#       Name:                AV-unprocessed.smi:1818
#       Creating user name   scv26
#       Creation time:       Fri Mar 27 09:04:58 2020


#       File generated by GOLD software.
#

@<TRIPOS>MOLECULE
AV-unprocessed.smi:1818
    40    41     1
SMALL
NO_CHARGES


@<TRIPOS>ATOM
      1 ****        -1.8262   3.6798   0.3710 N.1            1 S1                 0.0000
      2 ****        -1.4624   2.5823   0.4149 C.1            1 S1                 0.0000
      3 ****        -0.9983   1.1819   0.4719 C.3            1 S1                 0.0000
      4 ****         0.4656   1.1316   0.5423 N.am           1 S1                 0.0000
      5 ****         1.3400   1.7095  -0.2986 C.2            1 S1                 0.0000
      6 ****         1.0105   2.3979  -1.2630 O.2            1 S1                 0.0000
      7 ****         2.8204   1.4522  -0.0199 C.3            1 S1                 0.0000
      8 ****         3.2630   0.2042  -0.6487 N.pl3          1 S1                 0.0000
      9 ****         3.3562  -1.0346  -0.0666 C.2            1 S1                 0.0000
     10 ****         3.8038  -1.8909  -1.0396 C.2            1 S1                 0.0000
     11 ****         3.9635  -1.1402  -2.1736 N.pl3          1 S1                 1.0000
     12 ****         3.6344   0.1333  -1.9341 C.2            1 S1                 0.0000
     13 ****        -1.5451   0.5725   1.7862 C.3            1 S1                 0.0000
     14 ****        -1.6051  -0.9644   1.8451 C.3            1 S1                 0.0000
     15 ****        -2.9385  -1.5220   1.3150 C.3            1 S1                 0.0000
     16 ****        -3.1198  -1.4326  -0.2085 C.3            1 S1                 0.0000
     17 ****        -2.9383  -0.0247  -0.8034 C.3            1 S1                 0.0000
     18 ****        -1.4680   0.4263  -0.7996 C.3            1 S1                 0.0000
     19 ****         0.8487   0.5925   1.3050 H              1 S1                 0.0000
     20 ****         3.4287   2.2717  -0.4063 H              1 S1                 0.0000
     21 ****         3.0053   1.3847   1.0533 H              1 S1                 0.0000
     22 ****         3.1030  -1.2109   0.9689 H              1 S1                 0.0000
     23 ****         4.0140  -2.9503  -1.0112 H              1 S1                 0.0000
     24 ****         3.6590   0.9442  -2.6406 H              1 S1                 0.0000
     25 ****        -0.9391   0.9330   2.6191 H              1 S1                 0.0000
     26 ****        -2.5418   0.9682   1.9881 H              1 S1                 0.0000
     27 ****        -0.7544  -1.4155   1.3334 H              1 S1                 0.0000
     28 ****        -1.5165  -1.2644   2.8898 H              1 S1                 0.0000
     29 ****        -3.0190  -2.5699   1.6058 H              1 S1                 0.0000
     30 ****        -3.7689  -1.0177   1.8107 H              1 S1                 0.0000
     31 ****        -2.4354  -2.1267  -0.6978 H              1 S1                 0.0000
     32 ****        -4.1211  -1.7883  -0.4536 H              1 S1                 0.0000
     33 ****        -3.2786  -0.0588  -1.8390 H              1 S1                 0.0000
     34 ****        -3.5779   0.7036  -0.3039 H              1 S1                 0.0000
     35 ****        -1.3138   1.0775  -1.6611 H              1 S1                 0.0000
     36 ****        -0.8300  -0.4388  -0.9870 H              1 S1                 0.0000
     37 ****         4.2837  -1.4951  -3.0661 H              1 S1                 0.0000
     38 ****        -2.1407   4.6283   0.3331 LP             1 S1                 0.0000
     39 ****         0.0422   2.5544  -1.4580 LP             1 S1                 0.0000
     40 ****         1.7108   2.8010  -1.8521 LP             1 S1                 0.0000
@<TRIPOS>BOND
    1    1    2 3     
    2    2    3 1     
    3    3   18 1     
    4    3    4 1     
    5    3   13 1     
    6    4    5 am    
    7    4   19 1     
    8    5    6 2     
    9    5    7 1     
   10    7    8 1     
   11    7   20 1     
   12    7   21 1     
   13    8   12 1     
   14    8    9 1     
   15    9   10 2     
   16    9   22 1     
   17   10   11 1     
   18   10   23 1     
   19   11   12 2     
   20   11   37 1     
   21   12   24 1     
   22   13   14 1     
   23   13   25 1     
   24   13   26 1     
   25   14   15 1     
   26   14   27 1     
   27   14   28 1     
   28   15   16 1     
   29   15   29 1     
   30   15   30 1     
   31   16   17 1     
   32   16   31 1     
   33   16   32 1     
   34   17   18 1     
   35   17   33 1     
   36   17   34 1     
   37   18   35 1     
   38   18   36 1     
   39    1   38 1     
   40    6   39 1     
   41    6   40 1     
@<TRIPOS>SUBSTRUCTURE
      1 S1             1
@<TRIPOS>SET
LONE_PAIRS      STATIC     ATOMS    <user>   **** ""
3 38 39 40
DONOR_HYDROGENS      STATIC     ATOMS    <user>   **** ""
2 19 37
ATOM$BLUE        STATIC     ATOMS    COLORGROUP SYSTEM
3 38 39 40
ATOM$RED        STATIC     ATOMS    COLORGROUP SYSTEM
2 19 37
