AV-unprocessed.smi:1271|AV-procd|sdf|5332|dock2
  -GOLD-   22720 4463D 1   1.00000     0.00000
 Structure written by MMmdl.
 35 36  0  0  0  0  0  0  0  0  1 V2000
  149.1312  140.6666  157.7715 C   0  0  0  0  0  0  0  0  0  0  0  0
  149.5659  141.9112  156.9865 C   0  0  2  0  0  0  0  0  0  0  0  0
  150.0671  141.5469  155.5742 C   0  0  0  0  0  0  0  0  0  0  0  0
  148.9915  141.1412  154.6859 N   0  0  0  0  0  0  0  0  0  0  0  0
  147.9919  141.9198  154.1419 C   0  0  0  0  0  0  0  0  0  0  0  0
  147.2060  141.1008  153.3834 C   0  0  0  0  0  0  0  0  0  0  0  0
  147.8183  139.8239  153.5205 C   0  0  0  0  0  0  0  0  0  0  0  0
  148.8893  139.8521  154.2969 N   0  0  0  0  0  0  0  0  0  0  0  0
  150.6167  142.6072  157.7283 N   0  0  0  0  0  0  0  0  0  0  0  0
  151.7364  142.0525  158.2255 C   0  0  0  0  0  0  0  0  0  0  0  0
  152.0368  140.8754  158.0230 O   0  0  0  0  0  0  0  0  0  0  0  0
  152.5142  142.9005  158.9452 N   0  0  0  0  0  0  0  0  0  0  0  0
  152.2475  144.3311  159.1686 C   0  0  0  0  0  0  0  0  0  0  0  0
  151.4893  144.4984  160.4961 C   0  0  0  0  0  0  0  0  0  0  0  0
  152.4945  143.9226  161.8998 S   0  0  0  0  0  0  0  0  0  0  0  0
  152.9988  142.2910  161.2692 C   0  0  0  0  0  0  0  0  0  0  0  0
  153.5631  142.4012  159.8423 C   0  0  0  0  0  0  0  0  0  0  0  0
  148.3346  140.1339  157.2513 H   0  0  0  0  0  0  0  0  0  0  0  0
  148.7550  140.9376  158.7586 H   0  0  0  0  0  0  0  0  0  0  0  0
  149.9608  139.9723  157.9095 H   0  0  0  0  0  0  0  0  0  0  0  0
  148.6873  142.5498  156.8809 H   0  0  0  0  0  0  0  0  0  0  0  0
  150.5883  142.3933  155.1248 H   0  0  0  0  0  0  0  0  0  0  0  0
  150.7881  140.7301  155.6287 H   0  0  0  0  0  0  0  0  0  0  0  0
  147.9192  142.9784  154.3438 H   0  0  0  0  0  0  0  0  0  0  0  0
  146.3277  141.3721  152.8171 H   0  0  0  0  0  0  0  0  0  0  0  0
  147.5187  138.8839  153.0810 H   0  0  0  0  0  0  0  0  0  0  0  0
  150.4584  143.5853  157.9207 H   0  0  0  0  0  0  0  0  0  0  0  0
  153.1876  144.8831  159.2058 H   0  0  0  0  0  0  0  0  0  0  0  0
  151.6848  144.7930  158.3573 H   0  0  0  0  0  0  0  0  0  0  0  0
  151.2290  145.5444  160.6580 H   0  0  0  0  0  0  0  0  0  0  0  0
  150.5559  143.9361  160.4752 H   0  0  0  0  0  0  0  0  0  0  0  0
  153.7463  141.8711  161.9422 H   0  0  0  0  0  0  0  0  0  0  0  0
  152.1393  141.6199  161.2881 H   0  0  0  0  0  0  0  0  0  0  0  0
  153.9479  141.4338  159.5162 H   0  0  0  0  0  0  0  0  0  0  0  0
  154.4226  143.0728  159.8280 H   0  0  0  0  0  0  0  0  0  0  0  0
  1  2  1  0  0  0  0
  1 18  1  0  0  0  0
  1 19  1  0  0  0  0
  1 20  1  0  0  0  0
  2  3  1  0  0  0  0
  2  9  1  0  0  0  0
  2 21  1  0  0  0  0
  3  4  1  0  0  0  0
  3 22  1  0  0  0  0
  3 23  1  0  0  0  0
  4  8  1  0  0  0  0
  4  5  1  0  0  0  0
  5  6  2  0  0  0  0
  5 24  1  0  0  0  0
  6  7  1  0  0  0  0
  6 25  1  0  0  0  0
  7  8  2  0  0  0  0
  7 26  1  0  0  0  0
  9 10  1  0  0  0  0
  9 27  1  0  0  0  0
 10 11  2  0  0  0  0
 10 12  1  0  0  0  0
 12 17  1  0  0  0  0
 12 13  1  0  0  0  0
 13 14  1  0  0  0  0
 13 28  1  0  0  0  0
 13 29  1  0  0  0  0
 14 15  1  0  0  0  0
 14 30  1  0  0  0  0
 14 31  1  0  0  0  0
 15 16  1  0  0  0  0
 16 17  1  0  0  0  0
 16 32  1  0  0  0  0
 16 33  1  0  0  0  0
 17 34  1  0  0  0  0
 17 35  1  0  0  0  0
M  END
> <s_m_source_file>
AV-unprocessed.smi

> <i_m_source_file_index>
1271

> <i_lp_mmshare_version>
43012

> <i_f3d_flags>
0

> <s_epik_input>
bjFbY0hdW2NIXVtjSF1uMVtDSDJdW0NAQEhdKFtDSDNdKVtOSF1DKD1PKU4yW0NIMl1bQ0gyXVNbQ0gyXVtDSDJdMg==

> <s_epik_cmdline>
J2VwaWtfcHl0aG9uJywgJy1waCcsICc3LjAnLCAnLXRuJywgJzgnLCAnLW1hJywgJzIwMCcsICctbWV0YWxfYmluZGluZycsICctaW1hZScsICc8aW5maWxlLm1hZT4nLCAnLW9tYWUnLCAnPG91dGZpbGUubWFlPic=

> <r_lp_tautomer_probability>
1

> <r_epik_Ionization_Penalty>
5.86346e-05

> <r_epik_Ionization_Penalty_Charging>
0

> <r_epik_Ionization_Penalty_Neutral>
5.86346e-05

> <r_epik_State_Penalty>
-0

> <r_epik_Charging_Adjusted_Penalty>
0

> <i_epik_Tot_Q>
0

> <i_epik_Tot_abs_Q>
0

> <r_epik_Metal_State_Penalty>
-0

> <b_epik_Metal_Only>
0

> <s_lp_Force_Field>
OPLS_2005

> <r_lp_Energy>
22.4021

> <b_lp_Chiralities_Consistent>
1

> <s_lp_Variant>
AV-unprocessed.smi:1271-1

> <Gold.Version>
5.8.1

> <Gold.Id.Protein>
6NUR|6NUR_protein|mol2

> <Gold.PLP.Fitness>
43.5348

> <Gold.PLP.PLP>
-41.1316

> <Gold.PLP.part.hbond>
0.0000

> <Gold.PLP.part.metal>
0.0000

> <Gold.PLP.part.buried>
-4.1225

> <Gold.PLP.part.nonpolar>
-37.0386

> <Gold.PLP.part.repulsive>
0.1598

> <Gold.PLP.ligand.clash>
0.0000

> <Gold.PLP.ligand.torsion>
0.3463

> <Gold.PLP.Chemscore.Hbond>
0.0000

> <Gold.PLP.Chemscore.CHOScore>
1.0000

> <Gold.PLP.Chemscore.Metal>
0.0000

> <Gold.Chemscore.Hbonds>
donor molecule, donor type, donor heavy atom, donor atom, acceptor molecule, acceptor atom, score
      L1  C     5    24       P1  8028  1.00

> <Gold.PLP.Chemscore.Internal.Correction>
0.0959

> <Gold.Rescore>
     Score         DG    S(hbond)    S(metal)    S(lipo)     H(rot)  DE(clash)    DE(int)     intcor
     11.45     -13.26       0.00        0.00      97.27       1.41       0.09       1.73       ----

> <Gold.Chemscore.Fitness>
11.4463

> <Gold.Chemscore.DG>
-13.2594

> <Gold.Chemscore.ZeroCoef>
-5.4800

> <Gold.Chemscore.Hbond>
0.0000

> <Gold.Chemscore.Metal>
0.0000

> <Gold.Chemscore.Lipo>
97.2747

> <Gold.Chemscore.Internal_Hbond>
0.0000

> <Gold.Chemscore.DEClash>
0.0861

> <Gold.Chemscore.DEInternal>
1.7270

> <Gold.Chemscore.Rot>
1.4069

> <Gold.Chemscore.Internal.Correction>
   9.000000E+99

> <Gold.Chemscore.Hbond.Weighted>
-0.0000

> <Gold.Chemscore.Metal.Weighted>
-0.0000

> <Gold.Chemscore.Lipo.Weighted>
-11.3811

> <Gold.Chemscore.Internal_Hbond.Weighted>
0.0000

> <Gold.Chemscore.DEClash.Weighted>
0.0861

> <Gold.Chemscore.DEInternal.Weighted>
1.7270

> <Gold.Chemscore.Rot.Weighted>
3.6017

> <Gold.Chemscore.Internal.Correction.Weighted>
   9.000000E+99

> <Gold.Protein.RotatedTorsions>
[ 6907 6896 6895 6894 ] final  112.42 input  -60.11 | X-H torsion
[ 7974 7965 7964 7962 ] final  -53.01 input  175.53 | X-H torsion
[ 8008 7997 7996 7995 ] final  102.80 input   59.86 | X-H torsion
[ 10167 10162 10161 10158 ] final -178.10 input  -65.29 | X-H torsion
[ 10718 10713 10712 10709 ] final   25.37 input   66.30 | X-H torsion
[ 10763 10752 10751 10750 ] final   17.75 input  -60.55 | X-H torsion
[ 11005 11000 10999 10996 ] final  -13.65 input  -57.11 | X-H torsion

> <Gold.Protein.ActiveResidues>
 VAL166  LYS551  ARG553  GLY616  TRP617  ASP618  TYR619  PRO620  LYS621  CYS622 
 ASP623  PHE694  ASN695  SER759  ASP760  ASP761  ALA762  ILE779  LEU786  VAL792 
 PHE793  MET794  SER795  GLU796  ALA797  LYS798  CYS799  TRP800  GLU811  SER814 

> <Gold.Protein.RotatedAtoms>
  152.4917  133.8519  159.7205 H   0  0  0  0  0  0  0  0  0  0  0  0  # atno 6907 bound_to 6896
  150.9054  133.7056  159.2875 H   0  0  0  0  0  0  0  0  0  0  0  0  # atno 6908 bound_to 6896
  151.4483  135.1031  159.9742 H   0  0  0  0  0  0  0  0  0  0  0  0  # atno 6909 bound_to 6896
  145.9016  140.7989  142.9740 H   0  0  0  0  0  0  0  0  0  0  0  0  # atno 7974 bound_to 7965
  156.1426  140.3175  155.8519 H   0  0  0  0  0  0  0  0  0  0  0  0  # atno 8008 bound_to 7997
  155.4125  140.0507  157.3048 H   0  0  0  0  0  0  0  0  0  0  0  0  # atno 8009 bound_to 7997
  154.4989  140.2121  155.9400 H   0  0  0  0  0  0  0  0  0  0  0  0  # atno 8010 bound_to 7997
  139.5448  144.2264  152.0967 H   0  0  0  0  0  0  0  0  0  0  0  0  # atno 10167 bound_to 10162
  157.1924  130.6852  149.6155 H   0  0  0  0  0  0  0  0  0  0  0  0  # atno 10718 bound_to 10713
  153.1311  135.6740  153.9177 H   0  0  0  0  0  0  0  0  0  0  0  0  # atno 10763 bound_to 10752
  153.8663  135.3075  155.3441 H   0  0  0  0  0  0  0  0  0  0  0  0  # atno 10764 bound_to 10752
  154.7708  135.4940  153.9726 H   0  0  0  0  0  0  0  0  0  0  0  0  # atno 10765 bound_to 10752
  140.7783  133.8383  155.9269 H   0  0  0  0  0  0  0  0  0  0  0  0  # atno 11005 bound_to 11000
  144.6736  140.1685  143.7416 LP  0  0  0  0  0  0  0  0  0  0  0  0  # atno 17320 bound_to 7965
  145.8784  139.2309  143.1620 LP  0  0  0  0  0  0  0  0  0  0  0  0  # atno 17321 bound_to 7965
  140.1749  144.4900  150.6559 LP  0  0  0  0  0  0  0  0  0  0  0  0  # atno 17342 bound_to 10162
  140.6692  143.2279  151.5666 LP  0  0  0  0  0  0  0  0  0  0  0  0  # atno 17343 bound_to 10162
  155.9710  130.4610  150.6093 LP  0  0  0  0  0  0  0  0  0  0  0  0  # atno 17370 bound_to 10713
  157.3847  131.0786  151.1446 LP  0  0  0  0  0  0  0  0  0  0  0  0  # atno 17371 bound_to 10713
  140.9507  134.1782  157.4729 LP  0  0  0  0  0  0  0  0  0  0  0  0  # atno 17394 bound_to 11000
  139.8746  134.9908  156.5520 LP  0  0  0  0  0  0  0  0  0  0  0  0  # atno 17395 bound_to 11000

$$$$
