AV-unprocessed.smi:1512|AV-procd|sdf|6104|dock1
  -GOLD-   22720 6233D 1   1.00000     0.00000
 Structure written by MMmdl.
 44 46  0  0  0  0  0  0  0  0  3 V2000
  149.7797  142.0728  156.5191 C   0  0  0  0  0  0  0  0  0  0  0  0
  151.1472  141.8324  157.1810 C   0  0  2  0  0  0  0  0  0  0  0  0
  151.4999  140.4195  157.1006 N   0  0  0  0  0  0  0  0  0  0  0  0
  151.6213  139.6960  155.9750 C   0  0  0  0  0  0  0  0  0  0  0  0
  151.3381  140.1366  154.8620 O   0  0  0  0  0  0  0  0  0  0  0  0
  152.1741  138.2650  156.1002 C   0  0  0  0  0  0  0  0  0  0  0  0
  151.1702  137.2024  155.8960 N   0  0  0  0  0  0  0  0  0  0  0  0
  149.9575  137.5768  155.2877 C   0  0  0  0  0  0  0  0  0  0  0  0
  148.9654  136.6980  155.0857 C   0  0  0  0  0  0  0  0  0  0  0  0
  149.1577  135.3375  155.5254 C   0  0  0  0  0  0  0  0  0  0  0  0
  150.3151  134.9542  156.1114 C   0  0  0  0  0  0  0  0  0  0  0  0
  150.4303  133.5867  156.5603 N   0  3  0  0  0  0  0  0  0  0  0  0
  149.5531  132.7868  156.2497 O   0  0  0  0  0  0  0  0  0  0  0  0
  151.4132  133.2686  157.2229 O   0  5  0  0  0  0  0  0  0  0  0  0
  151.4188  135.9171  156.3005 C   0  0  0  0  0  0  0  0  0  0  0  0
  152.5010  135.6028  156.7993 O   0  0  0  0  0  0  0  0  0  0  0  0
  151.1618  142.2787  158.6627 C   0  0  2  0  0  0  0  0  0  0  0  0
  150.2617  143.4932  158.9815 C   0  0  0  0  0  0  0  0  0  0  0  0
  151.2073  144.4310  159.7560 C   0  0  2  0  0  0  0  0  0  0  0  0
  152.2092  145.0623  158.7715 C   0  0  0  0  0  0  0  0  0  0  0  0
  153.1420  143.8844  158.4358 C   0  0  0  0  0  0  0  0  0  0  0  0
  152.5285  142.7239  159.2450 C   0  0  1  0  0  0  0  0  0  0  0  0
  152.0895  143.4462  160.5141 C   0  0  0  0  0  0  0  0  0  0  0  0
  149.5012  143.1257  156.5599 H   0  0  0  0  0  0  0  0  0  0  0  0
  148.9930  141.5012  157.0130 H   0  0  0  0  0  0  0  0  0  0  0  0
  149.7926  141.7813  155.4685 H   0  0  0  0  0  0  0  0  0  0  0  0
  151.8944  142.4102  156.6345 H   0  0  0  0  0  0  0  0  0  0  0  0
  151.7434  139.9707  157.9716 H   0  0  0  0  0  0  0  0  0  0  0  0
  152.9952  138.1615  155.3897 H   0  0  0  0  0  0  0  0  0  0  0  0
  152.6362  138.1541  157.0827 H   0  0  0  0  0  0  0  0  0  0  0  0
  149.8856  138.6158  155.0000 H   0  0  0  0  0  0  0  0  0  0  0  0
  148.0414  137.0031  154.6170 H   0  0  0  0  0  0  0  0  0  0  0  0
  148.3503  134.6309  155.3992 H   0  0  0  0  0  0  0  0  0  0  0  0
  150.8196  141.4354  159.2657 H   0  0  0  0  0  0  0  0  0  0  0  0
  149.8595  143.9742  158.0888 H   0  0  0  0  0  0  0  0  0  0  0  0
  149.4169  143.1899  159.6010 H   0  0  0  0  0  0  0  0  0  0  0  0
  150.6875  145.1602  160.3781 H   0  0  0  0  0  0  0  0  0  0  0  0
  151.7191  145.4697  157.8865 H   0  0  0  0  0  0  0  0  0  0  0  0
  152.7679  145.8699  159.2463 H   0  0  0  0  0  0  0  0  0  0  0  0
  153.2012  143.6827  157.3665 H   0  0  0  0  0  0  0  0  0  0  0  0
  154.1553  144.0934  158.7811 H   0  0  0  0  0  0  0  0  0  0  0  0
  153.2208  141.8995  159.4176 H   0  0  0  0  0  0  0  0  0  0  0  0
  152.9131  143.9233  161.0485 H   0  0  0  0  0  0  0  0  0  0  0  0
  151.5342  142.8110  161.2066 H   0  0  0  0  0  0  0  0  0  0  0  0
  1  2  1  0  0  0  0
  1 24  1  0  0  0  0
  1 25  1  0  0  0  0
  1 26  1  0  0  0  0
  2  3  1  0  0  0  0
  2 17  1  0  0  0  0
  2 27  1  0  0  0  0
  3  4  1  0  0  0  0
  3 28  1  0  0  0  0
  4  5  2  0  0  0  0
  4  6  1  0  0  0  0
  6  7  1  0  0  0  0
  6 29  1  0  0  0  0
  6 30  1  0  0  0  0
  7 15  1  0  0  0  0
  7  8  1  0  0  0  0
  8  9  2  0  0  0  0
  8 31  1  0  0  0  0
  9 10  1  0  0  0  0
  9 32  1  0  0  0  0
 10 11  2  0  0  0  0
 10 33  1  0  0  0  0
 11 12  1  0  0  0  0
 11 15  1  0  0  0  0
 12 13  2  0  0  0  0
 12 14  1  0  0  0  0
 15 16  2  0  0  0  0
 17 22  1  0  0  0  0
 17 18  1  0  0  0  0
 17 34  1  0  0  0  0
 18 19  1  0  0  0  0
 18 35  1  0  0  0  0
 18 36  1  0  0  0  0
 19 23  1  0  0  0  0
 19 20  1  0  0  0  0
 19 37  1  0  0  0  0
 20 21  1  0  0  0  0
 20 38  1  0  0  0  0
 20 39  1  0  0  0  0
 21 22  1  0  0  0  0
 21 40  1  0  0  0  0
 21 41  1  0  0  0  0
 22 23  1  0  0  0  0
 22 42  1  0  0  0  0
 23 43  1  0  0  0  0
 23 44  1  0  0  0  0
M  CHG  1  12   1
M  CHG  1  14  -1
M  END
> <s_m_source_file>
AV-unprocessed.smi

> <i_m_source_file_index>
1512

> <i_lp_mmshare_version>
43012

> <i_f3d_flags>
0

> <s_epik_input>
W0NIMl0xW0NIMl1bQ0BIXShbQ0gyXTIpW0NAQEhdKFtDSDJdW0NAQEhdMTIpW0NASF0oW0NIM10pW05IXUMoPU8pW0NIMl1uM1tjSF1bY0hdW2NIXWMoW04rXSg9TylbTy1dKWMzPU8=

> <s_epik_cmdline>
J2VwaWtfcHl0aG9uJywgJy1waCcsICc3LjAnLCAnLXRuJywgJzgnLCAnLW1hJywgJzIwMCcsICctbWV0YWxfYmluZGluZycsICctaW1hZScsICc8aW5maWxlLm1hZT4nLCAnLW9tYWUnLCAnPG91dGZpbGUubWFlPic=

> <r_lp_tautomer_probability>
1

> <r_epik_Ionization_Penalty>
2.17697e-08

> <r_epik_Ionization_Penalty_Charging>
1.42735e-10

> <r_epik_Ionization_Penalty_Neutral>
2.16269e-08

> <r_epik_State_Penalty>
-0

> <r_epik_Charging_Adjusted_Penalty>
1.42735e-10

> <i_epik_Tot_Q>
0

> <i_epik_Tot_abs_Q>
2

> <r_epik_Metal_State_Penalty>
-0

> <b_epik_Metal_Only>
0

> <s_lp_Force_Field>
OPLS_2005

> <r_lp_Energy>
63.3532

> <b_lp_Chiralities_Consistent>
1

> <s_lp_Variant>
AV-unprocessed.smi:1512-5

> <Gold.Version>
5.8.1

> <Gold.Id.Protein>
6NUR|6NUR_protein|mol2

> <Gold.PLP.Fitness>
45.0807

> <Gold.PLP.PLP>
-38.7652

> <Gold.PLP.part.hbond>
-3.0000

> <Gold.PLP.part.metal>
0.0000

> <Gold.PLP.part.buried>
-3.6615

> <Gold.PLP.part.nonpolar>
-32.5946

> <Gold.PLP.part.repulsive>
0.1514

> <Gold.PLP.ligand.clash>
0.0000

> <Gold.PLP.ligand.torsion>
1.0005

> <Gold.PLP.Chemscore.Hbond>
2.7520

> <Gold.PLP.Chemscore.CHOScore>
0.0000

> <Gold.PLP.Chemscore.Metal>
0.0000

> <Gold.Chemscore.Hbonds>
donor molecule, donor type, donor heavy atom, donor atom, acceptor molecule, acceptor atom, score
      P1  H  6896  6909       L1    14  0.72
      P1  H  7989  7998       L1     5  1.00
      P1  H 10752 10764       L1    16  0.85

> <Gold.PLP.Chemscore.Internal.Correction>
0.0605

> <Gold.Rescore>
     Score         DG    S(hbond)    S(metal)    S(lipo)     H(rot)  DE(clash)    DE(int)     intcor
     17.44     -22.63       2.81        0.00     104.77       1.75       0.13       5.06       ----

> <Gold.Chemscore.Fitness>
17.4401

> <Gold.Chemscore.DG>
-22.6344

> <Gold.Chemscore.ZeroCoef>
-5.4800

> <Gold.Chemscore.Hbond>
2.8053

> <Gold.Chemscore.Metal>
0.0000

> <Gold.Chemscore.Lipo>
104.7690

> <Gold.Chemscore.Internal_Hbond>
0.0000

> <Gold.Chemscore.DEClash>
0.1333

> <Gold.Chemscore.DEInternal>
5.0610

> <Gold.Chemscore.Rot>
1.7474

> <Gold.Chemscore.Internal.Correction>
   9.000000E+99

> <Gold.Chemscore.Hbonds>
donor molecule, donor type, donor heavy atom, donor atom, acceptor molecule, acceptor atom, score
      P1  H  6896  6909       L1    14  0.67
      P1  H  7989  7998       L1     5  0.97
      P1  H 10752 10764       L1    16  0.15

> <Gold.Chemscore.Hbond.Weighted>
-9.3697

> <Gold.Chemscore.Metal.Weighted>
-0.0000

> <Gold.Chemscore.Lipo.Weighted>
-12.2580

> <Gold.Chemscore.Internal_Hbond.Weighted>
0.0000

> <Gold.Chemscore.DEClash.Weighted>
0.1333

> <Gold.Chemscore.DEInternal.Weighted>
5.0610

> <Gold.Chemscore.Rot.Weighted>
4.4733

> <Gold.Chemscore.Internal.Correction.Weighted>
   9.000000E+99

> <Gold.Protein.RotatedTorsions>
[ 6907 6896 6895 6894 ] final  -35.73 input  -60.11 | X-H torsion
[ 7974 7965 7964 7962 ] final -116.21 input  175.53 | X-H torsion
[ 8008 7997 7996 7995 ] final -122.87 input   59.86 | X-H torsion
[ 10167 10162 10161 10158 ] final   29.35 input  -65.29 | X-H torsion
[ 10718 10713 10712 10709 ] final  137.27 input   66.30 | X-H torsion
[ 10763 10752 10751 10750 ] final   -9.96 input  -60.55 | X-H torsion
[ 11005 11000 10999 10996 ] final -107.65 input  -57.11 | X-H torsion

> <Gold.Protein.ActiveResidues>
 VAL166  LYS551  ARG553  GLY616  TRP617  ASP618  TYR619  PRO620  LYS621  CYS622 
 ASP623  PHE694  ASN695  SER759  ASP760  ASP761  ALA762  ILE779  LEU786  VAL792 
 PHE793  MET794  SER795  GLU796  ALA797  LYS798  CYS799  TRP800  GLU811  SER814 

> <Gold.Protein.RotatedAtoms>
  151.0361  134.9574  159.8136 H   0  0  0  0  0  0  0  0  0  0  0  0  # atno 6907 bound_to 6896
  152.5355  134.2718  159.8984 H   0  0  0  0  0  0  0  0  0  0  0  0  # atno 6908 bound_to 6896
  151.2729  133.4204  159.2656 H   0  0  0  0  0  0  0  0  0  0  0  0  # atno 6909 bound_to 6896
  145.0994  140.8542  143.3935 H   0  0  0  0  0  0  0  0  0  0  0  0  # atno 7974 bound_to 7965
  155.1713  140.0408  157.2863 H   0  0  0  0  0  0  0  0  0  0  0  0  # atno 8008 bound_to 7997
  154.6267  140.2514  155.7456 H   0  0  0  0  0  0  0  0  0  0  0  0  # atno 8009 bound_to 7997
  156.2463  140.2883  156.0600 H   0  0  0  0  0  0  0  0  0  0  0  0  # atno 8010 bound_to 7997
  140.4773  144.0670  150.6254 H   0  0  0  0  0  0  0  0  0  0  0  0  # atno 10167 bound_to 10162
  157.4379  131.1055  151.0177 H   0  0  0  0  0  0  0  0  0  0  0  0  # atno 10718 bound_to 10713
  153.4622  135.7016  153.6043 H   0  0  0  0  0  0  0  0  0  0  0  0  # atno 10763 bound_to 10752
  153.4333  135.3797  155.2184 H   0  0  0  0  0  0  0  0  0  0  0  0  # atno 10764 bound_to 10752
  154.8727  135.3956  154.4049 H   0  0  0  0  0  0  0  0  0  0  0  0  # atno 10765 bound_to 10752
  141.0943  133.8999  157.2001 H   0  0  0  0  0  0  0  0  0  0  0  0  # atno 11005 bound_to 11000
  145.0973  139.2847  143.5704 LP  0  0  0  0  0  0  0  0  0  0  0  0  # atno 17320 bound_to 7965
  146.3530  140.0529  142.8634 LP  0  0  0  0  0  0  0  0  0  0  0  0  # atno 17321 bound_to 7965
  140.3902  143.2756  152.0069 LP  0  0  0  0  0  0  0  0  0  0  0  0  # atno 17342 bound_to 10162
  139.4827  144.6083  151.7480 LP  0  0  0  0  0  0  0  0  0  0  0  0  # atno 17343 bound_to 10162
  157.1050  130.5998  149.5469 LP  0  0  0  0  0  0  0  0  0  0  0  0  # atno 17370 bound_to 10713
  155.9937  130.4999  150.7392 LP  0  0  0  0  0  0  0  0  0  0  0  0  # atno 17371 bound_to 10713
  139.9776  135.0109  156.9669 LP  0  0  0  0  0  0  0  0  0  0  0  0  # atno 17394 bound_to 11000
  140.5178  134.0938  155.7285 LP  0  0  0  0  0  0  0  0  0  0  0  0  # atno 17395 bound_to 11000

$$$$
