AV-unprocessed.smi:913|AV-procd|sdf|4149|dock3
  -GOLD-   22720 2 53D 1   1.00000     0.00000
 Structure written by MMmdl.
 20 20  0  0  0  0  0  0  0  0  3 V2000
  151.8683  143.1681  159.5027 C   0  0  0  0  0  0  0  0  0  0  0  0
  151.5391  142.1225  158.4588 C   0  0  0  0  0  0  0  0  0  0  0  0
  150.8456  142.4567  157.4364 N   0  0  0  0  0  0  0  0  0  0  0  0
  150.5495  141.4787  156.4766 C   0  0  0  0  0  0  0  0  0  0  0  0
  149.8044  141.9746  155.4254 N   0  0  0  0  0  0  0  0  0  0  0  0
  150.9659  140.1889  156.5958 C   0  0  0  0  0  0  0  0  0  0  0  0
  150.6672  139.1202  155.5452 C   0  0  0  0  0  0  0  0  0  0  0  0
  151.9257  138.4405  155.0028 C   0  0  0  0  0  0  0  0  0  0  0  0
  151.7848  137.3119  154.4811 O   0  0  0  0  0  0  0  0  0  0  0  0
  153.0060  139.0614  155.1096 O   0  5  0  0  0  0  0  0  0  0  0  0
  151.7583  139.8486  157.7917 C   0  0  0  0  0  0  0  0  0  0  0  0
  152.1632  138.6995  157.9642 O   0  0  0  0  0  0  0  0  0  0  0  0
  152.0199  140.8497  158.6840 N   0  5  0  0  0  0  0  0  0  0  0  0
  151.4870  144.1479  159.2128 H   0  0  0  0  0  0  0  0  0  0  0  0
  152.9482  143.2466  159.6316 H   0  0  0  0  0  0  0  0  0  0  0  0
  151.4235  142.8974  160.4607 H   0  0  0  0  0  0  0  0  0  0  0  0
  149.5344  142.9483  155.4108 H   0  0  0  0  0  0  0  0  0  0  0  0
  149.7989  141.5033  154.5330 H   0  0  0  0  0  0  0  0  0  0  0  0
  150.0193  138.3652  155.9924 H   0  0  0  0  0  0  0  0  0  0  0  0
  150.0976  139.5292  154.7105 H   0  0  0  0  0  0  0  0  0  0  0  0
  1  2  1  0  0  0  0
  1 14  1  0  0  0  0
  1 15  1  0  0  0  0
  1 16  1  0  0  0  0
  2 13  1  0  0  0  0
  2  3  2  0  0  0  0
  3  4  1  0  0  0  0
  4  5  1  0  0  0  0
  4  6  2  0  0  0  0
  5 17  1  0  0  0  0
  5 18  1  0  0  0  0
  6  7  1  0  0  0  0
  6 11  1  0  0  0  0
  7  8  1  0  0  0  0
  7 19  1  0  0  0  0
  7 20  1  0  0  0  0
  8  9  2  0  0  0  0
  8 10  1  0  0  0  0
 11 12  2  0  0  0  0
 11 13  1  0  0  0  0
M  CHG  1  10  -1
M  CHG  1  13  -1
M  END
> <s_m_source_file>
AV-unprocessed.smi

> <i_m_source_file_index>
913

> <i_lp_mmshare_version>
43012

> <i_f3d_flags>
0

> <s_epik_input>
W0NIM11jMW5jKFtOSDJdKWMoYyg9TylbbkhdMSlbQ0gyXUMoPU8pW09IXQ==

> <s_epik_cmdline>
J2VwaWtfcHl0aG9uJywgJy1waCcsICc3LjAnLCAnLXRuJywgJzgnLCAnLW1hJywgJzIwMCcsICctbWV0YWxfYmluZGluZycsICctaW1hZScsICc8aW5maWxlLm1hZT4nLCAnLW9tYWUnLCAnPG91dGZpbGUubWFlPic=

> <r_lp_tautomer_probability>
0.994035

> <r_epik_Ionization_Penalty>
6.8797

> <r_epik_Ionization_Penalty_Charging>
0.00156716

> <r_epik_Ionization_Penalty_Neutral>
6.87813

> <r_epik_State_Penalty>
4.11317

> <r_epik_Charging_Adjusted_Penalty>
4.11474

> <i_epik_Tot_Q>
-2

> <i_epik_Tot_abs_Q>
2

> <r_epik_Metal_State_Penalty>
0.657697

> <b_epik_Metal_Only>
1

> <s_lp_Force_Field>
OPLS_2005

> <r_lp_Energy>
14.3997

> <b_lp_Chiralities_Consistent>
1

> <s_lp_Variant>
AV-unprocessed.smi:913-2

> <Gold.Version>
5.8.1

> <Gold.Id.Protein>
6NUR|6NUR_protein|mol2

> <Gold.PLP.Fitness>
36.6331

> <Gold.PLP.PLP>
-22.6298

> <Gold.PLP.part.hbond>
-3.4788

> <Gold.PLP.part.metal>
0.0000

> <Gold.PLP.part.buried>
-4.8384

> <Gold.PLP.part.nonpolar>
-15.8594

> <Gold.PLP.part.repulsive>
0.6190

> <Gold.PLP.ligand.clash>
0.0000

> <Gold.PLP.ligand.torsion>
0.3308

> <Gold.PLP.Chemscore.Hbond>
4.8880

> <Gold.PLP.Chemscore.CHOScore>
0.0000

> <Gold.PLP.Chemscore.Metal>
0.0000

> <Gold.Chemscore.Hbonds>
donor molecule, donor type, donor heavy atom, donor atom, acceptor molecule, acceptor atom, score
      L1  H     5    17       P1  8028  1.00
      P1  H  7997  8008       L1    10  2.00
      P1  H 10752 10764       L1     9  1.78

> <Gold.PLP.Chemscore.Internal.Correction>
0.0009

> <Gold.Rescore>
     Score         DG    S(hbond)    S(metal)    S(lipo)     H(rot)  DE(clash)    DE(int)     intcor
     12.37     -12.70       2.62        0.00      23.27       1.67       0.06       0.26       ----

> <Gold.Chemscore.Fitness>
12.3742

> <Gold.Chemscore.DG>
-12.6961

> <Gold.Chemscore.ZeroCoef>
-5.4800

> <Gold.Chemscore.Hbond>
2.6239

> <Gold.Chemscore.Metal>
0.0000

> <Gold.Chemscore.Lipo>
23.2689

> <Gold.Chemscore.Internal_Hbond>
0.0000

> <Gold.Chemscore.DEClash>
0.0640

> <Gold.Chemscore.DEInternal>
0.2579

> <Gold.Chemscore.Rot>
1.6681

> <Gold.Chemscore.Internal.Correction>
   9.000000E+99

> <Gold.Chemscore.Hbonds>
donor molecule, donor type, donor heavy atom, donor atom, acceptor molecule, acceptor atom, score
      L1  H     5    17       P1  8028  1.00
      P1  H  7997  8008       L1    10  0.94
      P1  H 10752 10764       L1     9  0.83

> <Gold.Chemscore.Hbond.Weighted>
-8.7639

> <Gold.Chemscore.Metal.Weighted>
-0.0000

> <Gold.Chemscore.Lipo.Weighted>
-2.7225

> <Gold.Chemscore.Internal_Hbond.Weighted>
0.0000

> <Gold.Chemscore.DEClash.Weighted>
0.0640

> <Gold.Chemscore.DEInternal.Weighted>
0.2579

> <Gold.Chemscore.Rot.Weighted>
4.2703

> <Gold.Chemscore.Internal.Correction.Weighted>
   9.000000E+99

> <Gold.Protein.RotatedTorsions>
[ 6907 6896 6895 6894 ] final  -58.08 input  -60.11 | X-H torsion
[ 7974 7965 7964 7962 ] final   -1.14 input  175.53 | X-H torsion
[ 8008 7997 7996 7995 ] final  -31.87 input   59.86 | X-H torsion
[ 10167 10162 10161 10158 ] final   99.05 input  -65.29 | X-H torsion
[ 10718 10713 10712 10709 ] final  -54.22 input   66.30 | X-H torsion
[ 10763 10752 10751 10750 ] final  -88.57 input  -60.55 | X-H torsion
[ 11005 11000 10999 10996 ] final  122.89 input  -57.11 | X-H torsion

> <Gold.Protein.ActiveResidues>
 VAL166  LYS551  ARG553  GLY616  TRP617  ASP618  TYR619  PRO620  LYS621  CYS622 
 ASP623  PHE694  ASN695  SER759  ASP760  ASP761  ALA762  ILE779  LEU786  VAL792 
 PHE793  MET794  SER795  GLU796  ALA797  LYS798  CYS799  TRP800  GLU811  SER814 

> <Gold.Protein.RotatedAtoms>
  150.8035  134.7144  159.6621 H   0  0  0  0  0  0  0  0  0  0  0  0  # atno 6907 bound_to 6896
  152.4153  134.6049  160.0020 H   0  0  0  0  0  0  0  0  0  0  0  0  # atno 6908 bound_to 6896
  151.6280  133.3297  159.3138 H   0  0  0  0  0  0  0  0  0  0  0  0  # atno 6909 bound_to 6896
  146.2420  140.1375  142.8336 H   0  0  0  0  0  0  0  0  0  0  0  0  # atno 7974 bound_to 7965
  154.4199  140.1753  156.1636 H   0  0  0  0  0  0  0  0  0  0  0  0  # atno 8008 bound_to 7997
  155.9818  140.3377  155.6646 H   0  0  0  0  0  0  0  0  0  0  0  0  # atno 8009 bound_to 7997
  155.6490  140.0688  157.2584 H   0  0  0  0  0  0  0  0  0  0  0  0  # atno 8010 bound_to 7997
  139.7653  144.6941  151.0234 H   0  0  0  0  0  0  0  0  0  0  0  0  # atno 10167 bound_to 10162
  156.1469  130.4152  150.0009 H   0  0  0  0  0  0  0  0  0  0  0  0  # atno 10718 bound_to 10713
  154.6460  135.5372  153.7845 H   0  0  0  0  0  0  0  0  0  0  0  0  # atno 10763 bound_to 10752
  153.0359  135.6471  154.1089 H   0  0  0  0  0  0  0  0  0  0  0  0  # atno 10764 bound_to 10752
  154.1009  135.2933  155.3231 H   0  0  0  0  0  0  0  0  0  0  0  0  # atno 10765 bound_to 10752
  139.9288  134.9641  156.8177 H   0  0  0  0  0  0  0  0  0  0  0  0  # atno 11005 bound_to 11000
  145.0275  140.8843  143.5130 LP  0  0  0  0  0  0  0  0  0  0  0  0  # atno 17320 bound_to 7965
  145.1433  139.2559  143.5479 LP  0  0  0  0  0  0  0  0  0  0  0  0  # atno 17321 bound_to 7965
  140.7810  143.4650  151.0224 LP  0  0  0  0  0  0  0  0  0  0  0  0  # atno 17342 bound_to 10162
  139.8336  143.7658  152.3180 LP  0  0  0  0  0  0  0  0  0  0  0  0  # atno 17343 bound_to 10162
  156.7878  130.9245  151.3646 LP  0  0  0  0  0  0  0  0  0  0  0  0  # atno 17370 bound_to 10713
  157.6624  130.8978  149.9859 LP  0  0  0  0  0  0  0  0  0  0  0  0  # atno 17371 bound_to 10713
  140.6260  133.9950  155.7640 LP  0  0  0  0  0  0  0  0  0  0  0  0  # atno 17394 bound_to 11000
  141.0864  133.9984  157.3307 LP  0  0  0  0  0  0  0  0  0  0  0  0  # atno 17395 bound_to 11000

$$$$
