#       Name:                AV-unprocessed.smi:2083
#       Creating user name   scv26
#       Creation time:       Fri Mar 27 11:21:26 2020


#       File generated by GOLD software.
#

@<TRIPOS>MOLECULE
AV-unprocessed.smi:2083
    50    51     1
SMALL
NO_CHARGES


@<TRIPOS>ATOM
      1 ****        -6.4451   5.1020  -0.7294 C.3            1 S1                 0.0000
      2 ****        -5.0838   4.5684  -1.0201 C.2            1 S1                 0.0000
      3 ****        -4.1024   4.0484  -0.2246 C.2            1 S1                 0.0000
      4 ****        -3.0689   3.7324  -1.1483 C.2            1 S1                 0.0000
      5 ****        -1.8726   3.2053  -0.8454 N.pl3          1 S1                -1.0000
      6 ****        -1.7323   1.8680  -0.6995 C.2            1 S1                 0.0000
      7 ****        -2.6220   1.0201  -0.7989 O.2            1 S1                 0.0000
      8 ****        -0.4790   1.4889  -0.4194 N.am           1 S1                 0.0000
      9 ****        -0.0386   0.1143  -0.2150 C.3            1 S1                 0.0000
     10 ****         1.5027   0.0095  -0.1308 C.3            1 S1                 0.0000
     11 ****         2.1485   0.5657  -1.4239 C.3            1 S1                 0.0000
     12 ****         1.8962  -1.4014   0.1926 N.4            1 S1                 1.0000
     13 ****         3.2317  -1.8417  -0.3068 C.3            1 S1                 0.0000
     14 ****         3.4696  -3.3385  -0.0463 C.3            1 S1                 0.0000
     15 ****         3.3024  -3.6828   1.4379 C.3            1 S1                 0.0000
     16 ****         1.9433  -3.1944   1.9650 C.3            1 S1                 0.0000
     17 ****         0.7631  -4.0495   1.4714 C.3            1 S1                 0.0000
     18 ****         1.7537  -1.6977   1.6482 C.3            1 S1                 0.0000
     19 ****        -3.3887   4.0475  -2.3922 N.2            1 S1                 0.0000
     20 ****        -4.6820   4.5787  -2.3195 O.3            1 S1                 0.0000
     21 ****        -6.3897   5.9411  -0.0358 H              1 S1                 0.0000
     22 ****        -7.0722   4.3320  -0.2800 H              1 S1                 0.0000
     23 ****        -6.9354   5.4482  -1.6397 H              1 S1                 0.0000
     24 ****        -4.1208   3.9129   0.8464 H              1 S1                 0.0000
     25 ****         0.2198   2.2139  -0.3478 H              1 S1                 0.0000
     26 ****        -0.5173  -0.2515   0.6925 H              1 S1                 0.0000
     27 ****        -0.4032  -0.5088  -1.0337 H              1 S1                 0.0000
     28 ****         1.8495   0.6460   0.6852 H              1 S1                 0.0000
     29 ****         1.8294   1.5880  -1.6268 H              1 S1                 0.0000
     30 ****         1.8808  -0.0342  -2.2944 H              1 S1                 0.0000
     31 ****         3.2355   0.6061  -1.3540 H              1 S1                 0.0000
     32 ****         3.3147  -1.6946  -1.3828 H              1 S1                 0.0000
     33 ****         4.0144  -1.2454   0.1651 H              1 S1                 0.0000
     34 ****         2.7769  -3.9301  -0.6458 H              1 S1                 0.0000
     35 ****         4.4704  -3.6164  -0.3783 H              1 S1                 0.0000
     36 ****         3.4140  -4.7562   1.5951 H              1 S1                 0.0000
     37 ****         4.1018  -3.2053   2.0062 H              1 S1                 0.0000
     38 ****         1.9629  -3.2978   3.0507 H              1 S1                 0.0000
     39 ****         0.6323  -3.9818   0.3913 H              1 S1                 0.0000
     40 ****        -0.1703  -3.7289   1.9349 H              1 S1                 0.0000
     41 ****         0.9086  -5.1005   1.7231 H              1 S1                 0.0000
     42 ****         2.4933  -1.1136   2.1987 H              1 S1                 0.0000
     43 ****         0.7816  -1.3798   2.0218 H              1 S1                 0.0000
     44 ****         1.2260  -1.9844  -0.2881 H              1 S1                 0.0000
     45 ****        -1.0807   3.8043  -0.7269 LP             1 S1                 0.0000
     46 ****        -3.5589   1.3005  -1.0074 LP             1 S1                 0.0000
     47 ****        -2.4066   0.0519  -0.6709 LP             1 S1                 0.0000
     48 ****        -2.8262   3.9310  -3.2108 LP             1 S1                 0.0000
     49 ****        -4.6803   5.5174  -2.6640 LP             1 S1                 0.0000
     50 ****        -5.3057   4.0230  -2.8692 LP             1 S1                 0.0000
@<TRIPOS>BOND
    1    1    2 1     
    2    1   21 1     
    3    1   22 1     
    4    1   23 1     
    5    2   20 1     
    6    2    3 2     
    7    3    4 1     
    8    3   24 1     
    9    4    5 1     
   10    4   19 2     
   11    5    6 1     
   12    6    7 2     
   13    6    8 am    
   14    8    9 1     
   15    8   25 1     
   16    9   10 1     
   17    9   26 1     
   18    9   27 1     
   19   10   11 1     
   20   10   12 1     
   21   10   28 1     
   22   11   29 1     
   23   11   30 1     
   24   11   31 1     
   25   12   18 1     
   26   12   13 1     
   27   12   44 1     
   28   13   14 1     
   29   13   32 1     
   30   13   33 1     
   31   14   15 1     
   32   14   34 1     
   33   14   35 1     
   34   15   16 1     
   35   15   36 1     
   36   15   37 1     
   37   16   17 1     
   38   16   18 1     
   39   16   38 1     
   40   17   39 1     
   41   17   40 1     
   42   17   41 1     
   43   18   42 1     
   44   18   43 1     
   45   19   20 1     
   46    5   45 1     
   47    7   46 1     
   48    7   47 1     
   49   19   48 1     
   50   20   49 1     
   51   20   50 1     
@<TRIPOS>SUBSTRUCTURE
      1 S1             1
@<TRIPOS>SET
LONE_PAIRS      STATIC     ATOMS    <user>   **** ""
6 45 46 47 48 49 50
DONOR_HYDROGENS      STATIC     ATOMS    <user>   **** ""
2 25 44
ATOM$BLUE        STATIC     ATOMS    COLORGROUP SYSTEM
6 45 46 47 48 49 50
ATOM$RED        STATIC     ATOMS    COLORGROUP SYSTEM
2 25 44
