AV-unprocessed.smi:1621|AV-procd|sdf|6494|dock1
  -GOLD-   22720 7153D 1   1.00000     0.00000
 Structure written by MMmdl.
 39 40  0  0  0  0  0  0  0  0  2 V2000
  144.8682  138.2355  155.0015 C   0  0  0  0  0  0  0  0  0  0  0  0
  145.5060  139.3976  154.3465 N   0  3  2  0  0  0  0  0  0  0  0  0
  146.5817  138.9976  153.4053 C   0  0  0  0  0  0  0  0  0  0  0  0
  147.1518  140.2189  152.6594 C   0  0  0  0  0  0  0  0  0  0  0  0
  147.6502  141.3125  153.6245 C   0  0  2  0  0  0  0  0  0  0  0  0
  148.9838  140.9218  154.3051 C   0  0  0  0  0  0  0  0  0  0  0  0
  149.4777  141.9643  155.2005 N   0  0  0  0  0  0  0  0  0  0  0  0
  150.2682  141.7657  156.2659 C   0  0  0  0  0  0  0  0  0  0  0  0
  150.6770  140.6558  156.6059 O   0  0  0  0  0  0  0  0  0  0  0  0
  150.5403  142.9260  156.8886 N   0  0  0  0  0  0  0  0  0  0  0  0
  151.3030  143.1619  158.0661 C   0  0  0  0  0  0  0  0  0  0  0  0
  151.4075  144.4953  158.5138 C   0  0  0  0  0  0  0  0  0  0  0  0
  152.1450  144.7654  159.6840 C   0  0  0  0  0  0  0  0  0  0  0  0
  152.7588  143.8084  160.4105 N   0  0  0  0  0  0  0  0  0  0  0  0
  152.6508  142.5315  159.9871 C   0  0  0  0  0  0  0  0  0  0  0  0
  151.9371  142.1531  158.8322 C   0  0  0  0  0  0  0  0  0  0  0  0
  146.5093  141.6610  154.6048 C   0  0  0  0  0  0  0  0  0  0  0  0
  145.9652  140.4147  155.3241 C   0  0  0  0  0  0  0  0  0  0  0  0
  145.5799  137.7019  155.6330 H   0  0  0  0  0  0  0  0  0  0  0  0
  144.4801  137.5390  154.2575 H   0  0  0  0  0  0  0  0  0  0  0  0
  144.0322  138.5567  155.6235 H   0  0  0  0  0  0  0  0  0  0  0  0
  147.3709  138.4767  153.9493 H   0  0  0  0  0  0  0  0  0  0  0  0
  146.1817  138.2876  152.6802 H   0  0  0  0  0  0  0  0  0  0  0  0
  147.9551  139.9077  151.9906 H   0  0  0  0  0  0  0  0  0  0  0  0
  146.3731  140.6362  152.0193 H   0  0  0  0  0  0  0  0  0  0  0  0
  147.8534  142.2032  153.0283 H   0  0  0  0  0  0  0  0  0  0  0  0
  148.8963  139.9705  154.8307 H   0  0  0  0  0  0  0  0  0  0  0  0
  149.7472  140.7678  153.5419 H   0  0  0  0  0  0  0  0  0  0  0  0
  149.1938  142.9108  154.9924 H   0  0  0  0  0  0  0  0  0  0  0  0
  150.1696  143.7559  156.4496 H   0  0  0  0  0  0  0  0  0  0  0  0
  150.9346  145.3019  157.9726 H   0  0  0  0  0  0  0  0  0  0  0  0
  152.2427  145.7781  160.0461 H   0  0  0  0  0  0  0  0  0  0  0  0
  153.1455  141.7852  160.5909 H   0  0  0  0  0  0  0  0  0  0  0  0
  151.8887  141.1076  158.5735 H   0  0  0  0  0  0  0  0  0  0  0  0
  146.8283  142.4063  155.3326 H   0  0  0  0  0  0  0  0  0  0  0  0
  145.6947  142.1274  154.0490 H   0  0  0  0  0  0  0  0  0  0  0  0
  145.1314  140.7041  155.9648 H   0  0  0  0  0  0  0  0  0  0  0  0
  146.7261  139.9829  155.9752 H   0  0  0  0  0  0  0  0  0  0  0  0
  144.7890  139.8404  153.7896 H   0  0  0  0  0  0  0  0  0  0  0  0
  1  2  1  0  0  0  0
  1 19  1  0  0  0  0
  1 20  1  0  0  0  0
  1 21  1  0  0  0  0
  2 18  1  0  0  0  0
  2  3  1  0  0  0  0
  2 39  1  0  0  0  0
  3  4  1  0  0  0  0
  3 22  1  0  0  0  0
  3 23  1  0  0  0  0
  4  5  1  0  0  0  0
  4 24  1  0  0  0  0
  4 25  1  0  0  0  0
  5  6  1  0  0  0  0
  5 17  1  0  0  0  0
  5 26  1  0  0  0  0
  6  7  1  0  0  0  0
  6 27  1  0  0  0  0
  6 28  1  0  0  0  0
  7  8  1  0  0  0  0
  7 29  1  0  0  0  0
  8  9  2  0  0  0  0
  8 10  1  0  0  0  0
 10 11  1  0  0  0  0
 10 30  1  0  0  0  0
 11 16  1  0  0  0  0
 11 12  2  0  0  0  0
 12 13  1  0  0  0  0
 12 31  1  0  0  0  0
 13 14  2  0  0  0  0
 13 32  1  0  0  0  0
 14 15  1  0  0  0  0
 15 16  2  0  0  0  0
 15 33  1  0  0  0  0
 16 34  1  0  0  0  0
 17 18  1  0  0  0  0
 17 35  1  0  0  0  0
 17 36  1  0  0  0  0
 18 37  1  0  0  0  0
 18 38  1  0  0  0  0
M  CHG  1   2   1
M  END
> <s_m_source_file>
AV-unprocessed.smi

> <i_m_source_file_index>
1621

> <i_lp_mmshare_version>
43012

> <i_f3d_flags>
0

> <s_epik_input>
W0NIM11OMVtDSDJdW0NIMl1bQ0hdKFtDSDJdW0NIMl0xKVtDSDJdW05IXUMoPU8pW05IXWMyW2NIXVtjSF1uW2NIXVtjSF0y

> <s_epik_cmdline>
J2VwaWtfcHl0aG9uJywgJy1waCcsICc3LjAnLCAnLXRuJywgJzgnLCAnLW1hJywgJzIwMCcsICctbWV0YWxfYmluZGluZycsICctaW1hZScsICc8aW5maWxlLm1hZT4nLCAnLW9tYWUnLCAnPG91dGZpbGUubWFlPic=

> <r_epik_Ionization_Penalty>
0.107254

> <r_epik_Ionization_Penalty_Charging>
0.00106265

> <r_epik_Ionization_Penalty_Neutral>
0.106191

> <r_epik_State_Penalty>
0.0960133

> <r_epik_Charging_Adjusted_Penalty>
0.0970759

> <i_epik_Tot_Q>
1

> <i_epik_Tot_abs_Q>
1

> <r_epik_Metal_State_Penalty>
0.0813061

> <b_epik_Metal_Only>
0

> <s_lp_Force_Field>
OPLS_2005

> <r_lp_Energy>
22.9743

> <b_lp_Chiralities_Consistent>
1

> <s_lp_Variant>
AV-unprocessed.smi:1621-2

> <Gold.Version>
5.8.1

> <Gold.Id.Protein>
6NUR|6NUR_protein|mol2

> <Gold.PLP.Fitness>
47.7976

> <Gold.PLP.PLP>
-36.1816

> <Gold.PLP.part.hbond>
-3.0000

> <Gold.PLP.part.metal>
0.0000

> <Gold.PLP.part.buried>
-3.5828

> <Gold.PLP.part.nonpolar>
-30.2607

> <Gold.PLP.part.repulsive>
0.2745

> <Gold.PLP.ligand.clash>
0.0000

> <Gold.PLP.ligand.torsion>
0.1844

> <Gold.PLP.Chemscore.Hbond>
3.9920

> <Gold.PLP.Chemscore.CHOScore>
0.0000

> <Gold.PLP.Chemscore.Metal>
0.0000

> <Gold.Chemscore.Hbonds>
donor molecule, donor type, donor heavy atom, donor atom, acceptor molecule, acceptor atom, score
      L1  H     2    39       P1 10175  2.00
      L1  H     7    29       P1  8028  0.98
      L1  H    10    30       P1  8028  1.00

> <Gold.PLP.Chemscore.Internal.Correction>
0.0088

> <Gold.Rescore>
     Score         DG    S(hbond)    S(metal)    S(lipo)     H(rot)  DE(clash)    DE(int)     intcor
     21.68     -23.29       2.97        0.00      94.74       1.25       0.31       1.30       ----

> <Gold.Chemscore.Fitness>
21.6767

> <Gold.Chemscore.DG>
-23.2858

> <Gold.Chemscore.ZeroCoef>
-5.4800

> <Gold.Chemscore.Hbond>
2.9691

> <Gold.Chemscore.Metal>
0.0000

> <Gold.Chemscore.Lipo>
94.7378

> <Gold.Chemscore.Internal_Hbond>
0.0000

> <Gold.Chemscore.DEClash>
0.3127

> <Gold.Chemscore.DEInternal>
1.2964

> <Gold.Chemscore.Rot>
1.2482

> <Gold.Chemscore.Internal.Correction>
   9.000000E+99

> <Gold.Chemscore.Hbonds>
donor molecule, donor type, donor heavy atom, donor atom, acceptor molecule, acceptor atom, score
      L1  H     2    39       P1 10175  1.00
      L1  H     7    29       P1  8028  0.93
      L1  H    10    30       P1  8028  0.98

> <Gold.Chemscore.Hbond.Weighted>
-9.9169

> <Gold.Chemscore.Metal.Weighted>
-0.0000

> <Gold.Chemscore.Lipo.Weighted>
-11.0843

> <Gold.Chemscore.Internal_Hbond.Weighted>
0.0000

> <Gold.Chemscore.DEClash.Weighted>
0.3127

> <Gold.Chemscore.DEInternal.Weighted>
1.2964

> <Gold.Chemscore.Rot.Weighted>
3.1954

> <Gold.Chemscore.Internal.Correction.Weighted>
   9.000000E+99

> <Gold.Protein.RotatedTorsions>
[ 6907 6896 6895 6894 ] final -140.49 input  -60.11 | X-H torsion
[ 7974 7965 7964 7962 ] final  -24.52 input  175.53 | X-H torsion
[ 8008 7997 7996 7995 ] final  104.46 input   59.86 | X-H torsion
[ 10167 10162 10161 10158 ] final -166.04 input  -65.29 | X-H torsion
[ 10718 10713 10712 10709 ] final -119.97 input   66.30 | X-H torsion
[ 10763 10752 10751 10750 ] final  -56.71 input  -60.55 | X-H torsion
[ 11005 11000 10999 10996 ] final -129.70 input  -57.11 | X-H torsion

> <Gold.Protein.ActiveResidues>
 VAL166  LYS551  ARG553  GLY616  TRP617  ASP618  TYR619  PRO620  LYS621  CYS622 
 ASP623  PHE694  ASN695  SER759  ASP760  ASP761  ALA762  ILE779  LEU786  VAL792 
 PHE793  MET794  SER795  GLU796  ALA797  LYS798  CYS799  TRP800  GLU811  SER814 

> <Gold.Protein.RotatedAtoms>
  151.0614  133.5541  159.2633 H   0  0  0  0  0  0  0  0  0  0  0  0  # atno 6907 bound_to 6896
  151.2515  135.0623  159.9073 H   0  0  0  0  0  0  0  0  0  0  0  0  # atno 6908 bound_to 6896
  152.5398  134.0373  159.8105 H   0  0  0  0  0  0  0  0  0  0  0  0  # atno 6909 bound_to 6896
  146.1549  140.4763  142.8595 H   0  0  0  0  0  0  0  0  0  0  0  0  # atno 7974 bound_to 7965
  156.1574  140.3147  155.8749 H   0  0  0  0  0  0  0  0  0  0  0  0  # atno 8008 bound_to 7997
  155.3850  140.0490  157.3059 H   0  0  0  0  0  0  0  0  0  0  0  0  # atno 8009 bound_to 7997
  154.5114  140.2166  155.9160 H   0  0  0  0  0  0  0  0  0  0  0  0  # atno 8010 bound_to 7997
  139.6142  144.0754  152.1871 H   0  0  0  0  0  0  0  0  0  0  0  0  # atno 10167 bound_to 10162
  156.1222  130.6331  150.9482 H   0  0  0  0  0  0  0  0  0  0  0  0  # atno 10718 bound_to 10713
  154.2109  135.6394  153.5115 H   0  0  0  0  0  0  0  0  0  0  0  0  # atno 10763 bound_to 10752
  152.9990  135.5474  154.6216 H   0  0  0  0  0  0  0  0  0  0  0  0  # atno 10764 bound_to 10752
  154.5652  135.2912  155.0854 H   0  0  0  0  0  0  0  0  0  0  0  0  # atno 10765 bound_to 10752
  140.9409  134.1195  157.4152 H   0  0  0  0  0  0  0  0  0  0  0  0  # atno 11005 bound_to 11000
  144.7951  140.6107  143.6515 LP  0  0  0  0  0  0  0  0  0  0  0  0  # atno 17320 bound_to 7965
  145.4732  139.1501  143.3802 LP  0  0  0  0  0  0  0  0  0  0  0  0  # atno 17321 bound_to 7965
  140.0380  144.6030  150.7434 LP  0  0  0  0  0  0  0  0  0  0  0  0  # atno 17342 bound_to 10162
  140.7339  143.2723  151.3850 LP  0  0  0  0  0  0  0  0  0  0  0  0  # atno 17343 bound_to 10162
  157.6405  131.0911  150.8261 LP  0  0  0  0  0  0  0  0  0  0  0  0  # atno 17370 bound_to 10713
  156.8356  130.5031  149.5326 LP  0  0  0  0  0  0  0  0  0  0  0  0  # atno 17371 bound_to 10713
  139.8820  135.0036  156.6197 LP  0  0  0  0  0  0  0  0  0  0  0  0  # atno 17394 bound_to 11000
  140.7736  133.8718  155.8511 LP  0  0  0  0  0  0  0  0  0  0  0  0  # atno 17395 bound_to 11000

$$$$
