AV-unprocessed.smi:2557|AV-procd|sdf|10029|dock3
  -GOLD-   2272014 73D 1   1.00000     0.00000
 Structure written by MMmdl.
 39 41  0  0  0  0  0  0  0  0  3 V2000
  150.5350  138.2400  154.0439 O   0  5  0  0  0  0  0  0  0  0  0  0
  150.1171  139.2017  154.7308 C   0  0  0  0  0  0  0  0  0  0  0  0
  150.6876  139.9410  155.7702 C   0  0  0  0  0  0  0  0  0  0  0  0
  152.0668  139.6612  156.2489 C   0  0  0  0  0  0  0  0  0  0  0  0
  152.7558  138.7565  155.7786 O   0  0  0  0  0  0  0  0  0  0  0  0
  152.5920  140.4631  157.2736 N   0  0  0  0  0  0  0  0  0  0  0  0
  151.8735  141.4166  157.7846 C   0  0  0  0  0  0  0  0  0  0  0  0
  152.4057  142.3108  158.9081 C   0  0  0  0  0  0  0  0  0  0  0  0
  152.2353  141.7015  160.3210 C   0  0  0  0  0  0  0  0  0  0  0  0
  152.8235  142.6177  161.4063 C   0  0  0  0  0  0  0  0  0  0  0  0
  152.1983  144.0192  161.3471 C   0  0  0  0  0  0  0  0  0  0  0  0
  152.3640  144.6394  159.9517 C   0  0  0  0  0  0  0  0  0  0  0  0
  151.7846  143.7257  158.8585 C   0  0  0  0  0  0  0  0  0  0  0  0
  150.5791  141.7245  157.4071 N   0  0  0  0  0  0  0  0  0  0  0  0
  149.9936  140.9798  156.3899 N   0  0  0  0  0  0  0  0  0  0  0  0
  148.7323  139.5020  154.3243 C   0  0  0  0  0  0  0  0  0  0  0  0
  148.3779  140.7928  153.8689 C   0  0  0  0  0  0  0  0  0  0  0  0
  147.0429  141.0567  153.5023 C   0  0  0  0  0  0  0  0  0  0  0  0
  146.1154  140.0786  153.5917 N   0  3  0  0  0  0  0  0  0  0  0  0
  146.4063  138.8330  154.0259 C   0  0  0  0  0  0  0  0  0  0  0  0
  147.7250  138.5130  154.4063 C   0  0  0  0  0  0  0  0  0  0  0  0
  153.4786  142.4184  158.7395 H   0  0  0  0  0  0  0  0  0  0  0  0
  151.1782  141.5340  160.5338 H   0  0  0  0  0  0  0  0  0  0  0  0
  152.7210  140.7260  160.3725 H   0  0  0  0  0  0  0  0  0  0  0  0
  152.6597  142.1792  162.3909 H   0  0  0  0  0  0  0  0  0  0  0  0
  153.9038  142.6919  161.2766 H   0  0  0  0  0  0  0  0  0  0  0  0
  151.1383  143.9577  161.5967 H   0  0  0  0  0  0  0  0  0  0  0  0
  152.6567  144.6633  162.0977 H   0  0  0  0  0  0  0  0  0  0  0  0
  151.8749  145.6133  159.9188 H   0  0  0  0  0  0  0  0  0  0  0  0
  153.4218  144.8182  159.7553 H   0  0  0  0  0  0  0  0  0  0  0  0
  151.9552  144.1868  157.8849 H   0  0  0  0  0  0  0  0  0  0  0  0
  150.7025  143.6572  158.9808 H   0  0  0  0  0  0  0  0  0  0  0  0
  150.0295  142.4665  157.8159 H   0  0  0  0  0  0  0  0  0  0  0  0
  149.0626  141.2308  156.0909 H   0  0  0  0  0  0  0  0  0  0  0  0
  149.1257  141.5700  153.8052 H   0  0  0  0  0  0  0  0  0  0  0  0
  146.6917  142.0140  153.1461 H   0  0  0  0  0  0  0  0  0  0  0  0
  145.5820  138.1357  154.0584 H   0  0  0  0  0  0  0  0  0  0  0  0
  147.9662  137.5203  154.7583 H   0  0  0  0  0  0  0  0  0  0  0  0
  145.1542  140.2904  153.3230 H   0  0  0  0  0  0  0  0  0  0  0  0
  1  2  1  0  0  0  0
  2  3  2  0  0  0  0
  2 16  1  0  0  0  0
  3 15  1  0  0  0  0
  3  4  1  0  0  0  0
  4  5  2  0  0  0  0
  4  6  1  0  0  0  0
  6  7  2  0  0  0  0
  7  8  1  0  0  0  0
  7 14  1  0  0  0  0
  8 13  1  0  0  0  0
  8  9  1  0  0  0  0
  8 22  1  0  0  0  0
  9 10  1  0  0  0  0
  9 23  1  0  0  0  0
  9 24  1  0  0  0  0
 10 11  1  0  0  0  0
 10 25  1  0  0  0  0
 10 26  1  0  0  0  0
 11 12  1  0  0  0  0
 11 27  1  0  0  0  0
 11 28  1  0  0  0  0
 12 13  1  0  0  0  0
 12 29  1  0  0  0  0
 12 30  1  0  0  0  0
 13 31  1  0  0  0  0
 13 32  1  0  0  0  0
 14 15  1  0  0  0  0
 14 33  1  0  0  0  0
 15 34  1  0  0  0  0
 16 21  1  0  0  0  0
 16 17  2  0  0  0  0
 17 18  1  0  0  0  0
 17 35  1  0  0  0  0
 18 19  2  0  0  0  0
 18 36  1  0  0  0  0
 19 20  1  0  0  0  0
 19 39  1  0  0  0  0
 20 21  2  0  0  0  0
 20 37  1  0  0  0  0
 21 38  1  0  0  0  0
M  CHG  1   1  -1
M  CHG  1  19   1
M  END
> <s_m_source_file>
AV-unprocessed.smi

> <i_m_source_file_index>
2557

> <i_lp_mmshare_version>
43012

> <i_f3d_flags>
0

> <s_epik_input>
W2NIXTFbY0hdbltjSF1bY0hdYzFDKD1PKUMyPUMoW09IXSlOPUMoW05IXVtOSF0yKVtDSF0zW0NIMl1bQ0gyXVtDSDJdW0NIMl1bQ0gyXTM=

> <s_epik_cmdline>
J2VwaWtfcHl0aG9uJywgJy1waCcsICc3LjAnLCAnLXRuJywgJzgnLCAnLW1hJywgJzIwMCcsICctbWV0YWxfYmluZGluZycsICctaW1hZScsICc8aW5maWxlLm1hZT4nLCAnLW9tYWUnLCAnPG91dGZpbGUubWFlPic=

> <r_epik_Ionization_Penalty>
0.514573

> <r_epik_Ionization_Penalty_Charging>
0.470311

> <r_epik_Ionization_Penalty_Neutral>
0.0442626

> <r_epik_State_Penalty>
1.93511

> <r_epik_Charging_Adjusted_Penalty>
2.40542

> <i_epik_Tot_Q>
0

> <i_epik_Tot_abs_Q>
2

> <r_epik_Metal_State_Penalty>
5.62711

> <b_epik_Metal_Only>
0

> <s_epik_Chemistry_Notes>
This compound has an imine and may undergo hydrolysis.

> <s_lp_Force_Field>
OPLS_2005

> <r_lp_Energy>
35.5882

> <b_lp_Chiralities_Consistent>
1

> <s_lp_Variant>
AV-unprocessed.smi:2557-3

> <Gold.Version>
5.8.1

> <Gold.Id.Protein>
6NUR|6NUR_protein|mol2

> <Gold.PLP.Fitness>
44.8664

> <Gold.PLP.PLP>
-38.4591

> <Gold.PLP.part.hbond>
-2.7004

> <Gold.PLP.part.metal>
0.0000

> <Gold.PLP.part.buried>
-2.6578

> <Gold.PLP.part.nonpolar>
-34.0475

> <Gold.PLP.part.repulsive>
0.3282

> <Gold.PLP.ligand.clash>
0.0000

> <Gold.PLP.ligand.torsion>
1.8139

> <Gold.PLP.Chemscore.Hbond>
2.6256

> <Gold.PLP.Chemscore.CHOScore>
0.0000

> <Gold.PLP.Chemscore.Metal>
0.0000

> <Gold.Chemscore.Hbonds>
donor molecule, donor type, donor heavy atom, donor atom, acceptor molecule, acceptor atom, score
      L1  H    19    39       P1 10175  2.00
      P1  H  7997  8008       L1     6  0.61

> <Gold.PLP.Chemscore.Internal.Correction>
2.1584

> <Gold.Rescore>
     Score         DG    S(hbond)    S(metal)    S(lipo)     H(rot)  DE(clash)    DE(int)     intcor
     17.96     -20.13       1.45        0.00     105.60       1.00       0.41       1.76       ----

> <Gold.Chemscore.Fitness>
17.9621

> <Gold.Chemscore.DG>
-20.1300

> <Gold.Chemscore.ZeroCoef>
-5.4800

> <Gold.Chemscore.Hbond>
1.4537

> <Gold.Chemscore.Metal>
0.0000

> <Gold.Chemscore.Lipo>
105.5950

> <Gold.Chemscore.Internal_Hbond>
0.0000

> <Gold.Chemscore.DEClash>
0.4110

> <Gold.Chemscore.DEInternal>
1.7569

> <Gold.Chemscore.Rot>
1.0000

> <Gold.Chemscore.Internal.Correction>
   9.000000E+99

> <Gold.Chemscore.Hbonds>
donor molecule, donor type, donor heavy atom, donor atom, acceptor molecule, acceptor atom, score
      L1  H    19    39       P1 10175  1.00
      P1  H  7997  8008       L1     6  0.10

> <Gold.Chemscore.Hbond.Weighted>
-4.8553

> <Gold.Chemscore.Metal.Weighted>
-0.0000

> <Gold.Chemscore.Lipo.Weighted>
-12.3546

> <Gold.Chemscore.Internal_Hbond.Weighted>
0.0000

> <Gold.Chemscore.DEClash.Weighted>
0.4110

> <Gold.Chemscore.DEInternal.Weighted>
1.7569

> <Gold.Chemscore.Rot.Weighted>
2.5600

> <Gold.Chemscore.Internal.Correction.Weighted>
   9.000000E+99

> <Gold.Protein.RotatedTorsions>
[ 6907 6896 6895 6894 ] final -166.67 input  -60.11 | X-H torsion
[ 7974 7965 7964 7962 ] final  -55.75 input  175.53 | X-H torsion
[ 8008 7997 7996 7995 ] final  -79.41 input   59.86 | X-H torsion
[ 10167 10162 10161 10158 ] final   32.44 input  -65.29 | X-H torsion
[ 10718 10713 10712 10709 ] final  168.36 input   66.30 | X-H torsion
[ 10763 10752 10751 10750 ] final -137.11 input  -60.55 | X-H torsion
[ 11005 11000 10999 10996 ] final  125.57 input  -57.11 | X-H torsion

> <Gold.Protein.ActiveResidues>
 VAL166  LYS551  ARG553  GLY616  TRP617  ASP618  TYR619  PRO620  LYS621  CYS622 
 ASP623  PHE694  ASN695  SER759  ASP760  ASP761  ALA762  ILE779  LEU786  VAL792 
 PHE793  MET794  SER795  GLU796  ALA797  LYS798  CYS799  TRP800  GLU811  SER814 

> <Gold.Protein.RotatedAtoms>
  151.4473  133.3627  159.2789 H   0  0  0  0  0  0  0  0  0  0  0  0  # atno 6907 bound_to 6896
  150.9115  134.8534  159.7439 H   0  0  0  0  0  0  0  0  0  0  0  0  # atno 6908 bound_to 6896
  152.4935  134.4403  159.9593 H   0  0  0  0  0  0  0  0  0  0  0  0  # atno 6909 bound_to 6896
  145.8706  140.8219  142.9890 H   0  0  0  0  0  0  0  0  0  0  0  0  # atno 7974 bound_to 7965
  154.5782  140.0679  156.9066 H   0  0  0  0  0  0  0  0  0  0  0  0  # atno 8008 bound_to 7997
  155.2510  140.3351  155.4264 H   0  0  0  0  0  0  0  0  0  0  0  0  # atno 8009 bound_to 7997
  156.2170  140.1782  156.7551 H   0  0  0  0  0  0  0  0  0  0  0  0  # atno 8010 bound_to 7997
  140.4498  144.1064  150.6189 H   0  0  0  0  0  0  0  0  0  0  0  0  # atno 10167 bound_to 10162
  157.0383  131.0279  151.2722 H   0  0  0  0  0  0  0  0  0  0  0  0  # atno 10718 bound_to 10713
  154.8669  135.3652  154.5170 H   0  0  0  0  0  0  0  0  0  0  0  0  # atno 10763 bound_to 10752
  153.5803  135.7018  153.5471 H   0  0  0  0  0  0  0  0  0  0  0  0  # atno 10764 bound_to 10752
  153.3463  135.4084  155.1574 H   0  0  0  0  0  0  0  0  0  0  0  0  # atno 10765 bound_to 10752
  139.9413  134.9635  156.8578 H   0  0  0  0  0  0  0  0  0  0  0  0  # atno 11005 bound_to 11000
  144.6726  140.1233  143.7448 LP  0  0  0  0  0  0  0  0  0  0  0  0  # atno 17320 bound_to 7965
  145.9141  139.2505  143.1420 LP  0  0  0  0  0  0  0  0  0  0  0  0  # atno 17321 bound_to 7965
  140.4220  143.2607  151.9703 LP  0  0  0  0  0  0  0  0  0  0  0  0  # atno 17342 bound_to 10162
  139.4796  144.5822  151.7913 LP  0  0  0  0  0  0  0  0  0  0  0  0  # atno 17343 bound_to 10162
  157.5125  130.7947  149.7720 LP  0  0  0  0  0  0  0  0  0  0  0  0  # atno 17370 bound_to 10713
  156.0046  130.3862  150.2476 LP  0  0  0  0  0  0  0  0  0  0  0  0  # atno 17371 bound_to 10713
  140.5945  134.0230  155.7512 LP  0  0  0  0  0  0  0  0  0  0  0  0  # atno 17394 bound_to 11000
  141.1048  133.9711  157.3016 LP  0  0  0  0  0  0  0  0  0  0  0  0  # atno 17395 bound_to 11000

$$$$
