AV-unprocessed.smi:2521|AV-procd|sdf|9916|dock8
  -GOLD-   2272013553D 1   1.00000     0.00000
 Structure written by MMmdl.
 36 37  0  0  0  0  0  0  0  0  1 V2000
  144.2801  131.2353  150.8457 C   0  0  0  0  0  0  0  0  0  0  0  0
  143.6977  132.5369  150.2757 C   0  0  0  0  0  0  0  0  0  0  0  0
  143.8351  132.6412  148.7497 C   0  0  0  0  0  0  0  0  0  0  0  0
  144.2321  133.7478  150.9750 C   0  0  0  0  0  0  0  0  0  0  0  0
  143.4576  134.5869  151.6762 N   0  0  0  0  0  0  0  0  0  0  0  0
  144.1796  135.6337  152.2312 N   0  0  0  0  0  0  0  0  0  0  0  0
  145.4832  135.5556  151.9314 C   0  0  0  0  0  0  0  0  0  0  0  0
  146.4513  136.4981  152.3679 N   0  0  0  0  0  0  0  0  0  0  0  0
  146.2713  137.5751  153.1526 C   0  0  0  0  0  0  0  0  0  0  0  0
  145.1985  137.9299  153.6415 O   0  0  0  0  0  0  0  0  0  0  0  0
  147.4248  138.2294  153.3496 N   0  0  0  0  0  0  0  0  0  0  0  0
  147.5782  139.4274  154.1684 C   0  0  0  0  0  0  0  0  0  0  0  0
  148.9267  139.4489  154.9128 C   0  0  1  0  0  0  0  0  0  0  0  0
  149.9711  138.4955  154.3659 C   0  0  0  0  0  0  0  0  0  0  0  0
  151.2564  139.0759  154.9463 C   0  0  0  0  0  0  0  0  0  0  0  0
  151.0440  140.4823  155.0264 O   0  0  0  0  0  0  0  0  0  0  0  0
  149.6664  140.7831  154.8195 C   0  0  0  0  0  0  0  0  0  0  0  0
  145.9377  134.1834  150.9363 S   0  0  0  0  0  0  0  0  0  0  0  0
  144.0879  131.1556  151.9161 H   0  0  0  0  0  0  0  0  0  0  0  0
  145.3590  131.1837  150.6960 H   0  0  0  0  0  0  0  0  0  0  0  0
  143.8366  130.3630  150.3648 H   0  0  0  0  0  0  0  0  0  0  0  0
  142.6275  132.5099  150.4842 H   0  0  0  0  0  0  0  0  0  0  0  0
  143.3376  133.5347  148.3715 H   0  0  0  0  0  0  0  0  0  0  0  0
  143.3869  131.7790  148.2552 H   0  0  0  0  0  0  0  0  0  0  0  0
  144.8819  132.6890  148.4479 H   0  0  0  0  0  0  0  0  0  0  0  0
  147.3933  136.3303  152.0471 H   0  0  0  0  0  0  0  0  0  0  0  0
  148.2590  137.8697  152.9094 H   0  0  0  0  0  0  0  0  0  0  0  0
  147.4968  140.2952  153.5134 H   0  0  0  0  0  0  0  0  0  0  0  0
  146.7535  139.5009  154.8792 H   0  0  0  0  0  0  0  0  0  0  0  0
  148.7667  139.2199  155.9679 H   0  0  0  0  0  0  0  0  0  0  0  0
  149.8044  137.4591  154.6606 H   0  0  0  0  0  0  0  0  0  0  0  0
  149.9978  138.5425  153.2762 H   0  0  0  0  0  0  0  0  0  0  0  0
  151.4247  138.6927  155.9535 H   0  0  0  0  0  0  0  0  0  0  0  0
  152.1319  138.8373  154.3420 H   0  0  0  0  0  0  0  0  0  0  0  0
  149.5583  141.2181  153.8250 H   0  0  0  0  0  0  0  0  0  0  0  0
  149.3048  141.5108  155.5464 H   0  0  0  0  0  0  0  0  0  0  0  0
  1  2  1  0  0  0  0
  1 19  1  0  0  0  0
  1 20  1  0  0  0  0
  1 21  1  0  0  0  0
  2  3  1  0  0  0  0
  2  4  1  0  0  0  0
  2 22  1  0  0  0  0
  3 23  1  0  0  0  0
  3 24  1  0  0  0  0
  3 25  1  0  0  0  0
  4 18  1  0  0  0  0
  4  5  2  0  0  0  0
  5  6  1  0  0  0  0
  6  7  2  0  0  0  0
  7  8  1  0  0  0  0
  7 18  1  0  0  0  0
  8  9  1  0  0  0  0
  8 26  1  0  0  0  0
  9 10  2  0  0  0  0
  9 11  1  0  0  0  0
 11 12  1  0  0  0  0
 11 27  1  0  0  0  0
 12 13  1  0  0  0  0
 12 28  1  0  0  0  0
 12 29  1  0  0  0  0
 13 17  1  0  0  0  0
 13 14  1  0  0  0  0
 13 30  1  0  0  0  0
 14 15  1  0  0  0  0
 14 31  1  0  0  0  0
 14 32  1  0  0  0  0
 15 16  1  0  0  0  0
 15 33  1  0  0  0  0
 15 34  1  0  0  0  0
 16 17  1  0  0  0  0
 17 35  1  0  0  0  0
 17 36  1  0  0  0  0
M  END
> <s_m_source_file>
AV-unprocessed.smi

> <i_m_source_file_index>
2521

> <i_lp_mmshare_version>
43012

> <i_f3d_flags>
0

> <s_epik_input>
W0NIM11bQ0hdKFtDSDNdKWMxbm5jKHMxKVtOSF1DKD1PKVtOSF1bQ0gyXVtDQEBIXTJbQ0gyXVtDSDJdT1tDSDJdMg==

> <s_epik_cmdline>
J2VwaWtfcHl0aG9uJywgJy1waCcsICc3LjAnLCAnLXRuJywgJzgnLCAnLW1hJywgJzIwMCcsICctbWV0YWxfYmluZGluZycsICctaW1hZScsICc8aW5maWxlLm1hZT4nLCAnLW9tYWUnLCAnPG91dGZpbGUubWFlPic=

> <r_lp_tautomer_probability>
1

> <r_epik_Ionization_Penalty>
0.000452582

> <r_epik_Ionization_Penalty_Charging>
0

> <r_epik_Ionization_Penalty_Neutral>
0.000452582

> <r_epik_State_Penalty>
-0

> <r_epik_Charging_Adjusted_Penalty>
0

> <i_epik_Tot_Q>
0

> <i_epik_Tot_abs_Q>
0

> <r_epik_Metal_State_Penalty>
0.207746

> <b_epik_Metal_Only>
0

> <s_lp_Force_Field>
OPLS_2005

> <r_lp_Energy>
10.682

> <b_lp_Chiralities_Consistent>
1

> <s_lp_Variant>
AV-unprocessed.smi:2521-2

> <Gold.Version>
5.8.1

> <Gold.Id.Protein>
6NUR|6NUR_protein|mol2

> <Gold.PLP.Fitness>
38.0849

> <Gold.PLP.PLP>
-31.4520

> <Gold.PLP.part.hbond>
-3.0000

> <Gold.PLP.part.metal>
0.0000

> <Gold.PLP.part.buried>
-4.1791

> <Gold.PLP.part.nonpolar>
-26.1852

> <Gold.PLP.part.repulsive>
0.5873

> <Gold.PLP.ligand.clash>
0.0000

> <Gold.PLP.ligand.torsion>
0.8456

> <Gold.PLP.Chemscore.Hbond>
2.7480

> <Gold.PLP.Chemscore.CHOScore>
0.0000

> <Gold.PLP.Chemscore.Metal>
0.0000

> <Gold.Chemscore.Hbonds>
donor molecule, donor type, donor heavy atom, donor atom, acceptor molecule, acceptor atom, score
      L1  H     8    26       P1  7948  1.00
      L1  H    11    27       P1  7948  0.81
      P1  H  7989  7998       L1    16  0.86

> <Gold.PLP.Chemscore.Internal.Correction>
0.0801

> <Gold.Rescore>
     Score         DG    S(hbond)    S(metal)    S(lipo)     H(rot)  DE(clash)    DE(int)     intcor
     15.52     -17.61       1.95        0.00      79.67       1.45       0.03       2.06       ----

> <Gold.Chemscore.Fitness>
15.5223

> <Gold.Chemscore.DG>
-17.6143

> <Gold.Chemscore.ZeroCoef>
-5.4800

> <Gold.Chemscore.Hbond>
1.9505

> <Gold.Chemscore.Metal>
0.0000

> <Gold.Chemscore.Lipo>
79.6716

> <Gold.Chemscore.Internal_Hbond>
0.0000

> <Gold.Chemscore.DEClash>
0.0294

> <Gold.Chemscore.DEInternal>
2.0626

> <Gold.Chemscore.Rot>
1.4461

> <Gold.Chemscore.Internal.Correction>
   9.000000E+99

> <Gold.Chemscore.Hbonds>
donor molecule, donor type, donor heavy atom, donor atom, acceptor molecule, acceptor atom, score
      L1  H     8    26       P1  7948  0.95
      L1  H    11    27       P1  7948  0.75
      P1  H  7989  7998       L1    16  0.04

> <Gold.Chemscore.Hbond.Weighted>
-6.5146

> <Gold.Chemscore.Metal.Weighted>
-0.0000

> <Gold.Chemscore.Lipo.Weighted>
-9.3216

> <Gold.Chemscore.Internal_Hbond.Weighted>
0.0000

> <Gold.Chemscore.DEClash.Weighted>
0.0294

> <Gold.Chemscore.DEInternal.Weighted>
2.0626

> <Gold.Chemscore.Rot.Weighted>
3.7019

> <Gold.Chemscore.Internal.Correction.Weighted>
   9.000000E+99

> <Gold.Protein.RotatedTorsions>
[ 6907 6896 6895 6894 ] final -104.19 input  -60.11 | X-H torsion
[ 7974 7965 7964 7962 ] final   81.87 input  175.53 | X-H torsion
[ 8008 7997 7996 7995 ] final  141.67 input   59.86 | X-H torsion
[ 10167 10162 10161 10158 ] final  114.77 input  -65.29 | X-H torsion
[ 10718 10713 10712 10709 ] final   68.77 input   66.30 | X-H torsion
[ 10763 10752 10751 10750 ] final   71.81 input  -60.55 | X-H torsion
[ 11005 11000 10999 10996 ] final  166.75 input  -57.11 | X-H torsion

> <Gold.Protein.ActiveResidues>
 VAL166  LYS551  ARG553  GLY616  TRP617  ASP618  TYR619  PRO620  LYS621  CYS622 
 ASP623  PHE694  ASN695  SER759  ASP760  ASP761  ALA762  ILE779  LEU786  VAL792 
 PHE793  MET794  SER795  GLU796  ALA797  LYS798  CYS799  TRP800  GLU811  SER814 

> <Gold.Protein.RotatedAtoms>
  150.7275  134.0316  159.3734 H   0  0  0  0  0  0  0  0  0  0  0  0  # atno 6907 bound_to 6896
  151.8285  135.0627  160.0443 H   0  0  0  0  0  0  0  0  0  0  0  0  # atno 6908 bound_to 6896
  152.2951  133.5563  159.5618 H   0  0  0  0  0  0  0  0  0  0  0  0  # atno 6909 bound_to 6896
  145.6325  139.2408  143.2076 H   0  0  0  0  0  0  0  0  0  0  0  0  # atno 7974 bound_to 7965
  156.2962  140.2309  156.4602 H   0  0  0  0  0  0  0  0  0  0  0  0  # atno 8008 bound_to 7997
  154.8025  140.0447  157.1304 H   0  0  0  0  0  0  0  0  0  0  0  0  # atno 8009 bound_to 7997
  154.9517  140.3043  155.5075 H   0  0  0  0  0  0  0  0  0  0  0  0  # atno 8010 bound_to 7997
  139.6364  144.7120  151.2325 H   0  0  0  0  0  0  0  0  0  0  0  0  # atno 10167 bound_to 10162
  157.6308  130.9391  150.0423 H   0  0  0  0  0  0  0  0  0  0  0  0  # atno 10718 bound_to 10713
  153.0421  135.5123  154.7650 H   0  0  0  0  0  0  0  0  0  0  0  0  # atno 10763 bound_to 10752
  154.6579  135.2934  154.9907 H   0  0  0  0  0  0  0  0  0  0  0  0  # atno 10764 bound_to 10752
  154.0768  135.6670  153.4884 H   0  0  0  0  0  0  0  0  0  0  0  0  # atno 10765 bound_to 10752
  140.2697  134.7837  157.3664 H   0  0  0  0  0  0  0  0  0  0  0  0  # atno 11005 bound_to 11000
  146.1345  140.7141  142.9396 LP  0  0  0  0  0  0  0  0  0  0  0  0  # atno 17320 bound_to 7965
  144.7188  140.4302  143.7024 LP  0  0  0  0  0  0  0  0  0  0  0  0  # atno 17321 bound_to 7965
  140.7468  143.6388  150.8354 LP  0  0  0  0  0  0  0  0  0  0  0  0  # atno 17342 bound_to 10162
  140.0020  143.5734  152.2872 LP  0  0  0  0  0  0  0  0  0  0  0  0  # atno 17343 bound_to 10162
  156.1511  130.3642  149.9437 LP  0  0  0  0  0  0  0  0  0  0  0  0  # atno 17370 bound_to 10713
  156.7457  130.9096  151.3634 LP  0  0  0  0  0  0  0  0  0  0  0  0  # atno 17371 bound_to 10713
  140.1385  134.5002  155.8049 LP  0  0  0  0  0  0  0  0  0  0  0  0  # atno 17394 bound_to 11000
  141.2179  133.6816  156.7168 LP  0  0  0  0  0  0  0  0  0  0  0  0  # atno 17395 bound_to 11000

$$$$
