AV-unprocessed.smi:3335|AV-procd|sdf|12837|dock8
  -GOLD-   2272019223D 1   1.00000     0.00000
 Structure written by MMmdl.
 47 48  0  0  0  0  0  0  0  0  2 V2000
  151.5957  142.1401  157.8828 C   0  0  0  0  0  0  0  0  0  0  0  0
  151.0072  141.4607  156.6801 C   0  0  0  0  0  0  0  0  0  0  0  0
  151.6071  140.4679  155.8555 C   0  0  0  0  0  0  0  0  0  0  0  0
  150.8221  140.0834  154.8628 N   0  0  0  0  0  0  0  0  0  0  0  0
  149.6868  140.8004  155.0258 N   0  0  0  0  0  0  0  0  0  0  0  0
  148.5873  140.6843  154.0732 C   0  0  2  0  0  0  0  0  0  0  0  0
  147.4852  141.7344  154.3296 C   0  0  0  0  0  0  0  0  0  0  0  0
  148.0730  139.2244  154.0028 C   0  0  2  0  0  0  0  0  0  0  0  0
  147.1027  138.9937  152.8305 C   0  0  0  0  0  0  0  0  0  0  0  0
  147.4601  138.8111  155.2900 N   0  3  0  0  0  0  0  0  0  0  0  0
  147.3940  137.3520  155.5406 C   0  0  2  0  0  0  0  0  0  0  0  0
  146.8306  137.0989  156.9474 C   0  0  0  0  0  0  0  0  0  0  0  0
  148.7841  136.6967  155.4093 C   0  0  0  0  0  0  0  0  0  0  0  0
  149.7542  137.2542  155.9246 O   0  0  0  0  0  0  0  0  0  0  0  0
  148.9054  135.5263  154.7472 N   0  0  0  0  0  0  0  0  0  0  0  0
  150.1419  134.7745  154.5339 C   0  0  0  0  0  0  0  0  0  0  0  0
  149.7879  133.6623  153.5468 C   0  0  0  0  0  0  0  0  0  0  0  0
  148.2944  133.4489  153.7465 C   0  0  0  0  0  0  0  0  0  0  0  0
  147.7714  134.8293  154.1423 C   0  0  0  0  0  0  0  0  0  0  0  0
  149.7805  141.6486  156.1096 C   0  0  0  0  0  0  0  0  0  0  0  0
  152.4800  141.6192  158.2503 H   0  0  0  0  0  0  0  0  0  0  0  0
  150.8846  142.1861  158.7077 H   0  0  0  0  0  0  0  0  0  0  0  0
  151.8958  143.1637  157.6581 H   0  0  0  0  0  0  0  0  0  0  0  0
  152.5879  140.0243  155.9433 H   0  0  0  0  0  0  0  0  0  0  0  0
  149.0146  140.9208  153.0975 H   0  0  0  0  0  0  0  0  0  0  0  0
  146.7455  141.7399  153.5295 H   0  0  0  0  0  0  0  0  0  0  0  0
  147.9105  142.7375  154.3769 H   0  0  0  0  0  0  0  0  0  0  0  0
  146.9576  141.5560  155.2670 H   0  0  0  0  0  0  0  0  0  0  0  0
  148.9481  138.5981  153.8225 H   0  0  0  0  0  0  0  0  0  0  0  0
  147.5349  139.3400  151.8912 H   0  0  0  0  0  0  0  0  0  0  0  0
  146.1594  139.5197  152.9767 H   0  0  0  0  0  0  0  0  0  0  0  0
  146.8706  137.9363  152.7055 H   0  0  0  0  0  0  0  0  0  0  0  0
  148.0058  139.2158  156.0389 H   0  0  0  0  0  0  0  0  0  0  0  0
  146.6976  136.9275  154.8192 H   0  0  0  0  0  0  0  0  0  0  0  0
  146.7480  136.0321  157.1588 H   0  0  0  0  0  0  0  0  0  0  0  0
  145.8339  137.5284  157.0520 H   0  0  0  0  0  0  0  0  0  0  0  0
  147.4632  137.5409  157.7185 H   0  0  0  0  0  0  0  0  0  0  0  0
  150.9473  135.3986  154.1451 H   0  0  0  0  0  0  0  0  0  0  0  0
  150.4665  134.3467  155.4837 H   0  0  0  0  0  0  0  0  0  0  0  0
  149.9738  134.0036  152.5276 H   0  0  0  0  0  0  0  0  0  0  0  0
  150.3703  132.7543  153.7060 H   0  0  0  0  0  0  0  0  0  0  0  0
  147.8012  133.0479  152.8606 H   0  0  0  0  0  0  0  0  0  0  0  0
  148.1322  132.7476  154.5661 H   0  0  0  0  0  0  0  0  0  0  0  0
  146.9236  134.7504  154.8247 H   0  0  0  0  0  0  0  0  0  0  0  0
  147.4458  135.3822  153.2596 H   0  0  0  0  0  0  0  0  0  0  0  0
  148.9744  142.3142  156.3816 H   0  0  0  0  0  0  0  0  0  0  0  0
  146.5283  139.1978  155.3311 H   0  0  0  0  0  0  0  0  0  0  0  0
  1  2  1  0  0  0  0
  1 21  1  0  0  0  0
  1 22  1  0  0  0  0
  1 23  1  0  0  0  0
  2 20  2  0  0  0  0
  2  3  1  0  0  0  0
  3  4  2  0  0  0  0
  3 24  1  0  0  0  0
  4  5  1  0  0  0  0
  5  6  1  0  0  0  0
  5 20  1  0  0  0  0
  6  7  1  0  0  0  0
  6  8  1  0  0  0  0
  6 25  1  0  0  0  0
  7 26  1  0  0  0  0
  7 27  1  0  0  0  0
  7 28  1  0  0  0  0
  8  9  1  0  0  0  0
  8 10  1  0  0  0  0
  8 29  1  0  0  0  0
  9 30  1  0  0  0  0
  9 31  1  0  0  0  0
  9 32  1  0  0  0  0
 10 11  1  0  0  0  0
 10 33  1  0  0  0  0
 10 47  1  0  0  0  0
 11 12  1  0  0  0  0
 11 13  1  0  0  0  0
 11 34  1  0  0  0  0
 12 35  1  0  0  0  0
 12 36  1  0  0  0  0
 12 37  1  0  0  0  0
 13 14  2  0  0  0  0
 13 15  1  0  0  0  0
 15 19  1  0  0  0  0
 15 16  1  0  0  0  0
 16 17  1  0  0  0  0
 16 38  1  0  0  0  0
 16 39  1  0  0  0  0
 17 18  1  0  0  0  0
 17 40  1  0  0  0  0
 17 41  1  0  0  0  0
 18 19  1  0  0  0  0
 18 42  1  0  0  0  0
 18 43  1  0  0  0  0
 19 44  1  0  0  0  0
 19 45  1  0  0  0  0
 20 46  1  0  0  0  0
M  CHG  1  10   1
M  END
> <s_m_source_file>
AV-unprocessed.smi

> <i_m_source_file_index>
3335

> <i_lp_mmshare_version>
43012

> <i_f3d_flags>
0

> <s_epik_input>
W0NIM11jMVtjSF1ubihbY0hdMSlbQ0BIXShbQ0gzXSlbQ0BIXShbQ0gzXSlbTkhdW0NASF0oW0NIM10pQyg9TylOMltDSDJdW0NIMl1bQ0gyXVtDSDJdMg==

> <s_epik_cmdline>
J2VwaWtfcHl0aG9uJywgJy1waCcsICc3LjAnLCAnLXRuJywgJzgnLCAnLW1hJywgJzIwMCcsICctbWV0YWxfYmluZGluZycsICctaW1hZScsICc8aW5maWxlLm1hZT4nLCAnLW9tYWUnLCAnPG91dGZpbGUubWFlPic=

> <r_lp_tautomer_probability>
1

> <r_epik_Ionization_Penalty>
0.14175

> <r_epik_Ionization_Penalty_Charging>
0.141731

> <r_epik_Ionization_Penalty_Neutral>
1.91261e-05

> <r_epik_State_Penalty>
0.131043

> <r_epik_Charging_Adjusted_Penalty>
0.272773

> <i_epik_Tot_Q>
1

> <i_epik_Tot_abs_Q>
1

> <r_epik_Metal_State_Penalty>
0.131408

> <b_epik_Metal_Only>
0

> <s_lp_Force_Field>
OPLS_2005

> <r_lp_Energy>
36.483

> <b_lp_Chiralities_Consistent>
1

> <s_lp_Variant>
AV-unprocessed.smi:3335-1

> <Gold.Version>
5.8.1

> <Gold.Id.Protein>
6NUR|6NUR_protein|mol2

> <Gold.PLP.Fitness>
36.2849

> <Gold.PLP.PLP>
-31.5905

> <Gold.PLP.part.hbond>
-1.0000

> <Gold.PLP.part.metal>
0.0000

> <Gold.PLP.part.buried>
-0.5236

> <Gold.PLP.part.nonpolar>
-28.4495

> <Gold.PLP.part.repulsive>
0.0845

> <Gold.PLP.ligand.clash>
0.0000

> <Gold.PLP.ligand.torsion>
0.7288

> <Gold.PLP.Chemscore.Hbond>
1.0000

> <Gold.PLP.Chemscore.CHOScore>
0.9811

> <Gold.PLP.Chemscore.Metal>
0.0000

> <Gold.Chemscore.Hbonds>
donor molecule, donor type, donor heavy atom, donor atom, acceptor molecule, acceptor atom, score
      P1  H  7989  7998       L1     4  1.00
      L1  C    20    46       P1  8028  0.87

> <Gold.PLP.Chemscore.Internal.Correction>
0.2089

> <Gold.Rescore>
     Score         DG    S(hbond)    S(metal)    S(lipo)     H(rot)  DE(clash)    DE(int)     intcor
     10.92     -12.14       0.63        0.00      75.70       1.68       0.32       0.90       ----

> <Gold.Chemscore.Fitness>
10.9230

> <Gold.Chemscore.DG>
-12.1388

> <Gold.Chemscore.ZeroCoef>
-5.4800

> <Gold.Chemscore.Hbond>
0.6279

> <Gold.Chemscore.Metal>
0.0000

> <Gold.Chemscore.Lipo>
75.6988

> <Gold.Chemscore.Internal_Hbond>
0.0000

> <Gold.Chemscore.DEClash>
0.3168

> <Gold.Chemscore.DEInternal>
0.8990

> <Gold.Chemscore.Rot>
1.6778

> <Gold.Chemscore.Internal.Correction>
   9.000000E+99

> <Gold.Chemscore.Hbonds>
donor molecule, donor type, donor heavy atom, donor atom, acceptor molecule, acceptor atom, score
      P1  H  7989  7998       L1     4  0.11

> <Gold.Chemscore.Hbond.Weighted>
-2.0973

> <Gold.Chemscore.Metal.Weighted>
-0.0000

> <Gold.Chemscore.Lipo.Weighted>
-8.8568

> <Gold.Chemscore.Internal_Hbond.Weighted>
0.0000

> <Gold.Chemscore.DEClash.Weighted>
0.3168

> <Gold.Chemscore.DEInternal.Weighted>
0.8990

> <Gold.Chemscore.Rot.Weighted>
4.2952

> <Gold.Chemscore.Internal.Correction.Weighted>
   9.000000E+99

> <Gold.Protein.RotatedTorsions>
[ 6907 6896 6895 6894 ] final -149.16 input  -60.11 | X-H torsion
[ 7974 7965 7964 7962 ] final    0.43 input  175.53 | X-H torsion
[ 8008 7997 7996 7995 ] final   10.37 input   59.86 | X-H torsion
[ 10167 10162 10161 10158 ] final  141.42 input  -65.29 | X-H torsion
[ 10718 10713 10712 10709 ] final   28.62 input   66.30 | X-H torsion
[ 10763 10752 10751 10750 ] final  116.18 input  -60.55 | X-H torsion
[ 11005 11000 10999 10996 ] final  165.38 input  -57.11 | X-H torsion

> <Gold.Protein.ActiveResidues>
 VAL166  LYS551  ARG553  GLY616  TRP617  ASP618  TYR619  PRO620  LYS621  CYS622 
 ASP623  PHE694  ASN695  SER759  ASP760  ASP761  ALA762  ILE779  LEU786  VAL792 
 PHE793  MET794  SER795  GLU796  ALA797  LYS798  CYS799  TRP800  GLU811  SER814 

> <Gold.Protein.RotatedAtoms>
  151.1802  133.4730  159.2593 H   0  0  0  0  0  0  0  0  0  0  0  0  # atno 6907 bound_to 6896
  151.1267  135.0108  159.8573 H   0  0  0  0  0  0  0  0  0  0  0  0  # atno 6908 bound_to 6896
  152.5458  134.1708  159.8649 H   0  0  0  0  0  0  0  0  0  0  0  0  # atno 6909 bound_to 6896
  146.2434  140.1139  142.8343 H   0  0  0  0  0  0  0  0  0  0  0  0  # atno 7974 bound_to 7965
  154.7925  140.2838  155.5981 H   0  0  0  0  0  0  0  0  0  0  0  0  # atno 8008 bound_to 7997
  156.2966  140.2602  156.2704 H   0  0  0  0  0  0  0  0  0  0  0  0  # atno 8009 bound_to 7997
  154.9654  140.0377  157.2199 H   0  0  0  0  0  0  0  0  0  0  0  0  # atno 8010 bound_to 7997
  139.5021  144.6173  151.6135 H   0  0  0  0  0  0  0  0  0  0  0  0  # atno 10167 bound_to 10162
  157.2358  130.7045  149.6335 H   0  0  0  0  0  0  0  0  0  0  0  0  # atno 10718 bound_to 10713
  153.5333  135.3574  155.2685 H   0  0  0  0  0  0  0  0  0  0  0  0  # atno 10763 bound_to 10752
  154.8725  135.4073  154.3127 H   0  0  0  0  0  0  0  0  0  0  0  0  # atno 10764 bound_to 10752
  153.3819  135.7068  153.6626 H   0  0  0  0  0  0  0  0  0  0  0  0  # atno 10765 bound_to 10752
  140.2555  134.7943  157.3542 H   0  0  0  0  0  0  0  0  0  0  0  0  # atno 11005 bound_to 11000
  145.0464  140.8984  143.5022 LP  0  0  0  0  0  0  0  0  0  0  0  0  # atno 17320 bound_to 7965
  145.1229  139.2682  143.5579 LP  0  0  0  0  0  0  0  0  0  0  0  0  # atno 17321 bound_to 7965
  140.5864  143.9856  150.6298 LP  0  0  0  0  0  0  0  0  0  0  0  0  # atno 17342 bound_to 10162
  140.3022  143.3253  152.0960 LP  0  0  0  0  0  0  0  0  0  0  0  0  # atno 17343 bound_to 10162
  155.9672  130.4474  150.5579 LP  0  0  0  0  0  0  0  0  0  0  0  0  # atno 17370 bound_to 10713
  157.3430  131.0720  151.1773 LP  0  0  0  0  0  0  0  0  0  0  0  0  # atno 17371 bound_to 10713
  140.1516  134.4843  155.7957 LP  0  0  0  0  0  0  0  0  0  0  0  0  # atno 17394 bound_to 11000
  141.2196  133.6864  156.7387 LP  0  0  0  0  0  0  0  0  0  0  0  0  # atno 17395 bound_to 11000

$$$$
