AV-unprocessed.smi:244|AV-procd|sdf|1864|dock3
  -GOLD-   2262020503D 1   1.00000     0.00000
 Structure written by MMmdl.
 57 61  0  0  0  0  0  0  0  0  2 V2000
  150.6886  144.7349  159.6274 C   0  0  0  0  0  0  0  0  0  0  0  0
  151.4644  143.5981  159.0866 N   0  3  1  0  0  0  0  0  0  0  0  0
  152.4193  143.0449  160.0792 C   0  0  0  0  0  0  0  0  0  0  0  0
  153.2855  141.9393  159.4548 C   0  0  0  0  0  0  0  0  0  0  0  0
  152.4007  140.8349  158.8645 C   0  0  2  0  0  0  0  0  0  0  0  0
  153.2178  139.8484  158.2443 O   0  0  0  0  0  0  0  0  0  0  0  0
  152.4436  138.7658  157.7384 C   0  0  0  0  0  0  0  0  0  0  0  0
  151.4633  139.2920  156.6782 C   0  0  0  0  0  0  0  0  0  0  0  0
  150.6331  140.3584  157.2351 N   0  0  0  0  0  0  0  0  0  0  0  0
  149.6503  140.7642  156.3983 C   0  0  0  0  0  0  0  0  0  0  0  0
  149.9420  141.1162  155.1183 N   0  0  0  0  0  0  0  0  0  0  0  0
  148.9678  141.5339  154.3034 C   0  0  0  0  0  0  0  0  0  0  0  0
  147.6666  141.6802  154.5641 N   0  0  0  0  0  0  0  0  0  0  0  0
  147.3748  141.3335  155.8506 C   0  0  0  0  0  0  0  0  0  0  0  0
  148.3010  140.8716  156.8262 C   0  0  0  0  0  0  0  0  0  0  0  0
  147.6507  140.6306  158.0292 N   0  0  0  0  0  0  0  0  0  0  0  0
  146.4053  140.9305  157.7782 C   0  0  0  0  0  0  0  0  0  0  0  0
  146.1487  141.3521  156.4922 N   0  0  0  0  0  0  0  0  0  0  0  0
  144.8583  141.7432  155.9448 C   0  0  0  0  0  0  0  0  0  0  0  0
  144.7749  143.2336  155.5301 C   0  0  0  0  0  0  0  0  0  0  0  0
  145.4181  143.9987  156.5346 O   0  0  0  0  0  0  0  0  0  0  0  0
  145.4717  143.5174  154.1812 C   0  0  0  0  0  0  0  0  0  0  0  0
  145.1990  144.9449  153.6747 C   0  0  0  0  0  0  0  0  0  0  0  0
  143.7984  145.1817  153.6019 O   0  0  0  0  0  0  0  0  0  0  0  0
  143.1618  145.1048  154.8713 C   0  0  0  0  0  0  0  0  0  0  0  0
  143.3027  143.6836  155.4440 C   0  0  0  0  0  0  0  0  0  0  0  0
  151.4321  141.4373  157.8234 C   0  0  1  0  0  0  0  0  0  0  0  0
  150.5922  142.5513  158.4960 C   0  0  0  0  0  0  0  0  0  0  0  0
  150.0507  144.4160  160.4528 H   0  0  0  0  0  0  0  0  0  0  0  0
  150.0554  145.1719  158.8546 H   0  0  0  0  0  0  0  0  0  0  0  0
  151.3546  145.5176  159.9919 H   0  0  0  0  0  0  0  0  0  0  0  0
  153.0616  143.8432  160.4530 H   0  0  0  0  0  0  0  0  0  0  0  0
  151.8691  142.6521  160.9359 H   0  0  0  0  0  0  0  0  0  0  0  0
  153.9196  142.3633  158.6749 H   0  0  0  0  0  0  0  0  0  0  0  0
  153.9546  141.5210  160.2074 H   0  0  0  0  0  0  0  0  0  0  0  0
  151.8352  140.3692  159.6744 H   0  0  0  0  0  0  0  0  0  0  0  0
  153.1119  138.0253  157.2987 H   0  0  0  0  0  0  0  0  0  0  0  0
  151.9098  138.2710  158.5513 H   0  0  0  0  0  0  0  0  0  0  0  0
  152.0253  139.6657  155.8210 H   0  0  0  0  0  0  0  0  0  0  0  0
  150.8315  138.4778  156.3200 H   0  0  0  0  0  0  0  0  0  0  0  0
  149.2744  141.7878  153.2993 H   0  0  0  0  0  0  0  0  0  0  0  0
  145.6313  140.8447  158.5271 H   0  0  0  0  0  0  0  0  0  0  0  0
  144.6544  141.1053  155.0839 H   0  0  0  0  0  0  0  0  0  0  0  0
  144.0876  141.5105  156.6812 H   0  0  0  0  0  0  0  0  0  0  0  0
  146.1195  143.4833  156.9028 H   0  0  0  0  0  0  0  0  0  0  0  0
  146.5478  143.3595  154.2576 H   0  0  0  0  0  0  0  0  0  0  0  0
  145.1095  142.8095  153.4346 H   0  0  0  0  0  0  0  0  0  0  0  0
  145.6719  145.6875  154.3189 H   0  0  0  0  0  0  0  0  0  0  0  0
  145.6273  145.0738  152.6806 H   0  0  0  0  0  0  0  0  0  0  0  0
  143.5839  145.8479  155.5494 H   0  0  0  0  0  0  0  0  0  0  0  0
  142.1075  145.3534  154.7494 H   0  0  0  0  0  0  0  0  0  0  0  0
  142.7532  142.9976  154.7980 H   0  0  0  0  0  0  0  0  0  0  0  0
  142.8264  143.6258  156.4236 H   0  0  0  0  0  0  0  0  0  0  0  0
  152.0194  141.8877  157.0211 H   0  0  0  0  0  0  0  0  0  0  0  0
  149.9499  142.1294  159.2709 H   0  0  0  0  0  0  0  0  0  0  0  0
  149.9397  143.0295  157.7645 H   0  0  0  0  0  0  0  0  0  0  0  0
  152.0212  143.9673  158.3288 H   0  0  0  0  0  0  0  0  0  0  0  0
  1  2  1  0  0  0  0
  1 29  1  0  0  0  0
  1 30  1  0  0  0  0
  1 31  1  0  0  0  0
  2 28  1  0  0  0  0
  2  3  1  0  0  0  0
  2 57  1  0  0  0  0
  3  4  1  0  0  0  0
  3 32  1  0  0  0  0
  3 33  1  0  0  0  0
  4  5  1  0  0  0  0
  4 34  1  0  0  0  0
  4 35  1  0  0  0  0
  5 27  1  0  0  0  0
  5  6  1  0  0  0  0
  5 36  1  0  0  0  0
  6  7  1  0  0  0  0
  7  8  1  0  0  0  0
  7 37  1  0  0  0  0
  7 38  1  0  0  0  0
  8  9  1  0  0  0  0
  8 39  1  0  0  0  0
  8 40  1  0  0  0  0
  9 10  1  0  0  0  0
  9 27  1  0  0  0  0
 10 15  1  0  0  0  0
 10 11  2  0  0  0  0
 11 12  1  0  0  0  0
 12 13  2  0  0  0  0
 12 41  1  0  0  0  0
 13 14  1  0  0  0  0
 14 18  1  0  0  0  0
 14 15  2  0  0  0  0
 15 16  1  0  0  0  0
 16 17  2  0  0  0  0
 17 18  1  0  0  0  0
 17 42  1  0  0  0  0
 18 19  1  0  0  0  0
 19 20  1  0  0  0  0
 19 43  1  0  0  0  0
 19 44  1  0  0  0  0
 20 26  1  0  0  0  0
 20 21  1  0  0  0  0
 20 22  1  0  0  0  0
 21 45  1  0  0  0  0
 22 23  1  0  0  0  0
 22 46  1  0  0  0  0
 22 47  1  0  0  0  0
 23 24  1  0  0  0  0
 23 48  1  0  0  0  0
 23 49  1  0  0  0  0
 24 25  1  0  0  0  0
 25 26  1  0  0  0  0
 25 50  1  0  0  0  0
 25 51  1  0  0  0  0
 26 52  1  0  0  0  0
 26 53  1  0  0  0  0
 27 28  1  0  0  0  0
 27 54  1  0  0  0  0
 28 55  1  0  0  0  0
 28 56  1  0  0  0  0
M  CHG  1   2   1
M  END
> <s_m_source_file>
AV-unprocessed.smi

> <i_m_source_file_index>
244

> <i_lp_mmshare_version>
43012

> <i_f3d_flags>
0

> <s_epik_input>
W0NIMl0xW0NIMl1OKFtDSDNdKVtDSDJdW0NAQEhdKFtDQEhdMTIpTihbQ0gyXVtDSDJdTzIpYyhuW2NIXW4zKWMoYzM0KW5bY0hdbjRbQ0gyXUM1KFtPSF0pW0NIMl1bQ0gyXU9bQ0gyXVtDSDJdNQ==

> <s_epik_cmdline>
J2VwaWtfcHl0aG9uJywgJy1waCcsICc3LjAnLCAnLXRuJywgJzgnLCAnLW1hJywgJzIwMCcsICctbWV0YWxfYmluZGluZycsICctaW1hZScsICc8aW5maWxlLm1hZT4nLCAnLW9tYWUnLCAnPG91dGZpbGUubWFlPic=

> <r_lp_tautomer_probability>
1

> <r_epik_Ionization_Penalty>
0.0136215

> <r_epik_Ionization_Penalty_Charging>
0.0131385

> <r_epik_Ionization_Penalty_Neutral>
0.000483022

> <r_epik_State_Penalty>
0.0104001

> <r_epik_Charging_Adjusted_Penalty>
0.0235387

> <i_epik_Tot_Q>
1

> <i_epik_Tot_abs_Q>
1

> <r_epik_Metal_State_Penalty>
0.0104469

> <b_epik_Metal_Only>
0

> <s_lp_Force_Field>
OPLS_2005

> <r_lp_Energy>
41.0301

> <b_lp_Chiralities_Consistent>
1

> <s_lp_Variant>
AV-unprocessed.smi:244-1

> <Gold.Version>
5.8.1

> <Gold.Id.Protein>
6NUR|6NUR_protein|mol2

> <Gold.PLP.Fitness>
44.6351

> <Gold.PLP.PLP>
-38.8586

> <Gold.PLP.part.hbond>
-4.3830

> <Gold.PLP.part.metal>
0.0000

> <Gold.PLP.part.buried>
-3.7727

> <Gold.PLP.part.nonpolar>
-30.5071

> <Gold.PLP.part.repulsive>
1.1068

> <Gold.PLP.ligand.clash>
0.0000

> <Gold.PLP.ligand.torsion>
0.6343

> <Gold.PLP.Chemscore.Hbond>
1.3041

> <Gold.PLP.Chemscore.CHOScore>
1.0000

> <Gold.PLP.Chemscore.Metal>
0.0000

> <Gold.Chemscore.Hbonds>
donor molecule, donor type, donor heavy atom, donor atom, acceptor molecule, acceptor atom, score
      P1  H  7989  7998       L1    11  0.12
      P1  H  7997  8008       L1     6  1.00
      L1  C    12    41       P1  7957  0.39

> <Gold.PLP.Chemscore.Internal.Correction>
0.1329

> <Gold.Rescore>
     Score         DG    S(hbond)    S(metal)    S(lipo)     H(rot)  DE(clash)    DE(int)     intcor
     12.50     -13.58       1.00        0.00      86.44       2.09       0.01       1.08       ----

> <Gold.Chemscore.Fitness>
12.4971

> <Gold.Chemscore.DG>
-13.5835

> <Gold.Chemscore.ZeroCoef>
-5.4800

> <Gold.Chemscore.Hbond>
1.0008

> <Gold.Chemscore.Metal>
0.0000

> <Gold.Chemscore.Lipo>
86.4450

> <Gold.Chemscore.Internal_Hbond>
0.0000

> <Gold.Chemscore.DEClash>
0.0074

> <Gold.Chemscore.DEInternal>
1.0791

> <Gold.Chemscore.Rot>
2.0911

> <Gold.Chemscore.Internal.Correction>
   9.000000E+99

> <Gold.Chemscore.Hbonds>
donor molecule, donor type, donor heavy atom, donor atom, acceptor molecule, acceptor atom, score
      P1  H  7989  7998       L1    11  0.02
      P1  H  7997  8008       L1     6  0.29

> <Gold.Chemscore.Hbond.Weighted>
-3.3426

> <Gold.Chemscore.Metal.Weighted>
-0.0000

> <Gold.Chemscore.Lipo.Weighted>
-10.1141

> <Gold.Chemscore.Internal_Hbond.Weighted>
0.0000

> <Gold.Chemscore.DEClash.Weighted>
0.0074

> <Gold.Chemscore.DEInternal.Weighted>
1.0791

> <Gold.Chemscore.Rot.Weighted>
5.3531

> <Gold.Chemscore.Internal.Correction.Weighted>
   9.000000E+99

> <Gold.Protein.RotatedTorsions>
[ 6907 6896 6895 6894 ] final -171.87 input  -60.11 | X-H torsion
[ 7974 7965 7964 7962 ] final   91.41 input  175.53 | X-H torsion
[ 8008 7997 7996 7995 ] final  -72.84 input   59.86 | X-H torsion
[ 10167 10162 10161 10158 ] final   78.84 input  -65.29 | X-H torsion
[ 10718 10713 10712 10709 ] final -176.51 input   66.30 | X-H torsion
[ 10763 10752 10751 10750 ] final  -94.63 input  -60.55 | X-H torsion
[ 11005 11000 10999 10996 ] final -167.50 input  -57.11 | X-H torsion

> <Gold.Protein.ActiveResidues>
 VAL166  LYS551  ARG553  GLY616  TRP617  ASP618  TYR619  PRO620  LYS621  CYS622 
 ASP623  PHE694  ASN695  SER759  ASP760  ASP761  ALA762  ILE779  LEU786  VAL792 
 PHE793  MET794  SER795  GLU796  ALA797  LYS798  CYS799  TRP800  GLU811  SER814 

> <Gold.Protein.RotatedAtoms>
  151.5308  133.3449  159.2917 H   0  0  0  0  0  0  0  0  0  0  0  0  # atno 6907 bound_to 6896
  150.8594  134.7945  159.7082 H   0  0  0  0  0  0  0  0  0  0  0  0  # atno 6908 bound_to 6896
  152.4618  134.5175  159.9824 H   0  0  0  0  0  0  0  0  0  0  0  0  # atno 6909 bound_to 6896
  145.5060  139.2276  143.2751 H   0  0  0  0  0  0  0  0  0  0  0  0  # atno 7974 bound_to 7965
  154.5198  140.0790  156.8151 H   0  0  0  0  0  0  0  0  0  0  0  0  # atno 8008 bound_to 7997
  155.3600  140.3417  155.4222 H   0  0  0  0  0  0  0  0  0  0  0  0  # atno 8009 bound_to 7997
  156.1669  140.1606  156.8503 H   0  0  0  0  0  0  0  0  0  0  0  0  # atno 8010 bound_to 7997
  139.9667  144.5923  150.8022 H   0  0  0  0  0  0  0  0  0  0  0  0  # atno 10167 bound_to 10162
  156.8157  130.9602  151.3114 H   0  0  0  0  0  0  0  0  0  0  0  0  # atno 10718 bound_to 10713
  154.7072  135.5150  153.8613 H   0  0  0  0  0  0  0  0  0  0  0  0  # atno 10763 bound_to 10752
  153.0751  135.6614  154.0172 H   0  0  0  0  0  0  0  0  0  0  0  0  # atno 10764 bound_to 10752
  154.0020  135.3010  155.3381 H   0  0  0  0  0  0  0  0  0  0  0  0  # atno 10765 bound_to 10752
  140.5526  134.5413  157.5126 H   0  0  0  0  0  0  0  0  0  0  0  0  # atno 11005 bound_to 11000
  146.2196  140.5864  142.9023 LP  0  0  0  0  0  0  0  0  0  0  0  0  # atno 17320 bound_to 7965
  144.7753  140.5727  143.6642 LP  0  0  0  0  0  0  0  0  0  0  0  0  # atno 17321 bound_to 7965
  140.7535  143.3010  151.3080 LP  0  0  0  0  0  0  0  0  0  0  0  0  # atno 17342 bound_to 10162
  139.6512  144.0358  152.2628 LP  0  0  0  0  0  0  0  0  0  0  0  0  # atno 17343 bound_to 10162
  157.6483  130.8862  149.9581 LP  0  0  0  0  0  0  0  0  0  0  0  0  # atno 17370 bound_to 10713
  156.1018  130.3655  150.0205 LP  0  0  0  0  0  0  0  0  0  0  0  0  # atno 17371 bound_to 10713
  139.9448  134.7722  156.0590 LP  0  0  0  0  0  0  0  0  0  0  0  0  # atno 17394 bound_to 11000
  141.1163  133.6627  156.3101 LP  0  0  0  0  0  0  0  0  0  0  0  0  # atno 17395 bound_to 11000

$$$$
