#       Name:                AV-unprocessed.smi:1774
#       Creating user name   scv26
#       Creation time:       Fri Mar 27 08:40:49 2020


#       File generated by GOLD software.
#

@<TRIPOS>MOLECULE
AV-unprocessed.smi:1774
    51    52     1
SMALL
NO_CHARGES


@<TRIPOS>ATOM
      1 ****        -2.7518   5.2760  -0.9457 C.3            1 S1                 0.0000
      2 ****        -3.0702   4.8193   0.4686 C.ar           1 S1                 0.0000
      3 ****        -3.7773   5.6844   1.3307 C.ar           1 S1                 0.0000
      4 ****        -4.0715   5.2600   2.6376 C.ar           1 S1                 0.0000
      5 ****        -3.6428   3.9804   3.0300 C.ar           1 S1                 0.0000
      6 ****        -2.9670   3.1473   2.2127 N.ar           1 S1                 0.0000
      7 ****        -2.6765   3.5410   0.9472 C.ar           1 S1                 0.0000
      8 ****        -1.9698   2.7129   0.0296 N.am           1 S1                 0.0000
      9 ****        -1.5462   1.4483   0.2018 C.2            1 S1                 0.0000
     10 ****        -1.6865   0.7801   1.2266 O.2            1 S1                 0.0000
     11 ****        -0.9412   0.9818  -0.9004 N.am           1 S1                 0.0000
     12 ****        -0.4108  -0.3690  -1.0436 C.3            1 S1                 0.0000
     13 ****         0.9487  -0.5251  -0.3358 C.3            1 S1                 0.0000
     14 ****         1.4972  -1.8960  -0.4802 N.4            1 S1                 1.0000
     15 ****         2.9691  -1.9422  -0.3247 C.3            1 S1                 0.0000
     16 ****         3.4924  -3.3649  -0.5945 C.3            1 S1                 0.0000
     17 ****         5.0026  -3.4766  -0.3589 C.3            1 S1                 0.0000
     18 ****         2.8431  -4.2846   0.2798 O.3            1 S1                 0.0000
     19 ****         1.4185  -4.2989   0.1873 C.3            1 S1                 0.0000
     20 ****         0.9243  -4.9471  -1.1182 C.3            1 S1                 0.0000
     21 ****         0.8558  -2.8836   0.4226 C.3            1 S1                 0.0000
     22 ****        -3.1607   6.2669  -1.1442 H              1 S1                 0.0000
     23 ****        -3.1767   4.5865  -1.6757 H              1 S1                 0.0000
     24 ****        -1.6731   5.3210  -1.0975 H              1 S1                 0.0000
     25 ****        -4.0928   6.6620   0.9972 H              1 S1                 0.0000
     26 ****        -4.6113   5.8980   3.3216 H              1 S1                 0.0000
     27 ****        -3.8473   3.6154   4.0256 H              1 S1                 0.0000
     28 ****        -1.7862   3.1289  -0.8713 H              1 S1                 0.0000
     29 ****        -0.8641   1.5931  -1.7004 H              1 S1                 0.0000
     30 ****        -1.1439  -1.0813  -0.6638 H              1 S1                 0.0000
     31 ****        -0.3004  -0.5786  -2.1079 H              1 S1                 0.0000
     32 ****         1.6429   0.1908  -0.7788 H              1 S1                 0.0000
     33 ****         0.8779  -0.2691   0.7226 H              1 S1                 0.0000
     34 ****         3.4360  -1.2451  -1.0217 H              1 S1                 0.0000
     35 ****         3.2395  -1.6196   0.6823 H              1 S1                 0.0000
     36 ****         3.2920  -3.6384  -1.6305 H              1 S1                 0.0000
     37 ****         5.5533  -2.7965  -1.0093 H              1 S1                 0.0000
     38 ****         5.3547  -4.4879  -0.5633 H              1 S1                 0.0000
     39 ****         5.2613  -3.2365   0.6728 H              1 S1                 0.0000
     40 ****         1.0709  -4.9329   1.0035 H              1 S1                 0.0000
     41 ****        -0.1592  -5.0674  -1.1032 H              1 S1                 0.0000
     42 ****         1.3623  -5.9367  -1.2502 H              1 S1                 0.0000
     43 ****         1.1711  -4.3520  -1.9969 H              1 S1                 0.0000
     44 ****         1.0375  -2.5881   1.4574 H              1 S1                 0.0000
     45 ****        -0.2252  -2.8917   0.2870 H              1 S1                 0.0000
     46 ****         1.3032  -2.1863  -1.4279 H              1 S1                 0.0000
     47 ****        -2.6819   2.2455   2.5372 LP             1 S1                 0.0000
     48 ****        -2.1491   1.1740   2.0209 LP             1 S1                 0.0000
     49 ****        -1.3379  -0.1563   1.2645 LP             1 S1                 0.0000
     50 ****         3.0909  -4.0479   1.2192 LP             1 S1                 0.0000
     51 ****         3.1773  -5.2030   0.0682 LP             1 S1                 0.0000
@<TRIPOS>BOND
    1    1    2 1     
    2    1   22 1     
    3    1   23 1     
    4    1   24 1     
    5    2    7 ar    
    6    2    3 ar    
    7    3    4 ar    
    8    3   25 1     
    9    4    5 ar    
   10    4   26 1     
   11    5    6 ar    
   12    5   27 1     
   13    6    7 ar    
   14    7    8 1     
   15    8    9 am    
   16    8   28 1     
   17    9   10 2     
   18    9   11 am    
   19   11   12 1     
   20   11   29 1     
   21   12   13 1     
   22   12   30 1     
   23   12   31 1     
   24   13   14 1     
   25   13   32 1     
   26   13   33 1     
   27   14   21 1     
   28   14   15 1     
   29   14   46 1     
   30   15   16 1     
   31   15   34 1     
   32   15   35 1     
   33   16   17 1     
   34   16   18 1     
   35   16   36 1     
   36   17   37 1     
   37   17   38 1     
   38   17   39 1     
   39   18   19 1     
   40   19   20 1     
   41   19   21 1     
   42   19   40 1     
   43   20   41 1     
   44   20   42 1     
   45   20   43 1     
   46   21   44 1     
   47   21   45 1     
   48    6   47 1     
   49   10   48 1     
   50   10   49 1     
   51   18   50 1     
   52   18   51 1     
@<TRIPOS>SUBSTRUCTURE
      1 S1             1
@<TRIPOS>SET
LONE_PAIRS      STATIC     ATOMS    <user>   **** ""
5 47 48 49 50 51
DONOR_HYDROGENS      STATIC     ATOMS    <user>   **** ""
3 28 29 46
ATOM$BLUE        STATIC     ATOMS    COLORGROUP SYSTEM
5 47 48 49 50 51
ATOM$RED        STATIC     ATOMS    COLORGROUP SYSTEM
3 28 29 46
