#       Name:                AV-unprocessed.smi:2273
#       Creating user name   scv26
#       Creation time:       Fri Mar 27 12:37:47 2020


#       File generated by GOLD software.
#

@<TRIPOS>MOLECULE
AV-unprocessed.smi:2273
    59    60     1
SMALL
NO_CHARGES


@<TRIPOS>ATOM
      1 ****         7.3659  -0.7979   5.0072 C.3            1 S1                 0.0000
      2 ****         5.8311  -0.7460   4.9609 C.3            1 S1                 0.0000
      3 ****         5.2227   0.6168   5.3787 C.3            1 S1                 0.0000
      4 ****         5.4173   0.8802   6.8930 C.3            1 S1                 0.0000
      5 ****         5.1827   2.3364   7.3234 C.3            1 S1                 0.0000
      6 ****         3.7308   0.7422   4.9713 C.3            1 S1                 0.0000
      7 ****         3.4898   0.8321   3.4494 C.3            1 S1                 0.0000
      8 ****         1.9867   0.9782   3.1525 C.3            1 S1                 0.0000
      9 ****         1.7277   0.9432   1.7117 N.am           1 S1                 0.0000
     10 ****         1.8625   1.9389   0.8168 C.2            1 S1                 0.0000
     11 ****         2.2214   3.0646   1.1592 O.2            1 S1                 0.0000
     12 ****         1.5446   1.5971  -0.4484 N.am           1 S1                 0.0000
     13 ****         1.5390   2.4479  -1.5640 C.2            1 S1                 0.0000
     14 ****         0.4098   2.5401  -2.3147 C.2            1 S1                 0.0000
     15 ****        -0.8557   1.7777  -1.9551 C.3            1 S1                 0.0000
     16 ****         0.4053   3.4056  -3.4756 C.2            1 S1                 0.0000
     17 ****         1.5130   4.0892  -3.7923 C.2            1 S1                 0.0000
     18 ****         2.6887   3.9777  -3.0364 N.am           1 S1                 0.0000
     19 ****         3.8529   4.7514  -3.4755 C.3            1 S1                 0.0000
     20 ****         2.7818   3.1594  -1.9490 C.2            1 S1                 0.0000
     21 ****         3.8519   3.0225  -1.3517 O.2            1 S1                 0.0000
     22 ****         1.2294  -0.1642   3.8454 C.3            1 S1                 0.0000
     23 ****         1.5854  -0.2248   5.3397 C.3            1 S1                 0.0000
     24 ****         2.9937  -0.3553   5.5065 O.3            1 S1                 0.0000
     25 ****         7.7283  -1.7422   4.6005 H              1 S1                 0.0000
     26 ****         7.7507  -0.7188   6.0229 H              1 S1                 0.0000
     27 ****         7.8054   0.0056   4.4156 H              1 S1                 0.0000
     28 ****         5.5421  -0.9889   3.9407 H              1 S1                 0.0000
     29 ****         5.4198  -1.5430   5.5815 H              1 S1                 0.0000
     30 ****         5.7691   1.3933   4.8415 H              1 S1                 0.0000
     31 ****         4.7729   0.2183   7.4725 H              1 S1                 0.0000
     32 ****         6.4352   0.6282   7.1850 H              1 S1                 0.0000
     33 ****         5.4386   2.4692   8.3749 H              1 S1                 0.0000
     34 ****         4.1428   2.6387   7.2070 H              1 S1                 0.0000
     35 ****         5.8019   3.0227   6.7454 H              1 S1                 0.0000
     36 ****         3.3344   1.6605   5.4032 H              1 S1                 0.0000
     37 ****         4.0442   1.6755   3.0392 H              1 S1                 0.0000
     38 ****         3.8617  -0.0584   2.9445 H              1 S1                 0.0000
     39 ****         1.6241   1.9205   3.5674 H              1 S1                 0.0000
     40 ****         1.3972   0.0602   1.3498 H              1 S1                 0.0000
     41 ****         1.1483   0.6801  -0.5921 H              1 S1                 0.0000
     42 ****        -1.6616   1.9964  -2.6559 H              1 S1                 0.0000
     43 ****        -1.1974   2.0515  -0.9565 H              1 S1                 0.0000
     44 ****        -0.6738   0.7028  -1.9785 H              1 S1                 0.0000
     45 ****        -0.4834   3.5092  -4.0809 H              1 S1                 0.0000
     46 ****         1.5688   4.7515  -4.6439 H              1 S1                 0.0000
     47 ****         4.2514   5.3505  -2.6551 H              1 S1                 0.0000
     48 ****         3.6186   5.4385  -4.2894 H              1 S1                 0.0000
     49 ****         4.6425   4.0846  -3.8248 H              1 S1                 0.0000
     50 ****         0.1534  -0.0347   3.7240 H              1 S1                 0.0000
     51 ****         1.4846  -1.1166   3.3783 H              1 S1                 0.0000
     52 ****         1.2293   0.6657   5.8601 H              1 S1                 0.0000
     53 ****         1.0964  -1.0800   5.8062 H              1 S1                 0.0000
     54 ****         2.4199   3.2553   2.1206 LP             1 S1                 0.0000
     55 ****         2.3146   3.7890   0.4762 LP             1 S1                 0.0000
     56 ****         3.9106   2.4071  -0.5656 LP             1 S1                 0.0000
     57 ****         4.6609   3.5269  -1.6533 LP             1 S1                 0.0000
     58 ****         3.1922  -0.4241   6.4842 LP             1 S1                 0.0000
     59 ****         3.2913  -1.1918   5.0463 LP             1 S1                 0.0000
@<TRIPOS>BOND
    1    1    2 1     
    2    1   25 1     
    3    1   26 1     
    4    1   27 1     
    5    2    3 1     
    6    2   28 1     
    7    2   29 1     
    8    3    4 1     
    9    3    6 1     
   10    3   30 1     
   11    4    5 1     
   12    4   31 1     
   13    4   32 1     
   14    5   33 1     
   15    5   34 1     
   16    5   35 1     
   17    6   24 1     
   18    6    7 1     
   19    6   36 1     
   20    7    8 1     
   21    7   37 1     
   22    7   38 1     
   23    8    9 1     
   24    8   22 1     
   25    8   39 1     
   26    9   10 am    
   27    9   40 1     
   28   10   11 2     
   29   10   12 am    
   30   12   13 1     
   31   12   41 1     
   32   13   20 1     
   33   13   14 2     
   34   14   15 1     
   35   14   16 1     
   36   15   42 1     
   37   15   43 1     
   38   15   44 1     
   39   16   17 2     
   40   16   45 1     
   41   17   18 1     
   42   17   46 1     
   43   18   19 1     
   44   18   20 am    
   45   19   47 1     
   46   19   48 1     
   47   19   49 1     
   48   20   21 2     
   49   22   23 1     
   50   22   50 1     
   51   22   51 1     
   52   23   24 1     
   53   23   52 1     
   54   23   53 1     
   55   11   54 1     
   56   11   55 1     
   57   21   56 1     
   58   21   57 1     
   59   24   58 1     
   60   24   59 1     
@<TRIPOS>SUBSTRUCTURE
      1 S1             1
@<TRIPOS>SET
LONE_PAIRS      STATIC     ATOMS    <user>   **** ""
6 54 55 56 57 58 59
DONOR_HYDROGENS      STATIC     ATOMS    <user>   **** ""
2 40 41
ATOM$BLUE        STATIC     ATOMS    COLORGROUP SYSTEM
6 54 55 56 57 58 59
ATOM$RED        STATIC     ATOMS    COLORGROUP SYSTEM
2 40 41
