AV-unprocessed.smi:1302|AV-procd|sdf|5426|dock4
  -GOLD-   22720 4583D 1   1.00000     0.00000
 Structure written by MMmdl.
 43 44  0  0  0  0  0  0  0  0  1 V2000
  150.6703  133.5574  156.1599 C   0  0  0  0  0  0  0  0  0  0  0  0
  149.5161  134.5650  156.0658 C   0  0  0  0  0  0  0  0  0  0  0  0
  148.9978  134.7080  154.6286 C   0  0  0  0  0  0  0  0  0  0  0  0
  149.9594  135.8668  156.5569 N   0  0  0  0  0  0  0  0  0  0  0  0
  150.9272  136.6262  156.0164 C   0  0  0  0  0  0  0  0  0  0  0  0
  151.5974  136.2915  155.0395 O   0  0  0  0  0  0  0  0  0  0  0  0
  151.2014  137.9197  156.7261 C   0  0  0  0  0  0  0  0  0  0  0  0
  150.4322  138.3025  157.8460 C   0  0  0  0  0  0  0  0  0  0  0  0
  150.7314  139.5130  158.5004 C   0  0  0  0  0  0  0  0  0  0  0  0
  151.8017  140.2966  158.0225 C   0  0  0  0  0  0  0  0  0  0  0  0
  152.1002  141.5045  158.6679 N   0  0  0  0  0  0  0  0  0  0  0  0
  152.5016  141.3270  160.0559 C   0  0  0  0  0  0  0  0  0  0  0  0
  152.9854  142.6660  160.6420 C   0  0  2  0  0  0  0  0  0  0  0  0
  153.2993  142.5542  162.1374 C   0  0  0  0  0  0  0  0  0  0  0  0
  151.9690  143.6560  160.4770 O   0  0  0  0  0  0  0  0  0  0  0  0
  151.5420  143.8623  159.1276 C   0  0  1  0  0  0  0  0  0  0  0  0
  152.6082  144.5851  158.2848 C   0  0  0  0  0  0  0  0  0  0  0  0
  151.0735  142.5278  158.5150 C   0  0  0  0  0  0  0  0  0  0  0  0
  152.5529  139.9321  156.9563 N   0  0  0  0  0  0  0  0  0  0  0  0
  152.2575  138.7724  156.3311 C   0  0  0  0  0  0  0  0  0  0  0  0
  150.3606  132.5736  155.8061 H   0  0  0  0  0  0  0  0  0  0  0  0
  151.0105  133.4445  157.1898 H   0  0  0  0  0  0  0  0  0  0  0  0
  151.5240  133.8736  155.5594 H   0  0  0  0  0  0  0  0  0  0  0  0
  148.6924  134.1925  156.6768 H   0  0  0  0  0  0  0  0  0  0  0  0
  148.6516  133.7496  154.2407 H   0  0  0  0  0  0  0  0  0  0  0  0
  149.7758  135.0768  153.9592 H   0  0  0  0  0  0  0  0  0  0  0  0
  148.1590  135.4034  154.5817 H   0  0  0  0  0  0  0  0  0  0  0  0
  149.4876  136.2226  157.3756 H   0  0  0  0  0  0  0  0  0  0  0  0
  149.6189  137.6856  158.1998 H   0  0  0  0  0  0  0  0  0  0  0  0
  150.1506  139.8307  159.3541 H   0  0  0  0  0  0  0  0  0  0  0  0
  151.6573  140.9477  160.6338 H   0  0  0  0  0  0  0  0  0  0  0  0
  153.2958  140.5819  160.1172 H   0  0  0  0  0  0  0  0  0  0  0  0
  153.8931  142.9840  160.1284 H   0  0  0  0  0  0  0  0  0  0  0  0
  154.0777  141.8132  162.3214 H   0  0  0  0  0  0  0  0  0  0  0  0
  152.4159  142.2597  162.7048 H   0  0  0  0  0  0  0  0  0  0  0  0
  153.6477  143.5077  162.5347 H   0  0  0  0  0  0  0  0  0  0  0  0
  150.6782  144.5257  159.1790 H   0  0  0  0  0  0  0  0  0  0  0  0
  152.2143  144.8399  157.3008 H   0  0  0  0  0  0  0  0  0  0  0  0
  153.4970  143.9742  158.1277 H   0  0  0  0  0  0  0  0  0  0  0  0
  152.9198  145.5127  158.7649 H   0  0  0  0  0  0  0  0  0  0  0  0
  150.8271  142.6578  157.4603 H   0  0  0  0  0  0  0  0  0  0  0  0
  150.1617  142.2008  159.0170 H   0  0  0  0  0  0  0  0  0  0  0  0
  152.8926  138.5227  155.4936 H   0  0  0  0  0  0  0  0  0  0  0  0
  1  2  1  0  0  0  0
  1 21  1  0  0  0  0
  1 22  1  0  0  0  0
  1 23  1  0  0  0  0
  2  3  1  0  0  0  0
  2  4  1  0  0  0  0
  2 24  1  0  0  0  0
  3 25  1  0  0  0  0
  3 26  1  0  0  0  0
  3 27  1  0  0  0  0
  4  5  1  0  0  0  0
  4 28  1  0  0  0  0
  5  6  2  0  0  0  0
  5  7  1  0  0  0  0
  7 20  1  0  0  0  0
  7  8  2  0  0  0  0
  8  9  1  0  0  0  0
  8 29  1  0  0  0  0
  9 10  2  0  0  0  0
  9 30  1  0  0  0  0
 10 11  1  0  0  0  0
 10 19  1  0  0  0  0
 11 18  1  0  0  0  0
 11 12  1  0  0  0  0
 12 13  1  0  0  0  0
 12 31  1  0  0  0  0
 12 32  1  0  0  0  0
 13 14  1  0  0  0  0
 13 15  1  0  0  0  0
 13 33  1  0  0  0  0
 14 34  1  0  0  0  0
 14 35  1  0  0  0  0
 14 36  1  0  0  0  0
 15 16  1  0  0  0  0
 16 17  1  0  0  0  0
 16 18  1  0  0  0  0
 16 37  1  0  0  0  0
 17 38  1  0  0  0  0
 17 39  1  0  0  0  0
 17 40  1  0  0  0  0
 18 41  1  0  0  0  0
 18 42  1  0  0  0  0
 19 20  2  0  0  0  0
 20 43  1  0  0  0  0
M  END
> <s_m_source_file>
AV-unprocessed.smi

> <i_m_source_file_index>
1302

> <i_lp_mmshare_version>
43012

> <i_f3d_flags>
0

> <s_epik_input>
W0NIM11bQ0hdKFtDSDNdKVtOSF1DKD1PKWMxW2NIXVtjSF1jKG5bY0hdMSlOMltDSDJdW0NAQEhdKFtDSDNdKU9bQ0BASF0oW0NIM10pW0NIMl0y

> <s_epik_cmdline>
J2VwaWtfcHl0aG9uJywgJy1waCcsICc3LjAnLCAnLXRuJywgJzgnLCAnLW1hJywgJzIwMCcsICctbWV0YWxfYmluZGluZycsICctaW1hZScsICc8aW5maWxlLm1hZT4nLCAnLW9tYWUnLCAnPG91dGZpbGUubWFlPic=

> <r_lp_tautomer_probability>
1

> <r_epik_Ionization_Penalty>
2.23089e-05

> <r_epik_Ionization_Penalty_Charging>
0

> <r_epik_Ionization_Penalty_Neutral>
2.23089e-05

> <r_epik_State_Penalty>
-0

> <r_epik_Charging_Adjusted_Penalty>
0

> <i_epik_Tot_Q>
0

> <i_epik_Tot_abs_Q>
0

> <r_epik_Metal_State_Penalty>
-0

> <b_epik_Metal_Only>
0

> <s_lp_Force_Field>
OPLS_2005

> <r_lp_Energy>
23.1748

> <b_lp_Chiralities_Consistent>
1

> <s_lp_Variant>
AV-unprocessed.smi:1302-2

> <Gold.Version>
5.8.1

> <Gold.Id.Protein>
6NUR|6NUR_protein|mol2

> <Gold.PLP.Fitness>
41.8122

> <Gold.PLP.PLP>
-35.8491

> <Gold.PLP.part.hbond>
-2.0000

> <Gold.PLP.part.metal>
0.0000

> <Gold.PLP.part.buried>
-5.7181

> <Gold.PLP.part.nonpolar>
-28.4490

> <Gold.PLP.part.repulsive>
0.2716

> <Gold.PLP.ligand.clash>
0.0000

> <Gold.PLP.ligand.torsion>
0.0726

> <Gold.PLP.Chemscore.Hbond>
2.0000

> <Gold.PLP.Chemscore.CHOScore>
0.0000

> <Gold.PLP.Chemscore.Metal>
0.0000

> <Gold.Chemscore.Hbonds>
donor molecule, donor type, donor heavy atom, donor atom, acceptor molecule, acceptor atom, score
      P1  H  7997  8010       L1    19  1.00
      P1  H 10752 10764       L1     6  1.00

> <Gold.PLP.Chemscore.Internal.Correction>
0.1083

> <Gold.Rescore>
     Score         DG    S(hbond)    S(metal)    S(lipo)     H(rot)  DE(clash)    DE(int)     intcor
     18.92     -19.85       1.88        0.00      94.49       1.15       0.02       0.91       ----

> <Gold.Chemscore.Fitness>
18.9213

> <Gold.Chemscore.DG>
-19.8520

> <Gold.Chemscore.ZeroCoef>
-5.4800

> <Gold.Chemscore.Hbond>
1.8752

> <Gold.Chemscore.Metal>
0.0000

> <Gold.Chemscore.Lipo>
94.4872

> <Gold.Chemscore.Internal_Hbond>
0.0000

> <Gold.Chemscore.DEClash>
0.0222

> <Gold.Chemscore.DEInternal>
0.9084

> <Gold.Chemscore.Rot>
1.1508

> <Gold.Chemscore.Internal.Correction>
   9.000000E+99

> <Gold.Chemscore.Hbonds>
donor molecule, donor type, donor heavy atom, donor atom, acceptor molecule, acceptor atom, score
      P1  H  7997  8010       L1    19  0.25
      P1  H 10752 10764       L1     6  0.97

> <Gold.Chemscore.Hbond.Weighted>
-6.2631

> <Gold.Chemscore.Metal.Weighted>
-0.0000

> <Gold.Chemscore.Lipo.Weighted>
-11.0550

> <Gold.Chemscore.Internal_Hbond.Weighted>
0.0000

> <Gold.Chemscore.DEClash.Weighted>
0.0222

> <Gold.Chemscore.DEInternal.Weighted>
0.9084

> <Gold.Chemscore.Rot.Weighted>
2.9461

> <Gold.Chemscore.Internal.Correction.Weighted>
   9.000000E+99

> <Gold.Protein.RotatedTorsions>
[ 6907 6896 6895 6894 ] final   91.93 input  -60.11 | X-H torsion
[ 7974 7965 7964 7962 ] final  147.26 input  175.53 | X-H torsion
[ 8008 7997 7996 7995 ] final   73.28 input   59.86 | X-H torsion
[ 10167 10162 10161 10158 ] final  -23.92 input  -65.29 | X-H torsion
[ 10718 10713 10712 10709 ] final  -99.28 input   66.30 | X-H torsion
[ 10763 10752 10751 10750 ] final  -59.35 input  -60.55 | X-H torsion
[ 11005 11000 10999 10996 ] final -100.86 input  -57.11 | X-H torsion

> <Gold.Protein.ActiveResidues>
 VAL166  LYS551  ARG553  GLY616  TRP617  ASP618  TYR619  PRO620  LYS621  CYS622 
 ASP623  PHE694  ASN695  SER759  ASP760  ASP761  ALA762  ILE779  LEU786  VAL792 
 PHE793  MET794  SER795  GLU796  ALA797  LYS798  CYS799  TRP800  GLU811  SER814 

> <Gold.Protein.RotatedAtoms>
  152.5451  134.1581  159.8545 H   0  0  0  0  0  0  0  0  0  0  0  0  # atno 6907 bound_to 6896
  151.1601  133.4843  159.2602 H   0  0  0  0  0  0  0  0  0  0  0  0  # atno 6908 bound_to 6896
  151.1381  135.0176  159.8668 H   0  0  0  0  0  0  0  0  0  0  0  0  # atno 6909 bound_to 6896
  144.8606  139.6006  143.5932 H   0  0  0  0  0  0  0  0  0  0  0  0  # atno 7974 bound_to 7965
  155.7813  140.3482  155.5299 H   0  0  0  0  0  0  0  0  0  0  0  0  # atno 8008 bound_to 7997
  155.8725  140.0989  157.1561 H   0  0  0  0  0  0  0  0  0  0  0  0  # atno 8009 bound_to 7997
  154.4018  140.1338  156.4083 H   0  0  0  0  0  0  0  0  0  0  0  0  # atno 8010 bound_to 7997
  140.7288  143.4400  151.0672 H   0  0  0  0  0  0  0  0  0  0  0  0  # atno 10167 bound_to 10162
  156.0130  130.5275  150.6647 H   0  0  0  0  0  0  0  0  0  0  0  0  # atno 10718 bound_to 10713
  154.2523  135.6323  153.5245 H   0  0  0  0  0  0  0  0  0  0  0  0  # atno 10763 bound_to 10752
  152.9910  135.5568  154.5794 H   0  0  0  0  0  0  0  0  0  0  0  0  # atno 10764 bound_to 10752
  154.5324  135.2889  155.1143 H   0  0  0  0  0  0  0  0  0  0  0  0  # atno 10765 bound_to 10752
  141.1254  133.8432  157.1157 H   0  0  0  0  0  0  0  0  0  0  0  0  # atno 11005 bound_to 11000
  146.2857  139.6998  142.9197 LP  0  0  0  0  0  0  0  0  0  0  0  0  # atno 17320 bound_to 7965
  145.4320  141.0416  143.2905 LP  0  0  0  0  0  0  0  0  0  0  0  0  # atno 17321 bound_to 7965
  139.8066  143.8010  152.3168 LP  0  0  0  0  0  0  0  0  0  0  0  0  # atno 17342 bound_to 10162
  139.8045  144.7361  150.9780 LP  0  0  0  0  0  0  0  0  0  0  0  0  # atno 17343 bound_to 10162
  157.4382  131.0858  151.0970 LP  0  0  0  0  0  0  0  0  0  0  0  0  # atno 17370 bound_to 10713
  157.1522  130.6189  149.5586 LP  0  0  0  0  0  0  0  0  0  0  0  0  # atno 17371 bound_to 10713
  140.0248  134.9929  157.0663 LP  0  0  0  0  0  0  0  0  0  0  0  0  # atno 17394 bound_to 11000
  140.4381  134.1710  155.7172 LP  0  0  0  0  0  0  0  0  0  0  0  0  # atno 17395 bound_to 11000

$$$$
