AV-unprocessed.smi:433|AV-procd|sdf|2550|dock7
  -GOLD-   2262022513D 1   1.00000     0.00000
 Structure written by MMmdl.
 36 37  0  0  0  0  0  0  0  0  1 V2000
  149.0845  135.5664  155.6953 C   0  0  0  0  0  0  0  0  0  0  0  0
  150.0681  136.6033  155.5746 N   0  0  0  0  0  0  0  0  0  0  0  0
  151.3847  136.4236  155.9513 C   0  0  0  0  0  0  0  0  0  0  0  0
  152.3145  137.3986  155.8525 C   0  0  0  0  0  0  0  0  0  0  0  0
  151.9672  138.7153  155.3294 C   0  0  0  0  0  0  0  0  0  0  0  0
  152.7766  139.6402  155.2484 O   0  0  0  0  0  0  0  0  0  0  0  0
  150.6130  138.8583  154.9340 N   0  0  0  0  0  0  0  0  0  0  0  0
  150.1878  140.1507  154.4252 C   0  0  0  0  0  0  0  0  0  0  0  0
  149.2442  140.8983  155.3948 C   0  0  2  0  0  0  0  0  0  0  0  0
  148.8626  142.1242  154.8045 O   0  0  0  0  0  0  0  0  0  0  0  0
  149.9257  141.2276  156.7310 C   0  0  0  0  0  0  0  0  0  0  0  0
  150.6778  142.4226  156.5685 O   0  0  0  0  0  0  0  0  0  0  0  0
  151.3099  142.9545  157.6709 C   0  0  0  0  0  0  0  0  0  0  0  0
  151.8748  144.2385  157.5249 C   0  0  0  0  0  0  0  0  0  0  0  0
  152.5392  144.8601  158.5995 C   0  0  0  0  0  0  0  0  0  0  0  0
  152.6465  144.1990  159.8369 C   0  0  0  0  0  0  0  0  0  0  0  0
  152.0887  142.9168  159.9962 C   0  0  0  0  0  0  0  0  0  0  0  0
  151.4237  142.2952  158.9211 C   0  0  0  0  0  0  0  0  0  0  0  0
  149.6358  137.8430  155.0553 C   0  0  0  0  0  0  0  0  0  0  0  0
  148.4583  138.0263  154.7338 O   0  0  0  0  0  0  0  0  0  0  0  0
  149.5764  134.6810  156.0996 H   0  0  0  0  0  0  0  0  0  0  0  0
  148.6921  135.3664  154.6969 H   0  0  0  0  0  0  0  0  0  0  0  0
  148.3122  135.9238  156.3787 H   0  0  0  0  0  0  0  0  0  0  0  0
  151.6879  135.4648  156.3463 H   0  0  0  0  0  0  0  0  0  0  0  0
  153.3289  137.2036  156.1680 H   0  0  0  0  0  0  0  0  0  0  0  0
  151.0961  140.7227  154.2286 H   0  0  0  0  0  0  0  0  0  0  0  0
  149.7531  140.0076  153.4341 H   0  0  0  0  0  0  0  0  0  0  0  0
  148.3425  140.3165  155.5919 H   0  0  0  0  0  0  0  0  0  0  0  0
  149.1443  142.8285  155.3685 H   0  0  0  0  0  0  0  0  0  0  0  0
  149.1766  141.3413  157.5169 H   0  0  0  0  0  0  0  0  0  0  0  0
  150.5966  140.4147  157.0149 H   0  0  0  0  0  0  0  0  0  0  0  0
  151.7962  144.7528  156.5782 H   0  0  0  0  0  0  0  0  0  0  0  0
  152.9664  145.8441  158.4737 H   0  0  0  0  0  0  0  0  0  0  0  0
  153.1559  144.6745  160.6621 H   0  0  0  0  0  0  0  0  0  0  0  0
  152.1714  142.4079  160.9453 H   0  0  0  0  0  0  0  0  0  0  0  0
  151.0107  141.3109  159.0806 H   0  0  0  0  0  0  0  0  0  0  0  0
  1  2  1  0  0  0  0
  1 21  1  0  0  0  0
  1 22  1  0  0  0  0
  1 23  1  0  0  0  0
  2 19  1  0  0  0  0
  2  3  1  0  0  0  0
  3  4  2  0  0  0  0
  3 24  1  0  0  0  0
  4  5  1  0  0  0  0
  4 25  1  0  0  0  0
  5  6  2  0  0  0  0
  5  7  1  0  0  0  0
  7  8  1  0  0  0  0
  7 19  1  0  0  0  0
  8  9  1  0  0  0  0
  8 26  1  0  0  0  0
  8 27  1  0  0  0  0
  9 10  1  0  0  0  0
  9 11  1  0  0  0  0
  9 28  1  0  0  0  0
 10 29  1  0  0  0  0
 11 12  1  0  0  0  0
 11 30  1  0  0  0  0
 11 31  1  0  0  0  0
 12 13  1  0  0  0  0
 13 18  1  0  0  0  0
 13 14  2  0  0  0  0
 14 15  1  0  0  0  0
 14 32  1  0  0  0  0
 15 16  2  0  0  0  0
 15 33  1  0  0  0  0
 16 17  1  0  0  0  0
 16 34  1  0  0  0  0
 17 18  2  0  0  0  0
 17 35  1  0  0  0  0
 18 36  1  0  0  0  0
 19 20  2  0  0  0  0
M  END
> <s_m_source_file>
AV-unprocessed.smi

> <i_m_source_file_index>
433

> <i_lp_mmshare_version>
43012

> <i_f3d_flags>
0

> <s_epik_input>
W0NIM11uMVtjSF1bY0hdYyg9TyluKGMxPU8pW0NIMl1bQ0BIXShbT0hdKVtDSDJdT2MyW2NIXVtjSF1bY0hdW2NIXVtjSF0y

> <s_epik_cmdline>
J2VwaWtfcHl0aG9uJywgJy1waCcsICc3LjAnLCAnLXRuJywgJzgnLCAnLW1hJywgJzIwMCcsICctbWV0YWxfYmluZGluZycsICctaW1hZScsICc8aW5maWxlLm1hZT4nLCAnLW9tYWUnLCAnPG91dGZpbGUubWFlPic=

> <r_lp_tautomer_probability>
1

> <r_epik_Ionization_Penalty>
2.21742e-07

> <r_epik_Ionization_Penalty_Charging>
1.04568e-07

> <r_epik_Ionization_Penalty_Neutral>
1.17174e-07

> <r_epik_State_Penalty>
-0

> <r_epik_Charging_Adjusted_Penalty>
1.04568e-07

> <i_epik_Tot_Q>
0

> <i_epik_Tot_abs_Q>
0

> <r_epik_Metal_State_Penalty>
-0

> <b_epik_Metal_Only>
0

> <s_lp_Force_Field>
OPLS_2005

> <r_lp_Energy>
22.5639

> <b_lp_Chiralities_Consistent>
1

> <s_lp_Variant>
AV-unprocessed.smi:433-1

> <Gold.Version>
5.8.1

> <Gold.Id.Protein>
6NUR|6NUR_protein|mol2

> <Gold.PLP.Fitness>
42.7167

> <Gold.PLP.PLP>
-37.0708

> <Gold.PLP.part.hbond>
-3.0000

> <Gold.PLP.part.metal>
0.0000

> <Gold.PLP.part.buried>
2.0737

> <Gold.PLP.part.nonpolar>
-36.5945

> <Gold.PLP.part.repulsive>
1.2401

> <Gold.PLP.ligand.clash>
0.0000

> <Gold.PLP.ligand.torsion>
0.4120

> <Gold.PLP.Chemscore.Hbond>
2.1477

> <Gold.PLP.Chemscore.CHOScore>
0.0000

> <Gold.PLP.Chemscore.Metal>
0.0000

> <Gold.Chemscore.Hbonds>
donor molecule, donor type, donor heavy atom, donor atom, acceptor molecule, acceptor atom, score
      L1  H    10    29       P1  8028  0.82
      P1  H  7989  7998       L1     6  0.04
      P1  H  7997  8010       L1     6  0.96

> <Gold.PLP.Chemscore.Internal.Correction>
0.0268

> <Gold.Rescore>
     Score         DG    S(hbond)    S(metal)    S(lipo)     H(rot)  DE(clash)    DE(int)     intcor
     15.97     -16.71       1.67        0.00     102.26       2.46       0.28       0.47       ----

> <Gold.Chemscore.Fitness>
15.9656

> <Gold.Chemscore.DG>
-16.7125

> <Gold.Chemscore.ZeroCoef>
-5.4800

> <Gold.Chemscore.Hbond>
1.6669

> <Gold.Chemscore.Metal>
0.0000

> <Gold.Chemscore.Lipo>
102.2617

> <Gold.Chemscore.Internal_Hbond>
0.0000

> <Gold.Chemscore.DEClash>
0.2755

> <Gold.Chemscore.DEInternal>
0.4714

> <Gold.Chemscore.Rot>
2.4608

> <Gold.Chemscore.Internal.Correction>
   9.000000E+99

> <Gold.Chemscore.Hbonds>
donor molecule, donor type, donor heavy atom, donor atom, acceptor molecule, acceptor atom, score
      L1  H    10    29       P1  8028  0.79
      P1  H  7989  7998       L1     6  0.01
      P1  H  7997  8010       L1     6  0.91

> <Gold.Chemscore.Hbond.Weighted>
-5.5675

> <Gold.Chemscore.Metal.Weighted>
-0.0000

> <Gold.Chemscore.Lipo.Weighted>
-11.9646

> <Gold.Chemscore.Internal_Hbond.Weighted>
0.0000

> <Gold.Chemscore.DEClash.Weighted>
0.2755

> <Gold.Chemscore.DEInternal.Weighted>
0.4714

> <Gold.Chemscore.Rot.Weighted>
6.2997

> <Gold.Chemscore.Internal.Correction.Weighted>
   9.000000E+99

> <Gold.Protein.RotatedTorsions>
[ 6907 6896 6895 6894 ] final  130.31 input  -60.11 | X-H torsion
[ 7974 7965 7964 7962 ] final  166.65 input  175.53 | X-H torsion
[ 8008 7997 7996 7995 ] final  120.34 input   59.86 | X-H torsion
[ 10167 10162 10161 10158 ] final  -73.55 input  -65.29 | X-H torsion
[ 10718 10713 10712 10709 ] final  -41.52 input   66.30 | X-H torsion
[ 10763 10752 10751 10750 ] final  -23.27 input  -60.55 | X-H torsion
[ 11005 11000 10999 10996 ] final   37.74 input  -57.11 | X-H torsion

> <Gold.Protein.ActiveResidues>
 VAL166  LYS551  ARG553  GLY616  TRP617  ASP618  TYR619  PRO620  LYS621  CYS622 
 ASP623  PHE694  ASN695  SER759  ASP760  ASP761  ALA762  ILE779  LEU786  VAL792 
 PHE793  MET794  SER795  GLU796  ALA797  LYS798  CYS799  TRP800  GLU811  SER814 

> <Gold.Protein.RotatedAtoms>
  152.3538  133.6212  159.5964 H   0  0  0  0  0  0  0  0  0  0  0  0  # atno 6907 bound_to 6896
  150.7555  133.9532  159.3501 H   0  0  0  0  0  0  0  0  0  0  0  0  # atno 6908 bound_to 6896
  151.7379  135.0861  160.0362 H   0  0  0  0  0  0  0  0  0  0  0  0  # atno 6909 bound_to 6896
  144.7454  139.8647  143.6384 H   0  0  0  0  0  0  0  0  0  0  0  0  # atno 7974 bound_to 7965
  156.2638  140.2833  156.1134 H   0  0  0  0  0  0  0  0  0  0  0  0  # atno 8008 bound_to 7997
  155.1233  140.0392  157.2773 H   0  0  0  0  0  0  0  0  0  0  0  0  # atno 8009 bound_to 7997
  154.6654  140.2576  155.7070 H   0  0  0  0  0  0  0  0  0  0  0  0  # atno 8010 bound_to 7997
  140.5101  143.2346  151.7608 H   0  0  0  0  0  0  0  0  0  0  0  0  # atno 10167 bound_to 10162
  156.2695  130.4205  149.8454 H   0  0  0  0  0  0  0  0  0  0  0  0  # atno 10718 bound_to 10713
  153.6652  135.6974  153.5165 H   0  0  0  0  0  0  0  0  0  0  0  0  # atno 10763 bound_to 10752
  153.2601  135.4247  155.0884 H   0  0  0  0  0  0  0  0  0  0  0  0  # atno 10764 bound_to 10752
  154.8441  135.3553  154.6196 H   0  0  0  0  0  0  0  0  0  0  0  0  # atno 10765 bound_to 10752
  140.2195  134.3658  155.8011 H   0  0  0  0  0  0  0  0  0  0  0  0  # atno 11005 bound_to 11000
  146.1323  139.4361  143.0161 LP  0  0  0  0  0  0  0  0  0  0  0  0  # atno 17320 bound_to 7965
  145.7144  141.0096  143.1436 LP  0  0  0  0  0  0  0  0  0  0  0  0  # atno 17321 bound_to 7965
  139.4894  144.4403  151.9772 LP  0  0  0  0  0  0  0  0  0  0  0  0  # atno 17342 bound_to 10162
  140.3495  144.3106  150.5952 LP  0  0  0  0  0  0  0  0  0  0  0  0  # atno 17343 bound_to 10162
  156.5941  130.8518  151.3415 LP  0  0  0  0  0  0  0  0  0  0  0  0  # atno 17370 bound_to 10713
  157.7279  130.9649  150.1718 LP  0  0  0  0  0  0  0  0  0  0  0  0  # atno 17371 bound_to 10713
  141.2223  133.7186  156.8552 LP  0  0  0  0  0  0  0  0  0  0  0  0  # atno 17394 bound_to 11000
  140.1864  134.8996  157.3010 LP  0  0  0  0  0  0  0  0  0  0  0  0  # atno 17395 bound_to 11000

$$$$
