AV-unprocessed.smi:2083|AV-procd|sdf|8510|dock2
  -GOLD-   2272011223D 1   1.00000     0.00000
 Structure written by MMmdl.
 44 45  0  0  0  0  0  0  0  0  3 V2000
  147.8301  136.2638  162.7764 C   0  0  0  0  0  0  0  0  0  0  0  0
  147.7056  136.2978  161.2920 C   0  0  0  0  0  0  0  0  0  0  0  0
  148.4357  135.7347  160.2836 C   0  0  0  0  0  0  0  0  0  0  0  0
  147.7598  136.1732  159.1137 C   0  0  0  0  0  0  0  0  0  0  0  0
  148.2188  135.7894  157.8259 N   0  0  0  0  0  0  0  0  0  0  0  0
  148.9424  134.7100  157.4760 C   0  0  0  0  0  0  0  0  0  0  0  0
  149.2833  133.8829  158.3302 O   0  0  0  0  0  0  0  0  0  0  0  0
  149.2133  134.6827  156.1423 N   0  5  0  0  0  0  0  0  0  0  0  0
  148.2295  134.9451  155.0933 C   0  0  0  0  0  0  0  0  0  0  0  0
  148.1299  133.7367  154.1256 C   0  0  2  0  0  0  0  0  0  0  0  0
  149.4976  133.1642  153.6738 C   0  0  0  0  0  0  0  0  0  0  0  0
  147.2278  134.0612  152.9762 N   0  3  1  0  0  0  0  0  0  0  0  0
  147.1409  133.0351  151.8954 C   0  0  0  0  0  0  0  0  0  0  0  0
  146.4062  133.5964  150.6690 C   0  0  0  0  0  0  0  0  0  0  0  0
  145.0092  134.1050  151.0531 C   0  0  0  0  0  0  0  0  0  0  0  0
  145.0785  135.1089  152.2191 C   0  0  2  0  0  0  0  0  0  0  0  0
  145.6167  136.4848  151.7875 C   0  0  0  0  0  0  0  0  0  0  0  0
  145.8764  134.5186  153.4007 C   0  0  0  0  0  0  0  0  0  0  0  0
  146.7116  136.9366  159.3855 N   0  0  0  0  0  0  0  0  0  0  0  0
  146.6715  137.0201  160.7823 O   0  0  0  0  0  0  0  0  0  0  0  0
  148.7406  135.7465  163.0796 H   0  0  0  0  0  0  0  0  0  0  0  0
  146.9818  135.7448  163.2222 H   0  0  0  0  0  0  0  0  0  0  0  0
  147.8630  137.2739  163.1851 H   0  0  0  0  0  0  0  0  0  0  0  0
  149.3114  135.1089  160.3700 H   0  0  0  0  0  0  0  0  0  0  0  0
  147.9750  136.4151  157.0729 H   0  0  0  0  0  0  0  0  0  0  0  0
  147.2416  135.1244  155.5205 H   0  0  0  0  0  0  0  0  0  0  0  0
  148.4696  135.8429  154.5225 H   0  0  0  0  0  0  0  0  0  0  0  0
  147.6385  132.9478  154.6977 H   0  0  0  0  0  0  0  0  0  0  0  0
  150.0773  132.7854  154.5172 H   0  0  0  0  0  0  0  0  0  0  0  0
  150.1177  133.9020  153.1615 H   0  0  0  0  0  0  0  0  0  0  0  0
  149.3598  132.3239  152.9930 H   0  0  0  0  0  0  0  0  0  0  0  0
  148.1365  132.7091  151.5927 H   0  0  0  0  0  0  0  0  0  0  0  0
  146.6156  132.1515  152.2602 H   0  0  0  0  0  0  0  0  0  0  0  0
  146.9912  134.4030  150.2259 H   0  0  0  0  0  0  0  0  0  0  0  0
  146.3207  132.8252  149.9029 H   0  0  0  0  0  0  0  0  0  0  0  0
  144.5178  134.5535  150.1890 H   0  0  0  0  0  0  0  0  0  0  0  0
  144.3917  133.2556  151.3481 H   0  0  0  0  0  0  0  0  0  0  0  0
  144.0577  135.2748  152.5655 H   0  0  0  0  0  0  0  0  0  0  0  0
  146.6517  136.4307  151.4496 H   0  0  0  0  0  0  0  0  0  0  0  0
  145.5787  137.1956  152.6135 H   0  0  0  0  0  0  0  0  0  0  0  0
  145.0232  136.9001  150.9727 H   0  0  0  0  0  0  0  0  0  0  0  0
  145.3347  133.6767  153.8342 H   0  0  0  0  0  0  0  0  0  0  0  0
  145.9589  135.2726  154.1847 H   0  0  0  0  0  0  0  0  0  0  0  0
  147.6540  134.8729  152.5518 H   0  0  0  0  0  0  0  0  0  0  0  0
  1  2  1  0  0  0  0
  1 21  1  0  0  0  0
  1 22  1  0  0  0  0
  1 23  1  0  0  0  0
  2 20  1  0  0  0  0
  2  3  2  0  0  0  0
  3  4  1  0  0  0  0
  3 24  1  0  0  0  0
  4  5  1  0  0  0  0
  4 19  2  0  0  0  0
  5  6  1  0  0  0  0
  5 25  1  0  0  0  0
  6  7  2  0  0  0  0
  6  8  1  0  0  0  0
  8  9  1  0  0  0  0
  9 10  1  0  0  0  0
  9 26  1  0  0  0  0
  9 27  1  0  0  0  0
 10 11  1  0  0  0  0
 10 12  1  0  0  0  0
 10 28  1  0  0  0  0
 11 29  1  0  0  0  0
 11 30  1  0  0  0  0
 11 31  1  0  0  0  0
 12 18  1  0  0  0  0
 12 13  1  0  0  0  0
 12 44  1  0  0  0  0
 13 14  1  0  0  0  0
 13 32  1  0  0  0  0
 13 33  1  0  0  0  0
 14 15  1  0  0  0  0
 14 34  1  0  0  0  0
 14 35  1  0  0  0  0
 15 16  1  0  0  0  0
 15 36  1  0  0  0  0
 15 37  1  0  0  0  0
 16 17  1  0  0  0  0
 16 18  1  0  0  0  0
 16 38  1  0  0  0  0
 17 39  1  0  0  0  0
 17 40  1  0  0  0  0
 17 41  1  0  0  0  0
 18 42  1  0  0  0  0
 18 43  1  0  0  0  0
 19 20  1  0  0  0  0
M  CHG  1   8  -1
M  CHG  1  12   1
M  END
> <s_m_source_file>
AV-unprocessed.smi

> <i_m_source_file_index>
2083

> <i_lp_mmshare_version>
43012

> <i_f3d_flags>
0

> <s_epik_input>
W0NIM11jMVtjSF1jKG5vMSlbTkhdQyg9TylbTkhdW0NIMl1bQ0BIXShbQ0gzXSlOMltDSDJdW0NIMl1bQ0gyXVtDQEBIXShbQ0gzXSlbQ0gyXTI=

> <s_epik_cmdline>
J2VwaWtfcHl0aG9uJywgJy1waCcsICc3LjAnLCAnLXRuJywgJzgnLCAnLW1hJywgJzIwMCcsICctbWV0YWxfYmluZGluZycsICctaW1hZScsICc8aW5maWxlLm1hZT4nLCAnLW9tYWUnLCAnPG91dGZpbGUubWFlPic=

> <r_epik_Ionization_Penalty>
6.76934

> <r_epik_Ionization_Penalty_Charging>
6.76934

> <r_epik_Ionization_Penalty_Neutral>
5.77849e-06

> <r_epik_State_Penalty>
6.79457

> <r_epik_Charging_Adjusted_Penalty>
13.5639

> <i_epik_Tot_Q>
0

> <i_epik_Tot_abs_Q>
2

> <r_epik_Metal_State_Penalty>
2.72837

> <b_epik_Metal_Only>
1

> <s_lp_Force_Field>
OPLS_2005

> <r_lp_Energy>
20.9735

> <b_lp_Chiralities_Consistent>
1

> <s_lp_Variant>
AV-unprocessed.smi:2083-21

> <Gold.Version>
5.8.1

> <Gold.Id.Protein>
6NUR|6NUR_protein|mol2

> <Gold.PLP.Fitness>
41.7331

> <Gold.PLP.PLP>
-30.8537

> <Gold.PLP.part.hbond>
-3.0000

> <Gold.PLP.part.metal>
0.0000

> <Gold.PLP.part.buried>
-3.7095

> <Gold.PLP.part.nonpolar>
-23.8935

> <Gold.PLP.part.repulsive>
0.0531

> <Gold.PLP.ligand.clash>
0.0000

> <Gold.PLP.ligand.torsion>
0.6556

> <Gold.PLP.Chemscore.Hbond>
4.0000

> <Gold.PLP.Chemscore.CHOScore>
0.0000

> <Gold.PLP.Chemscore.Metal>
0.0000

> <Gold.Chemscore.Hbonds>
donor molecule, donor type, donor heavy atom, donor atom, acceptor molecule, acceptor atom, score
      L1  H    12    44       P1  7948  2.00
      P1  H  6896  6909       L1     7  1.00
      P1  H  6934  6947       L1    20  0.77

> <Gold.PLP.Chemscore.Internal.Correction>
0.1906

> <Gold.Rescore>
     Score         DG    S(hbond)    S(metal)    S(lipo)     H(rot)  DE(clash)    DE(int)     intcor
     16.24     -18.28       2.59        0.00      68.69       1.52       0.03       2.01       ----

> <Gold.Chemscore.Fitness>
16.2446

> <Gold.Chemscore.DG>
-18.2821

> <Gold.Chemscore.ZeroCoef>
-5.4800

> <Gold.Chemscore.Hbond>
2.5910

> <Gold.Chemscore.Metal>
0.0000

> <Gold.Chemscore.Lipo>
68.6914

> <Gold.Chemscore.Internal_Hbond>
0.0000

> <Gold.Chemscore.DEClash>
0.0277

> <Gold.Chemscore.DEInternal>
2.0098

> <Gold.Chemscore.Rot>
1.5190

> <Gold.Chemscore.Internal.Correction>
   9.000000E+99

> <Gold.Chemscore.Hbonds>
donor molecule, donor type, donor heavy atom, donor atom, acceptor molecule, acceptor atom, score
      L1  H    12    44       P1  7948  0.93
      P1  H  6896  6909       L1     7  1.00
      P1  H  6934  6947       L1    20  0.08

> <Gold.Chemscore.Hbond.Weighted>
-8.6538

> <Gold.Chemscore.Metal.Weighted>
-0.0000

> <Gold.Chemscore.Lipo.Weighted>
-8.0369

> <Gold.Chemscore.Internal_Hbond.Weighted>
0.0000

> <Gold.Chemscore.DEClash.Weighted>
0.0277

> <Gold.Chemscore.DEInternal.Weighted>
2.0098

> <Gold.Chemscore.Rot.Weighted>
3.8886

> <Gold.Chemscore.Internal.Correction.Weighted>
   9.000000E+99

> <Gold.Protein.RotatedTorsions>
[ 6907 6896 6895 6894 ] final    9.71 input  -60.11 | X-H torsion
[ 7974 7965 7964 7962 ] final   -4.12 input  175.53 | X-H torsion
[ 8008 7997 7996 7995 ] final   27.82 input   59.86 | X-H torsion
[ 10167 10162 10161 10158 ] final  114.28 input  -65.29 | X-H torsion
[ 10718 10713 10712 10709 ] final   42.39 input   66.30 | X-H torsion
[ 10763 10752 10751 10750 ] final -117.67 input  -60.55 | X-H torsion
[ 11005 11000 10999 10996 ] final -170.69 input  -57.11 | X-H torsion

> <Gold.Protein.ActiveResidues>
 VAL166  LYS551  ARG553  GLY616  TRP617  ASP618  TYR619  PRO620  LYS621  CYS622 
 ASP623  PHE694  ASN695  SER759  ASP760  ASP761  ALA762  ILE779  LEU786  VAL792 
 PHE793  MET794  SER795  GLU796  ALA797  LYS798  CYS799  TRP800  GLU811  SER814 

> <Gold.Protein.RotatedAtoms>
  151.7266  135.0883  160.0292 H   0  0  0  0  0  0  0  0  0  0  0  0  # atno 6907 bound_to 6896
  152.3568  133.6243  159.5994 H   0  0  0  0  0  0  0  0  0  0  0  0  # atno 6908 bound_to 6896
  150.7577  133.9403  159.3496 H   0  0  0  0  0  0  0  0  0  0  0  0  # atno 6909 bound_to 6896
  146.2378  140.1824  142.8332 H   0  0  0  0  0  0  0  0  0  0  0  0  # atno 7974 bound_to 7965
  155.0490  140.3177  155.4698 H   0  0  0  0  0  0  0  0  0  0  0  0  # atno 8008 bound_to 7997
  156.2838  140.2149  156.5559 H   0  0  0  0  0  0  0  0  0  0  0  0  # atno 8009 bound_to 7997
  154.7226  140.0488  157.0641 H   0  0  0  0  0  0  0  0  0  0  0  0  # atno 8010 bound_to 7997
  139.6400  144.7123  151.2257 H   0  0  0  0  0  0  0  0  0  0  0  0  # atno 10167 bound_to 10162
  157.4042  130.7877  149.7375 H   0  0  0  0  0  0  0  0  0  0  0  0  # atno 10718 bound_to 10713
  154.8562  135.4301  154.2017 H   0  0  0  0  0  0  0  0  0  0  0  0  # atno 10763 bound_to 10752
  153.3062  135.6972  153.7163 H   0  0  0  0  0  0  0  0  0  0  0  0  # atno 10764 bound_to 10752
  153.6273  135.3491  155.3004 H   0  0  0  0  0  0  0  0  0  0  0  0  # atno 10765 bound_to 10752
  140.5166  134.5750  157.5035 H   0  0  0  0  0  0  0  0  0  0  0  0  # atno 11005 bound_to 11000
  144.9924  140.8558  143.5331 LP  0  0  0  0  0  0  0  0  0  0  0  0  # atno 17320 bound_to 7965
  145.1832  139.2340  143.5281 LP  0  0  0  0  0  0  0  0  0  0  0  0  # atno 17321 bound_to 7965
  140.7485  143.6329  150.8406 LP  0  0  0  0  0  0  0  0  0  0  0  0  # atno 17342 bound_to 10162
  139.9965  143.5790  152.2891 LP  0  0  0  0  0  0  0  0  0  0  0  0  # atno 17343 bound_to 10162
  155.9832  130.4003  150.3377 LP  0  0  0  0  0  0  0  0  0  0  0  0  # atno 17370 bound_to 10713
  157.1508  131.0320  151.2886 LP  0  0  0  0  0  0  0  0  0  0  0  0  # atno 17371 bound_to 10713
  139.9629  134.7422  156.0199 LP  0  0  0  0  0  0  0  0  0  0  0  0  # atno 17394 bound_to 11000
  141.1357  133.6576  156.3586 LP  0  0  0  0  0  0  0  0  0  0  0  0  # atno 17395 bound_to 11000

$$$$
