#       Name:                AV-unprocessed.smi:816
#       Creating user name   scv26
#       Creation time:       Fri Mar 27 01:26:53 2020


#       File generated by GOLD software.
#

@<TRIPOS>MOLECULE
AV-unprocessed.smi:816
    49    50     1
SMALL
NO_CHARGES


@<TRIPOS>ATOM
      1 ****        -1.2489   3.2596  -2.2772 C.3            1 S1                 0.0000
      2 ****        -1.3915   3.0097  -0.7999 C.2            1 S1                 0.0000
      3 ****        -1.0812   1.8279  -0.3789 N.2            1 S1                 0.0000
      4 ****        -1.1761   1.4922   0.9577 N.am           1 S1                 0.0000
      5 ****        -0.7660   0.1153   1.2571 C.3            1 S1                 0.0000
      6 ****         0.7627  -0.0017   1.4439 C.3            1 S1                 0.0000
      7 ****         1.0944   0.3315   2.7771 O.3            1 S1                 0.0000
      8 ****         1.2693  -1.4313   1.1976 C.3            1 S1                 0.0000
      9 ****         1.1389  -1.7341  -0.1856 O.3            1 S1                 0.0000
     10 ****         1.4988  -2.9926  -0.6166 C.ar           1 S1                 0.0000
     11 ****         1.3135  -3.2769  -1.9852 C.ar           1 S1                 0.0000
     12 ****         1.6500  -4.5387  -2.5126 C.ar           1 S1                 0.0000
     13 ****         2.1816  -5.5355  -1.6710 C.ar           1 S1                 0.0000
     14 ****         2.5294  -6.8390  -2.2118 C.1            1 S1                 0.0000
     15 ****         2.8060  -7.8767  -2.6424 N.1            1 S1                 0.0000
     16 ****         2.3748  -5.2625  -0.3023 C.ar           1 S1                 0.0000
     17 ****         2.0361  -4.0003   0.2237 C.ar           1 S1                 0.0000
     18 ****        -1.5905   2.3380   1.9435 C.2            1 S1                 0.0000
     19 ****        -1.6556   1.9988   3.1259 O.2            1 S1                 0.0000
     20 ****        -1.9442   3.6743   1.4592 C.2            1 S1                 0.0000
     21 ****        -2.3914   4.5903   2.4586 C.1            1 S1                 0.0000
     22 ****        -2.7626   5.3452   3.2541 N.1            1 S1                 0.0000
     23 ****        -1.8534   4.0170   0.1496 C.2            1 S1                 0.0000
     24 ****        -2.2072   5.3907  -0.4035 C.3            1 S1                 0.0000
     25 ****        -2.2006   3.5646  -2.7125 H              1 S1                 0.0000
     26 ****        -0.9146   2.3681  -2.8098 H              1 S1                 0.0000
     27 ****        -0.5201   4.0475  -2.4674 H              1 S1                 0.0000
     28 ****        -1.2994  -0.2997   2.1145 H              1 S1                 0.0000
     29 ****        -1.0759  -0.5078   0.4161 H              1 S1                 0.0000
     30 ****         1.2889   0.6795   0.7737 H              1 S1                 0.0000
     31 ****         0.6186  -0.2408   3.3594 H              1 S1                 0.0000
     32 ****         2.3204  -1.5039   1.4829 H              1 S1                 0.0000
     33 ****         0.7028  -2.1389   1.8056 H              1 S1                 0.0000
     34 ****         0.9061  -2.5193  -2.6386 H              1 S1                 0.0000
     35 ****         1.4968  -4.7353  -3.5643 H              1 S1                 0.0000
     36 ****         2.7834  -6.0187   0.3528 H              1 S1                 0.0000
     37 ****         2.1995  -3.8306   1.2770 H              1 S1                 0.0000
     38 ****        -2.4703   6.0969   0.3834 H              1 S1                 0.0000
     39 ****        -3.0577   5.3203  -1.0823 H              1 S1                 0.0000
     40 ****        -1.3646   5.8150  -0.9504 H              1 S1                 0.0000
     41 ****        -0.7657   1.1420  -1.0346 LP             1 S1                 0.0000
     42 ****         0.8425   1.2820   2.9591 LP             1 S1                 0.0000
     43 ****         2.0773   0.2143   2.9187 LP             1 S1                 0.0000
     44 ****         1.7025  -1.0773  -0.6867 LP             1 S1                 0.0000
     45 ****         0.1778  -1.6019  -0.4281 LP             1 S1                 0.0000
     46 ****         3.0451  -8.7735  -3.0146 LP             1 S1                 0.0000
     47 ****        -1.3988   1.0705   3.3946 LP             1 S1                 0.0000
     48 ****        -1.9653   2.6518   3.8170 LP             1 S1                 0.0000
     49 ****        -3.0832   5.9973   3.9412 LP             1 S1                 0.0000
@<TRIPOS>BOND
    1    1    2 1     
    2    1   25 1     
    3    1   26 1     
    4    1   27 1     
    5    2   23 1     
    6    2    3 2     
    7    3    4 1     
    8    4    5 1     
    9    4   18 am    
   10    5    6 1     
   11    5   28 1     
   12    5   29 1     
   13    6    7 1     
   14    6    8 1     
   15    6   30 1     
   16    7   31 1     
   17    8    9 1     
   18    8   32 1     
   19    8   33 1     
   20    9   10 1     
   21   10   17 ar    
   22   10   11 ar    
   23   11   12 ar    
   24   11   34 1     
   25   12   13 ar    
   26   12   35 1     
   27   13   14 1     
   28   13   16 ar    
   29   14   15 3     
   30   16   17 ar    
   31   16   36 1     
   32   17   37 1     
   33   18   19 2     
   34   18   20 1     
   35   20   21 1     
   36   20   23 2     
   37   21   22 3     
   38   23   24 1     
   39   24   38 1     
   40   24   39 1     
   41   24   40 1     
   42    3   41 1     
   43    7   42 1     
   44    7   43 1     
   45    9   44 1     
   46    9   45 1     
   47   15   46 1     
   48   19   47 1     
   49   19   48 1     
   50   22   49 1     
@<TRIPOS>SUBSTRUCTURE
      1 S1             1
@<TRIPOS>SET
LONE_PAIRS      STATIC     ATOMS    <user>   **** ""
9 41 42 43 44 45 46 47 48 49
DONOR_HYDROGENS      STATIC     ATOMS    <user>   **** ""
1 31
ATOM$BLUE        STATIC     ATOMS    COLORGROUP SYSTEM
9 41 42 43 44 45 46 47 48 49
ATOM$RED        STATIC     ATOMS    COLORGROUP SYSTEM
1 31
