AV-unprocessed.smi:1|AV-procd|sdf|19|dock9
  -GOLD-   2262015123D 1   1.00000     0.00000
 Structure written by MMmdl.
 56 61  0  0  0  0  0  0  0  0  2 V2000
  152.9244  139.3397  157.0562 O   0  0  0  0  0  0  0  0  0  0  0  0
  152.3334  140.3593  157.4182 C   0  0  0  0  0  0  0  0  0  0  0  0
  151.2538  140.9460  156.8418 N   0  5  0  0  0  0  0  0  0  0  0  0
  150.4563  140.2314  156.0336 C   0  0  0  0  0  0  0  0  0  0  0  0
  150.1784  140.6726  154.7797 N   0  0  0  0  0  0  0  0  0  0  0  0
  149.3862  139.9590  153.9705 C   0  0  0  0  0  0  0  0  0  0  0  0
  148.7780  138.7918  154.2045 N   0  0  0  0  0  0  0  0  0  0  0  0
  149.0594  138.3355  155.4594 C   0  0  0  0  0  0  0  0  0  0  0  0
  149.8839  138.9885  156.4200 C   0  0  0  0  0  0  0  0  0  0  0  0
  149.9597  138.2431  157.5879 N   0  0  0  0  0  0  0  0  0  0  0  0
  149.1933  137.1952  157.2898 C   0  0  0  0  0  0  0  0  0  0  0  0
  148.6298  137.1695  156.0643 N   0  0  0  0  0  0  0  0  0  0  0  0
  147.7410  136.1375  155.4540 C   0  0  2  0  0  0  0  0  0  0  0  0
  146.9125  135.6171  156.4451 O   0  0  0  0  0  0  0  0  0  0  0  0
  146.5391  134.3075  156.0474 C   0  0  2  0  0  0  0  0  0  0  0  0
  145.9226  133.5226  157.2128 C   0  0  0  0  0  0  0  0  0  0  0  0
  146.6770  133.7805  158.3863 O   0  0  0  0  0  0  0  0  0  0  0  0
  146.1492  133.5419  159.6022 C   0  0  0  0  0  0  0  0  0  0  0  0
  145.2833  132.6914  159.8171 O   0  0  0  0  0  0  0  0  0  0  0  0
  146.7162  134.4261  160.6610 C   0  0  0  0  0  0  0  0  0  0  0  0
  146.5058  134.1014  162.0215 C   0  0  0  0  0  0  0  0  0  0  0  0
  147.0209  134.9231  163.0430 C   0  0  0  0  0  0  0  0  0  0  0  0
  147.7552  136.0780  162.7165 C   0  0  0  0  0  0  0  0  0  0  0  0
  147.9743  136.4102  161.3671 C   0  0  0  0  0  0  0  0  0  0  0  0
  147.4583  135.5909  160.3439 C   0  0  0  0  0  0  0  0  0  0  0  0
  147.8444  133.7335  155.4890 C   0  0  2  0  0  0  0  0  0  0  0  0
  148.6502  133.2298  156.5417 O   0  0  0  0  0  0  0  0  0  0  0  0
  150.1912  133.8559  156.4062 S   0  0  0  0  0  0  0  0  0  0  0  0
  150.5060  134.5734  157.6507 O   0  0  0  0  0  0  0  0  0  0  0  0
  151.0642  132.8080  155.8554 O   0  0  0  0  0  0  0  0  0  0  0  0
  149.9075  134.9801  155.2050 O   0  0  0  0  0  0  0  0  0  0  0  0
  148.5315  134.9558  154.8571 C   0  0  2  0  0  0  0  0  0  0  0  0
  152.7754  141.0434  158.6839 C   0  0  0  0  0  0  0  0  0  0  0  0
  152.3656  142.3715  158.9427 C   0  0  0  0  0  0  0  0  0  0  0  0
  152.7505  143.0210  160.1319 C   0  0  0  0  0  0  0  0  0  0  0  0
  153.5410  142.3455  161.0803 C   0  0  0  0  0  0  0  0  0  0  0  0
  153.9428  141.0181  160.8406 C   0  0  0  0  0  0  0  0  0  0  0  0
  153.5588  140.3679  159.6515 C   0  0  0  0  0  0  0  0  0  0  0  0
  149.2161  140.3853  152.9932 H   0  0  0  0  0  0  0  0  0  0  0  0
  149.0396  136.3981  158.0024 H   0  0  0  0  0  0  0  0  0  0  0  0
  147.1502  136.6749  154.7105 H   0  0  0  0  0  0  0  0  0  0  0  0
  145.8086  134.3988  155.2410 H   0  0  0  0  0  0  0  0  0  0  0  0
  144.8787  133.8101  157.3475 H   0  0  0  0  0  0  0  0  0  0  0  0
  145.9404  132.4531  157.0015 H   0  0  0  0  0  0  0  0  0  0  0  0
  145.9425  133.2212  162.2966 H   0  0  0  0  0  0  0  0  0  0  0  0
  146.8509  134.6669  164.0784 H   0  0  0  0  0  0  0  0  0  0  0  0
  148.1492  136.7085  163.4998 H   0  0  0  0  0  0  0  0  0  0  0  0
  148.5385  137.2961  161.1151 H   0  0  0  0  0  0  0  0  0  0  0  0
  147.6444  135.8755  159.3188 H   0  0  0  0  0  0  0  0  0  0  0  0
  147.6686  132.9364  154.7661 H   0  0  0  0  0  0  0  0  0  0  0  0
  148.4163  134.9688  153.7729 H   0  0  0  0  0  0  0  0  0  0  0  0
  151.7576  142.9037  158.2253 H   0  0  0  0  0  0  0  0  0  0  0  0
  152.4373  144.0380  160.3163 H   0  0  0  0  0  0  0  0  0  0  0  0
  153.8356  142.8431  161.9922 H   0  0  0  0  0  0  0  0  0  0  0  0
  154.5446  140.4962  161.5698 H   0  0  0  0  0  0  0  0  0  0  0  0
  153.8695  139.3455  159.4909 H   0  0  0  0  0  0  0  0  0  0  0  0
  1  2  2  0  0  0  0
  2  3  1  0  0  0  0
  2 33  1  0  0  0  0
  3  4  1  0  0  0  0
  4  9  1  0  0  0  0
  4  5  2  0  0  0  0
  5  6  1  0  0  0  0
  6  7  2  0  0  0  0
  6 39  1  0  0  0  0
  7  8  1  0  0  0  0
  8 12  1  0  0  0  0
  8  9  2  0  0  0  0
  9 10  1  0  0  0  0
 10 11  2  0  0  0  0
 11 12  1  0  0  0  0
 11 40  1  0  0  0  0
 12 13  1  0  0  0  0
 13 32  1  0  0  0  0
 13 14  1  0  0  0  0
 13 41  1  0  0  0  0
 14 15  1  0  0  0  0
 15 16  1  0  0  0  0
 15 26  1  0  0  0  0
 15 42  1  0  0  0  0
 16 17  1  0  0  0  0
 16 43  1  0  0  0  0
 16 44  1  0  0  0  0
 17 18  1  0  0  0  0
 18 19  2  0  0  0  0
 18 20  1  0  0  0  0
 20 25  1  0  0  0  0
 20 21  2  0  0  0  0
 21 22  1  0  0  0  0
 21 45  1  0  0  0  0
 22 23  2  0  0  0  0
 22 46  1  0  0  0  0
 23 24  1  0  0  0  0
 23 47  1  0  0  0  0
 24 25  2  0  0  0  0
 24 48  1  0  0  0  0
 25 49  1  0  0  0  0
 26 32  1  0  0  0  0
 26 27  1  0  0  0  0
 26 50  1  0  0  0  0
 27 28  1  0  0  0  0
 28 29  2  0  0  0  0
 28 30  2  0  0  0  0
 28 31  1  0  0  0  0
 31 32  1  0  0  0  0
 32 51  1  0  0  0  0
 33 38  1  0  0  0  0
 33 34  2  0  0  0  0
 34 35  1  0  0  0  0
 34 52  1  0  0  0  0
 35 36  2  0  0  0  0
 35 53  1  0  0  0  0
 36 37  1  0  0  0  0
 36 54  1  0  0  0  0
 37 38  2  0  0  0  0
 37 55  1  0  0  0  0
 38 56  1  0  0  0  0
M  CHG  1   3  -1
M  END
> <s_m_source_file>
AV-unprocessed.smi

> <i_m_source_file_index>
1

> <i_lp_mmshare_version>
43012

> <i_f3d_flags>
0

> <s_epik_input>
W2NIXTFbY0hdW2NIXVtjSF1bY0hdYzFDKD1PKVtOSF1jKG5bY0hdbjIpYyhjMjMpbltjSF1uM1tDQEBIXShbQ0BIXShbQ0BIXTQ1KU9TKE81KSg9Tyk9TylPW0NASF00W0NIMl1PQyg9TyljNltjSF1bY0hdW2NIXVtjSF1bY0hdNg==

> <s_epik_cmdline>
J2VwaWtfcHl0aG9uJywgJy1waCcsICc3LjAnLCAnLXRuJywgJzgnLCAnLW1hJywgJzIwMCcsICctbWV0YWxfYmluZGluZycsICctaW1hZScsICc8aW5maWxlLm1hZT4nLCAnLW9tYWUnLCAnPG91dGZpbGUubWFlPic=

> <r_lp_tautomer_probability>
1

> <r_epik_Ionization_Penalty>
4.39121

> <r_epik_Ionization_Penalty_Charging>
3.39398

> <r_epik_Ionization_Penalty_Neutral>
0.997232

> <r_epik_State_Penalty>
3.39839

> <r_epik_Charging_Adjusted_Penalty>
6.79237

> <i_epik_Tot_Q>
-1

> <i_epik_Tot_abs_Q>
1

> <r_epik_Metal_State_Penalty>
0.497663

> <b_epik_Metal_Only>
1

> <s_epik_Chemistry_Notes>
This compound has an ester and may undergo hydrolysis at high or low pH. This compound contains an acetal/aminal-like group ( X-CH(R)-Y where X, Y are N, S, or O) that may be acid/base labile, releasing an aldehyde.

> <s_lp_Force_Field>
OPLS_2005

> <r_lp_Energy>
44.2661

> <b_lp_Chiralities_Consistent>
1

> <s_lp_Variant>
AV-unprocessed.smi:1-19

> <Gold.Version>
5.8.1

> <Gold.Id.Protein>
6NUR|6NUR_protein|mol2

> <Gold.PLP.Fitness>
52.8935

> <Gold.PLP.PLP>
-47.0663

> <Gold.PLP.part.hbond>
-3.0000

> <Gold.PLP.part.metal>
0.0000

> <Gold.PLP.part.buried>
-4.0909

> <Gold.PLP.part.nonpolar>
-40.9475

> <Gold.PLP.part.repulsive>
0.4162

> <Gold.PLP.ligand.clash>
0.0000

> <Gold.PLP.ligand.torsion>
2.1066

> <Gold.PLP.Chemscore.Hbond>
2.1648

> <Gold.PLP.Chemscore.CHOScore>
0.9992

> <Gold.PLP.Chemscore.Metal>
0.0000

> <Gold.Chemscore.Hbonds>
donor molecule, donor type, donor heavy atom, donor atom, acceptor molecule, acceptor atom, score
      P1  H  6896  6907       L1    29  0.59
      P1  H  7989  7998       L1     5  0.69
      P1  H  7997  8008       L1     1  0.85
      L1  C     6    39       P1  7957  0.69

> <Gold.PLP.Chemscore.Internal.Correction>
0.5483

> <Gold.Rescore>
     Score         DG    S(hbond)    S(metal)    S(lipo)     H(rot)  DE(clash)    DE(int)     intcor
     13.95     -19.01       1.48        0.00     119.57       2.11       0.26       4.80       ----

> <Gold.Chemscore.Fitness>
13.9487

> <Gold.Chemscore.DG>
-19.0130

> <Gold.Chemscore.ZeroCoef>
-5.4800

> <Gold.Chemscore.Hbond>
1.4834

> <Gold.Chemscore.Metal>
0.0000

> <Gold.Chemscore.Lipo>
119.5663

> <Gold.Chemscore.Internal_Hbond>
0.0000

> <Gold.Chemscore.DEClash>
0.2629

> <Gold.Chemscore.DEInternal>
4.8014

> <Gold.Chemscore.Rot>
2.1136

> <Gold.Chemscore.Internal.Correction>
   9.000000E+99

> <Gold.Chemscore.Hbonds>
donor molecule, donor type, donor heavy atom, donor atom, acceptor molecule, acceptor atom, score
      P1  H  6896  6907       L1    29  0.58
      P1  H  7989  7998       L1     5  0.10
      P1  H  7997  8008       L1     1  0.15

> <Gold.Chemscore.Hbond.Weighted>
-4.9545

> <Gold.Chemscore.Metal.Weighted>
-0.0000

> <Gold.Chemscore.Lipo.Weighted>
-13.9893

> <Gold.Chemscore.Internal_Hbond.Weighted>
0.0000

> <Gold.Chemscore.DEClash.Weighted>
0.2629

> <Gold.Chemscore.DEInternal.Weighted>
4.8014

> <Gold.Chemscore.Rot.Weighted>
5.4107

> <Gold.Chemscore.Internal.Correction.Weighted>
   9.000000E+99

> <Gold.Protein.RotatedTorsions>
[ 6907 6896 6895 6894 ] final -106.51 input  -60.11 | X-H torsion
[ 7974 7965 7964 7962 ] final  161.03 input  175.53 | X-H torsion
[ 8008 7997 7996 7995 ] final  -63.84 input   59.86 | X-H torsion
[ 10167 10162 10161 10158 ] final  110.96 input  -65.29 | X-H torsion
[ 10718 10713 10712 10709 ] final   93.64 input   66.30 | X-H torsion
[ 10763 10752 10751 10750 ] final    5.10 input  -60.55 | X-H torsion
[ 11005 11000 10999 10996 ] final  147.32 input  -57.11 | X-H torsion

> <Gold.Protein.ActiveResidues>
 VAL166  LYS551  ARG553  GLY616  TRP617  ASP618  TYR619  PRO620  LYS621  CYS622 
 ASP623  PHE694  ASN695  SER759  ASP760  ASP761  ALA762  ILE779  LEU786  VAL792 
 PHE793  MET794  SER795  GLU796  ALA797  LYS798  CYS799  TRP800  GLU811  SER814 

> <Gold.Protein.RotatedAtoms>
  150.7393  133.9965  159.3623 H   0  0  0  0  0  0  0  0  0  0  0  0  # atno 6907 bound_to 6896
  151.7916  135.0732  160.0397 H   0  0  0  0  0  0  0  0  0  0  0  0  # atno 6908 bound_to 6896
  152.3204  133.5811  159.5777 H   0  0  0  0  0  0  0  0  0  0  0  0  # atno 6909 bound_to 6896
  144.7706  139.7840  143.6298 H   0  0  0  0  0  0  0  0  0  0  0  0  # atno 7974 bound_to 7965
  154.4577  140.0966  156.6805 H   0  0  0  0  0  0  0  0  0  0  0  0  # atno 8008 bound_to 7997
  155.5087  140.3476  155.4366 H   0  0  0  0  0  0  0  0  0  0  0  0  # atno 8009 bound_to 7997
  156.0810  140.1373  156.9701 H   0  0  0  0  0  0  0  0  0  0  0  0  # atno 8010 bound_to 7997
  139.6648  144.7128  151.1797 H   0  0  0  0  0  0  0  0  0  0  0  0  # atno 10167 bound_to 10162
  157.6953  131.0485  150.4065 H   0  0  0  0  0  0  0  0  0  0  0  0  # atno 10718 bound_to 10713
  153.2633  135.6925  153.7555 H   0  0  0  0  0  0  0  0  0  0  0  0  # atno 10763 bound_to 10752
  153.6606  135.3361  155.3127 H   0  0  0  0  0  0  0  0  0  0  0  0  # atno 10764 bound_to 10752
  154.8438  135.4476  154.1631 H   0  0  0  0  0  0  0  0  0  0  0  0  # atno 10765 bound_to 10752
  140.0866  134.9066  157.1585 H   0  0  0  0  0  0  0  0  0  0  0  0  # atno 11005 bound_to 11000
  146.1850  139.5061  142.9842 LP  0  0  0  0  0  0  0  0  0  0  0  0  # atno 17320 bound_to 7965
  145.6335  141.0299  143.1850 LP  0  0  0  0  0  0  0  0  0  0  0  0  # atno 17321 bound_to 7965
  140.7595  143.5936  150.8770 LP  0  0  0  0  0  0  0  0  0  0  0  0  # atno 17342 bound_to 10162
  139.9597  143.6178  152.3006 LP  0  0  0  0  0  0  0  0  0  0  0  0  # atno 17343 bound_to 10162
  156.4453  130.4000  149.6671 LP  0  0  0  0  0  0  0  0  0  0  0  0  # atno 17370 bound_to 10713
  156.3840  130.7593  151.2589 LP  0  0  0  0  0  0  0  0  0  0  0  0  # atno 17371 bound_to 10713
  140.3411  134.2703  155.7212 LP  0  0  0  0  0  0  0  0  0  0  0  0  # atno 17394 bound_to 11000
  141.2064  133.7833  157.0176 LP  0  0  0  0  0  0  0  0  0  0  0  0  # atno 17395 bound_to 11000

$$$$
