#       Name:                AV-unprocessed.smi:1087
#       Creating user name   scv26
#       Creation time:       Fri Mar 27 03:25:25 2020


#       File generated by GOLD software.
#

@<TRIPOS>MOLECULE
AV-unprocessed.smi:1087
    54    55     1
SMALL
NO_CHARGES


@<TRIPOS>ATOM
      1 ****        -3.6841   2.4608  -4.7504 C.3            1 S1                 0.0000
      2 ****        -3.3230   1.2560  -4.0979 O.3            1 S1                 0.0000
      3 ****        -3.8130   1.1902  -2.7691 C.3            1 S1                 0.0000
      4 ****        -3.3958  -0.1528  -2.1496 C.3            1 S1                 0.0000
      5 ****        -1.9223  -0.2906  -2.0222 N.4            1 S1                 1.0000
      6 ****        -1.4968  -1.7126  -1.9574 C.3            1 S1                 0.0000
      7 ****         0.0358  -1.8378  -1.9650 C.3            1 S1                 0.0000
      8 ****         0.6681  -1.0437  -0.8102 C.3            1 S1                 0.0000
      9 ****         2.2076  -1.1702  -0.8174 C.3            1 S1                 0.0000
     10 ****         2.8308  -0.4376   0.2794 N.am           1 S1                 0.0000
     11 ****         2.8157  -0.8162   1.5660 C.2            1 S1                 0.0000
     12 ****         2.3184  -1.8743   1.9531 O.2            1 S1                 0.0000
     13 ****         3.4657   0.1510   2.5640 C.3            1 S1                 0.0000
     14 ****         2.7429   0.2129   3.8446 N.am           1 S1                 0.0000
     15 ****         3.2825  -0.4940   4.9322 C.2            1 S1                 0.0000
     16 ****         2.6741  -0.4880   6.1270 C.2            1 S1                 0.0000
     17 ****         1.4319   0.2893   6.2233 C.2            1 S1                 0.0000
     18 ****         0.9355   0.9324   5.2332 N.2            1 S1                 0.0000
     19 ****         1.5752   0.9232   3.9793 C.2            1 S1                 0.0000
     20 ****         1.1006   1.5352   3.0216 O.2            1 S1                 0.0000
     21 ****         0.1846   0.4180  -0.8864 C.3            1 S1                 0.0000
     22 ****        -1.3507   0.4994  -0.8994 C.3            1 S1                 0.0000
     23 ****        -3.2850   2.4622  -5.7647 H              1 S1                 0.0000
     24 ****        -3.2788   3.3288  -4.2286 H              1 S1                 0.0000
     25 ****        -4.7678   2.5657  -4.8151 H              1 S1                 0.0000
     26 ****        -3.4511   2.0341  -2.1818 H              1 S1                 0.0000
     27 ****        -4.9018   1.2567  -2.7814 H              1 S1                 0.0000
     28 ****        -3.8606  -0.2816  -1.1711 H              1 S1                 0.0000
     29 ****        -3.7880  -0.9505  -2.7820 H              1 S1                 0.0000
     30 ****        -1.9089  -2.1769  -1.0597 H              1 S1                 0.0000
     31 ****        -1.9014  -2.2578  -2.8110 H              1 S1                 0.0000
     32 ****         0.3159  -2.8894  -1.8916 H              1 S1                 0.0000
     33 ****         0.4262  -1.4803  -2.9189 H              1 S1                 0.0000
     34 ****         0.2977  -1.4711   0.1230 H              1 S1                 0.0000
     35 ****         2.5036  -2.2194  -0.7682 H              1 S1                 0.0000
     36 ****         2.6101  -0.7808  -1.7531 H              1 S1                 0.0000
     37 ****         3.2749   0.4395   0.0488 H              1 S1                 0.0000
     38 ****         4.4992  -0.1627   2.7162 H              1 S1                 0.0000
     39 ****         3.5285   1.1503   2.1288 H              1 S1                 0.0000
     40 ****         4.1974  -1.0326   4.7329 H              1 S1                 0.0000
     41 ****         3.0327  -1.0111   7.0010 H              1 S1                 0.0000
     42 ****         0.9518   0.2834   7.2052 H              1 S1                 0.0000
     43 ****         0.5622   0.9898  -0.0382 H              1 S1                 0.0000
     44 ****         0.5844   0.8946  -1.7825 H              1 S1                 0.0000
     45 ****        -1.6439   1.5453  -0.9807 H              1 S1                 0.0000
     46 ****        -1.7512   0.1327   0.0474 H              1 S1                 0.0000
     47 ****        -1.5288   0.0808  -2.8753 H              1 S1                 0.0000
     48 ****        -2.3255   1.1900  -4.0754 LP             1 S1                 0.0000
     49 ****        -3.6964   0.4864  -4.6158 LP             1 S1                 0.0000
     50 ****         1.8987  -2.4997   1.2953 LP             1 S1                 0.0000
     51 ****         2.3343  -2.1081   2.9253 LP             1 S1                 0.0000
     52 ****         0.0856   1.4458   5.3520 LP             1 S1                 0.0000
     53 ****         1.5660   1.5175   2.1367 LP             1 S1                 0.0000
     54 ****         0.2499   2.0497   3.1290 LP             1 S1                 0.0000
@<TRIPOS>BOND
    1    1    2 1     
    2    1   23 1     
    3    1   24 1     
    4    1   25 1     
    5    2    3 1     
    6    3    4 1     
    7    3   26 1     
    8    3   27 1     
    9    4    5 1     
   10    4   28 1     
   11    4   29 1     
   12    5   22 1     
   13    5    6 1     
   14    5   47 1     
   15    6    7 1     
   16    6   30 1     
   17    6   31 1     
   18    7    8 1     
   19    7   32 1     
   20    7   33 1     
   21    8    9 1     
   22    8   21 1     
   23    8   34 1     
   24    9   10 1     
   25    9   35 1     
   26    9   36 1     
   27   10   11 am    
   28   10   37 1     
   29   11   12 2     
   30   11   13 1     
   31   13   14 1     
   32   13   38 1     
   33   13   39 1     
   34   14   19 am    
   35   14   15 1     
   36   15   16 2     
   37   15   40 1     
   38   16   17 1     
   39   16   41 1     
   40   17   18 2     
   41   17   42 1     
   42   18   19 1     
   43   19   20 2     
   44   21   22 1     
   45   21   43 1     
   46   21   44 1     
   47   22   45 1     
   48   22   46 1     
   49    2   48 1     
   50    2   49 1     
   51   12   50 1     
   52   12   51 1     
   53   18   52 1     
   54   20   53 1     
   55   20   54 1     
@<TRIPOS>SUBSTRUCTURE
      1 S1             1
@<TRIPOS>SET
LONE_PAIRS      STATIC     ATOMS    <user>   **** ""
7 48 49 50 51 52 53 54
DONOR_HYDROGENS      STATIC     ATOMS    <user>   **** ""
2 47 37
ATOM$BLUE        STATIC     ATOMS    COLORGROUP SYSTEM
7 48 49 50 51 52 53 54
ATOM$RED        STATIC     ATOMS    COLORGROUP SYSTEM
2 47 37
