#       Name:                AV-unprocessed.smi:1717
#       Creating user name   scv26
#       Creation time:       Fri Mar 27 08:12:16 2020


#       File generated by GOLD software.
#

@<TRIPOS>MOLECULE
AV-unprocessed.smi:1717
    46    47     1
SMALL
NO_CHARGES


@<TRIPOS>ATOM
      1 ****        -5.9434   3.4213  -0.5775 C.3            1 S1                 0.0000
      2 ****        -5.3444   2.0958  -0.5381 N.am           1 S1                 0.0000
      3 ****        -4.0853   1.8271  -0.9105 C.2            1 S1                 0.0000
      4 ****        -3.3088   2.6849  -1.3323 O.2            1 S1                 0.0000
      5 ****        -3.6463   0.3629  -0.8065 C.3            1 S1                 0.0000
      6 ****        -2.1699   0.1994  -0.7847 N.4            1 S1                 1.0000
      7 ****        -1.7398  -1.1379  -1.2665 C.3            1 S1                 0.0000
      8 ****        -0.2079  -1.2219  -1.3745 C.3            1 S1                 0.0000
      9 ****         0.4633  -0.8928  -0.0316 C.3            1 S1                 0.0000
     10 ****         1.9148  -0.9003  -0.1882 N.am           1 S1                 0.0000
     11 ****         2.7963  -1.1037   0.8015 C.2            1 S1                 0.0000
     12 ****         2.4702  -1.2943   1.9730 O.2            1 S1                 0.0000
     13 ****         4.0588  -1.0703   0.3456 N.am           1 S1                 0.0000
     14 ****         5.2467  -1.2562   1.0957 C.2            1 S1                 0.0000
     15 ****         5.4041  -1.5231   2.4877 C.2            1 S1                 0.0000
     16 ****         6.6843  -1.6351   2.8125 N.2            1 S1                 0.0000
     17 ****         7.3427  -1.4436   1.6473 N.pl3          1 S1                 0.0000
     18 ****         6.5066  -1.2106   0.5780 C.2            1 S1                 0.0000
     19 ****        -0.0301   0.4774   0.4687 C.3            1 S1                 0.0000
     20 ****        -1.5656   0.5242   0.5352 C.3            1 S1                 0.0000
     21 ****         8.3512  -1.4763   1.5989 H              1 S1                 0.0000
     22 ****        -6.9666   3.3780  -0.2048 H              1 S1                 0.0000
     23 ****        -5.9688   3.8057  -1.5980 H              1 S1                 0.0000
     24 ****        -5.3838   4.1209   0.0445 H              1 S1                 0.0000
     25 ****        -5.9252   1.3372  -0.2106 H              1 S1                 0.0000
     26 ****        -4.0891  -0.1097   0.0719 H              1 S1                 0.0000
     27 ****        -4.0595  -0.1465  -1.6781 H              1 S1                 0.0000
     28 ****        -2.1146  -1.9079  -0.5901 H              1 S1                 0.0000
     29 ****        -2.1768  -1.3351  -2.2461 H              1 S1                 0.0000
     30 ****         0.0835  -2.2200  -1.7043 H              1 S1                 0.0000
     31 ****         0.1383  -0.5287  -2.1428 H              1 S1                 0.0000
     32 ****         0.1777  -1.6607   0.6904 H              1 S1                 0.0000
     33 ****         2.2744  -0.7504  -1.1196 H              1 S1                 0.0000
     34 ****         4.1843  -0.9003  -0.6414 H              1 S1                 0.0000
     35 ****         4.6588  -1.6389   3.2605 H              1 S1                 0.0000
     36 ****         6.8719  -1.0388  -0.4238 H              1 S1                 0.0000
     37 ****         0.3841   0.6912   1.4546 H              1 S1                 0.0000
     38 ****         0.3275   1.2669  -0.1941 H              1 S1                 0.0000
     39 ****        -1.8784   1.5177   0.8576 H              1 S1                 0.0000
     40 ****        -1.9293  -0.1791   1.2858 H              1 S1                 0.0000
     41 ****        -1.8063   0.8700  -1.4472 H              1 S1                 0.0000
     42 ****        -3.6085   3.6358  -1.4101 LP             1 S1                 0.0000
     43 ****        -2.3786   2.4306  -1.5969 LP             1 S1                 0.0000
     44 ****         1.5032  -1.3029   2.2278 LP             1 S1                 0.0000
     45 ****         3.1722  -1.4405   2.6700 LP             1 S1                 0.0000
     46 ****         7.0745  -1.8194   3.7146 LP             1 S1                 0.0000
@<TRIPOS>BOND
    1    1    2 1     
    2    1   22 1     
    3    1   23 1     
    4    1   24 1     
    5    2    3 am    
    6    2   25 1     
    7    3    4 2     
    8    3    5 1     
    9    5    6 1     
   10    5   26 1     
   11    5   27 1     
   12    6   20 1     
   13    6    7 1     
   14    6   41 1     
   15    7    8 1     
   16    7   28 1     
   17    7   29 1     
   18    8    9 1     
   19    8   30 1     
   20    8   31 1     
   21    9   10 1     
   22    9   19 1     
   23    9   32 1     
   24   10   11 am    
   25   10   33 1     
   26   11   12 2     
   27   11   13 am    
   28   13   14 1     
   29   13   34 1     
   30   14   18 2     
   31   14   15 1     
   32   15   16 2     
   33   15   35 1     
   34   16   17 1     
   35   17   21 1     
   36   17   18 1     
   37   18   36 1     
   38   19   20 1     
   39   19   37 1     
   40   19   38 1     
   41   20   39 1     
   42   20   40 1     
   43    4   42 1     
   44    4   43 1     
   45   12   44 1     
   46   12   45 1     
   47   16   46 1     
@<TRIPOS>SUBSTRUCTURE
      1 S1             1
@<TRIPOS>SET
LONE_PAIRS      STATIC     ATOMS    <user>   **** ""
5 42 43 44 45 46
DONOR_HYDROGENS      STATIC     ATOMS    <user>   **** ""
5 25 41 33 34 21
ATOM$BLUE        STATIC     ATOMS    COLORGROUP SYSTEM
5 42 43 44 45 46
ATOM$RED        STATIC     ATOMS    COLORGROUP SYSTEM
5 25 41 33 34 21
