#       Name:                AV-unprocessed.smi:3102
#       Creating user name   scv26
#       Creation time:       Fri Mar 27 17:18:30 2020


#       File generated by GOLD software.
#

@<TRIPOS>MOLECULE
AV-unprocessed.smi:3102
    36    37     1
SMALL
NO_CHARGES


@<TRIPOS>ATOM
      1 ****        -4.9960   1.3611  -0.3075 C.3            1 S1                 0.0000
      2 ****        -4.3072   0.1182  -0.3901 O.3            1 S1                 0.0000
      3 ****        -2.9276   0.1342  -0.4073 C.ar           1 S1                 0.0000
      4 ****        -2.2394  -1.0916  -0.4791 C.ar           1 S1                 0.0000
      5 ****        -0.8324  -1.0801  -0.4941 C.ar           1 S1                 0.0000
      6 ****        -0.1483   0.1572  -0.4350 C.ar           1 S1                 0.0000
      7 ****         1.2536   0.2514  -0.4440 N.pl3          1 S1                 0.0000
      8 ****         2.0986  -0.9079  -0.1868 C.3            1 S1                 0.0000
      9 ****         2.0529  -1.3881   1.2510 C.3            1 S1                 0.0000
     10 ****         3.3427  -2.1972   1.3454 C.3            1 S1                 0.0000
     11 ****         4.2609  -1.5718   0.4521 O.3            1 S1                 0.0000
     12 ****         3.5862  -0.5974  -0.3388 C.3            1 S1                 0.0000
     13 ****        -0.9334   1.3349  -0.3697 C.ar           1 S1                 0.0000
     14 ****        -0.2940   2.7113  -0.3065 C.3            1 S1                 0.0000
     15 ****        -2.2846   1.3258  -0.3546 N.ar           1 S1                 0.0000
     16 ****        -6.0705   1.1783  -0.3019 H              1 S1                 0.0000
     17 ****        -4.7736   1.9986  -1.1643 H              1 S1                 0.0000
     18 ****        -4.7467   1.8950   0.6106 H              1 S1                 0.0000
     19 ****        -2.7809  -2.0249  -0.5219 H              1 S1                 0.0000
     20 ****        -0.3044  -2.0196  -0.5521 H              1 S1                 0.0000
     21 ****         1.6743   1.1653  -0.3541 H              1 S1                 0.0000
     22 ****         1.8443  -1.7238  -0.8643 H              1 S1                 0.0000
     23 ****         2.0946  -0.5422   1.9393 H              1 S1                 0.0000
     24 ****         1.1661  -1.9764   1.4872 H              1 S1                 0.0000
     25 ****         3.7365  -2.2342   2.3613 H              1 S1                 0.0000
     26 ****         3.1751  -3.2210   1.0092 H              1 S1                 0.0000
     27 ****         3.9166  -0.6249  -1.3775 H              1 S1                 0.0000
     28 ****         3.8219   0.3885   0.0653 H              1 S1                 0.0000
     29 ****         0.3370   2.7964   0.5787 H              1 S1                 0.0000
     30 ****        -1.0450   3.5012  -0.2614 H              1 S1                 0.0000
     31 ****         0.3228   2.8844  -1.1888 H              1 S1                 0.0000
     32 ****        -4.6085  -0.3319  -1.2308 LP             1 S1                 0.0000
     33 ****        -4.5870  -0.4283   0.3992 LP             1 S1                 0.0000
     34 ****         4.6629  -2.2639  -0.1474 LP             1 S1                 0.0000
     35 ****         4.9846  -1.1266   0.9795 LP             1 S1                 0.0000
     36 ****        -2.7998   2.1815  -0.3055 LP             1 S1                 0.0000
@<TRIPOS>BOND
    1    1    2 1     
    2    1   16 1     
    3    1   17 1     
    4    1   18 1     
    5    2    3 1     
    6    3   15 ar    
    7    3    4 ar    
    8    4    5 ar    
    9    4   19 1     
   10    5    6 ar    
   11    5   20 1     
   12    6    7 1     
   13    6   13 ar    
   14    7    8 1     
   15    7   21 1     
   16    8   12 1     
   17    8    9 1     
   18    8   22 1     
   19    9   10 1     
   20    9   23 1     
   21    9   24 1     
   22   10   11 1     
   23   10   25 1     
   24   10   26 1     
   25   11   12 1     
   26   12   27 1     
   27   12   28 1     
   28   13   14 1     
   29   13   15 ar    
   30   14   29 1     
   31   14   30 1     
   32   14   31 1     
   33    2   32 1     
   34    2   33 1     
   35   11   34 1     
   36   11   35 1     
   37   15   36 1     
@<TRIPOS>SUBSTRUCTURE
      1 S1             1
@<TRIPOS>SET
LONE_PAIRS      STATIC     ATOMS    <user>   **** ""
5 32 33 34 35 36
DONOR_HYDROGENS      STATIC     ATOMS    <user>   **** ""
1 21
ATOM$BLUE        STATIC     ATOMS    COLORGROUP SYSTEM
5 32 33 34 35 36
ATOM$RED        STATIC     ATOMS    COLORGROUP SYSTEM
1 21
