AV-unprocessed.smi:2692|AV-procd|sdf|10396|dock3
  -GOLD-   2272014433D 1   1.00000     0.00000
 Structure written by MMmdl.
 20 20  0  0  0  0  0  0  0  0  3 V2000
  151.2967  144.0048  157.1965 N   0  3  0  0  0  0  0  0  0  0  0  0
  150.9502  144.4076  158.5689 C   0  0  0  0  0  0  0  0  0  0  0  0
  152.2061  144.5693  159.4350 C   0  0  0  0  0  0  0  0  0  0  0  0
  152.7365  143.2345  159.9160 C   0  0  0  0  0  0  0  0  0  0  0  0
  152.9910  143.0038  161.2848 C   0  0  0  0  0  0  0  0  0  0  0  0
  153.4535  141.8313  161.7681 N   0  0  0  0  0  0  0  0  0  0  0  0
  153.6836  140.8323  160.8883 C   0  0  0  0  0  0  0  0  0  0  0  0
  153.4619  140.9592  159.5013 C   0  0  0  0  0  0  0  0  0  0  0  0
  153.7062  139.9176  158.6549 O   0  5  0  0  0  0  0  0  0  0  0  0
  152.9800  142.1857  159.0061 C   0  0  0  0  0  0  0  0  0  0  0  0
  150.4854  144.1019  156.6029 H   0  0  0  0  0  0  0  0  0  0  0  0
  151.6009  143.0418  157.1964 H   0  0  0  0  0  0  0  0  0  0  0  0
  150.3929  145.3442  158.5294 H   0  0  0  0  0  0  0  0  0  0  0  0
  150.2874  143.6550  158.9975 H   0  0  0  0  0  0  0  0  0  0  0  0
  152.9893  145.0778  158.8709 H   0  0  0  0  0  0  0  0  0  0  0  0
  151.9900  145.1984  160.2996 H   0  0  0  0  0  0  0  0  0  0  0  0
  152.8133  143.7802  162.0144 H   0  0  0  0  0  0  0  0  0  0  0  0
  154.0524  139.9063  161.3052 H   0  0  0  0  0  0  0  0  0  0  0  0
  152.7967  142.3181  157.9496 H   0  0  0  0  0  0  0  0  0  0  0  0
  152.0404  144.5936  156.8497 H   0  0  0  0  0  0  0  0  0  0  0  0
  1  2  1  0  0  0  0
  1 11  1  0  0  0  0
  1 12  1  0  0  0  0
  1 20  1  0  0  0  0
  2  3  1  0  0  0  0
  2 13  1  0  0  0  0
  2 14  1  0  0  0  0
  3  4  1  0  0  0  0
  3 15  1  0  0  0  0
  3 16  1  0  0  0  0
  4 10  1  0  0  0  0
  4  5  2  0  0  0  0
  5  6  1  0  0  0  0
  5 17  1  0  0  0  0
  6  7  2  0  0  0  0
  7  8  1  0  0  0  0
  7 18  1  0  0  0  0
  8  9  1  0  0  0  0
  8 10  2  0  0  0  0
 10 19  1  0  0  0  0
M  CHG  1   1   1
M  CHG  1   9  -1
M  END
> <s_m_source_file>
AV-unprocessed.smi

> <i_m_source_file_index>
2692

> <i_lp_mmshare_version>
43012

> <i_f3d_flags>
0

> <s_epik_input>
W05IMl1bQ0gyXVtDSDJdYzFbY0hdbltjSF1jKFtPSF0pW2NIXTE=

> <s_epik_cmdline>
J2VwaWtfcHl0aG9uJywgJy1waCcsICc3LjAnLCAnLXRuJywgJzgnLCAnLW1hJywgJzIwMCcsICctbWV0YWxfYmluZGluZycsICctaW1hZScsICc8aW5maWxlLm1hZT4nLCAnLW9tYWUnLCAnPG91dGZpbGUubWFlPic=

> <r_epik_Ionization_Penalty>
3.23431

> <r_epik_Ionization_Penalty_Charging>
1.61725

> <r_epik_Ionization_Penalty_Neutral>
1.61706

> <r_epik_State_Penalty>
2.11228

> <r_epik_Charging_Adjusted_Penalty>
3.72953

> <i_epik_Tot_Q>
0

> <i_epik_Tot_abs_Q>
2

> <r_epik_Metal_State_Penalty>
0.426281

> <b_epik_Metal_Only>
0

> <s_lp_Force_Field>
OPLS_2005

> <r_lp_Energy>
-2.16473

> <b_lp_Chiralities_Consistent>
1

> <s_lp_Variant>
AV-unprocessed.smi:2692-3

> <Gold.Version>
5.8.1

> <Gold.Id.Protein>
6NUR|6NUR_protein|mol2

> <Gold.PLP.Fitness>
38.6700

> <Gold.PLP.PLP>
-26.9611

> <Gold.PLP.part.hbond>
-2.0000

> <Gold.PLP.part.metal>
0.0000

> <Gold.PLP.part.buried>
-3.7508

> <Gold.PLP.part.nonpolar>
-20.2470

> <Gold.PLP.part.repulsive>
0.0390

> <Gold.PLP.ligand.clash>
0.0000

> <Gold.PLP.ligand.torsion>
0.1457

> <Gold.PLP.Chemscore.Hbond>
4.0000

> <Gold.PLP.Chemscore.CHOScore>
0.0000

> <Gold.PLP.Chemscore.Metal>
0.0000

> <Gold.Chemscore.Hbonds>
donor molecule, donor type, donor heavy atom, donor atom, acceptor molecule, acceptor atom, score
      L1  H     1    11       P1  8028  2.00
      P1  H  7997  8010       L1     9  2.00

> <Gold.PLP.Chemscore.Internal.Correction>
0.0003

> <Gold.Rescore>
     Score         DG    S(hbond)    S(metal)    S(lipo)     H(rot)  DE(clash)    DE(int)     intcor
     17.60     -17.71       1.97        0.00      77.39       1.33       0.01       0.10       ----

> <Gold.Chemscore.Fitness>
17.5990

> <Gold.Chemscore.DG>
-17.7121

> <Gold.Chemscore.ZeroCoef>
-5.4800

> <Gold.Chemscore.Hbond>
1.9718

> <Gold.Chemscore.Metal>
0.0000

> <Gold.Chemscore.Lipo>
77.3878

> <Gold.Chemscore.Internal_Hbond>
0.0000

> <Gold.Chemscore.DEClash>
0.0120

> <Gold.Chemscore.DEInternal>
0.1011

> <Gold.Chemscore.Rot>
1.3313

> <Gold.Chemscore.Internal.Correction>
   9.000000E+99

> <Gold.Chemscore.Hbonds>
donor molecule, donor type, donor heavy atom, donor atom, acceptor molecule, acceptor atom, score
      L1  H     1    11       P1  8028  0.99
      P1  H  7997  8010       L1     9  0.96

> <Gold.Chemscore.Hbond.Weighted>
-6.5859

> <Gold.Chemscore.Metal.Weighted>
-0.0000

> <Gold.Chemscore.Lipo.Weighted>
-9.0544

> <Gold.Chemscore.Internal_Hbond.Weighted>
0.0000

> <Gold.Chemscore.DEClash.Weighted>
0.0120

> <Gold.Chemscore.DEInternal.Weighted>
0.1011

> <Gold.Chemscore.Rot.Weighted>
3.4082

> <Gold.Chemscore.Internal.Correction.Weighted>
   9.000000E+99

> <Gold.Protein.RotatedTorsions>
[ 6907 6896 6895 6894 ] final  161.56 input  -60.11 | X-H torsion
[ 7974 7965 7964 7962 ] final  156.11 input  175.53 | X-H torsion
[ 8008 7997 7996 7995 ] final   12.71 input   59.86 | X-H torsion
[ 10167 10162 10161 10158 ] final -162.05 input  -65.29 | X-H torsion
[ 10718 10713 10712 10709 ] final -128.90 input   66.30 | X-H torsion
[ 10763 10752 10751 10750 ] final   -5.44 input  -60.55 | X-H torsion
[ 11005 11000 10999 10996 ] final   79.57 input  -57.11 | X-H torsion

> <Gold.Protein.ActiveResidues>
 VAL166  LYS551  ARG553  GLY616  TRP617  ASP618  TYR619  PRO620  LYS621  CYS622 
 ASP623  PHE694  ASN695  SER759  ASP760  ASP761  ALA762  ILE779  LEU786  VAL792 
 PHE793  MET794  SER795  GLU796  ALA797  LYS798  CYS799  TRP800  GLU811  SER814 

> <Gold.Protein.RotatedAtoms>
  151.9537  133.3674  159.4009 H   0  0  0  0  0  0  0  0  0  0  0  0  # atno 6907 bound_to 6896
  150.6976  134.4313  159.5259 H   0  0  0  0  0  0  0  0  0  0  0  0  # atno 6908 bound_to 6896
  152.1990  134.8604  160.0560 H   0  0  0  0  0  0  0  0  0  0  0  0  # atno 6909 bound_to 6896
  144.7983  139.7159  143.6192 H   0  0  0  0  0  0  0  0  0  0  0  0  # atno 7974 bound_to 7965
  154.8243  140.2889  155.5765 H   0  0  0  0  0  0  0  0  0  0  0  0  # atno 8008 bound_to 7997
  156.3000  140.2544  156.3087 H   0  0  0  0  0  0  0  0  0  0  0  0  # atno 8009 bound_to 7997
  154.9303  140.0383  157.2033 H   0  0  0  0  0  0  0  0  0  0  0  0  # atno 8010 bound_to 7997
  139.6420  144.0242  152.2099 H   0  0  0  0  0  0  0  0  0  0  0  0  # atno 10167 bound_to 10162
  156.1995  130.6848  151.0522 H   0  0  0  0  0  0  0  0  0  0  0  0  # atno 10718 bound_to 10713
  153.3986  135.7004  153.6442 H   0  0  0  0  0  0  0  0  0  0  0  0  # atno 10763 bound_to 10752
  153.4985  135.3657  155.2528 H   0  0  0  0  0  0  0  0  0  0  0  0  # atno 10764 bound_to 10752
  154.8708  135.4106  154.3316 H   0  0  0  0  0  0  0  0  0  0  0  0  # atno 10765 bound_to 10752
  139.9168  134.7852  156.1795 H   0  0  0  0  0  0  0  0  0  0  0  0  # atno 11005 bound_to 11000
  146.2258  139.5720  142.9588 LP  0  0  0  0  0  0  0  0  0  0  0  0  # atno 17320 bound_to 7965
  145.5617  141.0403  143.2223 LP  0  0  0  0  0  0  0  0  0  0  0  0  # atno 17321 bound_to 7965
  139.9934  144.6345  150.7794 LP  0  0  0  0  0  0  0  0  0  0  0  0  # atno 17342 bound_to 10162
  140.7495  143.2940  151.3253 LP  0  0  0  0  0  0  0  0  0  0  0  0  # atno 17343 bound_to 10162
  157.6977  131.0787  150.6917 LP  0  0  0  0  0  0  0  0  0  0  0  0  # atno 17370 bound_to 10713
  156.6974  130.4613  149.5582 LP  0  0  0  0  0  0  0  0  0  0  0  0  # atno 17371 bound_to 10713
  141.0651  133.6823  156.2028 LP  0  0  0  0  0  0  0  0  0  0  0  0  # atno 17394 bound_to 11000
  140.6599  134.4979  157.5583 LP  0  0  0  0  0  0  0  0  0  0  0  0  # atno 17395 bound_to 11000

$$$$
