AV-unprocessed.smi:3008|AV-procd|sdf|11448|dock2
  -GOLD-   2272016373D 1   1.00000     0.00000
 Structure written by MMmdl.
 38 39  0  0  0  0  0  0  0  0  1 V2000
  149.6754  135.5891  154.5982 N   0  0  0  0  0  0  0  0  0  0  0  0
  150.8144  135.9702  155.1825 C   0  0  0  0  0  0  0  0  0  0  0  0
  151.5716  136.7952  154.6755 O   0  0  0  0  0  0  0  0  0  0  0  0
  151.1538  135.3329  156.5306 C   0  0  0  0  0  0  0  0  0  0  0  0
  151.1813  136.3271  157.5878 N   0  0  0  0  0  0  0  0  0  0  0  0
  152.1225  137.3142  157.8049 C   0  0  0  0  0  0  0  0  0  0  0  0
  151.7069  137.9880  158.9136 C   0  0  0  0  0  0  0  0  0  0  0  0
  152.3849  139.0934  159.4857 N   0  0  0  0  0  0  0  0  0  0  0  0
  152.8343  140.1993  158.8610 C   0  0  0  0  0  0  0  0  0  0  0  0
  152.7315  140.3685  157.6449 O   0  0  0  0  0  0  0  0  0  0  0  0
  153.4694  141.0874  159.6738 N   0  0  0  0  0  0  0  0  0  0  0  0
  153.9756  140.7667  161.0268 C   0  0  0  0  0  0  0  0  0  0  0  0
  153.8231  141.8981  162.0664 C   0  0  0  0  0  0  0  0  0  0  0  0
  152.4612  142.6167  162.0421 C   0  0  0  0  0  0  0  0  0  0  0  0
  152.4128  143.7817  161.0386 C   0  0  0  0  0  0  0  0  0  0  0  0
  152.4724  143.3624  159.5609 C   0  0  0  0  0  0  0  0  0  0  0  0
  153.6799  142.4707  159.2187 C   0  0  0  0  0  0  0  0  0  0  0  0
  150.5011  137.3523  159.3254 C   0  0  0  0  0  0  0  0  0  0  0  0
  150.1924  136.3496  158.5165 N   0  0  0  0  0  0  0  0  0  0  0  0
  149.4152  135.9786  153.7037 H   0  0  0  0  0  0  0  0  0  0  0  0
  149.0821  134.9076  155.0491 H   0  0  0  0  0  0  0  0  0  0  0  0
  150.4061  134.5787  156.7796 H   0  0  0  0  0  0  0  0  0  0  0  0
  152.1178  134.8232  156.4821 H   0  0  0  0  0  0  0  0  0  0  0  0
  152.9831  137.4461  157.1657 H   0  0  0  0  0  0  0  0  0  0  0  0
  152.5404  139.0465  160.4821 H   0  0  0  0  0  0  0  0  0  0  0  0
  153.4507  139.9089  161.4489 H   0  0  0  0  0  0  0  0  0  0  0  0
  155.0233  140.4730  160.9506 H   0  0  0  0  0  0  0  0  0  0  0  0
  153.9708  141.4626  163.0554 H   0  0  0  0  0  0  0  0  0  0  0  0
  154.6277  142.6260  161.9566 H   0  0  0  0  0  0  0  0  0  0  0  0
  151.6534  141.9079  161.8552 H   0  0  0  0  0  0  0  0  0  0  0  0
  152.2747  143.0266  163.0353 H   0  0  0  0  0  0  0  0  0  0  0  0
  151.4961  144.3496  161.2009 H   0  0  0  0  0  0  0  0  0  0  0  0
  153.2294  144.4730  161.2508 H   0  0  0  0  0  0  0  0  0  0  0  0
  151.5441  142.8636  159.2791 H   0  0  0  0  0  0  0  0  0  0  0  0
  152.5186  144.2657  158.9517 H   0  0  0  0  0  0  0  0  0  0  0  0
  154.5969  142.8836  159.6405 H   0  0  0  0  0  0  0  0  0  0  0  0
  153.8470  142.4892  158.1401 H   0  0  0  0  0  0  0  0  0  0  0  0
  149.8477  137.5707  160.1569 H   0  0  0  0  0  0  0  0  0  0  0  0
  1  2  1  0  0  0  0
  1 20  1  0  0  0  0
  1 21  1  0  0  0  0
  2  3  2  0  0  0  0
  2  4  1  0  0  0  0
  4  5  1  0  0  0  0
  4 22  1  0  0  0  0
  4 23  1  0  0  0  0
  5 19  1  0  0  0  0
  5  6  1  0  0  0  0
  6  7  2  0  0  0  0
  6 24  1  0  0  0  0
  7  8  1  0  0  0  0
  7 18  1  0  0  0  0
  8  9  1  0  0  0  0
  8 25  1  0  0  0  0
  9 10  2  0  0  0  0
  9 11  1  0  0  0  0
 11 17  1  0  0  0  0
 11 12  1  0  0  0  0
 12 13  1  0  0  0  0
 12 26  1  0  0  0  0
 12 27  1  0  0  0  0
 13 14  1  0  0  0  0
 13 28  1  0  0  0  0
 13 29  1  0  0  0  0
 14 15  1  0  0  0  0
 14 30  1  0  0  0  0
 14 31  1  0  0  0  0
 15 16  1  0  0  0  0
 15 32  1  0  0  0  0
 15 33  1  0  0  0  0
 16 17  1  0  0  0  0
 16 34  1  0  0  0  0
 16 35  1  0  0  0  0
 17 36  1  0  0  0  0
 17 37  1  0  0  0  0
 18 19  2  0  0  0  0
 18 38  1  0  0  0  0
M  END
> <s_m_source_file>
AV-unprocessed.smi

> <i_m_source_file_index>
3008

> <i_lp_mmshare_version>
43012

> <i_f3d_flags>
0

> <s_epik_input>
W05IMl1DKD1PKVtDSDJdbjFbY0hdYyhbY0hdbjEpW05IXUMoPU8pTjJbQ0gyXVtDSDJdW0NIMl1bQ0gyXVtDSDJdW0NIMl0y

> <s_epik_cmdline>
J2VwaWtfcHl0aG9uJywgJy1waCcsICc3LjAnLCAnLXRuJywgJzgnLCAnLW1hJywgJzIwMCcsICctbWV0YWxfYmluZGluZycsICctaW1hZScsICc8aW5maWxlLm1hZT4nLCAnLW9tYWUnLCAnPG91dGZpbGUubWFlPic=

> <r_lp_tautomer_probability>
1

> <r_epik_Ionization_Penalty>
4.99812e-05

> <r_epik_Ionization_Penalty_Charging>
0

> <r_epik_Ionization_Penalty_Neutral>
4.99812e-05

> <r_epik_State_Penalty>
-0

> <r_epik_Charging_Adjusted_Penalty>
0

> <i_epik_Tot_Q>
0

> <i_epik_Tot_abs_Q>
0

> <r_epik_Metal_State_Penalty>
-0

> <b_epik_Metal_Only>
0

> <s_lp_Force_Field>
OPLS_2005

> <r_lp_Energy>
37.733

> <b_lp_Chiralities_Consistent>
1

> <s_lp_Variant>
AV-unprocessed.smi:3008-1

> <Gold.Version>
5.8.1

> <Gold.Id.Protein>
6NUR|6NUR_protein|mol2

> <Gold.PLP.Fitness>
44.8493

> <Gold.PLP.PLP>
-34.7497

> <Gold.PLP.part.hbond>
-4.0000

> <Gold.PLP.part.metal>
0.0000

> <Gold.PLP.part.buried>
-2.4084

> <Gold.PLP.part.nonpolar>
-28.4157

> <Gold.PLP.part.repulsive>
0.2991

> <Gold.PLP.ligand.clash>
0.0000

> <Gold.PLP.ligand.torsion>
0.7160

> <Gold.PLP.Chemscore.Hbond>
3.8380

> <Gold.PLP.Chemscore.CHOScore>
0.0000

> <Gold.PLP.Chemscore.Metal>
0.0000

> <Gold.Chemscore.Hbonds>
donor molecule, donor type, donor heavy atom, donor atom, acceptor molecule, acceptor atom, score
      L1  H     1    20       P1  7948  1.00
      P1  H  6896  6907       L1    19  0.93
      P1  H  7997  8010       L1    10  0.90
      P1  H 10752 10763       L1     3  1.00

> <Gold.PLP.Chemscore.Internal.Correction>
0.0175

> <Gold.Rescore>
     Score         DG    S(hbond)    S(metal)    S(lipo)     H(rot)  DE(clash)    DE(int)     intcor
     18.58     -19.60       2.40        0.00      85.27       1.52       0.29       0.73       ----

> <Gold.Chemscore.Fitness>
18.5813

> <Gold.Chemscore.DG>
-19.6025

> <Gold.Chemscore.ZeroCoef>
-5.4800

> <Gold.Chemscore.Hbond>
2.4045

> <Gold.Chemscore.Metal>
0.0000

> <Gold.Chemscore.Lipo>
85.2696

> <Gold.Chemscore.Internal_Hbond>
0.0000

> <Gold.Chemscore.DEClash>
0.2948

> <Gold.Chemscore.DEInternal>
0.7264

> <Gold.Chemscore.Rot>
1.5176

> <Gold.Chemscore.Internal.Correction>
   9.000000E+99

> <Gold.Chemscore.Hbonds>
donor molecule, donor type, donor heavy atom, donor atom, acceptor molecule, acceptor atom, score
      L1  H     1    20       P1  7948  0.60
      P1  H  6896  6907       L1    19  0.06
      P1  H  7997  8010       L1    10  0.72
      P1  H 10752 10763       L1     3  0.25

> <Gold.Chemscore.Hbond.Weighted>
-8.0310

> <Gold.Chemscore.Metal.Weighted>
-0.0000

> <Gold.Chemscore.Lipo.Weighted>
-9.9765

> <Gold.Chemscore.Internal_Hbond.Weighted>
0.0000

> <Gold.Chemscore.DEClash.Weighted>
0.2948

> <Gold.Chemscore.DEInternal.Weighted>
0.7264

> <Gold.Chemscore.Rot.Weighted>
3.8851

> <Gold.Chemscore.Internal.Correction.Weighted>
   9.000000E+99

> <Gold.Protein.RotatedTorsions>
[ 6907 6896 6895 6894 ] final  -58.58 input  -60.11 | X-H torsion
[ 7974 7965 7964 7962 ] final  -69.43 input  175.53 | X-H torsion
[ 8008 7997 7996 7995 ] final   54.61 input   59.86 | X-H torsion
[ 10167 10162 10161 10158 ] final   -0.54 input  -65.29 | X-H torsion
[ 10718 10713 10712 10709 ] final  -79.93 input   66.30 | X-H torsion
[ 10763 10752 10751 10750 ] final   34.40 input  -60.55 | X-H torsion
[ 11005 11000 10999 10996 ] final   -5.58 input  -57.11 | X-H torsion

> <Gold.Protein.ActiveResidues>
 VAL166  LYS551  ARG553  GLY616  TRP617  ASP618  TYR619  PRO620  LYS621  CYS622 
 ASP623  PHE694  ASN695  SER759  ASP760  ASP761  ALA762  ILE779  LEU786  VAL792 
 PHE793  MET794  SER795  GLU796  ALA797  LYS798  CYS799  TRP800  GLU811  SER814 

> <Gold.Protein.RotatedAtoms>
  150.7996  134.7079  159.6586 H   0  0  0  0  0  0  0  0  0  0  0  0  # atno 6907 bound_to 6896
  152.4111  134.6119  160.0037 H   0  0  0  0  0  0  0  0  0  0  0  0  # atno 6908 bound_to 6896
  151.6362  133.3292  159.3156 H   0  0  0  0  0  0  0  0  0  0  0  0  # atno 6909 bound_to 6896
  145.7039  140.9106  143.0716 H   0  0  0  0  0  0  0  0  0  0  0  0  # atno 7974 bound_to 7965
  155.4875  140.3470  155.4349 H   0  0  0  0  0  0  0  0  0  0  0  0  # atno 8008 bound_to 7997
  156.0999  140.1432  156.9510 H   0  0  0  0  0  0  0  0  0  0  0  0  # atno 8009 bound_to 7997
  154.4687  140.0908  156.7066 H   0  0  0  0  0  0  0  0  0  0  0  0  # atno 8010 bound_to 7997
  140.6772  143.6882  150.8049 H   0  0  0  0  0  0  0  0  0  0  0  0  # atno 10167 bound_to 10162
  156.0081  130.4559  150.3723 H   0  0  0  0  0  0  0  0  0  0  0  0  # atno 10718 bound_to 10713
  153.0166  135.6361  154.1663 H   0  0  0  0  0  0  0  0  0  0  0  0  # atno 10763 bound_to 10752
  154.1401  135.2835  155.3164 H   0  0  0  0  0  0  0  0  0  0  0  0  # atno 10764 bound_to 10752
  154.6130  135.5550  153.7555 H   0  0  0  0  0  0  0  0  0  0  0  0  # atno 10765 bound_to 10752
  140.6927  133.9058  155.8629 H   0  0  0  0  0  0  0  0  0  0  0  0  # atno 11005 bound_to 11000
  144.6961  139.8984  143.7457 LP  0  0  0  0  0  0  0  0  0  0  0  0  # atno 17320 bound_to 7965
  146.0773  139.3761  143.0486 LP  0  0  0  0  0  0  0  0  0  0  0  0  # atno 17321 bound_to 7965
  140.0577  143.5186  152.2643 LP  0  0  0  0  0  0  0  0  0  0  0  0  # atno 17342 bound_to 10162
  139.6071  144.7599  151.3036 LP  0  0  0  0  0  0  0  0  0  0  0  0  # atno 17343 bound_to 10162
  157.1806  131.0391  151.2750 LP  0  0  0  0  0  0  0  0  0  0  0  0  # atno 17370 bound_to 10713
  157.4149  130.7405  149.6867 LP  0  0  0  0  0  0  0  0  0  0  0  0  # atno 17371 bound_to 10713
  141.0228  134.0864  157.4101 LP  0  0  0  0  0  0  0  0  0  0  0  0  # atno 17394 bound_to 11000
  139.8919  135.0121  156.6816 LP  0  0  0  0  0  0  0  0  0  0  0  0  # atno 17395 bound_to 11000

$$$$
