AV-unprocessed.smi:765|AV-procd|sdf|3643|dock1
  -GOLD-   22720 1 43D 1   1.00000     0.00000
 Structure written by MMmdl.
 39 40  0  0  0  0  0  0  0  0  1 V2000
  149.5124  140.4179  154.8487 C   0  0  0  0  0  0  0  0  0  0  0  0
  150.7705  139.8961  155.5570 C   0  0  2  0  0  0  0  0  0  0  0  0
  151.6201  139.0201  154.6187 C   0  0  0  0  0  0  0  0  0  0  0  0
  152.8694  138.4789  155.3282 C   0  0  0  0  0  0  0  0  0  0  0  0
  152.4887  137.7074  156.6027 C   0  0  0  0  0  0  0  0  0  0  0  0
  151.6473  138.5603  157.5844 C   0  0  1  0  0  0  0  0  0  0  0  0
  151.1758  137.7164  158.6991 C   0  0  0  0  0  0  0  0  0  0  0  0
  150.8056  137.0556  159.5740 N   0  0  0  0  0  0  0  0  0  0  0  0
  152.4241  139.6941  158.0961 N   0  0  0  0  0  0  0  0  0  0  0  0
  151.9986  140.6662  158.9204 C   0  0  0  0  0  0  0  0  0  0  0  0
  150.8536  140.7197  159.3697 O   0  0  0  0  0  0  0  0  0  0  0  0
  153.0374  141.7379  159.2842 C   0  0  2  0  0  0  0  0  0  0  0  0
  153.5794  141.5889  160.7182 C   0  0  0  0  0  0  0  0  0  0  0  0
  152.4841  143.0683  159.0667 N   0  0  0  0  0  0  0  0  0  0  0  0
  152.4953  144.1602  159.9132 C   0  0  0  0  0  0  0  0  0  0  0  0
  151.8427  145.1771  159.2775 C   0  0  0  0  0  0  0  0  0  0  0  0
  151.4593  144.6058  158.0321 C   0  0  0  0  0  0  0  0  0  0  0  0
  151.8420  143.3451  157.9098 N   0  0  0  0  0  0  0  0  0  0  0  0
  150.4112  139.1178  156.8415 C   0  0  0  0  0  0  0  0  0  0  0  0
  148.8642  139.5989  154.5355 H   0  0  0  0  0  0  0  0  0  0  0  0
  149.7727  140.9947  153.9607 H   0  0  0  0  0  0  0  0  0  0  0  0
  148.9338  141.0686  155.5050 H   0  0  0  0  0  0  0  0  0  0  0  0
  151.3667  140.7656  155.8363 H   0  0  0  0  0  0  0  0  0  0  0  0
  151.0224  138.1843  154.2519 H   0  0  0  0  0  0  0  0  0  0  0  0
  151.9188  139.5938  153.7407 H   0  0  0  0  0  0  0  0  0  0  0  0
  153.4240  137.8266  154.6531 H   0  0  0  0  0  0  0  0  0  0  0  0
  153.5388  139.3030  155.5771 H   0  0  0  0  0  0  0  0  0  0  0  0
  151.9169  136.8229  156.3185 H   0  0  0  0  0  0  0  0  0  0  0  0
  153.3893  137.3300  157.0874 H   0  0  0  0  0  0  0  0  0  0  0  0
  153.3822  139.7492  157.7816 H   0  0  0  0  0  0  0  0  0  0  0  0
  153.8818  141.6066  158.6045 H   0  0  0  0  0  0  0  0  0  0  0  0
  154.0132  140.6006  160.8757 H   0  0  0  0  0  0  0  0  0  0  0  0
  152.7981  141.7318  161.4657 H   0  0  0  0  0  0  0  0  0  0  0  0
  154.3612  142.3230  160.9147 H   0  0  0  0  0  0  0  0  0  0  0  0
  152.9604  144.1212  160.8876 H   0  0  0  0  0  0  0  0  0  0  0  0
  151.6644  146.1762  159.6466 H   0  0  0  0  0  0  0  0  0  0  0  0
  150.9166  145.0662  157.2196 H   0  0  0  0  0  0  0  0  0  0  0  0
  149.8365  139.7581  157.5127 H   0  0  0  0  0  0  0  0  0  0  0  0
  149.7496  138.2900  156.5804 H   0  0  0  0  0  0  0  0  0  0  0  0
  1  2  1  0  0  0  0
  1 20  1  0  0  0  0
  1 21  1  0  0  0  0
  1 22  1  0  0  0  0
  2 19  1  0  0  0  0
  2  3  1  0  0  0  0
  2 23  1  0  0  0  0
  3  4  1  0  0  0  0
  3 24  1  0  0  0  0
  3 25  1  0  0  0  0
  4  5  1  0  0  0  0
  4 26  1  0  0  0  0
  4 27  1  0  0  0  0
  5  6  1  0  0  0  0
  5 28  1  0  0  0  0
  5 29  1  0  0  0  0
  6  7  1  0  0  0  0
  6  9  1  0  0  0  0
  6 19  1  0  0  0  0
  7  8  3  0  0  0  0
  9 10  1  0  0  0  0
  9 30  1  0  0  0  0
 10 11  2  0  0  0  0
 10 12  1  0  0  0  0
 12 13  1  0  0  0  0
 12 14  1  0  0  0  0
 12 31  1  0  0  0  0
 13 32  1  0  0  0  0
 13 33  1  0  0  0  0
 13 34  1  0  0  0  0
 14 18  1  0  0  0  0
 14 15  1  0  0  0  0
 15 16  2  0  0  0  0
 15 35  1  0  0  0  0
 16 17  1  0  0  0  0
 16 36  1  0  0  0  0
 17 18  2  0  0  0  0
 17 37  1  0  0  0  0
 19 38  1  0  0  0  0
 19 39  1  0  0  0  0
M  END
> <s_m_source_file>
AV-unprocessed.smi

> <i_m_source_file_index>
765

> <i_lp_mmshare_version>
43012

> <i_f3d_flags>
0

> <s_epik_input>
W0NIM11bQ0BASF0oW0NIMl0xKVtDSDJdW0NIMl1bQ0gyXVtDQEBdMShDI04pW05IXUMoPU8pW0NASF0oW0NIM10pbjJbY0hdW2NIXVtjSF1uMg==

> <s_epik_cmdline>
J2VwaWtfcHl0aG9uJywgJy1waCcsICc3LjAnLCAnLXRuJywgJzgnLCAnLW1hJywgJzIwMCcsICctbWV0YWxfYmluZGluZycsICctaW1hZScsICc8aW5maWxlLm1hZT4nLCAnLW9tYWUnLCAnPG91dGZpbGUubWFlPic=

> <r_lp_tautomer_probability>
1

> <r_epik_Ionization_Penalty>
2.71142e-05

> <r_epik_Ionization_Penalty_Charging>
0

> <r_epik_Ionization_Penalty_Neutral>
2.71142e-05

> <r_epik_State_Penalty>
-0

> <r_epik_Charging_Adjusted_Penalty>
0

> <i_epik_Tot_Q>
0

> <i_epik_Tot_abs_Q>
0

> <r_epik_Metal_State_Penalty>
-0

> <b_epik_Metal_Only>
0

> <s_lp_Force_Field>
OPLS_2005

> <r_lp_Energy>
11.1831

> <b_lp_Chiralities_Consistent>
1

> <s_lp_Variant>
AV-unprocessed.smi:765-1

> <Gold.Version>
5.8.1

> <Gold.Id.Protein>
6NUR|6NUR_protein|mol2

> <Gold.PLP.Fitness>
45.1203

> <Gold.PLP.PLP>
-39.9432

> <Gold.PLP.part.hbond>
-2.1670

> <Gold.PLP.part.metal>
0.0000

> <Gold.PLP.part.buried>
-3.0777

> <Gold.PLP.part.nonpolar>
-35.9177

> <Gold.PLP.part.repulsive>
0.1532

> <Gold.PLP.ligand.clash>
0.0000

> <Gold.PLP.ligand.torsion>
0.4442

> <Gold.PLP.Chemscore.Hbond>
1.0000

> <Gold.PLP.Chemscore.CHOScore>
0.9957

> <Gold.PLP.Chemscore.Metal>
0.0000

> <Gold.Chemscore.Hbonds>
donor molecule, donor type, donor heavy atom, donor atom, acceptor molecule, acceptor atom, score
      P1  H  6896  6907       L1     8  1.00
      L1  C    17    37       P1  8028  0.99

> <Gold.PLP.Chemscore.Internal.Correction>
0.0785

> <Gold.Rescore>
     Score         DG    S(hbond)    S(metal)    S(lipo)     H(rot)  DE(clash)    DE(int)     intcor
     15.60     -17.25       1.00        0.00     103.12       1.42       0.23       1.42       ----

> <Gold.Chemscore.Fitness>
15.5974

> <Gold.Chemscore.DG>
-17.2487

> <Gold.Chemscore.ZeroCoef>
-5.4800

> <Gold.Chemscore.Hbond>
0.9983

> <Gold.Chemscore.Metal>
0.0000

> <Gold.Chemscore.Lipo>
103.1226

> <Gold.Chemscore.Internal_Hbond>
0.0000

> <Gold.Chemscore.DEClash>
0.2273

> <Gold.Chemscore.DEInternal>
1.4240

> <Gold.Chemscore.Rot>
1.4183

> <Gold.Chemscore.Internal.Correction>
   9.000000E+99

> <Gold.Chemscore.Hbonds>
donor molecule, donor type, donor heavy atom, donor atom, acceptor molecule, acceptor atom, score
      P1  H  6896  6907       L1     8  0.96

> <Gold.Chemscore.Hbond.Weighted>
-3.3342

> <Gold.Chemscore.Metal.Weighted>
-0.0000

> <Gold.Chemscore.Lipo.Weighted>
-12.0653

> <Gold.Chemscore.Internal_Hbond.Weighted>
0.0000

> <Gold.Chemscore.DEClash.Weighted>
0.2273

> <Gold.Chemscore.DEInternal.Weighted>
1.4240

> <Gold.Chemscore.Rot.Weighted>
3.6309

> <Gold.Chemscore.Internal.Correction.Weighted>
   9.000000E+99

> <Gold.Protein.RotatedTorsions>
[ 6907 6896 6895 6894 ] final  -22.77 input  -60.11 | X-H torsion
[ 7974 7965 7964 7962 ] final  137.17 input  175.53 | X-H torsion
[ 8008 7997 7996 7995 ] final  -16.84 input   59.86 | X-H torsion
[ 10167 10162 10161 10158 ] final  -48.01 input  -65.29 | X-H torsion
[ 10718 10713 10712 10709 ] final  -36.43 input   66.30 | X-H torsion
[ 10763 10752 10751 10750 ] final   92.49 input  -60.55 | X-H torsion
[ 11005 11000 10999 10996 ] final  -13.95 input  -57.11 | X-H torsion

> <Gold.Protein.ActiveResidues>
 VAL166  LYS551  ARG553  GLY616  TRP617  ASP618  TYR619  PRO620  LYS621  CYS622 
 ASP623  PHE694  ASN695  SER759  ASP760  ASP761  ALA762  ILE779  LEU786  VAL792 
 PHE793  MET794  SER795  GLU796  ALA797  LYS798  CYS799  TRP800  GLU811  SER814 

> <Gold.Protein.RotatedAtoms>
  151.2137  135.0491  159.8921 H   0  0  0  0  0  0  0  0  0  0  0  0  # atno 6907 bound_to 6896
  152.5422  134.0716  159.8207 H   0  0  0  0  0  0  0  0  0  0  0  0  # atno 6908 bound_to 6896
  151.0873  133.5295  159.2649 H   0  0  0  0  0  0  0  0  0  0  0  0  # atno 6909 bound_to 6896
  144.9494  139.4837  143.5533 H   0  0  0  0  0  0  0  0  0  0  0  0  # atno 7974 bound_to 7965
  154.5022  140.2158  155.9323 H   0  0  0  0  0  0  0  0  0  0  0  0  # atno 8008 bound_to 7997
  156.1449  140.3172  155.8521 H   0  0  0  0  0  0  0  0  0  0  0  0  # atno 8009 bound_to 7997
  155.4050  140.0487  157.3025 H   0  0  0  0  0  0  0  0  0  0  0  0  # atno 8010 bound_to 7997
  140.6750  143.2759  151.4009 H   0  0  0  0  0  0  0  0  0  0  0  0  # atno 10167 bound_to 10162
  156.3270  130.4274  149.7907 H   0  0  0  0  0  0  0  0  0  0  0  0  # atno 10718 bound_to 10713
  153.2198  135.4359  155.0476 H   0  0  0  0  0  0  0  0  0  0  0  0  # atno 10763 bound_to 10752
  154.8244  135.3353  154.6944 H   0  0  0  0  0  0  0  0  0  0  0  0  # atno 10764 bound_to 10752
  153.7377  135.7007  153.5030 H   0  0  0  0  0  0  0  0  0  0  0  0  # atno 10765 bound_to 10752
  140.7814  133.8360  155.9295 H   0  0  0  0  0  0  0  0  0  0  0  0  # atno 11005 bound_to 11000
  146.3315  139.8568  142.8863 LP  0  0  0  0  0  0  0  0  0  0  0  0  # atno 17320 bound_to 7965
  145.2868  141.0155  143.3686 LP  0  0  0  0  0  0  0  0  0  0  0  0  # atno 17321 bound_to 7965
  139.6037  144.1241  152.2226 LP  0  0  0  0  0  0  0  0  0  0  0  0  # atno 17342 bound_to 10162
  140.0633  144.5839  150.7246 LP  0  0  0  0  0  0  0  0  0  0  0  0  # atno 17343 bound_to 10162
  156.5194  130.8208  151.3198 LP  0  0  0  0  0  0  0  0  0  0  0  0  # atno 17370 bound_to 10713
  157.7423  130.9888  150.2507 LP  0  0  0  0  0  0  0  0  0  0  0  0  # atno 17371 bound_to 10713
  140.9479  134.1817  157.4750 LP  0  0  0  0  0  0  0  0  0  0  0  0  # atno 17394 bound_to 11000
  139.8742  134.9897  156.5471 LP  0  0  0  0  0  0  0  0  0  0  0  0  # atno 17395 bound_to 11000

$$$$
