#       Name:                AV-unprocessed.smi:1812
#       Creating user name   scv26
#       Creation time:       Fri Mar 27 08:59:40 2020


#       File generated by GOLD software.
#

@<TRIPOS>MOLECULE
AV-unprocessed.smi:1812
    40    42     1
SMALL
NO_CHARGES


@<TRIPOS>ATOM
      1 ****         1.1099   1.2092   0.3478 O.2            1 S1                 0.0000
      2 ****         0.6827   0.3305  -0.4017 C.2            1 S1                 0.0000
      3 ****         1.4459  -0.6567  -0.8918 N.am           1 S1                 0.0000
      4 ****         2.8629  -0.8407  -0.5993 C.3            1 S1                 0.0000
      5 ****         3.0747  -1.5363   0.7555 C.3            1 S1                 0.0000
      6 ****         4.5444  -1.6979   1.1400 C.3            1 S1                 0.0000
      7 ****         4.4850  -2.8833   2.0759 C.3            1 S1                 0.0000
      8 ****         3.4358  -3.7589   1.3979 C.3            1 S1                 0.0000
      9 ****         2.5535  -2.8638   0.7254 O.3            1 S1                 0.0000
     10 ****        -0.5866   0.2243  -0.8326 N.am           1 S1                 0.0000
     11 ****        -1.6902   1.0670  -0.5347 C.2            1 S1                 0.0000
     12 ****        -1.6105   2.1489   0.2520 N.2            1 S1                 0.0000
     13 ****        -2.8345   2.7913   0.3748 N.2            1 S1                 0.0000
     14 ****        -3.8013   2.1803  -0.3205 C.2            1 S1                 0.0000
     15 ****        -5.2052   2.6862  -0.3446 C.3            1 S1                 0.0000
     16 ****        -6.0678   2.5743  -1.5829 C.3            1 S1                 0.0000
     17 ****        -5.5670   3.9234  -1.1341 C.3            1 S1                 0.0000
     18 ****        -3.2837   0.7425  -1.1953 S.3            1 S1                 0.0000
     19 ****         1.0150  -1.3401  -1.4970 H              1 S1                 0.0000
     20 ****         3.3055  -1.4350  -1.3991 H              1 S1                 0.0000
     21 ****         3.3721   0.1245  -0.6126 H              1 S1                 0.0000
     22 ****         2.5624  -0.9924   1.5511 H              1 S1                 0.0000
     23 ****         5.1488  -1.9439   0.2655 H              1 S1                 0.0000
     24 ****         4.9623  -0.8049   1.6055 H              1 S1                 0.0000
     25 ****         5.4455  -3.3843   2.1994 H              1 S1                 0.0000
     26 ****         4.1337  -2.5667   3.0589 H              1 S1                 0.0000
     27 ****         3.9026  -4.4058   0.6540 H              1 S1                 0.0000
     28 ****         2.9000  -4.3903   2.1069 H              1 S1                 0.0000
     29 ****        -0.7882  -0.5533  -1.4435 H              1 S1                 0.0000
     30 ****        -5.6825   2.5410   0.6225 H              1 S1                 0.0000
     31 ****        -5.6253   2.1560  -2.4846 H              1 S1                 0.0000
     32 ****        -7.1246   2.3582  -1.4397 H              1 S1                 0.0000
     33 ****        -6.2894   4.6068  -0.6923 H              1 S1                 0.0000
     34 ****        -4.7845   4.3910  -1.7284 H              1 S1                 0.0000
     35 ****         2.0720   1.2095   0.6205 LP             1 S1                 0.0000
     36 ****         0.4947   1.9224   0.6838 LP             1 S1                 0.0000
     37 ****         2.4496  -3.1557  -0.2254 LP             1 S1                 0.0000
     38 ****         1.6617  -2.8781   1.1778 LP             1 S1                 0.0000
     39 ****        -0.7697   2.4565   0.6974 LP             1 S1                 0.0000
     40 ****        -2.9779   3.6168   0.9207 LP             1 S1                 0.0000
@<TRIPOS>BOND
    1    1    2 2     
    2    2    3 am    
    3    2   10 am    
    4    3    4 1     
    5    3   19 1     
    6    4    5 1     
    7    4   20 1     
    8    4   21 1     
    9    5    9 1     
   10    5    6 1     
   11    5   22 1     
   12    6    7 1     
   13    6   23 1     
   14    6   24 1     
   15    7    8 1     
   16    7   25 1     
   17    7   26 1     
   18    8    9 1     
   19    8   27 1     
   20    8   28 1     
   21   10   11 1     
   22   10   29 1     
   23   11   18 1     
   24   11   12 2     
   25   12   13 1     
   26   13   14 2     
   27   14   15 1     
   28   14   18 1     
   29   15   17 1     
   30   15   16 1     
   31   15   30 1     
   32   16   17 1     
   33   16   31 1     
   34   16   32 1     
   35   17   33 1     
   36   17   34 1     
   37    1   35 1     
   38    1   36 1     
   39    9   37 1     
   40    9   38 1     
   41   12   39 1     
   42   13   40 1     
@<TRIPOS>SUBSTRUCTURE
      1 S1             1
@<TRIPOS>SET
LONE_PAIRS      STATIC     ATOMS    <user>   **** ""
6 35 36 37 38 39 40
DONOR_HYDROGENS      STATIC     ATOMS    <user>   **** ""
2 19 29
ATOM$BLUE        STATIC     ATOMS    COLORGROUP SYSTEM
6 35 36 37 38 39 40
ATOM$RED        STATIC     ATOMS    COLORGROUP SYSTEM
2 19 29
