AV-unprocessed.smi:1561|AV-procd|sdf|6284|dock4
  -GOLD-   22720 6483D 1   1.00000     0.00000
 Structure written by MMmdl.
 33 34  0  0  0  0  0  0  0  0  1 V2000
  148.7015  141.3797  156.1036 C   0  0  0  0  0  0  0  0  0  0  0  0
  150.1571  141.4356  155.5961 C   0  0  1  0  0  0  0  0  0  0  0  0
  151.1207  142.0401  156.6292 C   0  0  0  0  0  0  0  0  0  0  0  0
  151.9790  141.3424  157.1705 O   0  0  0  0  0  0  0  0  0  0  0  0
  150.9638  143.3475  156.8924 N   0  0  0  0  0  0  0  0  0  0  0  0
  151.7723  144.1293  157.8226 C   0  0  0  0  0  0  0  0  0  0  0  0
  151.7491  143.5379  159.2445 C   0  0  2  0  0  0  0  0  0  0  0  0
  151.9673  144.5642  160.3374 C   0  0  0  0  0  0  0  0  0  0  0  0
  152.3522  143.6891  161.5273 C   0  0  0  0  0  0  0  0  0  0  0  0
  152.9809  142.5339  160.9787 O   0  0  0  0  0  0  0  0  0  0  0  0
  152.8709  142.5468  159.5591 C   0  0  0  0  0  0  0  0  0  0  0  0
  150.6421  140.1324  155.1556 N   0  0  0  0  0  0  0  0  0  0  0  0
  149.9606  138.9320  155.1531 C   0  0  0  0  0  0  0  0  0  0  0  0
  150.7898  137.9890  154.6171 C   0  0  0  0  0  0  0  0  0  0  0  0
  151.9703  138.7172  154.3023 C   0  0  0  0  0  0  0  0  0  0  0  0
  151.8768  139.9985  154.6169 N   0  0  0  0  0  0  0  0  0  0  0  0
  148.3424  142.3730  156.3754 H   0  0  0  0  0  0  0  0  0  0  0  0
  148.5943  140.7398  156.9805 H   0  0  0  0  0  0  0  0  0  0  0  0
  148.0365  140.9934  155.3307 H   0  0  0  0  0  0  0  0  0  0  0  0
  150.1633  142.0900  154.7226 H   0  0  0  0  0  0  0  0  0  0  0  0
  150.2320  143.8416  156.4028 H   0  0  0  0  0  0  0  0  0  0  0  0
  152.7974  144.2261  157.4605 H   0  0  0  0  0  0  0  0  0  0  0  0
  151.3625  145.1393  157.8441 H   0  0  0  0  0  0  0  0  0  0  0  0
  150.7893  143.0481  159.4185 H   0  0  0  0  0  0  0  0  0  0  0  0
  152.7963  145.2250  160.0785 H   0  0  0  0  0  0  0  0  0  0  0  0
  151.0885  145.1803  160.5309 H   0  0  0  0  0  0  0  0  0  0  0  0
  153.0097  144.2064  162.2263 H   0  0  0  0  0  0  0  0  0  0  0  0
  151.4617  143.3723  162.0716 H   0  0  0  0  0  0  0  0  0  0  0  0
  152.6733  141.5490  159.1671 H   0  0  0  0  0  0  0  0  0  0  0  0
  153.8188  142.8925  159.1440 H   0  0  0  0  0  0  0  0  0  0  0  0
  148.9517  138.8495  155.5298 H   0  0  0  0  0  0  0  0  0  0  0  0
  150.5829  136.9400  154.4670 H   0  0  0  0  0  0  0  0  0  0  0  0
  152.8842  138.3564  153.8538 H   0  0  0  0  0  0  0  0  0  0  0  0
  1  2  1  0  0  0  0
  1 17  1  0  0  0  0
  1 18  1  0  0  0  0
  1 19  1  0  0  0  0
  2  3  1  0  0  0  0
  2 12  1  0  0  0  0
  2 20  1  0  0  0  0
  3  4  2  0  0  0  0
  3  5  1  0  0  0  0
  5  6  1  0  0  0  0
  5 21  1  0  0  0  0
  6  7  1  0  0  0  0
  6 22  1  0  0  0  0
  6 23  1  0  0  0  0
  7 11  1  0  0  0  0
  7  8  1  0  0  0  0
  7 24  1  0  0  0  0
  8  9  1  0  0  0  0
  8 25  1  0  0  0  0
  8 26  1  0  0  0  0
  9 10  1  0  0  0  0
  9 27  1  0  0  0  0
  9 28  1  0  0  0  0
 10 11  1  0  0  0  0
 11 29  1  0  0  0  0
 11 30  1  0  0  0  0
 12 16  1  0  0  0  0
 12 13  1  0  0  0  0
 13 14  2  0  0  0  0
 13 31  1  0  0  0  0
 14 15  1  0  0  0  0
 14 32  1  0  0  0  0
 15 16  2  0  0  0  0
 15 33  1  0  0  0  0
M  END
> <s_m_source_file>
AV-unprocessed.smi

> <i_m_source_file_index>
1561

> <i_lp_mmshare_version>
43012

> <i_f3d_flags>
0

> <s_epik_input>
bjFbY0hdW2NIXVtjSF1uMVtDQEhdKFtDSDNdKUMoPU8pW05IXVtDSDJdW0NAQEhdMltDSDJdW0NIMl1PW0NIMl0y

> <s_epik_cmdline>
J2VwaWtfcHl0aG9uJywgJy1waCcsICc3LjAnLCAnLXRuJywgJzgnLCAnLW1hJywgJzIwMCcsICctbWV0YWxfYmluZGluZycsICctaW1hZScsICc8aW5maWxlLm1hZT4nLCAnLW9tYWUnLCAnPG91dGZpbGUubWFlPic=

> <r_lp_tautomer_probability>
1

> <r_epik_Ionization_Penalty>
3.82077e-05

> <r_epik_Ionization_Penalty_Charging>
0

> <r_epik_Ionization_Penalty_Neutral>
3.82077e-05

> <r_epik_State_Penalty>
-0

> <r_epik_Charging_Adjusted_Penalty>
0

> <i_epik_Tot_Q>
0

> <i_epik_Tot_abs_Q>
0

> <r_epik_Metal_State_Penalty>
-0

> <b_epik_Metal_Only>
0

> <s_lp_Force_Field>
OPLS_2005

> <r_lp_Energy>
22.8323

> <b_lp_Chiralities_Consistent>
1

> <s_lp_Variant>
AV-unprocessed.smi:1561-2

> <Gold.Version>
5.8.1

> <Gold.Id.Protein>
6NUR|6NUR_protein|mol2

> <Gold.PLP.Fitness>
43.8946

> <Gold.PLP.PLP>
-39.0624

> <Gold.PLP.part.hbond>
-2.0000

> <Gold.PLP.part.metal>
0.0000

> <Gold.PLP.part.buried>
-5.3185

> <Gold.PLP.part.nonpolar>
-32.2341

> <Gold.PLP.part.repulsive>
0.1241

> <Gold.PLP.ligand.clash>
0.0000

> <Gold.PLP.ligand.torsion>
0.6429

> <Gold.PLP.Chemscore.Hbond>
2.0000

> <Gold.PLP.Chemscore.CHOScore>
0.0000

> <Gold.PLP.Chemscore.Metal>
0.0000

> <Gold.Chemscore.Hbonds>
donor molecule, donor type, donor heavy atom, donor atom, acceptor molecule, acceptor atom, score
      L1  H     5    21       P1  8028  1.00
      P1  H  7989  7998       L1    16  0.58

> <Gold.PLP.Chemscore.Internal.Correction>
0.1180

> <Gold.Rescore>
     Score         DG    S(hbond)    S(metal)    S(lipo)     H(rot)  DE(clash)    DE(int)     intcor
     13.29     -18.01       1.88        0.00      88.58       1.61       0.31       4.40       ----

> <Gold.Chemscore.Fitness>
13.2892

> <Gold.Chemscore.DG>
-18.0055

> <Gold.Chemscore.ZeroCoef>
-5.4800

> <Gold.Chemscore.Hbond>
1.8808

> <Gold.Chemscore.Metal>
0.0000

> <Gold.Chemscore.Lipo>
88.5775

> <Gold.Chemscore.Internal_Hbond>
0.0000

> <Gold.Chemscore.DEClash>
0.3113

> <Gold.Chemscore.DEInternal>
4.4049

> <Gold.Chemscore.Rot>
1.6094

> <Gold.Chemscore.Internal.Correction>
   9.000000E+99

> <Gold.Chemscore.Hbonds>
donor molecule, donor type, donor heavy atom, donor atom, acceptor molecule, acceptor atom, score
      L1  H     5    21       P1  8028  1.00
      P1  H  7989  7998       L1    16  0.09

> <Gold.Chemscore.Hbond.Weighted>
-6.2820

> <Gold.Chemscore.Metal.Weighted>
-0.0000

> <Gold.Chemscore.Lipo.Weighted>
-10.3636

> <Gold.Chemscore.Internal_Hbond.Weighted>
0.0000

> <Gold.Chemscore.DEClash.Weighted>
0.3113

> <Gold.Chemscore.DEInternal.Weighted>
4.4049

> <Gold.Chemscore.Rot.Weighted>
4.1201

> <Gold.Chemscore.Internal.Correction.Weighted>
   9.000000E+99

> <Gold.Protein.RotatedTorsions>
[ 6907 6896 6895 6894 ] final  -63.02 input  -60.11 | X-H torsion
[ 7974 7965 7964 7962 ] final   53.47 input  175.53 | X-H torsion
[ 8008 7997 7996 7995 ] final  120.77 input   59.86 | X-H torsion
[ 10167 10162 10161 10158 ] final -137.52 input  -65.29 | X-H torsion
[ 10718 10713 10712 10709 ] final -123.92 input   66.30 | X-H torsion
[ 10763 10752 10751 10750 ] final  170.51 input  -60.55 | X-H torsion
[ 11005 11000 10999 10996 ] final  170.44 input  -57.11 | X-H torsion

> <Gold.Protein.ActiveResidues>
 VAL166  LYS551  ARG553  GLY616  TRP617  ASP618  TYR619  PRO620  LYS621  CYS622 
 ASP623  PHE694  ASN695  SER759  ASP760  ASP761  ALA762  ILE779  LEU786  VAL792 
 PHE793  MET794  SER795  GLU796  ALA797  LYS798  CYS799  TRP800  GLU811  SER814 

> <Gold.Protein.RotatedAtoms>
  150.7677  134.6492  159.6278 H   0  0  0  0  0  0  0  0  0  0  0  0  # atno 6907 bound_to 6896
  152.3716  134.6722  160.0183 H   0  0  0  0  0  0  0  0  0  0  0  0  # atno 6908 bound_to 6896
  151.7081  133.3275  159.3320 H   0  0  0  0  0  0  0  0  0  0  0  0  # atno 6909 bound_to 6896
  145.9709  139.4148  143.0191 H   0  0  0  0  0  0  0  0  0  0  0  0  # atno 7974 bound_to 7965
  156.2657  140.2823  156.1202 H   0  0  0  0  0  0  0  0  0  0  0  0  # atno 8008 bound_to 7997
  155.1164  140.0391  157.2755 H   0  0  0  0  0  0  0  0  0  0  0  0  # atno 8009 bound_to 7997
  154.6704  140.2586  155.7019 H   0  0  0  0  0  0  0  0  0  0  0  0  # atno 8010 bound_to 7997
  139.8570  143.7126  152.2653 H   0  0  0  0  0  0  0  0  0  0  0  0  # atno 10167 bound_to 10162
  156.1543  130.6557  150.9959 H   0  0  0  0  0  0  0  0  0  0  0  0  # atno 10718 bound_to 10713
  154.3986  135.2754  155.2111 H   0  0  0  0  0  0  0  0  0  0  0  0  # atno 10763 bound_to 10752
  154.4146  135.6014  153.5977 H   0  0  0  0  0  0  0  0  0  0  0  0  # atno 10764 bound_to 10752
  152.9831  135.5958  154.4251 H   0  0  0  0  0  0  0  0  0  0  0  0  # atno 10765 bound_to 10752
  140.3084  134.7537  157.3972 H   0  0  0  0  0  0  0  0  0  0  0  0  # atno 11005 bound_to 11000
  145.7908  140.9815  143.1050 LP  0  0  0  0  0  0  0  0  0  0  0  0  # atno 17320 bound_to 7965
  144.6836  139.9680  143.7481 LP  0  0  0  0  0  0  0  0  0  0  0  0  # atno 17321 bound_to 7965
  139.7410  144.7559  151.0652 LP  0  0  0  0  0  0  0  0  0  0  0  0  # atno 17342 bound_to 10162
  140.7780  143.4972  150.9817 LP  0  0  0  0  0  0  0  0  0  0  0  0  # atno 17343 bound_to 10162
  157.6682  131.0867  150.7676 LP  0  0  0  0  0  0  0  0  0  0  0  0  # atno 17370 bound_to 10713
  156.7742  130.4838  149.5413 LP  0  0  0  0  0  0  0  0  0  0  0  0  # atno 17371 bound_to 10713
  140.1047  134.5426  155.8321 LP  0  0  0  0  0  0  0  0  0  0  0  0  # atno 17394 bound_to 11000
  141.2113  133.6705  156.6575 LP  0  0  0  0  0  0  0  0  0  0  0  0  # atno 17395 bound_to 11000

$$$$
