AV-unprocessed.smi:431|AV-procd|sdf|2548|dock5
  -GOLD-   2262022513D 1   1.00000     0.00000
 Structure written by MMmdl.
 43 44  0  0  0  0  0  0  0  0  1 V2000
  144.6834  134.8713  151.6714 C   0  0  0  0  0  0  0  0  0  0  0  0
  145.5421  136.1051  151.3523 C   0  0  0  0  0  0  0  0  0  0  0  0
  145.5799  137.1604  152.4798 C   0  0  1  0  0  0  0  0  0  0  0  0
  146.1381  136.5570  153.7801 C   0  0  0  0  0  0  0  0  0  0  0  0
  146.4002  138.3973  152.0836 C   0  0  0  0  0  0  0  0  0  0  0  0
  146.9549  138.4469  150.9853 O   0  0  0  0  0  0  0  0  0  0  0  0
  146.4730  139.3829  152.9918 N   0  0  0  0  0  0  0  0  0  0  0  0
  147.2269  140.6237  152.8430 C   0  0  0  0  0  0  0  0  0  0  0  0
  148.2080  140.8569  153.9796 C   0  0  0  0  0  0  0  0  0  0  0  0
  147.8922  141.7317  155.0373 C   0  0  0  0  0  0  0  0  0  0  0  0
  148.8255  141.9147  156.0755 C   0  0  0  0  0  0  0  0  0  0  0  0
  150.0590  141.2215  156.0271 C   0  0  0  0  0  0  0  0  0  0  0  0
  151.0102  141.3856  157.0581 N   0  0  0  0  0  0  0  0  0  0  0  0
  150.9544  142.6097  157.8558 C   0  0  0  0  0  0  0  0  0  0  0  0
  152.2257  142.7524  158.7093 C   0  0  0  0  0  0  0  0  0  0  0  0
  152.4025  141.5856  159.5054 O   0  0  0  0  0  0  0  0  0  0  0  0
  152.5667  140.4195  158.7054 C   0  0  0  0  0  0  0  0  0  0  0  0
  151.3095  140.1933  157.8481 C   0  0  0  0  0  0  0  0  0  0  0  0
  150.3580  140.3808  155.0057 N   0  0  0  0  0  0  0  0  0  0  0  0
  149.4600  140.2087  154.0133 C   0  0  0  0  0  0  0  0  0  0  0  0
  144.7455  134.1399  150.8655 H   0  0  0  0  0  0  0  0  0  0  0  0
  143.6322  135.1315  151.7961 H   0  0  0  0  0  0  0  0  0  0  0  0
  145.0205  134.3846  152.5868 H   0  0  0  0  0  0  0  0  0  0  0  0
  146.5593  135.7685  151.1495 H   0  0  0  0  0  0  0  0  0  0  0  0
  145.1904  136.5594  150.4248 H   0  0  0  0  0  0  0  0  0  0  0  0
  144.5546  137.4762  152.6804 H   0  0  0  0  0  0  0  0  0  0  0  0
  146.1716  137.2982  154.5800 H   0  0  0  0  0  0  0  0  0  0  0  0
  147.1486  136.1702  153.6419 H   0  0  0  0  0  0  0  0  0  0  0  0
  145.5144  135.7329  154.1272 H   0  0  0  0  0  0  0  0  0  0  0  0
  145.9815  139.2545  153.8644 H   0  0  0  0  0  0  0  0  0  0  0  0
  147.7688  140.6457  151.8961 H   0  0  0  0  0  0  0  0  0  0  0  0
  146.5124  141.4464  152.8009 H   0  0  0  0  0  0  0  0  0  0  0  0
  146.9454  142.2510  155.0619 H   0  0  0  0  0  0  0  0  0  0  0  0
  148.5773  142.5673  156.8988 H   0  0  0  0  0  0  0  0  0  0  0  0
  150.8573  143.4814  157.2072 H   0  0  0  0  0  0  0  0  0  0  0  0
  150.0737  142.5808  158.4988 H   0  0  0  0  0  0  0  0  0  0  0  0
  153.1017  142.9120  158.0783 H   0  0  0  0  0  0  0  0  0  0  0  0
  152.1431  143.6200  159.3641 H   0  0  0  0  0  0  0  0  0  0  0  0
  153.4530  140.5184  158.0763 H   0  0  0  0  0  0  0  0  0  0  0  0
  152.7345  139.5629  159.3581 H   0  0  0  0  0  0  0  0  0  0  0  0
  150.4554  139.9746  158.4903 H   0  0  0  0  0  0  0  0  0  0  0  0
  151.4651  139.3178  157.2198 H   0  0  0  0  0  0  0  0  0  0  0  0
  149.7533  139.5318  153.2248 H   0  0  0  0  0  0  0  0  0  0  0  0
  1  2  1  0  0  0  0
  1 21  1  0  0  0  0
  1 22  1  0  0  0  0
  1 23  1  0  0  0  0
  2  3  1  0  0  0  0
  2 24  1  0  0  0  0
  2 25  1  0  0  0  0
  3  4  1  0  0  0  0
  3  5  1  0  0  0  0
  3 26  1  0  0  0  0
  4 27  1  0  0  0  0
  4 28  1  0  0  0  0
  4 29  1  0  0  0  0
  5  6  2  0  0  0  0
  5  7  1  0  0  0  0
  7  8  1  0  0  0  0
  7 30  1  0  0  0  0
  8  9  1  0  0  0  0
  8 31  1  0  0  0  0
  8 32  1  0  0  0  0
  9 20  1  0  0  0  0
  9 10  2  0  0  0  0
 10 11  1  0  0  0  0
 10 33  1  0  0  0  0
 11 12  2  0  0  0  0
 11 34  1  0  0  0  0
 12 13  1  0  0  0  0
 12 19  1  0  0  0  0
 13 18  1  0  0  0  0
 13 14  1  0  0  0  0
 14 15  1  0  0  0  0
 14 35  1  0  0  0  0
 14 36  1  0  0  0  0
 15 16  1  0  0  0  0
 15 37  1  0  0  0  0
 15 38  1  0  0  0  0
 16 17  1  0  0  0  0
 17 18  1  0  0  0  0
 17 39  1  0  0  0  0
 17 40  1  0  0  0  0
 18 41  1  0  0  0  0
 18 42  1  0  0  0  0
 19 20  2  0  0  0  0
 20 43  1  0  0  0  0
M  END
> <s_m_source_file>
AV-unprocessed.smi

> <i_m_source_file_index>
431

> <i_lp_mmshare_version>
43012

> <i_f3d_flags>
0

> <s_epik_input>
W0NIM11bQ0gyXVtDQEhdKFtDSDNdKUMoPU8pW05IXVtDSDJdYzFbY0hdW2NIXWMobltjSF0xKU4yW0NIMl1bQ0gyXU9bQ0gyXVtDSDJdMg==

> <s_epik_cmdline>
J2VwaWtfcHl0aG9uJywgJy1waCcsICc3LjAnLCAnLXRuJywgJzgnLCAnLW1hJywgJzIwMCcsICctbWV0YWxfYmluZGluZycsICctaW1hZScsICc8aW5maWxlLm1hZT4nLCAnLW9tYWUnLCAnPG91dGZpbGUubWFlPic=

> <r_lp_tautomer_probability>
1

> <r_epik_Ionization_Penalty>
0.00513882

> <r_epik_Ionization_Penalty_Charging>
0

> <r_epik_Ionization_Penalty_Neutral>
0.00513882

> <r_epik_State_Penalty>
0.00374265

> <r_epik_Charging_Adjusted_Penalty>
0.00374265

> <i_epik_Tot_Q>
0

> <i_epik_Tot_abs_Q>
0

> <r_epik_Metal_State_Penalty>
-0

> <b_epik_Metal_Only>
0

> <s_lp_Force_Field>
OPLS_2005

> <r_lp_Energy>
17.352

> <b_lp_Chiralities_Consistent>
1

> <s_lp_Variant>
AV-unprocessed.smi:431-2

> <Gold.Version>
5.8.1

> <Gold.Id.Protein>
6NUR|6NUR_protein|mol2

> <Gold.PLP.Fitness>
38.7162

> <Gold.PLP.PLP>
-32.5830

> <Gold.PLP.part.hbond>
-3.0000

> <Gold.PLP.part.metal>
0.0000

> <Gold.PLP.part.buried>
-0.9956

> <Gold.PLP.part.nonpolar>
-30.7150

> <Gold.PLP.part.repulsive>
0.7969

> <Gold.PLP.ligand.clash>
0.0000

> <Gold.PLP.ligand.torsion>
0.6499

> <Gold.PLP.Chemscore.Hbond>
1.3469

> <Gold.PLP.Chemscore.CHOScore>
1.0000

> <Gold.PLP.Chemscore.Metal>
0.0000

> <Gold.Chemscore.Hbonds>
donor molecule, donor type, donor heavy atom, donor atom, acceptor molecule, acceptor atom, score
      P1  H  7954  7966       L1     6  1.00
      P1  H  7989  7998       L1    19  0.20
      L1  C    20    43       P1  7957  0.86

> <Gold.PLP.Chemscore.Internal.Correction>
0.3922

> <Gold.Rescore>
     Score         DG    S(hbond)    S(metal)    S(lipo)     H(rot)  DE(clash)    DE(int)     intcor
     11.21     -14.47       0.99        0.00      84.62       1.64       2.39       0.87       ----

> <Gold.Chemscore.Fitness>
11.2120

> <Gold.Chemscore.DG>
-14.4710

> <Gold.Chemscore.ZeroCoef>
-5.4800

> <Gold.Chemscore.Hbond>
0.9851

> <Gold.Chemscore.Metal>
0.0000

> <Gold.Chemscore.Lipo>
84.6220

> <Gold.Chemscore.Internal_Hbond>
0.0000

> <Gold.Chemscore.DEClash>
2.3897

> <Gold.Chemscore.DEInternal>
0.8693

> <Gold.Chemscore.Rot>
1.6407

> <Gold.Chemscore.Internal.Correction>
   9.000000E+99

> <Gold.Chemscore.Hbonds>
donor molecule, donor type, donor heavy atom, donor atom, acceptor molecule, acceptor atom, score
      P1  H  7954  7966       L1     6  0.97

> <Gold.Chemscore.Hbond.Weighted>
-3.2904

> <Gold.Chemscore.Metal.Weighted>
-0.0000

> <Gold.Chemscore.Lipo.Weighted>
-9.9008

> <Gold.Chemscore.Internal_Hbond.Weighted>
0.0000

> <Gold.Chemscore.DEClash.Weighted>
2.3897

> <Gold.Chemscore.DEInternal.Weighted>
0.8693

> <Gold.Chemscore.Rot.Weighted>
4.2001

> <Gold.Chemscore.Internal.Correction.Weighted>
   9.000000E+99

> <Gold.Protein.RotatedTorsions>
[ 6907 6896 6895 6894 ] final  -83.40 input  -60.11 | X-H torsion
[ 7974 7965 7964 7962 ] final   10.97 input  175.53 | X-H torsion
[ 8008 7997 7996 7995 ] final  -37.51 input   59.86 | X-H torsion
[ 10167 10162 10161 10158 ] final -148.54 input  -65.29 | X-H torsion
[ 10718 10713 10712 10709 ] final  148.49 input   66.30 | X-H torsion
[ 10763 10752 10751 10750 ] final  -72.63 input  -60.55 | X-H torsion
[ 11005 11000 10999 10996 ] final   57.98 input  -57.11 | X-H torsion

> <Gold.Protein.ActiveResidues>
 VAL166  LYS551  ARG553  GLY616  TRP617  ASP618  TYR619  PRO620  LYS621  CYS622 
 ASP623  PHE694  ASN695  SER759  ASP760  ASP761  ALA762  ILE779  LEU786  VAL792 
 PHE793  MET794  SER795  GLU796  ALA797  LYS798  CYS799  TRP800  GLU811  SER814 

> <Gold.Protein.RotatedAtoms>
  150.6886  134.3518  159.4911 H   0  0  0  0  0  0  0  0  0  0  0  0  # atno 6907 bound_to 6896
  152.1358  134.9097  160.0565 H   0  0  0  0  0  0  0  0  0  0  0  0  # atno 6908 bound_to 6896
  152.0250  133.3879  159.4310 H   0  0  0  0  0  0  0  0  0  0  0  0  # atno 6909 bound_to 6896
  146.2379  139.9554  142.8465 H   0  0  0  0  0  0  0  0  0  0  0  0  # atno 7974 bound_to 7965
  154.4052  140.1602  156.2548 H   0  0  0  0  0  0  0  0  0  0  0  0  # atno 8008 bound_to 7997
  155.9087  140.3428  155.6060 H   0  0  0  0  0  0  0  0  0  0  0  0  # atno 8009 bound_to 7997
  155.7361  140.0786  157.2257 H   0  0  0  0  0  0  0  0  0  0  0  0  # atno 8010 bound_to 7997
  139.7523  143.8500  152.2589 H   0  0  0  0  0  0  0  0  0  0  0  0  # atno 10167 bound_to 10162
  157.3080  131.0882  151.1339 H   0  0  0  0  0  0  0  0  0  0  0  0  # atno 10718 bound_to 10713
  154.4483  135.5923  153.6175 H   0  0  0  0  0  0  0  0  0  0  0  0  # atno 10763 bound_to 10752
  152.9811  135.6015  154.3636 H   0  0  0  0  0  0  0  0  0  0  0  0  # atno 10764 bound_to 10752
  154.3494  135.2841  155.2359 H   0  0  0  0  0  0  0  0  0  0  0  0  # atno 10765 bound_to 10752
  140.0412  134.5871  155.9380 H   0  0  0  0  0  0  0  0  0  0  0  0  # atno 11005 bound_to 11000
  145.1821  140.9772  143.4260 LP  0  0  0  0  0  0  0  0  0  0  0  0  # atno 17320 bound_to 7965
  144.9933  139.3669  143.6204 LP  0  0  0  0  0  0  0  0  0  0  0  0  # atno 17321 bound_to 7965
  139.8482  144.7177  150.9247 LP  0  0  0  0  0  0  0  0  0  0  0  0  # atno 17342 bound_to 10162
  140.7799  143.3923  151.1290 LP  0  0  0  0  0  0  0  0  0  0  0  0  # atno 17343 bound_to 10162
  157.2672  130.6687  149.6002 LP  0  0  0  0  0  0  0  0  0  0  0  0  # atno 17370 bound_to 10713
  155.9676  130.4490  150.5642 LP  0  0  0  0  0  0  0  0  0  0  0  0  # atno 17371 bound_to 10713
  141.1884  133.6562  156.5321 LP  0  0  0  0  0  0  0  0  0  0  0  0  # atno 17394 bound_to 11000
  140.4067  134.7309  157.4812 LP  0  0  0  0  0  0  0  0  0  0  0  0  # atno 17395 bound_to 11000

$$$$
