AV-unprocessed.smi:110|AV-procd|sdf|1076|dock2
  -GOLD-   2262018163D 1   1.00000     0.00000
 Structure written by MMmdl.
 46 50  0  0  0  0  0  0  0  0  1 V2000
  144.7611  143.2744  154.1162 O   0  0  0  0  0  0  0  0  0  0  0  0
  146.0683  143.2252  153.5837 C   0  0  0  0  0  0  0  0  0  0  0  0
  146.9305  142.1454  154.2619 C   0  0  2  0  0  0  0  0  0  0  0  0
  148.3141  142.4321  154.1066 O   0  0  0  0  0  0  0  0  0  0  0  0
  149.0572  141.2626  154.2974 C   0  0  1  0  0  0  0  0  0  0  0  0
  149.8073  141.3906  155.5872 N   0  0  0  0  0  0  0  0  0  0  0  0
  149.5942  142.2552  156.6386 C   0  0  0  0  0  0  0  0  0  0  0  0
  150.4234  142.1271  157.6389 N   0  0  0  0  0  0  0  0  0  0  0  0
  151.2803  141.1043  157.2477 C   0  0  0  0  0  0  0  0  0  0  0  0
  152.4001  140.4528  157.8397 C   0  0  0  0  0  0  0  0  0  0  0  0
  152.9163  140.7589  159.0530 N   0  0  0  0  0  0  0  0  0  0  0  0
  153.5466  139.7034  159.8586 C   0  0  0  0  0  0  0  0  0  0  0  0
  153.6177  140.2087  161.3121 C   0  0  0  0  0  0  0  0  0  0  0  0
  153.1149  141.6073  161.1528 C   0  0  0  0  0  0  0  0  0  0  0  0
  153.0259  142.5986  162.1454 C   0  0  0  0  0  0  0  0  0  0  0  0
  152.5406  143.8705  161.7732 C   0  0  0  0  0  0  0  0  0  0  0  0
  152.1677  144.1293  160.4336 C   0  0  0  0  0  0  0  0  0  0  0  0
  152.2683  143.1183  159.4526 C   0  0  0  0  0  0  0  0  0  0  0  0
  152.7330  141.8431  159.8359 C   0  0  0  0  0  0  0  0  0  0  0  0
  152.9574  139.4193  157.1579 N   0  0  0  0  0  0  0  0  0  0  0  0
  152.4840  139.0713  155.9579 C   0  0  0  0  0  0  0  0  0  0  0  0
  151.4701  139.6051  155.2741 N   0  0  0  0  0  0  0  0  0  0  0  0
  150.8868  140.6251  155.9666 C   0  0  0  0  0  0  0  0  0  0  0  0
  148.0675  140.0702  154.3020 C   0  0  1  0  0  0  0  0  0  0  0  0
  147.8583  139.5087  155.5902 O   0  0  0  0  0  0  0  0  0  0  0  0
  146.8050  140.7144  153.7367 C   0  0  1  0  0  0  0  0  0  0  0  0
  145.6082  140.0738  154.1377 O   0  0  0  0  0  0  0  0  0  0  0  0
  146.7208  142.1563  155.3333 H   0  0  0  0  0  0  0  0  0  0  0  0
  149.8292  141.1878  153.5302 H   0  0  0  0  0  0  0  0  0  0  0  0
  148.4419  139.2852  153.6444 H   0  0  0  0  0  0  0  0  0  0  0  0
  146.8653  140.7009  152.6478 H   0  0  0  0  0  0  0  0  0  0  0  0
  144.1454  143.2984  153.3996 H   0  0  0  0  0  0  0  0  0  0  0  0
  146.0198  143.0561  152.5077 H   0  0  0  0  0  0  0  0  0  0  0  0
  146.5241  144.2045  153.7317 H   0  0  0  0  0  0  0  0  0  0  0  0
  148.8011  142.9883  156.6454 H   0  0  0  0  0  0  0  0  0  0  0  0
  152.9798  138.7736  159.7946 H   0  0  0  0  0  0  0  0  0  0  0  0
  154.5487  139.5109  159.4736 H   0  0  0  0  0  0  0  0  0  0  0  0
  152.9608  139.6432  161.9737 H   0  0  0  0  0  0  0  0  0  0  0  0
  154.6336  140.1932  161.7077 H   0  0  0  0  0  0  0  0  0  0  0  0
  153.3244  142.3949  163.1632 H   0  0  0  0  0  0  0  0  0  0  0  0
  152.4615  144.6528  162.5137 H   0  0  0  0  0  0  0  0  0  0  0  0
  151.8073  145.1090  160.1570 H   0  0  0  0  0  0  0  0  0  0  0  0
  151.9966  143.3287  158.4287 H   0  0  0  0  0  0  0  0  0  0  0  0
  152.9902  138.2470  155.4775 H   0  0  0  0  0  0  0  0  0  0  0  0
  146.9893  139.1380  155.6162 H   0  0  0  0  0  0  0  0  0  0  0  0
  144.9157  140.3388  153.5520 H   0  0  0  0  0  0  0  0  0  0  0  0
  1  2  1  0  0  0  0
  1 32  1  0  0  0  0
  2  3  1  0  0  0  0
  2 33  1  0  0  0  0
  2 34  1  0  0  0  0
  3 28  1  0  0  0  0
  3 26  1  0  0  0  0
  3  4  1  0  0  0  0
  4  5  1  0  0  0  0
  5 29  1  0  0  0  0
  5  6  1  0  0  0  0
  5 24  1  0  0  0  0
  6 23  1  0  0  0  0
  6  7  1  0  0  0  0
  7  8  2  0  0  0  0
  7 35  1  0  0  0  0
  8  9  1  0  0  0  0
  9 23  2  0  0  0  0
  9 10  1  0  0  0  0
 10 11  1  0  0  0  0
 10 20  2  0  0  0  0
 11 19  1  0  0  0  0
 11 12  1  0  0  0  0
 12 13  1  0  0  0  0
 12 36  1  0  0  0  0
 12 37  1  0  0  0  0
 13 14  1  0  0  0  0
 13 38  1  0  0  0  0
 13 39  1  0  0  0  0
 14 19  2  0  0  0  0
 14 15  1  0  0  0  0
 15 16  2  0  0  0  0
 15 40  1  0  0  0  0
 16 17  1  0  0  0  0
 16 41  1  0  0  0  0
 17 18  2  0  0  0  0
 17 42  1  0  0  0  0
 18 19  1  0  0  0  0
 18 43  1  0  0  0  0
 20 21  1  0  0  0  0
 21 22  2  0  0  0  0
 21 44  1  0  0  0  0
 22 23  1  0  0  0  0
 24 30  1  0  0  0  0
 24 25  1  0  0  0  0
 24 26  1  0  0  0  0
 25 45  1  0  0  0  0
 26 31  1  0  0  0  0
 26 27  1  0  0  0  0
 27 46  1  0  0  0  0
M  END
> <s_m_source_file>
AV-unprocessed.smi

> <i_m_source_file_index>
110

> <i_lp_mmshare_version>
43012

> <i_f3d_flags>
0

> <s_epik_input>
W09IXVtDSDJdW0NASF0xT1tDQEhdKFtDQEhdKFtPSF0pW0NAQEhdMVtPSF0pbihbY0hdbjIpYyhjMjMpbltjSF1uYzNOKFtDSDJdW0NIMl00KWMoYzQ1KVtjSF1bY0hdW2NIXVtjSF01

> <s_epik_cmdline>
J2VwaWtfcHl0aG9uJywgJy1waCcsICc3LjAnLCAnLXRuJywgJzgnLCAnLW1hJywgJzIwMCcsICctbWV0YWxfYmluZGluZycsICctaW1hZScsICc8aW5maWxlLm1hZT4nLCAnLW9tYWUnLCAnPG91dGZpbGUubWFlPic=

> <r_lp_tautomer_probability>
1

> <r_epik_Ionization_Penalty>
0.00068475

> <r_epik_Ionization_Penalty_Charging>
0

> <r_epik_Ionization_Penalty_Neutral>
0.00068475

> <r_epik_State_Penalty>
0.000417442

> <r_epik_Charging_Adjusted_Penalty>
0.000417442

> <i_epik_Tot_Q>
0

> <i_epik_Tot_abs_Q>
0

> <r_epik_Metal_State_Penalty>
-0

> <b_epik_Metal_Only>
0

> <s_epik_Chemistry_Notes>
This compound contains an acetal/aminal-like group ( X-CH(R)-Y where X, Y are N, S, or O) that may be acid/base labile, releasing an aldehyde.

> <s_lp_Force_Field>
OPLS_2005

> <r_lp_Energy>
66.8802

> <b_lp_Chiralities_Consistent>
1

> <s_lp_Variant>
AV-unprocessed.smi:110-14

> <Gold.Version>
5.8.1

> <Gold.Id.Protein>
6NUR|6NUR_protein|mol2

> <Gold.PLP.Fitness>
65.1535

> <Gold.PLP.PLP>
-53.2917

> <Gold.PLP.part.hbond>
-5.2844

> <Gold.PLP.part.metal>
0.0000

> <Gold.PLP.part.buried>
-1.0747

> <Gold.PLP.part.nonpolar>
-49.6451

> <Gold.PLP.part.repulsive>
2.5287

> <Gold.PLP.ligand.clash>
0.0000

> <Gold.PLP.ligand.torsion>
0.9680

> <Gold.PLP.Chemscore.Hbond>
3.8007

> <Gold.PLP.Chemscore.CHOScore>
0.7738

> <Gold.PLP.Chemscore.Metal>
0.0000

> <Gold.Chemscore.Hbonds>
donor molecule, donor type, donor heavy atom, donor atom, acceptor molecule, acceptor atom, score
      L1  H     1    32       P1 10174  0.66
      L1  H    27    46       P1 10175  1.00
      P1  H  7989  7998       L1    22  0.34
      P1  H  7997  8009       L1    20  1.00
      P1  H  8022  8030       L1     4  0.10
      L1  C     7    35       P1  8028  0.80

> <Gold.PLP.Chemscore.Internal.Correction>
0.0744

> <Gold.Rescore>
     Score         DG    S(hbond)    S(metal)    S(lipo)     H(rot)  DE(clash)    DE(int)     intcor
     13.11     -19.00       2.74        0.00     111.49       3.38       3.42       2.47       ----

> <Gold.Chemscore.Fitness>
13.1127

> <Gold.Chemscore.DG>
-19.0003

> <Gold.Chemscore.ZeroCoef>
-5.4800

> <Gold.Chemscore.Hbond>
2.7359

> <Gold.Chemscore.Metal>
0.0000

> <Gold.Chemscore.Lipo>
111.4916

> <Gold.Chemscore.Internal_Hbond>
0.0000

> <Gold.Chemscore.DEClash>
3.4155

> <Gold.Chemscore.DEInternal>
2.4722

> <Gold.Chemscore.Rot>
3.3837

> <Gold.Chemscore.Internal.Correction>
   9.000000E+99

> <Gold.Chemscore.Hbonds>
donor molecule, donor type, donor heavy atom, donor atom, acceptor molecule, acceptor atom, score
      L1  H     1    32       P1 10174  0.10
      L1  H    27    46       P1 10175  1.00
      P1  H  7989  7998       L1    22  0.02
      P1  H  7997  8009       L1    20  0.10
      P1  H  8022  8030       L1     4  0.08

> <Gold.Chemscore.Hbond.Weighted>
-9.1380

> <Gold.Chemscore.Metal.Weighted>
-0.0000

> <Gold.Chemscore.Lipo.Weighted>
-13.0445

> <Gold.Chemscore.Internal_Hbond.Weighted>
0.0000

> <Gold.Chemscore.DEClash.Weighted>
3.4155

> <Gold.Chemscore.DEInternal.Weighted>
2.4722

> <Gold.Chemscore.Rot.Weighted>
8.6622

> <Gold.Chemscore.Internal.Correction.Weighted>
   9.000000E+99

> <Gold.Protein.RotatedTorsions>
[ 6907 6896 6895 6894 ] final   54.30 input  -60.11 | X-H torsion
[ 7974 7965 7964 7962 ] final  142.88 input  175.53 | X-H torsion
[ 8008 7997 7996 7995 ] final  172.16 input   59.86 | X-H torsion
[ 10167 10162 10161 10158 ] final  -79.34 input  -65.29 | X-H torsion
[ 10718 10713 10712 10709 ] final  -29.49 input   66.30 | X-H torsion
[ 10763 10752 10751 10750 ] final -113.53 input  -60.55 | X-H torsion
[ 11005 11000 10999 10996 ] final  105.63 input  -57.11 | X-H torsion

> <Gold.Protein.ActiveResidues>
 VAL166  LYS551  ARG553  GLY616  TRP617  ASP618  TYR619  PRO620  LYS621  CYS622 
 ASP623  PHE694  ASN695  SER759  ASP760  ASP761  ALA762  ILE779  LEU786  VAL792 
 PHE793  MET794  SER795  GLU796  ALA797  LYS798  CYS799  TRP800  GLU811  SER814 

> <Gold.Protein.RotatedAtoms>
  152.3424  134.7116  160.0259 H   0  0  0  0  0  0  0  0  0  0  0  0  # atno 6907 bound_to 6896
  151.7497  133.3321  159.3396 H   0  0  0  0  0  0  0  0  0  0  0  0  # atno 6908 bound_to 6896
  150.7488  134.6136  159.6144 H   0  0  0  0  0  0  0  0  0  0  0  0  # atno 6909 bound_to 6896
  144.8969  139.5477  143.5772 H   0  0  0  0  0  0  0  0  0  0  0  0  # atno 7974 bound_to 7965
  156.1202  140.1493  156.9216 H   0  0  0  0  0  0  0  0  0  0  0  0  # atno 8008 bound_to 7997
  154.4830  140.0873  156.7463 H   0  0  0  0  0  0  0  0  0  0  0  0  # atno 8009 bound_to 7997
  155.4442  140.3432  155.4295 H   0  0  0  0  0  0  0  0  0  0  0  0  # atno 8010 bound_to 7997
  140.4602  143.2456  151.8361 H   0  0  0  0  0  0  0  0  0  0  0  0  # atno 10167 bound_to 10162
  156.4118  130.4409  149.7247 H   0  0  0  0  0  0  0  0  0  0  0  0  # atno 10718 bound_to 10713
  154.8400  135.4451  154.1364 H   0  0  0  0  0  0  0  0  0  0  0  0  # atno 10763 bound_to 10752
  153.2561  135.6931  153.7634 H   0  0  0  0  0  0  0  0  0  0  0  0  # atno 10764 bound_to 10752
  153.6928  135.3384  155.3182 H   0  0  0  0  0  0  0  0  0  0  0  0  # atno 10765 bound_to 10752
  139.8804  134.9342  156.5544 H   0  0  0  0  0  0  0  0  0  0  0  0  # atno 11005 bound_to 11000
  146.3086  139.7668  142.9037 LP  0  0  0  0  0  0  0  0  0  0  0  0  # atno 17320 bound_to 7965
  145.3684  141.0338  143.3245 LP  0  0  0  0  0  0  0  0  0  0  0  0  # atno 17321 bound_to 7965
  139.4805  144.5017  151.9051 LP  0  0  0  0  0  0  0  0  0  0  0  0  # atno 17342 bound_to 10162
  140.4103  144.2378  150.5889 LP  0  0  0  0  0  0  0  0  0  0  0  0  # atno 17343 bound_to 10162
  156.4222  130.7774  151.2792 LP  0  0  0  0  0  0  0  0  0  0  0  0  # atno 17370 bound_to 10713
  157.7507  131.0179  150.3605 LP  0  0  0  0  0  0  0  0  0  0  0  0  # atno 17371 bound_to 10713
  140.8216  133.8349  155.8901 LP  0  0  0  0  0  0  0  0  0  0  0  0  # atno 17394 bound_to 11000
  140.9413  134.1897  157.4795 LP  0  0  0  0  0  0  0  0  0  0  0  0  # atno 17395 bound_to 11000

$$$$
