AV-unprocessed.smi:1254|AV-procd|sdf|5270|dock2
  -GOLD-   22720 4383D 1   1.00000     0.00000
 Structure written by MMmdl.
 46 47  0  0  0  0  0  0  0  0  2 V2000
  144.7829  131.7287  151.0497 C   0  0  0  0  0  0  0  0  0  0  0  0
  145.0015  133.1368  151.4855 C   0  0  0  0  0  0  0  0  0  0  0  0
  146.0752  133.9790  151.4092 C   0  0  0  0  0  0  0  0  0  0  0  0
  145.5939  135.1672  152.0204 C   0  0  0  0  0  0  0  0  0  0  0  0
  146.4257  136.3090  152.1484 N   0  0  0  0  0  0  0  0  0  0  0  0
  146.0572  137.5543  152.4937 C   0  0  0  0  0  0  0  0  0  0  0  0
  144.9032  137.9134  152.7289 O   0  0  0  0  0  0  0  0  0  0  0  0
  147.1149  138.3759  152.5597 N   0  0  0  0  0  0  0  0  0  0  0  0
  147.0595  139.7861  152.9328 C   0  0  0  0  0  0  0  0  0  0  0  0
  147.8573  140.0676  154.2188 C   0  0  1  0  0  0  0  0  0  0  0  0
  148.4388  141.4972  154.2302 C   0  0  0  0  0  0  0  0  0  0  0  0
  149.1553  141.7805  155.4984 N   0  3  2  0  0  0  0  0  0  0  0  0
  150.5065  141.1610  155.5722 C   0  0  0  0  0  0  0  0  0  0  0  0
  151.2502  141.4956  156.8831 C   0  0  0  0  0  0  0  0  0  0  0  0
  150.7864  140.6061  158.0488 C   0  0  0  0  0  0  0  0  0  0  0  0
  151.0748  142.9791  157.2403 C   0  0  0  0  0  0  0  0  0  0  0  0
  148.2779  141.4998  156.6637 C   0  0  0  0  0  0  0  0  0  0  0  0
  147.6611  140.0908  156.5803 C   0  0  0  0  0  0  0  0  0  0  0  0
  146.9872  139.9361  155.3386 O   0  0  0  0  0  0  0  0  0  0  0  0
  144.3392  135.0610  152.4304 N   0  0  0  0  0  0  0  0  0  0  0  0
  143.9531  133.7594  152.0894 O   0  0  0  0  0  0  0  0  0  0  0  0
  145.6712  131.3301  150.5590 H   0  0  0  0  0  0  0  0  0  0  0  0
  143.9513  131.6656  150.3478 H   0  0  0  0  0  0  0  0  0  0  0  0
  144.5542  131.0914  151.9040 H   0  0  0  0  0  0  0  0  0  0  0  0
  147.0475  133.7736  150.9865 H   0  0  0  0  0  0  0  0  0  0  0  0
  147.4083  136.1559  151.9772 H   0  0  0  0  0  0  0  0  0  0  0  0
  148.0259  137.9974  152.3447 H   0  0  0  0  0  0  0  0  0  0  0  0
  147.4846  140.3561  152.1065 H   0  0  0  0  0  0  0  0  0  0  0  0
  146.0259  140.1215  153.0370 H   0  0  0  0  0  0  0  0  0  0  0  0
  148.6658  139.3382  154.2954 H   0  0  0  0  0  0  0  0  0  0  0  0
  149.0986  141.6580  153.3768 H   0  0  0  0  0  0  0  0  0  0  0  0
  147.6282  142.2201  154.1278 H   0  0  0  0  0  0  0  0  0  0  0  0
  150.4276  140.0813  155.4449 H   0  0  0  0  0  0  0  0  0  0  0  0
  151.1150  141.5156  154.7389 H   0  0  0  0  0  0  0  0  0  0  0  0
  152.3180  141.3312  156.7414 H   0  0  0  0  0  0  0  0  0  0  0  0
  149.7222  140.7359  158.2484 H   0  0  0  0  0  0  0  0  0  0  0  0
  151.3271  140.8480  158.9644 H   0  0  0  0  0  0  0  0  0  0  0  0
  150.9601  139.5501  157.8412 H   0  0  0  0  0  0  0  0  0  0  0  0
  150.0257  143.2281  157.4040 H   0  0  0  0  0  0  0  0  0  0  0  0
  151.4491  143.6231  156.4438 H   0  0  0  0  0  0  0  0  0  0  0  0
  151.6220  143.2321  158.1491 H   0  0  0  0  0  0  0  0  0  0  0  0
  148.8115  141.6290  157.6043 H   0  0  0  0  0  0  0  0  0  0  0  0
  147.4755  142.2385  156.6675 H   0  0  0  0  0  0  0  0  0  0  0  0
  148.4164  139.3133  156.6984 H   0  0  0  0  0  0  0  0  0  0  0  0
  146.9411  139.9518  157.3868 H   0  0  0  0  0  0  0  0  0  0  0  0
  149.3267  142.7761  155.4994 H   0  0  0  0  0  0  0  0  0  0  0  0
  1  2  1  0  0  0  0
  1 22  1  0  0  0  0
  1 23  1  0  0  0  0
  1 24  1  0  0  0  0
  2 21  1  0  0  0  0
  2  3  2  0  0  0  0
  3  4  1  0  0  0  0
  3 25  1  0  0  0  0
  4  5  1  0  0  0  0
  4 20  2  0  0  0  0
  5  6  1  0  0  0  0
  5 26  1  0  0  0  0
  6  7  2  0  0  0  0
  6  8  1  0  0  0  0
  8  9  1  0  0  0  0
  8 27  1  0  0  0  0
  9 10  1  0  0  0  0
  9 28  1  0  0  0  0
  9 29  1  0  0  0  0
 10 19  1  0  0  0  0
 10 11  1  0  0  0  0
 10 30  1  0  0  0  0
 11 12  1  0  0  0  0
 11 31  1  0  0  0  0
 11 32  1  0  0  0  0
 12 13  1  0  0  0  0
 12 17  1  0  0  0  0
 12 46  1  0  0  0  0
 13 14  1  0  0  0  0
 13 33  1  0  0  0  0
 13 34  1  0  0  0  0
 14 15  1  0  0  0  0
 14 16  1  0  0  0  0
 14 35  1  0  0  0  0
 15 36  1  0  0  0  0
 15 37  1  0  0  0  0
 15 38  1  0  0  0  0
 16 39  1  0  0  0  0
 16 40  1  0  0  0  0
 16 41  1  0  0  0  0
 17 18  1  0  0  0  0
 17 42  1  0  0  0  0
 17 43  1  0  0  0  0
 18 19  1  0  0  0  0
 18 44  1  0  0  0  0
 18 45  1  0  0  0  0
 20 21  1  0  0  0  0
M  CHG  1  12   1
M  END
> <s_m_source_file>
AV-unprocessed.smi

> <i_m_source_file_index>
1254

> <i_lp_mmshare_version>
43012

> <i_f3d_flags>
0

> <s_epik_input>
W0NIM11jMVtjSF1jKG5vMSlbTkhdQyg9TylbTkhdW0NIMl1bQ0BASF0yW0NIMl1OKFtDSDJdW0NIMl1PMilbQ0gyXVtDSF0oW0NIM10pW0NIM10=

> <s_epik_cmdline>
J2VwaWtfcHl0aG9uJywgJy1waCcsICc3LjAnLCAnLXRuJywgJzgnLCAnLW1hJywgJzIwMCcsICctbWV0YWxfYmluZGluZycsICctaW1hZScsICc8aW5maWxlLm1hZT4nLCAnLW9tYWUnLCAnPG91dGZpbGUubWFlPic=

> <r_epik_Ionization_Penalty>
0.0986825

> <r_epik_Ionization_Penalty_Charging>
0.0986478

> <r_epik_Ionization_Penalty_Neutral>
3.46838e-05

> <r_epik_State_Penalty>
0.0887259

> <r_epik_Charging_Adjusted_Penalty>
0.187374

> <i_epik_Tot_Q>
1

> <i_epik_Tot_abs_Q>
1

> <r_epik_Metal_State_Penalty>
0.103424

> <b_epik_Metal_Only>
0

> <s_lp_Force_Field>
OPLS_2005

> <r_lp_Energy>
18.2179

> <b_lp_Chiralities_Consistent>
1

> <s_lp_Variant>
AV-unprocessed.smi:1254-2

> <Gold.Version>
5.8.1

> <Gold.Id.Protein>
6NUR|6NUR_protein|mol2

> <Gold.PLP.Fitness>
41.1762

> <Gold.PLP.PLP>
-30.8572

> <Gold.PLP.part.hbond>
-3.2515

> <Gold.PLP.part.metal>
0.0000

> <Gold.PLP.part.buried>
-5.2451

> <Gold.PLP.part.nonpolar>
-25.6795

> <Gold.PLP.part.repulsive>
3.3199

> <Gold.PLP.ligand.clash>
0.0000

> <Gold.PLP.ligand.torsion>
0.6019

> <Gold.PLP.Chemscore.Hbond>
3.7754

> <Gold.PLP.Chemscore.CHOScore>
0.0000

> <Gold.PLP.Chemscore.Metal>
0.0000

> <Gold.Chemscore.Hbonds>
donor molecule, donor type, donor heavy atom, donor atom, acceptor molecule, acceptor atom, score
      L1  H     5    26       P1  7948  0.99
      L1  H     8    27       P1  7948  0.85
      L1  H    12    46       P1  8028  2.00

> <Gold.PLP.Chemscore.Internal.Correction>
0.1966

> <Gold.Rescore>
     Score         DG    S(hbond)    S(metal)    S(lipo)     H(rot)  DE(clash)    DE(int)     intcor
     15.27     -18.67       2.78        0.00      71.09       1.73       1.54       1.86       ----

> <Gold.Chemscore.Fitness>
15.2688

> <Gold.Chemscore.DG>
-18.6676

> <Gold.Chemscore.ZeroCoef>
-5.4800

> <Gold.Chemscore.Hbond>
2.7834

> <Gold.Chemscore.Metal>
0.0000

> <Gold.Chemscore.Lipo>
71.0919

> <Gold.Chemscore.Internal_Hbond>
0.0000

> <Gold.Chemscore.DEClash>
1.5358

> <Gold.Chemscore.DEInternal>
1.8631

> <Gold.Chemscore.Rot>
1.7291

> <Gold.Chemscore.Internal.Correction>
   9.000000E+99

> <Gold.Chemscore.Hbonds>
donor molecule, donor type, donor heavy atom, donor atom, acceptor molecule, acceptor atom, score
      L1  H     5    26       P1  7948  0.92
      L1  H     8    27       P1  7948  0.78
      L1  H    12    46       P1  8028  0.96

> <Gold.Chemscore.Hbond.Weighted>
-9.2964

> <Gold.Chemscore.Metal.Weighted>
-0.0000

> <Gold.Chemscore.Lipo.Weighted>
-8.3178

> <Gold.Chemscore.Internal_Hbond.Weighted>
0.0000

> <Gold.Chemscore.DEClash.Weighted>
1.5358

> <Gold.Chemscore.DEInternal.Weighted>
1.8631

> <Gold.Chemscore.Rot.Weighted>
4.4265

> <Gold.Chemscore.Internal.Correction.Weighted>
   9.000000E+99

> <Gold.Protein.RotatedTorsions>
[ 6907 6896 6895 6894 ] final -125.28 input  -60.11 | X-H torsion
[ 7974 7965 7964 7962 ] final  169.08 input  175.53 | X-H torsion
[ 8008 7997 7996 7995 ] final -172.97 input   59.86 | X-H torsion
[ 10167 10162 10161 10158 ] final  -42.08 input  -65.29 | X-H torsion
[ 10718 10713 10712 10709 ] final -141.55 input   66.30 | X-H torsion
[ 10763 10752 10751 10750 ] final  169.66 input  -60.55 | X-H torsion
[ 11005 11000 10999 10996 ] final   83.67 input  -57.11 | X-H torsion

> <Gold.Protein.ActiveResidues>
 VAL166  LYS551  ARG553  GLY616  TRP617  ASP618  TYR619  PRO620  LYS621  CYS622 
 ASP623  PHE694  ASN695  SER759  ASP760  ASP761  ALA762  ILE779  LEU786  VAL792 
 PHE793  MET794  SER795  GLU796  ALA797  LYS798  CYS799  TRP800  GLU811  SER814 

> <Gold.Protein.RotatedAtoms>
  150.8852  133.7318  159.2920 H   0  0  0  0  0  0  0  0  0  0  0  0  # atno 6907 bound_to 6896
  151.4886  135.1055  159.9807 H   0  0  0  0  0  0  0  0  0  0  0  0  # atno 6908 bound_to 6896
  152.4785  133.8150  159.7079 H   0  0  0  0  0  0  0  0  0  0  0  0  # atno 6909 bound_to 6896
  144.7367  139.9002  143.6409 H   0  0  0  0  0  0  0  0  0  0  0  0  # atno 7974 bound_to 7965
  155.9514  140.1127  157.0973 H   0  0  0  0  0  0  0  0  0  0  0  0  # atno 8008 bound_to 7997
  154.4110  140.1200  156.5124 H   0  0  0  0  0  0  0  0  0  0  0  0  # atno 8009 bound_to 7997
  155.6837  140.3473  155.4868 H   0  0  0  0  0  0  0  0  0  0  0  0  # atno 8010 bound_to 7997
  140.6981  143.3058  151.3158 H   0  0  0  0  0  0  0  0  0  0  0  0  # atno 10167 bound_to 10162
  156.3353  130.7608  151.1734 H   0  0  0  0  0  0  0  0  0  0  0  0  # atno 10718 bound_to 10713
  154.3864  135.2753  155.2181 H   0  0  0  0  0  0  0  0  0  0  0  0  # atno 10763 bound_to 10752
  154.4266  135.5987  153.6046 H   0  0  0  0  0  0  0  0  0  0  0  0  # atno 10764 bound_to 10752
  152.9833  135.5985  154.4113 H   0  0  0  0  0  0  0  0  0  0  0  0  # atno 10765 bound_to 10752
  139.9024  134.8161  156.2341 H   0  0  0  0  0  0  0  0  0  0  0  0  # atno 11005 bound_to 11000
  146.1077  139.4078  143.0307 LP  0  0  0  0  0  0  0  0  0  0  0  0  # atno 17320 bound_to 7965
  145.7488  140.9980  143.1261 LP  0  0  0  0  0  0  0  0  0  0  0  0  # atno 17321 bound_to 7965
  139.6463  144.0446  152.2593 LP  0  0  0  0  0  0  0  0  0  0  0  0  # atno 17342 bound_to 10162
  139.9967  144.6322  150.7765 LP  0  0  0  0  0  0  0  0  0  0  0  0  # atno 17343 bound_to 10162
  157.7437  131.0470  150.4920 LP  0  0  0  0  0  0  0  0  0  0  0  0  # atno 17370 bound_to 10713
  156.5092  130.4135  149.6310 LP  0  0  0  0  0  0  0  0  0  0  0  0  # atno 17371 bound_to 10713
  141.0327  133.6980  156.1458 LP  0  0  0  0  0  0  0  0  0  0  0  0  # atno 17394 bound_to 11000
  140.7073  134.4499  157.5583 LP  0  0  0  0  0  0  0  0  0  0  0  0  # atno 17395 bound_to 11000

$$$$
