AV-unprocessed.smi:1978|AV-procd|sdf|8002|dock2
  -GOLD-   2272010183D 1   1.00000     0.00000
 Structure written by MMmdl.
 44 45  0  0  0  0  0  0  0  0  3 V2000
  146.9130  134.2053  162.6617 C   0  0  0  0  0  0  0  0  0  0  0  0
  147.4181  135.2843  161.7662 C   0  0  0  0  0  0  0  0  0  0  0  0
  147.8779  135.2825  160.4799 C   0  0  0  0  0  0  0  0  0  0  0  0
  148.2007  136.6477  160.2486 C   0  0  0  0  0  0  0  0  0  0  0  0
  148.6874  137.1612  159.1082 N   0  5  0  0  0  0  0  0  0  0  0  0
  149.4822  136.4130  158.3104 C   0  0  0  0  0  0  0  0  0  0  0  0
  149.6744  135.1981  158.3995 O   0  0  0  0  0  0  0  0  0  0  0  0
  150.0990  137.1171  157.3506 N   0  0  0  0  0  0  0  0  0  0  0  0
  151.0294  136.5746  156.3666 C   0  0  0  0  0  0  0  0  0  0  0  0
  150.5834  136.8725  154.9124 C   0  0  2  0  0  0  0  0  0  0  0  0
  150.8225  138.3427  154.5107 C   0  0  0  0  0  0  0  0  0  0  0  0
  149.1740  136.4470  154.6339 N   0  3  2  0  0  0  0  0  0  0  0  0
  148.1487  137.4493  155.0482 C   0  0  0  0  0  0  0  0  0  0  0  0
  146.7609  137.0933  154.4957 C   0  0  0  0  0  0  0  0  0  0  0  0
  146.3404  135.6950  154.9540 C   0  0  0  0  0  0  0  0  0  0  0  0
  147.4134  134.6774  154.5538 C   0  0  0  0  0  0  0  0  0  0  0  0
  148.8061  135.0664  155.0961 C   0  0  1  0  0  0  0  0  0  0  0  0
  149.8247  133.9821  154.6895 C   0  0  0  0  0  0  0  0  0  0  0  0
  147.9430  137.4128  161.2959 N   0  0  0  0  0  0  0  0  0  0  0  0
  147.4465  136.5450  162.2758 O   0  0  0  0  0  0  0  0  0  0  0  0
  145.9013  133.9136  162.3801 H   0  0  0  0  0  0  0  0  0  0  0  0
  146.8940  134.5338  163.7010 H   0  0  0  0  0  0  0  0  0  0  0  0
  147.5498  133.3228  162.5991 H   0  0  0  0  0  0  0  0  0  0  0  0
  147.9720  134.4398  159.8115 H   0  0  0  0  0  0  0  0  0  0  0  0
  149.9129  138.1086  157.3104 H   0  0  0  0  0  0  0  0  0  0  0  0
  152.0257  136.9708  156.5660 H   0  0  0  0  0  0  0  0  0  0  0  0
  151.0859  135.4998  156.5373 H   0  0  0  0  0  0  0  0  0  0  0  0
  151.2303  136.3158  154.2379 H   0  0  0  0  0  0  0  0  0  0  0  0
  151.8888  138.5686  154.4756 H   0  0  0  0  0  0  0  0  0  0  0  0
  150.3747  139.0430  155.2152 H   0  0  0  0  0  0  0  0  0  0  0  0
  150.4188  138.5521  153.5199 H   0  0  0  0  0  0  0  0  0  0  0  0
  148.1036  137.5075  156.1364 H   0  0  0  0  0  0  0  0  0  0  0  0
  148.4062  138.4445  154.6907 H   0  0  0  0  0  0  0  0  0  0  0  0
  146.0275  137.8293  154.8267 H   0  0  0  0  0  0  0  0  0  0  0  0
  146.7753  137.1375  153.4058 H   0  0  0  0  0  0  0  0  0  0  0  0
  146.2039  135.6838  156.0361 H   0  0  0  0  0  0  0  0  0  0  0  0
  145.3802  135.4254  154.5131 H   0  0  0  0  0  0  0  0  0  0  0  0
  147.1280  133.6920  154.9242 H   0  0  0  0  0  0  0  0  0  0  0  0
  147.4504  134.5972  153.4663 H   0  0  0  0  0  0  0  0  0  0  0  0
  148.7469  135.0745  156.1852 H   0  0  0  0  0  0  0  0  0  0  0  0
  149.4464  132.9859  154.9209 H   0  0  0  0  0  0  0  0  0  0  0  0
  150.7664  134.0804  155.2291 H   0  0  0  0  0  0  0  0  0  0  0  0
  150.0364  134.0127  153.6202 H   0  0  0  0  0  0  0  0  0  0  0  0
  149.1193  136.4059  153.6264 H   0  0  0  0  0  0  0  0  0  0  0  0
  1  2  1  0  0  0  0
  1 21  1  0  0  0  0
  1 22  1  0  0  0  0
  1 23  1  0  0  0  0
  2 20  1  0  0  0  0
  2  3  2  0  0  0  0
  3  4  1  0  0  0  0
  3 24  1  0  0  0  0
  4  5  1  0  0  0  0
  4 19  2  0  0  0  0
  5  6  1  0  0  0  0
  6  7  2  0  0  0  0
  6  8  1  0  0  0  0
  8  9  1  0  0  0  0
  8 25  1  0  0  0  0
  9 10  1  0  0  0  0
  9 26  1  0  0  0  0
  9 27  1  0  0  0  0
 10 11  1  0  0  0  0
 10 12  1  0  0  0  0
 10 28  1  0  0  0  0
 11 29  1  0  0  0  0
 11 30  1  0  0  0  0
 11 31  1  0  0  0  0
 12 17  1  0  0  0  0
 12 13  1  0  0  0  0
 12 44  1  0  0  0  0
 13 14  1  0  0  0  0
 13 32  1  0  0  0  0
 13 33  1  0  0  0  0
 14 15  1  0  0  0  0
 14 34  1  0  0  0  0
 14 35  1  0  0  0  0
 15 16  1  0  0  0  0
 15 36  1  0  0  0  0
 15 37  1  0  0  0  0
 16 17  1  0  0  0  0
 16 38  1  0  0  0  0
 16 39  1  0  0  0  0
 17 18  1  0  0  0  0
 17 40  1  0  0  0  0
 18 41  1  0  0  0  0
 18 42  1  0  0  0  0
 18 43  1  0  0  0  0
 19 20  1  0  0  0  0
M  CHG  1   5  -1
M  CHG  1  12   1
M  END
> <s_m_source_file>
AV-unprocessed.smi

> <i_m_source_file_index>
1978

> <i_lp_mmshare_version>
43012

> <i_f3d_flags>
0

> <s_epik_input>
W0NIM11jMVtjSF1jKG5vMSlbTkhdQyg9TylbTkhdW0NIMl1bQ0BIXShbQ0gzXSlOMltDSDJdW0NIMl1bQ0gyXVtDSDJdW0NASF0yW0NIM10=

> <s_epik_cmdline>
J2VwaWtfcHl0aG9uJywgJy1waCcsICc3LjAnLCAnLXRuJywgJzgnLCAnLW1hJywgJzIwMCcsICctbWV0YWxfYmluZGluZycsICctaW1hZScsICc8aW5maWxlLm1hZT4nLCAnLW9tYWUnLCAnPG91dGZpbGUubWFlPic=

> <r_epik_Ionization_Penalty>
6.22372

> <r_epik_Ionization_Penalty_Charging>
6.22362

> <r_epik_Ionization_Penalty_Neutral>
9.65074e-05

> <r_epik_State_Penalty>
6.22363

> <r_epik_Charging_Adjusted_Penalty>
12.4472

> <i_epik_Tot_Q>
0

> <i_epik_Tot_abs_Q>
2

> <r_epik_Metal_State_Penalty>
2.16675

> <b_epik_Metal_Only>
1

> <s_lp_Force_Field>
OPLS_2005

> <r_lp_Energy>
9.77909

> <b_lp_Chiralities_Consistent>
1

> <s_lp_Variant>
AV-unprocessed.smi:1978-11

> <Gold.Version>
5.8.1

> <Gold.Id.Protein>
6NUR|6NUR_protein|mol2

> <Gold.PLP.Fitness>
41.3730

> <Gold.PLP.PLP>
-27.8897

> <Gold.PLP.part.hbond>
-4.0000

> <Gold.PLP.part.metal>
0.0000

> <Gold.PLP.part.buried>
-4.3049

> <Gold.PLP.part.nonpolar>
-19.8123

> <Gold.PLP.part.repulsive>
0.0479

> <Gold.PLP.ligand.clash>
0.0000

> <Gold.PLP.ligand.torsion>
0.5359

> <Gold.PLP.Chemscore.Hbond>
4.7760

> <Gold.PLP.Chemscore.CHOScore>
0.0000

> <Gold.PLP.Chemscore.Metal>
0.0000

> <Gold.Chemscore.Hbonds>
donor molecule, donor type, donor heavy atom, donor atom, acceptor molecule, acceptor atom, score
      L1  H    12    44       P1  7948  2.00
      P1  H  6896  6909       L1     7  1.00
      P1  H  6931  6943       L1    19  0.86
      P1  H  6934  6947       L1    19  0.66

> <Gold.PLP.Chemscore.Internal.Correction>
0.2271

> <Gold.Rescore>
     Score         DG    S(hbond)    S(metal)    S(lipo)     H(rot)  DE(clash)    DE(int)     intcor
     17.86     -19.96       3.52        0.00      56.53       1.52       0.00       2.09       ----

> <Gold.Chemscore.Fitness>
17.8634

> <Gold.Chemscore.DG>
-19.9566

> <Gold.Chemscore.ZeroCoef>
-5.4800

> <Gold.Chemscore.Hbond>
3.5182

> <Gold.Chemscore.Metal>
0.0000

> <Gold.Chemscore.Lipo>
56.5325

> <Gold.Chemscore.Internal_Hbond>
0.0000

> <Gold.Chemscore.DEClash>
0.0009

> <Gold.Chemscore.DEInternal>
2.0923

> <Gold.Chemscore.Rot>
1.5190

> <Gold.Chemscore.Internal.Correction>
   9.000000E+99

> <Gold.Chemscore.Hbonds>
donor molecule, donor type, donor heavy atom, donor atom, acceptor molecule, acceptor atom, score
      L1  H    12    44       P1  7948  0.98
      P1  H  6896  6909       L1     7  0.99
      P1  H  6931  6943       L1    19  0.54
      P1  H  6934  6947       L1    19  0.61

> <Gold.Chemscore.Hbond.Weighted>
-11.7509

> <Gold.Chemscore.Metal.Weighted>
-0.0000

> <Gold.Chemscore.Lipo.Weighted>
-6.6143

> <Gold.Chemscore.Internal_Hbond.Weighted>
0.0000

> <Gold.Chemscore.DEClash.Weighted>
0.0009

> <Gold.Chemscore.DEInternal.Weighted>
2.0923

> <Gold.Chemscore.Rot.Weighted>
3.8886

> <Gold.Chemscore.Internal.Correction.Weighted>
   9.000000E+99

> <Gold.Protein.RotatedTorsions>
[ 6907 6896 6895 6894 ] final   41.81 input  -60.11 | X-H torsion
[ 7974 7965 7964 7962 ] final  137.96 input  175.53 | X-H torsion
[ 8008 7997 7996 7995 ] final -179.11 input   59.86 | X-H torsion
[ 10167 10162 10161 10158 ] final -166.16 input  -65.29 | X-H torsion
[ 10718 10713 10712 10709 ] final   11.11 input   66.30 | X-H torsion
[ 10763 10752 10751 10750 ] final   14.99 input  -60.55 | X-H torsion
[ 11005 11000 10999 10996 ] final  -41.39 input  -57.11 | X-H torsion

> <Gold.Protein.ActiveResidues>
 VAL166  LYS551  ARG553  GLY616  TRP617  ASP618  TYR619  PRO620  LYS621  CYS622 
 ASP623  PHE694  ASN695  SER759  ASP760  ASP761  ALA762  ILE779  LEU786  VAL792 
 PHE793  MET794  SER795  GLU796  ALA797  LYS798  CYS799  TRP800  GLU811  SER814 

> <Gold.Protein.RotatedAtoms>
  152.1999  134.8597  160.0508 H   0  0  0  0  0  0  0  0  0  0  0  0  # atno 6907 bound_to 6896
  151.9454  133.3645  159.3988 H   0  0  0  0  0  0  0  0  0  0  0  0  # atno 6908 bound_to 6896
  150.6952  134.4320  159.5296 H   0  0  0  0  0  0  0  0  0  0  0  0  # atno 6909 bound_to 6896
  144.9418  139.4922  143.5568 H   0  0  0  0  0  0  0  0  0  0  0  0  # atno 7974 bound_to 7965
  156.0267  140.1273  157.0301 H   0  0  0  0  0  0  0  0  0  0  0  0  # atno 8008 bound_to 7997
  154.4333  140.1058  156.6110 H   0  0  0  0  0  0  0  0  0  0  0  0  # atno 8009 bound_to 7997
  155.5867  140.3469  155.4557 H   0  0  0  0  0  0  0  0  0  0  0  0  # atno 8010 bound_to 7997
  139.6134  144.0769  152.1864 H   0  0  0  0  0  0  0  0  0  0  0  0  # atno 10167 bound_to 10162
  156.9908  130.6042  149.5686 H   0  0  0  0  0  0  0  0  0  0  0  0  # atno 10718 bound_to 10713
  153.1568  135.6788  153.8800 H   0  0  0  0  0  0  0  0  0  0  0  0  # atno 10763 bound_to 10752
  153.8209  135.3130  155.3411 H   0  0  0  0  0  0  0  0  0  0  0  0  # atno 10764 bound_to 10752
  154.7903  135.4838  154.0126 H   0  0  0  0  0  0  0  0  0  0  0  0  # atno 10765 bound_to 10752
  141.0242  133.6849  156.2451 H   0  0  0  0  0  0  0  0  0  0  0  0  # atno 11005 bound_to 11000
  146.3288  139.8442  142.8885 LP  0  0  0  0  0  0  0  0  0  0  0  0  # atno 17320 bound_to 7965
  145.2979  141.0186  143.3625 LP  0  0  0  0  0  0  0  0  0  0  0  0  # atno 17321 bound_to 7965
  140.0394  144.6019  150.7424 LP  0  0  0  0  0  0  0  0  0  0  0  0  # atno 17342 bound_to 10162
  140.7334  143.2717  151.3868 LP  0  0  0  0  0  0  0  0  0  0  0  0  # atno 17343 bound_to 10162
  156.0208  130.5303  150.8269 LP  0  0  0  0  0  0  0  0  0  0  0  0  # atno 17370 bound_to 10713
  157.5460  131.0942  150.9762 LP  0  0  0  0  0  0  0  0  0  0  0  0  # atno 17371 bound_to 10713
  140.6520  134.5058  157.5578 LP  0  0  0  0  0  0  0  0  0  0  0  0  # atno 17394 bound_to 11000
  139.9165  134.8235  156.1348 LP  0  0  0  0  0  0  0  0  0  0  0  0  # atno 17395 bound_to 11000

$$$$
