AV-unprocessed.smi:2253|AV-procd|sdf|9117|dock8
  -GOLD-   2272012323D 1   1.00000     0.00000
 Structure written by MMmdl.
 52 54  0  0  0  0  0  0  0  0  3 V2000
  146.5399  129.6480  151.8597 C   0  0  0  0  0  0  0  0  0  0  0  0
  145.9172  130.9630  151.5936 N   0  3  2  0  0  0  0  0  0  0  0  0
  145.8792  131.8253  152.7967 C   0  0  0  0  0  0  0  0  0  0  0  0
  145.3436  133.2275  152.4597 C   0  0  0  0  0  0  0  0  0  0  0  0
  143.9401  133.1869  151.8016 C   0  0  1  0  0  0  0  0  0  0  0  0
  143.4471  134.5457  151.3869 N   0  3  2  0  0  0  0  0  0  0  0  0
  144.2385  135.2333  150.3256 C   0  0  0  0  0  0  0  0  0  0  0  0
  145.5974  135.7276  150.8564 C   0  0  0  0  0  0  0  0  0  0  0  0
  145.3998  136.6899  152.0403 C   0  0  2  0  0  0  0  0  0  0  0  0
  146.6958  137.0825  152.5870 N   0  0  0  0  0  0  0  0  0  0  0  0
  146.9179  138.1797  153.3263 C   0  0  0  0  0  0  0  0  0  0  0  0
  146.0261  138.9629  153.6500 O   0  0  0  0  0  0  0  0  0  0  0  0
  148.2181  138.2896  153.6508 N   0  0  0  0  0  0  0  0  0  0  0  0
  148.8906  139.3013  154.3939 C   0  0  0  0  0  0  0  0  0  0  0  0
  148.2880  140.4889  154.8782 C   0  0  0  0  0  0  0  0  0  0  0  0
  149.0823  141.4052  155.5969 C   0  0  0  0  0  0  0  0  0  0  0  0
  150.3938  141.2151  155.8517 N   0  0  0  0  0  0  0  0  0  0  0  0
  150.9655  140.0840  155.3884 C   0  0  0  0  0  0  0  0  0  0  0  0
  150.2626  139.1038  154.6596 C   0  0  0  0  0  0  0  0  0  0  0  0
  150.9005  137.9909  154.2223 F   0  0  0  0  0  0  0  0  0  0  0  0
  144.5155  136.0319  153.1182 C   0  0  0  0  0  0  0  0  0  0  0  0
  143.2028  135.4957  152.5118 C   0  0  0  0  0  0  0  0  0  0  0  0
  144.0128  132.2181  150.5943 C   0  0  0  0  0  0  0  0  0  0  0  0
  144.5768  130.8393  150.9766 C   0  0  0  0  0  0  0  0  0  0  0  0
  145.9589  129.0780  152.5859 H   0  0  0  0  0  0  0  0  0  0  0  0
  147.5501  129.7722  152.2513 H   0  0  0  0  0  0  0  0  0  0  0  0
  146.6101  129.0625  150.9424 H   0  0  0  0  0  0  0  0  0  0  0  0
  145.2567  131.3590  153.5623 H   0  0  0  0  0  0  0  0  0  0  0  0
  146.8831  131.9112  153.2145 H   0  0  0  0  0  0  0  0  0  0  0  0
  145.3189  133.7890  153.3931 H   0  0  0  0  0  0  0  0  0  0  0  0
  146.0486  133.7376  151.8017 H   0  0  0  0  0  0  0  0  0  0  0  0
  143.2479  132.7723  152.5345 H   0  0  0  0  0  0  0  0  0  0  0  0
  144.3608  134.6181  149.4362 H   0  0  0  0  0  0  0  0  0  0  0  0
  143.6627  136.0936  149.9811 H   0  0  0  0  0  0  0  0  0  0  0  0
  146.2134  134.8785  151.1552 H   0  0  0  0  0  0  0  0  0  0  0  0
  146.1406  136.2331  150.0569 H   0  0  0  0  0  0  0  0  0  0  0  0
  144.8917  137.5813  151.6664 H   0  0  0  0  0  0  0  0  0  0  0  0
  147.4844  136.4913  152.3673 H   0  0  0  0  0  0  0  0  0  0  0  0
  148.8169  137.5501  153.3137 H   0  0  0  0  0  0  0  0  0  0  0  0
  147.2485  140.7250  154.7194 H   0  0  0  0  0  0  0  0  0  0  0  0
  148.6501  142.3190  155.9772 H   0  0  0  0  0  0  0  0  0  0  0  0
  152.0160  139.9567  155.6043 H   0  0  0  0  0  0  0  0  0  0  0  0
  145.0589  135.2253  153.6109 H   0  0  0  0  0  0  0  0  0  0  0  0
  144.2812  136.7559  153.8994 H   0  0  0  0  0  0  0  0  0  0  0  0
  142.6278  136.3371  152.1222 H   0  0  0  0  0  0  0  0  0  0  0  0
  142.5729  135.0655  153.2868 H   0  0  0  0  0  0  0  0  0  0  0  0
  143.0287  132.0512  150.1604 H   0  0  0  0  0  0  0  0  0  0  0  0
  144.6283  132.6558  149.8068 H   0  0  0  0  0  0  0  0  0  0  0  0
  144.6431  130.2146  150.0847 H   0  0  0  0  0  0  0  0  0  0  0  0
  143.8998  130.3339  151.6676 H   0  0  0  0  0  0  0  0  0  0  0  0
  142.5420  134.3763  150.9713 H   0  0  0  0  0  0  0  0  0  0  0  0
  146.5091  131.4265  150.9186 H   0  0  0  0  0  0  0  0  0  0  0  0
  1  2  1  0  0  0  0
  1 25  1  0  0  0  0
  1 26  1  0  0  0  0
  1 27  1  0  0  0  0
  2 24  1  0  0  0  0
  2  3  1  0  0  0  0
  2 52  1  0  0  0  0
  3  4  1  0  0  0  0
  3 28  1  0  0  0  0
  3 29  1  0  0  0  0
  4  5  1  0  0  0  0
  4 30  1  0  0  0  0
  4 31  1  0  0  0  0
  5  6  1  0  0  0  0
  5 23  1  0  0  0  0
  5 32  1  0  0  0  0
  6 22  1  0  0  0  0
  6  7  1  0  0  0  0
  6 51  1  0  0  0  0
  7  8  1  0  0  0  0
  7 33  1  0  0  0  0
  7 34  1  0  0  0  0
  8  9  1  0  0  0  0
  8 35  1  0  0  0  0
  8 36  1  0  0  0  0
  9 10  1  0  0  0  0
  9 21  1  0  0  0  0
  9 37  1  0  0  0  0
 10 11  1  0  0  0  0
 10 38  1  0  0  0  0
 11 12  2  0  0  0  0
 11 13  1  0  0  0  0
 13 14  1  0  0  0  0
 13 39  1  0  0  0  0
 14 19  1  0  0  0  0
 14 15  2  0  0  0  0
 15 16  1  0  0  0  0
 15 40  1  0  0  0  0
 16 17  2  0  0  0  0
 16 41  1  0  0  0  0
 17 18  1  0  0  0  0
 18 19  2  0  0  0  0
 18 42  1  0  0  0  0
 19 20  1  0  0  0  0
 21 22  1  0  0  0  0
 21 43  1  0  0  0  0
 21 44  1  0  0  0  0
 22 45  1  0  0  0  0
 22 46  1  0  0  0  0
 23 24  1  0  0  0  0
 23 47  1  0  0  0  0
 23 48  1  0  0  0  0
 24 49  1  0  0  0  0
 24 50  1  0  0  0  0
M  CHG  1   2   1
M  CHG  1   6   1
M  END
> <s_m_source_file>
AV-unprocessed.smi

> <i_m_source_file_index>
2253

> <i_lp_mmshare_version>
43012

> <i_f3d_flags>
0

> <s_epik_input>
W0NIM11OMVtDSDJdW0NIMl1bQ0hdKFtDSDJdW0NIMl0xKU4yW0NIMl1bQ0gyXVtDSF0oW0NIMl1bQ0gyXTIpW05IXUMoPU8pW05IXWMzW2NIXVtjSF1uW2NIXWMzRg==

> <s_epik_cmdline>
J2VwaWtfcHl0aG9uJywgJy1waCcsICc3LjAnLCAnLXRuJywgJzgnLCAnLW1hJywgJzIwMCcsICctbWV0YWxfYmluZGluZycsICctaW1hZScsICc8aW5maWxlLm1hZT4nLCAnLW9tYWUnLCAnPG91dGZpbGUubWFlPic=

> <r_epik_Ionization_Penalty>
0.183544

> <r_epik_Ionization_Penalty_Charging>
0.180787

> <r_epik_Ionization_Penalty_Neutral>
0.00275649

> <r_epik_State_Penalty>
0.153592

> <r_epik_Charging_Adjusted_Penalty>
0.334379

> <i_epik_Tot_Q>
2

> <i_epik_Tot_abs_Q>
2

> <r_epik_Metal_State_Penalty>
0.153693

> <b_epik_Metal_Only>
0

> <s_lp_Force_Field>
OPLS_2005

> <r_lp_Energy>
48.1083

> <b_lp_Chiralities_Consistent>
1

> <s_lp_Variant>
AV-unprocessed.smi:2253-3

> <Gold.Version>
5.8.1

> <Gold.Id.Protein>
6NUR|6NUR_protein|mol2

> <Gold.PLP.Fitness>
52.8661

> <Gold.PLP.PLP>
-39.7883

> <Gold.PLP.part.hbond>
-2.9620

> <Gold.PLP.part.metal>
0.0000

> <Gold.PLP.part.buried>
-4.0168

> <Gold.PLP.part.nonpolar>
-35.2867

> <Gold.PLP.part.repulsive>
1.3335

> <Gold.PLP.ligand.clash>
0.7273

> <Gold.PLP.ligand.torsion>
0.3079

> <Gold.PLP.Chemscore.Hbond>
3.7910

> <Gold.PLP.Chemscore.CHOScore>
1.0000

> <Gold.PLP.Chemscore.Metal>
0.0000

> <Gold.Chemscore.Hbonds>
donor molecule, donor type, donor heavy atom, donor atom, acceptor molecule, acceptor atom, score
      L1  H     6    51       P1 10186  1.49
      L1  H    10    38       P1  7948  1.00
      L1  H    13    39       P1  7948  0.83
      L1  C    16    41       P1  8028  1.00

> <Gold.PLP.Chemscore.Internal.Correction>
0.0479

> <Gold.Rescore>
     Score         DG    S(hbond)    S(metal)    S(lipo)     H(rot)  DE(clash)    DE(int)     intcor
     16.60     -20.26       1.84        0.00     101.19       1.26       0.19       3.47       ----

> <Gold.Chemscore.Fitness>
16.6007

> <Gold.Chemscore.DG>
-20.2615

> <Gold.Chemscore.ZeroCoef>
-5.4800

> <Gold.Chemscore.Hbond>
1.8434

> <Gold.Chemscore.Metal>
0.0000

> <Gold.Chemscore.Lipo>
101.1937

> <Gold.Chemscore.Internal_Hbond>
0.0000

> <Gold.Chemscore.DEClash>
0.1882

> <Gold.Chemscore.DEInternal>
3.4725

> <Gold.Chemscore.Rot>
1.2559

> <Gold.Chemscore.Internal.Correction>
   9.000000E+99

> <Gold.Chemscore.Hbonds>
donor molecule, donor type, donor heavy atom, donor atom, acceptor molecule, acceptor atom, score
      L1  H     6    51       P1 10186  0.12
      L1  H    10    38       P1  7948  0.94
      L1  H    13    39       P1  7948  0.82

> <Gold.Chemscore.Hbond.Weighted>
-6.1570

> <Gold.Chemscore.Metal.Weighted>
-0.0000

> <Gold.Chemscore.Lipo.Weighted>
-11.8397

> <Gold.Chemscore.Internal_Hbond.Weighted>
0.0000

> <Gold.Chemscore.DEClash.Weighted>
0.1882

> <Gold.Chemscore.DEInternal.Weighted>
3.4725

> <Gold.Chemscore.Rot.Weighted>
3.2151

> <Gold.Chemscore.Internal.Correction.Weighted>
   9.000000E+99

> <Gold.Protein.RotatedTorsions>
[ 6907 6896 6895 6894 ] final  154.95 input  -60.11 | X-H torsion
[ 7974 7965 7964 7962 ] final   67.22 input  175.53 | X-H torsion
[ 8008 7997 7996 7995 ] final   67.63 input   59.86 | X-H torsion
[ 10167 10162 10161 10158 ] final   14.27 input  -65.29 | X-H torsion
[ 10718 10713 10712 10709 ] final -105.67 input   66.30 | X-H torsion
[ 10763 10752 10751 10750 ] final  -73.93 input  -60.55 | X-H torsion
[ 11005 11000 10999 10996 ] final   86.00 input  -57.11 | X-H torsion

> <Gold.Protein.ActiveResidues>
 VAL166  LYS551  ARG553  GLY616  TRP617  ASP618  TYR619  PRO620  LYS621  CYS622 
 ASP623  PHE694  ASN695  SER759  ASP760  ASP761  ALA762  ILE779  LEU786  VAL792 
 PHE793  MET794  SER795  GLU796  ALA797  LYS798  CYS799  TRP800  GLU811  SER814 

> <Gold.Protein.RotatedAtoms>
  152.0511  133.4019  159.4377 H   0  0  0  0  0  0  0  0  0  0  0  0  # atno 6907 bound_to 6896
  150.6870  134.3306  159.4835 H   0  0  0  0  0  0  0  0  0  0  0  0  # atno 6908 bound_to 6896
  152.1116  134.9269  160.0617 H   0  0  0  0  0  0  0  0  0  0  0  0  # atno 6909 bound_to 6896
  145.8172  139.3065  143.1064 H   0  0  0  0  0  0  0  0  0  0  0  0  # atno 7974 bound_to 7965
  155.6959  140.3495  155.4913 H   0  0  0  0  0  0  0  0  0  0  0  0  # atno 8008 bound_to 7997
  155.9483  140.1114  157.1020 H   0  0  0  0  0  0  0  0  0  0  0  0  # atno 8009 bound_to 7997
  154.4116  140.1199  156.5005 H   0  0  0  0  0  0  0  0  0  0  0  0  # atno 8010 bound_to 7997
  140.5947  143.8726  150.6906 H   0  0  0  0  0  0  0  0  0  0  0  0  # atno 10167 bound_to 10162
  156.0356  130.5575  150.7572 H   0  0  0  0  0  0  0  0  0  0  0  0  # atno 10718 bound_to 10713
  154.4662  135.5881  153.6289 H   0  0  0  0  0  0  0  0  0  0  0  0  # atno 10763 bound_to 10752
  152.9829  135.6056  154.3424 H   0  0  0  0  0  0  0  0  0  0  0  0  # atno 10764 bound_to 10752
  154.3301  135.2842  155.2455 H   0  0  0  0  0  0  0  0  0  0  0  0  # atno 10765 bound_to 10752
  139.8956  134.8325  156.2659 H   0  0  0  0  0  0  0  0  0  0  0  0  # atno 11005 bound_to 11000
  145.9713  140.8757  143.0161 LP  0  0  0  0  0  0  0  0  0  0  0  0  # atno 17320 bound_to 7965
  144.6751  140.1950  143.7393 LP  0  0  0  0  0  0  0  0  0  0  0  0  # atno 17321 bound_to 7965
  140.2257  143.3774  152.1607 LP  0  0  0  0  0  0  0  0  0  0  0  0  # atno 17342 bound_to 10162
  139.5250  144.7091  151.5263 LP  0  0  0  0  0  0  0  0  0  0  0  0  # atno 17343 bound_to 10162
  157.5101  131.0925  151.0208 LP  0  0  0  0  0  0  0  0  0  0  0  0  # atno 17370 bound_to 10713
  157.0566  130.5808  149.5379 LP  0  0  0  0  0  0  0  0  0  0  0  0  # atno 17371 bound_to 10713
  141.0132  133.7083  156.1146 LP  0  0  0  0  0  0  0  0  0  0  0  0  # atno 17394 bound_to 11000
  140.7338  134.4225  157.5563 LP  0  0  0  0  0  0  0  0  0  0  0  0  # atno 17395 bound_to 11000

$$$$
