#       Name:                AV-unprocessed.smi:158
#       Creating user name   scv26
#       Creation time:       Thu Mar 26 19:02:05 2020


#       File generated by GOLD software.
#

@<TRIPOS>MOLECULE
AV-unprocessed.smi:158
    40    42     1
SMALL
NO_CHARGES


@<TRIPOS>ATOM
      1 ****        -5.1449  -0.1873   1.2319 N.pl3          1 S1                 0.0000
      2 ****        -3.9203   0.1555   0.8090 C.ar           1 S1                 0.0000
      3 ****        -3.7671   1.3395   0.1718 N.ar           1 S1                 0.0000
      4 ****        -2.5609   1.7192  -0.2674 C.ar           1 S1                 0.0000
      5 ****        -2.4799   3.2451  -1.0655 Cl             1 S1                 0.0000
      6 ****        -1.4099   1.0481  -0.1569 N.ar           1 S1                 0.0000
      7 ****        -1.5599  -0.1467   0.4856 C.ar           1 S1                 0.0000
      8 ****        -2.7802  -0.6633   0.9969 C.ar           1 S1                 0.0000
      9 ****        -2.5617  -1.9017   1.5852 N.2            1 S1                 0.0000
     10 ****        -1.2807  -2.1024   1.4259 C.2            1 S1                 0.0000
     11 ****        -0.6009  -1.0977   0.7727 N.pl3          1 S1                 0.0000
     12 ****         0.8586  -1.0467   0.4469 C.3            1 S1                 0.0000
     13 ****         1.3356   0.2479   0.6634 O.3            1 S1                 0.0000
     14 ****         2.0005   0.7329  -0.5014 C.3            1 S1                 0.0000
     15 ****         3.1854   1.6370  -0.1205 C.3            1 S1                 0.0000
     16 ****         3.7619   2.2053  -1.2772 O.3            1 S1                 0.0000
     17 ****         2.3186  -0.5157  -1.3395 C.3            1 S1                 0.0000
     18 ****         3.5421  -1.1251  -0.9715 O.3            1 S1                 0.0000
     19 ****         1.1485  -1.4224  -1.0140 C.3            1 S1                 0.0000
     20 ****         0.1130  -1.1228  -1.8020 F              1 S1                 0.0000
     21 ****         1.3318  -1.7241   1.1587 H              1 S1                 0.0000
     22 ****         1.2661   1.3284  -1.0463 H              1 S1                 0.0000
     23 ****         2.3681  -0.2827  -2.4039 H              1 S1                 0.0000
     24 ****         1.3541  -2.4880  -1.1216 H              1 S1                 0.0000
     25 ****        -5.2838  -1.0665   1.7094 H              1 S1                 0.0000
     26 ****        -5.9264   0.4310   1.0697 H              1 S1                 0.0000
     27 ****        -0.7925  -2.9978   1.7822 H              1 S1                 0.0000
     28 ****         2.8403   2.4465   0.5229 H              1 S1                 0.0000
     29 ****         3.9442   1.0894   0.4388 H              1 S1                 0.0000
     30 ****         4.4556   2.7895  -1.0109 H              1 S1                 0.0000
     31 ****         4.2447  -0.5254  -1.1731 H              1 S1                 0.0000
     32 ****        -4.5586   1.9336   0.0284 LP             1 S1                 0.0000
     33 ****        -0.5354   1.3845  -0.5064 LP             1 S1                 0.0000
     34 ****        -3.2293  -2.5004   2.0277 LP             1 S1                 0.0000
     35 ****         1.9778   0.2388   1.4299 LP             1 S1                 0.0000
     36 ****         0.5673   0.8505   0.8795 LP             1 S1                 0.0000
     37 ****         3.0673   2.7156  -1.7843 LP             1 S1                 0.0000
     38 ****         4.1347   1.4820  -1.8584 LP             1 S1                 0.0000
     39 ****         3.6647  -1.9745  -1.4848 LP             1 S1                 0.0000
     40 ****         3.5390  -1.3252   0.0083 LP             1 S1                 0.0000
@<TRIPOS>BOND
    1    1    2 1     
    2    1   25 1     
    3    1   26 1     
    4    2    8 ar    
    5    2    3 ar    
    6    3    4 ar    
    7    4    5 1     
    8    4    6 ar    
    9    6    7 ar    
   10    7   11 1     
   11    7    8 ar    
   12    8    9 1     
   13    9   10 2     
   14   10   11 1     
   15   10   27 1     
   16   11   12 1     
   17   12   21 1     
   18   12   19 1     
   19   12   13 1     
   20   13   14 1     
   21   14   22 1     
   22   14   15 1     
   23   14   17 1     
   24   15   16 1     
   25   15   28 1     
   26   15   29 1     
   27   16   30 1     
   28   17   23 1     
   29   17   18 1     
   30   17   19 1     
   31   18   31 1     
   32   19   24 1     
   33   19   20 1     
   34    3   32 1     
   35    6   33 1     
   36    9   34 1     
   37   13   35 1     
   38   13   36 1     
   39   16   37 1     
   40   16   38 1     
   41   18   39 1     
   42   18   40 1     
@<TRIPOS>SUBSTRUCTURE
      1 S1             1
@<TRIPOS>SET
LONE_PAIRS      STATIC     ATOMS    <user>   **** ""
9 32 33 34 35 36 37 38 39 40
DONOR_HYDROGENS      STATIC     ATOMS    <user>   **** ""
4 25 26 30 31
ATOM$BLUE        STATIC     ATOMS    COLORGROUP SYSTEM
9 32 33 34 35 36 37 38 39 40
ATOM$RED        STATIC     ATOMS    COLORGROUP SYSTEM
4 25 26 30 31
