#       Name:                AV-unprocessed.smi:532
#       Creating user name   scv26
#       Creation time:       Thu Mar 26 23:34:04 2020


#       File generated by GOLD software.
#

@<TRIPOS>MOLECULE
AV-unprocessed.smi:532
    56    58     1
SMALL
NO_CHARGES


@<TRIPOS>ATOM
      1 ****        -4.3270   1.3556  -1.0499 C.3            1 S1                 0.0000
      2 ****        -3.5463   0.1739  -1.0720 O.3            1 S1                 0.0000
      3 ****        -2.1667   0.4396  -1.2564 C.3            1 S1                 0.0000
      4 ****        -1.3996  -0.8867  -1.2185 C.3            1 S1                 0.0000
      5 ****         0.0391  -0.6723  -1.3132 N.pl3          1 S1                 0.0000
      6 ****         0.9420  -0.4655  -0.3144 C.2            1 S1                 0.0000
      7 ****         0.5911  -0.4643   1.0393 N.pl3          1 S1                 0.0000
      8 ****         1.1931   0.4762   1.9855 C.3            1 S1                 0.0000
      9 ****         0.1895   0.9861   3.0355 C.3            1 S1                 0.0000
     10 ****         0.8386   2.0086   3.9779 C.3            1 S1                 0.0000
     11 ****        -0.3927  -0.2037   3.8143 C.3            1 S1                 0.0000
     12 ****        -0.9701  -1.2596   2.8577 C.3            1 S1                 0.0000
     13 ****        -2.3390  -0.8491   2.2903 C.3            1 S1                 0.0000
     14 ****         0.0672  -1.6240   1.7695 C.3            1 S1                 0.0000
     15 ****         2.1876  -0.2291  -0.7390 N.2            1 S1                 0.0000
     16 ****         2.0759  -0.3083  -2.1177 C.2            1 S1                 0.0000
     17 ****         0.7942  -0.5624  -2.4826 C.2            1 S1                 0.0000
     18 ****         0.3810  -0.6548  -3.8900 C.2            1 S1                 0.0000
     19 ****        -0.7763  -0.8643  -4.2462 O.2            1 S1                 0.0000
     20 ****         1.4061  -0.4754  -4.7581 N.am           1 S1                 0.0000
     21 ****         2.7165  -0.2234  -4.4571 C.2            1 S1                 0.0000
     22 ****         3.5382  -0.0763  -5.3617 O.2            1 S1                 0.0000
     23 ****         3.0613  -0.1417  -3.1322 N.am           1 S1                 0.0000
     24 ****         4.4489   0.1285  -2.7513 C.3            1 S1                 0.0000
     25 ****         1.1756  -0.5286  -5.7395 H              1 S1                 0.0000
     26 ****        -5.3770   1.0983  -0.9119 H              1 S1                 0.0000
     27 ****        -4.2354   1.9070  -1.9867 H              1 S1                 0.0000
     28 ****        -4.0300   2.0085  -0.2280 H              1 S1                 0.0000
     29 ****        -2.0051   0.9433  -2.2107 H              1 S1                 0.0000
     30 ****        -1.8056   1.1035  -0.4690 H              1 S1                 0.0000
     31 ****        -1.6332  -1.4263  -0.3084 H              1 S1                 0.0000
     32 ****        -1.7247  -1.5435  -2.0237 H              1 S1                 0.0000
     33 ****         2.0428  -0.0039   2.4732 H              1 S1                 0.0000
     34 ****         1.5951   1.3271   1.4340 H              1 S1                 0.0000
     35 ****        -0.6216   1.4945   2.5129 H              1 S1                 0.0000
     36 ****         1.6691   1.5678   4.5301 H              1 S1                 0.0000
     37 ****         0.1180   2.3856   4.7039 H              1 S1                 0.0000
     38 ****         1.2247   2.8638   3.4226 H              1 S1                 0.0000
     39 ****         0.3966  -0.6611   4.4128 H              1 S1                 0.0000
     40 ****        -1.1543   0.1322   4.5190 H              1 S1                 0.0000
     41 ****        -1.1480  -2.1610   3.4451 H              1 S1                 0.0000
     42 ****        -2.2688   0.0357   1.6596 H              1 S1                 0.0000
     43 ****        -3.0426  -0.6249   3.0923 H              1 S1                 0.0000
     44 ****        -2.7745  -1.6517   1.6954 H              1 S1                 0.0000
     45 ****        -0.3405  -2.3637   1.0821 H              1 S1                 0.0000
     46 ****         0.9148  -2.1195   2.2450 H              1 S1                 0.0000
     47 ****         5.1267  -0.5826  -3.2255 H              1 S1                 0.0000
     48 ****         4.6091   0.0561  -1.6758 H              1 S1                 0.0000
     49 ****         4.7379   1.1337  -3.0604 H              1 S1                 0.0000
     50 ****        -3.8643  -0.4067  -1.8215 LP             1 S1                 0.0000
     51 ****        -3.6672  -0.3068  -0.2035 LP             1 S1                 0.0000
     52 ****         3.0037  -0.0404  -0.1927 LP             1 S1                 0.0000
     53 ****        -1.4964  -0.9822  -3.5623 LP             1 S1                 0.0000
     54 ****        -0.9980  -0.9168  -5.2199 LP             1 S1                 0.0000
     55 ****         3.2477  -0.1410  -6.3164 LP             1 S1                 0.0000
     56 ****         4.4962   0.1080  -5.1419 LP             1 S1                 0.0000
@<TRIPOS>BOND
    1    1    2 1     
    2    1   26 1     
    3    1   27 1     
    4    1   28 1     
    5    2    3 1     
    6    3    4 1     
    7    3   29 1     
    8    3   30 1     
    9    4    5 1     
   10    4   31 1     
   11    4   32 1     
   12    5   17 1     
   13    5    6 1     
   14    6    7 1     
   15    6   15 2     
   16    7   14 1     
   17    7    8 1     
   18    8    9 1     
   19    8   33 1     
   20    8   34 1     
   21    9   10 1     
   22    9   11 1     
   23    9   35 1     
   24   10   36 1     
   25   10   37 1     
   26   10   38 1     
   27   11   12 1     
   28   11   39 1     
   29   11   40 1     
   30   12   13 1     
   31   12   14 1     
   32   12   41 1     
   33   13   42 1     
   34   13   43 1     
   35   13   44 1     
   36   14   45 1     
   37   14   46 1     
   38   15   16 1     
   39   16   23 1     
   40   16   17 2     
   41   17   18 1     
   42   18   19 2     
   43   18   20 1     
   44   20   25 1     
   45   20   21 1     
   46   21   22 2     
   47   21   23 1     
   48   23   24 1     
   49   24   47 1     
   50   24   48 1     
   51   24   49 1     
   52    2   50 1     
   53    2   51 1     
   54   15   52 1     
   55   19   53 1     
   56   19   54 1     
   57   22   55 1     
   58   22   56 1     
@<TRIPOS>SUBSTRUCTURE
      1 S1             1
@<TRIPOS>SET
LONE_PAIRS      STATIC     ATOMS    <user>   **** ""
7 50 51 52 53 54 55 56
DONOR_HYDROGENS      STATIC     ATOMS    <user>   **** ""
1 25
ATOM$BLUE        STATIC     ATOMS    COLORGROUP SYSTEM
7 50 51 52 53 54 55 56
ATOM$RED        STATIC     ATOMS    COLORGROUP SYSTEM
1 25
