AV-unprocessed.smi:2445|AV-procd|sdf|9639|dock8
  -GOLD-   2272013273D 1   1.00000     0.00000
 Structure written by MMmdl.
 40 41  0  0  0  0  0  0  0  0  1 V2000
  144.5830  134.0003  150.4273 C   0  0  0  0  0  0  0  0  0  0  0  0
  145.5521  133.5187  151.4531 C   0  0  0  0  0  0  0  0  0  0  0  0
  145.2853  133.1180  152.7388 C   0  0  0  0  0  0  0  0  0  0  0  0
  146.4175  132.7179  153.4514 N   0  0  0  0  0  0  0  0  0  0  0  0
  147.5366  132.8103  152.7277 C   0  0  0  0  0  0  0  0  0  0  0  0
  148.8972  132.4602  153.2503 C   0  0  2  0  0  0  0  0  0  0  0  0
  149.0821  130.9439  153.4049 C   0  0  0  0  0  0  0  0  0  0  0  0
  149.2705  133.2462  154.5223 C   0  0  0  0  0  0  0  0  0  0  0  0
  149.4162  134.6721  154.2436 N   0  0  0  0  0  0  0  0  0  0  0  0
  149.9001  135.5812  155.0996 C   0  0  0  0  0  0  0  0  0  0  0  0
  150.3173  135.3191  156.2277 O   0  0  0  0  0  0  0  0  0  0  0  0
  149.8716  136.8148  154.5785 N   0  0  0  0  0  0  0  0  0  0  0  0
  150.3181  138.0187  155.2706 C   0  0  1  0  0  0  0  0  0  0  0  0
  151.8099  138.0215  155.5432 C   0  0  0  0  0  0  0  0  0  0  0  0
  152.1126  139.5125  155.6634 C   0  0  0  0  0  0  0  0  0  0  0  0
  151.1411  140.1842  154.8662 O   0  0  0  0  0  0  0  0  0  0  0  0
  150.1704  139.2595  154.3865 C   0  0  2  0  0  0  0  0  0  0  0  0
  148.7716  139.8860  154.4170 C   0  0  0  0  0  0  0  0  0  0  0  0
  147.2554  133.4067  151.0956 S   0  0  0  0  0  0  0  0  0  0  0  0
  143.5640  133.9949  150.8156 H   0  0  0  0  0  0  0  0  0  0  0  0
  144.6092  133.3640  149.5426 H   0  0  0  0  0  0  0  0  0  0  0  0
  144.8206  135.0186  150.1190 H   0  0  0  0  0  0  0  0  0  0  0  0
  144.3225  133.0847  153.2271 H   0  0  0  0  0  0  0  0  0  0  0  0
  149.6043  132.7719  152.4803 H   0  0  0  0  0  0  0  0  0  0  0  0
  148.9025  130.4292  152.4605 H   0  0  0  0  0  0  0  0  0  0  0  0
  148.3937  130.5334  154.1442 H   0  0  0  0  0  0  0  0  0  0  0  0
  150.0958  130.7022  153.7250 H   0  0  0  0  0  0  0  0  0  0  0  0
  148.5023  133.0844  155.2807 H   0  0  0  0  0  0  0  0  0  0  0  0
  150.2062  132.8720  154.9389 H   0  0  0  0  0  0  0  0  0  0  0  0
  149.1017  134.9924  153.3394 H   0  0  0  0  0  0  0  0  0  0  0  0
  149.5088  136.9326  153.6439 H   0  0  0  0  0  0  0  0  0  0  0  0
  149.7707  138.1583  156.2052 H   0  0  0  0  0  0  0  0  0  0  0  0
  152.0851  137.4586  156.4357 H   0  0  0  0  0  0  0  0  0  0  0  0
  152.3540  137.6023  154.6952 H   0  0  0  0  0  0  0  0  0  0  0  0
  151.9951  139.8417  156.6964 H   0  0  0  0  0  0  0  0  0  0  0  0
  153.1264  139.7560  155.3448 H   0  0  0  0  0  0  0  0  0  0  0  0
  150.4421  139.0139  153.3582 H   0  0  0  0  0  0  0  0  0  0  0  0
  148.0187  139.1814  154.0629 H   0  0  0  0  0  0  0  0  0  0  0  0
  148.7270  140.7693  153.7798 H   0  0  0  0  0  0  0  0  0  0  0  0
  148.4978  140.1896  155.4278 H   0  0  0  0  0  0  0  0  0  0  0  0
  1  2  1  0  0  0  0
  1 20  1  0  0  0  0
  1 21  1  0  0  0  0
  1 22  1  0  0  0  0
  2 19  1  0  0  0  0
  2  3  2  0  0  0  0
  3  4  1  0  0  0  0
  3 23  1  0  0  0  0
  4  5  2  0  0  0  0
  5  6  1  0  0  0  0
  5 19  1  0  0  0  0
  6  7  1  0  0  0  0
  6  8  1  0  0  0  0
  6 24  1  0  0  0  0
  7 25  1  0  0  0  0
  7 26  1  0  0  0  0
  7 27  1  0  0  0  0
  8  9  1  0  0  0  0
  8 28  1  0  0  0  0
  8 29  1  0  0  0  0
  9 10  1  0  0  0  0
  9 30  1  0  0  0  0
 10 11  2  0  0  0  0
 10 12  1  0  0  0  0
 12 13  1  0  0  0  0
 12 31  1  0  0  0  0
 13 17  1  0  0  0  0
 13 14  1  0  0  0  0
 13 32  1  0  0  0  0
 14 15  1  0  0  0  0
 14 33  1  0  0  0  0
 14 34  1  0  0  0  0
 15 16  1  0  0  0  0
 15 35  1  0  0  0  0
 15 36  1  0  0  0  0
 16 17  1  0  0  0  0
 17 18  1  0  0  0  0
 17 37  1  0  0  0  0
 18 38  1  0  0  0  0
 18 39  1  0  0  0  0
 18 40  1  0  0  0  0
M  END
> <s_m_source_file>
AV-unprocessed.smi

> <i_m_source_file_index>
2445

> <i_lp_mmshare_version>
43012

> <i_f3d_flags>
0

> <s_epik_input>
W0NIM11jMVtjSF1uYyhzMSlbQ0BIXShbQ0gzXSlbQ0gyXVtOSF1DKD1PKVtOSF1bQ0BASF0yW0NIMl1bQ0gyXU9bQ0BIXTJbQ0gzXQ==

> <s_epik_cmdline>
J2VwaWtfcHl0aG9uJywgJy1waCcsICc3LjAnLCAnLXRuJywgJzgnLCAnLW1hJywgJzIwMCcsICctbWV0YWxfYmluZGluZycsICctaW1hZScsICc8aW5maWxlLm1hZT4nLCAnLW9tYWUnLCAnPG91dGZpbGUubWFlPic=

> <r_epik_Ionization_Penalty>
0.000649483

> <r_epik_Ionization_Penalty_Charging>
0

> <r_epik_Ionization_Penalty_Neutral>
0.000649483

> <r_epik_State_Penalty>
0.000379895

> <r_epik_Charging_Adjusted_Penalty>
0.000379895

> <i_epik_Tot_Q>
0

> <i_epik_Tot_abs_Q>
0

> <r_epik_Metal_State_Penalty>
-0

> <b_epik_Metal_Only>
0

> <s_lp_Force_Field>
OPLS_2005

> <r_lp_Energy>
6.75485

> <b_lp_Chiralities_Consistent>
1

> <s_lp_Variant>
AV-unprocessed.smi:2445-7

> <Gold.Version>
5.8.1

> <Gold.Id.Protein>
6NUR|6NUR_protein|mol2

> <Gold.PLP.Fitness>
44.4909

> <Gold.PLP.PLP>
-32.9203

> <Gold.PLP.part.hbond>
-2.9056

> <Gold.PLP.part.metal>
0.0000

> <Gold.PLP.part.buried>
-4.6068

> <Gold.PLP.part.nonpolar>
-25.8620

> <Gold.PLP.part.repulsive>
0.2580

> <Gold.PLP.ligand.clash>
0.0000

> <Gold.PLP.ligand.torsion>
0.2656

> <Gold.PLP.Chemscore.Hbond>
2.9913

> <Gold.PLP.Chemscore.CHOScore>
1.0000

> <Gold.PLP.Chemscore.Metal>
0.0000

> <Gold.Chemscore.Hbonds>
donor molecule, donor type, donor heavy atom, donor atom, acceptor molecule, acceptor atom, score
      L1  H     9    30       P1  7948  0.90
      L1  H    12    31       P1  7948  1.00
      P1  H  7989  7998       L1    16  1.00
      L1  C     3    23       P1 10957  0.78

> <Gold.PLP.Chemscore.Internal.Correction>
0.1281

> <Gold.Rescore>
     Score         DG    S(hbond)    S(metal)    S(lipo)     H(rot)  DE(clash)    DE(int)     intcor
     16.77     -17.02       1.95        0.00      76.47       1.53       0.10       0.15       ----

> <Gold.Chemscore.Fitness>
16.7692

> <Gold.Chemscore.DG>
-17.0163

> <Gold.Chemscore.ZeroCoef>
-5.4800

> <Gold.Chemscore.Hbond>
1.9499

> <Gold.Chemscore.Metal>
0.0000

> <Gold.Chemscore.Lipo>
76.4691

> <Gold.Chemscore.Internal_Hbond>
0.0000

> <Gold.Chemscore.DEClash>
0.0982

> <Gold.Chemscore.DEInternal>
0.1489

> <Gold.Chemscore.Rot>
1.5325

> <Gold.Chemscore.Internal.Correction>
   9.000000E+99

> <Gold.Chemscore.Hbonds>
donor molecule, donor type, donor heavy atom, donor atom, acceptor molecule, acceptor atom, score
      L1  H     9    30       P1  7948  0.18
      L1  H    12    31       P1  7948  0.83
      P1  H  7989  7998       L1    16  0.33

> <Gold.Chemscore.Hbond.Weighted>
-6.5128

> <Gold.Chemscore.Metal.Weighted>
-0.0000

> <Gold.Chemscore.Lipo.Weighted>
-8.9469

> <Gold.Chemscore.Internal_Hbond.Weighted>
0.0000

> <Gold.Chemscore.DEClash.Weighted>
0.0982

> <Gold.Chemscore.DEInternal.Weighted>
0.1489

> <Gold.Chemscore.Rot.Weighted>
3.9233

> <Gold.Chemscore.Internal.Correction.Weighted>
   9.000000E+99

> <Gold.Protein.RotatedTorsions>
[ 6907 6896 6895 6894 ] final  -44.88 input  -60.11 | X-H torsion
[ 7974 7965 7964 7962 ] final  169.09 input  175.53 | X-H torsion
[ 8008 7997 7996 7995 ] final  -73.05 input   59.86 | X-H torsion
[ 10167 10162 10161 10158 ] final -107.86 input  -65.29 | X-H torsion
[ 10718 10713 10712 10709 ] final   41.56 input   66.30 | X-H torsion
[ 10763 10752 10751 10750 ] final   79.69 input  -60.55 | X-H torsion
[ 11005 11000 10999 10996 ] final   -5.77 input  -57.11 | X-H torsion

> <Gold.Protein.ActiveResidues>
 VAL166  LYS551  ARG553  GLY616  TRP617  ASP618  TYR619  PRO620  LYS621  CYS622 
 ASP623  PHE694  ASN695  SER759  ASP760  ASP761  ALA762  ILE779  LEU786  VAL792 
 PHE793  MET794  SER795  GLU796  ALA797  LYS798  CYS799  TRP800  GLU811  SER814 

> <Gold.Protein.RotatedAtoms>
  150.9280  134.8696  159.7532 H   0  0  0  0  0  0  0  0  0  0  0  0  # atno 6907 bound_to 6896
  152.5024  134.4121  159.9462 H   0  0  0  0  0  0  0  0  0  0  0  0  # atno 6908 bound_to 6896
  151.4150  133.3676  159.2784 H   0  0  0  0  0  0  0  0  0  0  0  0  # atno 6909 bound_to 6896
  144.7366  139.9003  143.6409 H   0  0  0  0  0  0  0  0  0  0  0  0  # atno 7974 bound_to 7965
  154.5216  140.0786  156.8181 H   0  0  0  0  0  0  0  0  0  0  0  0  # atno 8008 bound_to 7997
  155.3565  140.3415  155.4222 H   0  0  0  0  0  0  0  0  0  0  0  0  # atno 8009 bound_to 7997
  156.1687  140.1612  156.8473 H   0  0  0  0  0  0  0  0  0  0  0  0  # atno 8010 bound_to 7997
  140.1724  143.4032  152.1344 H   0  0  0  0  0  0  0  0  0  0  0  0  # atno 10167 bound_to 10162
  157.3949  130.7827  149.7300 H   0  0  0  0  0  0  0  0  0  0  0  0  # atno 10718 bound_to 10713
  153.0973  135.4830  154.8801 H   0  0  0  0  0  0  0  0  0  0  0  0  # atno 10763 bound_to 10752
  154.7338  135.3066  154.8848 H   0  0  0  0  0  0  0  0  0  0  0  0  # atno 10764 bound_to 10752
  153.9476  135.6827  153.4797 H   0  0  0  0  0  0  0  0  0  0  0  0  # atno 10765 bound_to 10752
  140.6948  133.9040  155.8642 H   0  0  0  0  0  0  0  0  0  0  0  0  # atno 11005 bound_to 11000
  146.1076  139.4078  143.0307 LP  0  0  0  0  0  0  0  0  0  0  0  0  # atno 17320 bound_to 7965
  145.7489  140.9980  143.1261 LP  0  0  0  0  0  0  0  0  0  0  0  0  # atno 17321 bound_to 7965
  139.5332  144.7181  151.4984 LP  0  0  0  0  0  0  0  0  0  0  0  0  # atno 17342 bound_to 10162
  140.6573  143.8572  150.6849 LP  0  0  0  0  0  0  0  0  0  0  0  0  # atno 17343 bound_to 10162
  155.9808  130.4026  150.3509 LP  0  0  0  0  0  0  0  0  0  0  0  0  # atno 17370 bound_to 10713
  157.1629  131.0349  151.2832 LP  0  0  0  0  0  0  0  0  0  0  0  0  # atno 17371 bound_to 10713
  141.0212  134.0886  157.4118 LP  0  0  0  0  0  0  0  0  0  0  0  0  # atno 17394 bound_to 11000
  139.8913  135.0118  156.6785 LP  0  0  0  0  0  0  0  0  0  0  0  0  # atno 17395 bound_to 11000

$$$$
