AV-unprocessed.smi:218|AV-procd|sdf|1668|dock5
  -GOLD-   2262020 73D 1   1.00000     0.00000
 Structure written by MMmdl.
 54 57  0  0  0  0  0  0  0  0  1 V2000
  152.8791  142.6181  159.4890 C   0  0  0  0  0  0  0  0  0  0  0  0
  151.9320  143.4565  158.6221 C   0  0  0  0  0  0  0  0  0  0  0  0
  151.5900  144.7928  159.3030 C   0  0  0  0  0  0  0  0  0  0  0  0
  150.7458  142.6827  158.4327 O   0  0  0  0  0  0  0  0  0  0  0  0
  150.6790  141.7529  157.4130 C   0  0  0  0  0  0  0  0  0  0  0  0
  149.5479  141.7651  156.5716 C   0  0  0  0  0  0  0  0  0  0  0  0
  149.4611  140.8167  155.5325 C   0  0  0  0  0  0  0  0  0  0  0  0
  148.2674  140.8048  154.6020 C   0  0  0  0  0  0  0  0  0  0  0  0
  148.2831  139.6753  153.6830 N   0  0  0  0  0  0  0  0  0  0  0  0
  147.9043  138.4518  154.1097 C   0  0  0  0  0  0  0  0  0  0  0  0
  148.6023  137.8025  155.0770 N   0  0  0  0  0  0  0  0  0  0  0  0
  148.1997  136.5995  155.4948 C   0  0  0  0  0  0  0  0  0  0  0  0
  147.1533  135.8815  155.0824 N   0  0  0  0  0  0  0  0  0  0  0  0
  146.4520  136.5207  154.0998 C   0  0  0  0  0  0  0  0  0  0  0  0
  146.7616  137.8055  153.5706 C   0  0  0  0  0  0  0  0  0  0  0  0
  145.8258  138.1570  152.6092 N   0  0  0  0  0  0  0  0  0  0  0  0
  145.0075  137.1407  152.5811 C   0  0  0  0  0  0  0  0  0  0  0  0
  145.3257  136.0902  153.4185 N   0  0  0  0  0  0  0  0  0  0  0  0
  144.5490  134.8140  153.6283 C   0  0  2  0  0  0  0  0  0  0  0  0
  145.3446  133.7220  153.2942 O   0  0  0  0  0  0  0  0  0  0  0  0
  145.2418  133.4834  151.8989 C   0  0  1  0  0  0  0  0  0  0  0  0
  145.7331  132.0614  151.5894 C   0  0  0  0  0  0  0  0  0  0  0  0
  147.1002  131.9281  151.9142 O   0  0  0  0  0  0  0  0  0  0  0  0
  143.7544  133.7338  151.6150 C   0  0  2  0  0  0  0  0  0  0  0  0
  143.5950  134.2912  150.3252 O   0  0  0  0  0  0  0  0  0  0  0  0
  143.3295  134.7428  152.6867 C   0  0  1  0  0  0  0  0  0  0  0  0
  142.1804  134.2919  153.3738 O   0  0  0  0  0  0  0  0  0  0  0  0
  150.5117  139.8919  155.3714 C   0  0  0  0  0  0  0  0  0  0  0  0
  151.6011  139.9566  156.2616 C   0  0  0  0  0  0  0  0  0  0  0  0
  151.6895  140.8607  157.2603 N   0  0  0  0  0  0  0  0  0  0  0  0
  144.3034  134.8299  154.6909 H   0  0  0  0  0  0  0  0  0  0  0  0
  145.8644  134.2185  151.3844 H   0  0  0  0  0  0  0  0  0  0  0  0
  143.1829  132.8077  151.6961 H   0  0  0  0  0  0  0  0  0  0  0  0
  143.1055  135.7194  152.2586 H   0  0  0  0  0  0  0  0  0  0  0  0
  153.8154  143.1460  159.6721 H   0  0  0  0  0  0  0  0  0  0  0  0
  153.1218  141.6744  158.9997 H   0  0  0  0  0  0  0  0  0  0  0  0
  152.4308  142.3864  160.4555 H   0  0  0  0  0  0  0  0  0  0  0  0
  152.4411  143.6392  157.6747 H   0  0  0  0  0  0  0  0  0  0  0  0
  152.4907  145.3787  159.4874 H   0  0  0  0  0  0  0  0  0  0  0  0
  151.0969  144.6297  160.2616 H   0  0  0  0  0  0  0  0  0  0  0  0
  150.9255  145.4006  158.6897 H   0  0  0  0  0  0  0  0  0  0  0  0
  148.7619  142.4907  156.7226 H   0  0  0  0  0  0  0  0  0  0  0  0
  147.3498  140.7797  155.1913 H   0  0  0  0  0  0  0  0  0  0  0  0
  148.2606  141.7377  154.0366 H   0  0  0  0  0  0  0  0  0  0  0  0
  148.6047  139.8658  152.7448 H   0  0  0  0  0  0  0  0  0  0  0  0
  148.8009  136.1470  156.2696 H   0  0  0  0  0  0  0  0  0  0  0  0
  144.1374  137.1364  151.9408 H   0  0  0  0  0  0  0  0  0  0  0  0
  145.1709  131.3374  152.1795 H   0  0  0  0  0  0  0  0  0  0  0  0
  145.5781  131.8115  150.5396 H   0  0  0  0  0  0  0  0  0  0  0  0
  147.5644  131.6331  151.1457 H   0  0  0  0  0  0  0  0  0  0  0  0
  142.7467  134.0411  149.9925 H   0  0  0  0  0  0  0  0  0  0  0  0
  142.3593  133.4311  153.7208 H   0  0  0  0  0  0  0  0  0  0  0  0
  150.4871  139.1510  154.5857 H   0  0  0  0  0  0  0  0  0  0  0  0
  152.4242  139.2637  156.1690 H   0  0  0  0  0  0  0  0  0  0  0  0
  1  2  1  0  0  0  0
  1 35  1  0  0  0  0
  1 36  1  0  0  0  0
  1 37  1  0  0  0  0
  2  3  1  0  0  0  0
  2  4  1  0  0  0  0
  2 38  1  0  0  0  0
  3 39  1  0  0  0  0
  3 40  1  0  0  0  0
  3 41  1  0  0  0  0
  4  5  1  0  0  0  0
  5 30  1  0  0  0  0
  5  6  2  0  0  0  0
  6  7  1  0  0  0  0
  6 42  1  0  0  0  0
  7  8  1  0  0  0  0
  7 28  2  0  0  0  0
  8  9  1  0  0  0  0
  8 43  1  0  0  0  0
  8 44  1  0  0  0  0
  9 10  1  0  0  0  0
  9 45  1  0  0  0  0
 10 15  1  0  0  0  0
 10 11  2  0  0  0  0
 11 12  1  0  0  0  0
 12 13  2  0  0  0  0
 12 46  1  0  0  0  0
 13 14  1  0  0  0  0
 14 18  1  0  0  0  0
 14 15  2  0  0  0  0
 15 16  1  0  0  0  0
 16 17  2  0  0  0  0
 17 18  1  0  0  0  0
 17 47  1  0  0  0  0
 18 19  1  0  0  0  0
 19 31  1  0  0  0  0
 19 26  1  0  0  0  0
 19 20  1  0  0  0  0
 20 21  1  0  0  0  0
 21 32  1  0  0  0  0
 21 22  1  0  0  0  0
 21 24  1  0  0  0  0
 22 23  1  0  0  0  0
 22 48  1  0  0  0  0
 22 49  1  0  0  0  0
 23 50  1  0  0  0  0
 24 33  1  0  0  0  0
 24 25  1  0  0  0  0
 24 26  1  0  0  0  0
 25 51  1  0  0  0  0
 26 34  1  0  0  0  0
 26 27  1  0  0  0  0
 27 52  1  0  0  0  0
 28 29  1  0  0  0  0
 28 53  1  0  0  0  0
 29 30  2  0  0  0  0
 29 54  1  0  0  0  0
M  END
> <s_m_source_file>
AV-unprocessed.smi

> <i_m_source_file_index>
218

> <i_lp_mmshare_version>
43012

> <i_f3d_flags>
0

> <s_epik_input>
W0NIM11bQ0hdKFtDSDNdKU9jMVtjSF1jKFtjSF1bY0hdbjEpW0NIMl1bTkhdYyhuW2NIXW4yKWMoYzIzKW5bY0hdbjNbQ0BASF00T1tDQEhdKFtDSDJdW09IXSlbQ0BASF0oW09IXSlbQ0BIXTRbT0hd

> <s_epik_cmdline>
J2VwaWtfcHl0aG9uJywgJy1waCcsICc3LjAnLCAnLXRuJywgJzgnLCAnLW1hJywgJzIwMCcsICctbWV0YWxfYmluZGluZycsICctaW1hZScsICc8aW5maWxlLm1hZT4nLCAnLW9tYWUnLCAnPG91dGZpbGUubWFlPic=

> <r_lp_tautomer_probability>
1

> <r_epik_Ionization_Penalty>
0.00457014

> <r_epik_Ionization_Penalty_Charging>
0

> <r_epik_Ionization_Penalty_Neutral>
0.00457014

> <r_epik_State_Penalty>
-0

> <r_epik_Charging_Adjusted_Penalty>
0

> <i_epik_Tot_Q>
0

> <i_epik_Tot_abs_Q>
0

> <r_epik_Metal_State_Penalty>
-0

> <b_epik_Metal_Only>
0

> <s_epik_Chemistry_Notes>
This compound contains an acetal/aminal-like group ( X-CH(R)-Y where X, Y are N, S, or O) that may be acid/base labile, releasing an aldehyde.

> <s_lp_Force_Field>
OPLS_2005

> <r_lp_Energy>
35.6768

> <b_lp_Chiralities_Consistent>
1

> <s_lp_Variant>
AV-unprocessed.smi:218-7

> <Gold.Version>
5.8.1

> <Gold.Id.Protein>
6NUR|6NUR_protein|mol2

> <Gold.PLP.Fitness>
55.6903

> <Gold.PLP.PLP>
-43.3021

> <Gold.PLP.part.hbond>
-4.0000

> <Gold.PLP.part.metal>
0.0000

> <Gold.PLP.part.buried>
-5.2229

> <Gold.PLP.part.nonpolar>
-35.4610

> <Gold.PLP.part.repulsive>
0.7332

> <Gold.PLP.ligand.clash>
0.0000

> <Gold.PLP.ligand.torsion>
1.2047

> <Gold.PLP.Chemscore.Hbond>
4.0000

> <Gold.PLP.Chemscore.CHOScore>
0.8543

> <Gold.PLP.Chemscore.Metal>
0.0000

> <Gold.Chemscore.Hbonds>
donor molecule, donor type, donor heavy atom, donor atom, acceptor molecule, acceptor atom, score
      L1  H     9    45       P1  7957  1.00
      L1  H    23    50       P1 10747  1.00
      L1  H    25    51       P1 10186  1.00
      L1  H    27    52       P1 10957  1.00
      L1  C    17    47       P1 10171  0.78

> <Gold.PLP.Chemscore.Internal.Correction>
0.2346

> <Gold.Rescore>
     Score         DG    S(hbond)    S(metal)    S(lipo)     H(rot)  DE(clash)    DE(int)     intcor
     14.58     -17.23       3.92        0.00      95.91       4.90       0.08       2.58       ----

> <Gold.Chemscore.Fitness>
14.5777

> <Gold.Chemscore.DG>
-17.2304

> <Gold.Chemscore.ZeroCoef>
-5.4800

> <Gold.Chemscore.Hbond>
3.9165

> <Gold.Chemscore.Metal>
0.0000

> <Gold.Chemscore.Lipo>
95.9054

> <Gold.Chemscore.Internal_Hbond>
0.0000

> <Gold.Chemscore.DEClash>
0.0753

> <Gold.Chemscore.DEInternal>
2.5773

> <Gold.Chemscore.Rot>
4.9029

> <Gold.Chemscore.Internal.Correction>
   9.000000E+99

> <Gold.Chemscore.Hbonds>
donor molecule, donor type, donor heavy atom, donor atom, acceptor molecule, acceptor atom, score
      L1  H     9    45       P1  7957  1.00
      L1  H    23    50       P1 10747  0.98
      L1  H    25    51       P1 10186  0.95
      L1  H    27    52       P1 10957  0.97

> <Gold.Chemscore.Hbond.Weighted>
-13.0810

> <Gold.Chemscore.Metal.Weighted>
-0.0000

> <Gold.Chemscore.Lipo.Weighted>
-11.2209

> <Gold.Chemscore.Internal_Hbond.Weighted>
0.0000

> <Gold.Chemscore.DEClash.Weighted>
0.0753

> <Gold.Chemscore.DEInternal.Weighted>
2.5773

> <Gold.Chemscore.Rot.Weighted>
12.5515

> <Gold.Chemscore.Internal.Correction.Weighted>
   9.000000E+99

> <Gold.Protein.RotatedTorsions>
[ 6907 6896 6895 6894 ] final  108.45 input  -60.11 | X-H torsion
[ 7974 7965 7964 7962 ] final  -63.22 input  175.53 | X-H torsion
[ 8008 7997 7996 7995 ] final  142.50 input   59.86 | X-H torsion
[ 10167 10162 10161 10158 ] final -126.61 input  -65.29 | X-H torsion
[ 10718 10713 10712 10709 ] final  -27.52 input   66.30 | X-H torsion
[ 10763 10752 10751 10750 ] final  -29.98 input  -60.55 | X-H torsion
[ 11005 11000 10999 10996 ] final   -1.77 input  -57.11 | X-H torsion

> <Gold.Protein.ActiveResidues>
 VAL166  LYS551  ARG553  GLY616  TRP617  ASP618  TYR619  PRO620  LYS621  CYS622 
 ASP623  PHE694  ASN695  SER759  ASP760  ASP761  ALA762  ILE779  LEU786  VAL792 
 PHE793  MET794  SER795  GLU796  ALA797  LYS798  CYS799  TRP800  GLU811  SER814 

> <Gold.Protein.RotatedAtoms>
  152.5111  133.9086  159.7476 H   0  0  0  0  0  0  0  0  0  0  0  0  # atno 6907 bound_to 6896
  150.9485  133.6567  159.2783 H   0  0  0  0  0  0  0  0  0  0  0  0  # atno 6908 bound_to 6896
  151.3854  135.0952  159.9562 H   0  0  0  0  0  0  0  0  0  0  0  0  # atno 6909 bound_to 6896
  145.7817  140.8758  143.0327 H   0  0  0  0  0  0  0  0  0  0  0  0  # atno 7974 bound_to 7965
  156.2948  140.2287  156.4738 H   0  0  0  0  0  0  0  0  0  0  0  0  # atno 8008 bound_to 7997
  154.7912  140.0454  157.1223 H   0  0  0  0  0  0  0  0  0  0  0  0  # atno 8009 bound_to 7997
  154.9643  140.3058  155.5020 H   0  0  0  0  0  0  0  0  0  0  0  0  # atno 8010 bound_to 7997
  139.9696  143.5860  152.2417 H   0  0  0  0  0  0  0  0  0  0  0  0  # atno 10167 bound_to 10162
  156.4371  130.4457  149.7078 H   0  0  0  0  0  0  0  0  0  0  0  0  # atno 10718 bound_to 10713
  153.7735  135.6910  153.4902 H   0  0  0  0  0  0  0  0  0  0  0  0  # atno 10763 bound_to 10752
  153.1859  135.4489  155.0086 H   0  0  0  0  0  0  0  0  0  0  0  0  # atno 10764 bound_to 10752
  154.8109  135.3377  154.7243 H   0  0  0  0  0  0  0  0  0  0  0  0  # atno 10765 bound_to 10752
  140.6510  133.9404  155.8380 H   0  0  0  0  0  0  0  0  0  0  0  0  # atno 11005 bound_to 11000
  144.6795  139.9998  143.7484 LP  0  0  0  0  0  0  0  0  0  0  0  0  # atno 17320 bound_to 7965
  146.0067  139.3136  143.0895 LP  0  0  0  0  0  0  0  0  0  0  0  0  # atno 17321 bound_to 7965
  139.6491  144.7660  151.2184 LP  0  0  0  0  0  0  0  0  0  0  0  0  # atno 17342 bound_to 10162
  140.7526  143.6190  150.8532 LP  0  0  0  0  0  0  0  0  0  0  0  0  # atno 17343 bound_to 10162
  156.3957  130.7650  151.2654 LP  0  0  0  0  0  0  0  0  0  0  0  0  # atno 17370 bound_to 10713
  157.7507  131.0254  150.3920 LP  0  0  0  0  0  0  0  0  0  0  0  0  # atno 17371 bound_to 10713
  141.0536  134.0448  157.3751 LP  0  0  0  0  0  0  0  0  0  0  0  0  # atno 17394 bound_to 11000
  139.9046  135.0175  156.7426 LP  0  0  0  0  0  0  0  0  0  0  0  0  # atno 17395 bound_to 11000

$$$$
