AV-unprocessed.smi:3253|AV-procd|sdf|12449|dock2
  -GOLD-   2272018343D 1   1.00000     0.00000
 Structure written by MMmdl.
 36 37  0  0  0  0  0  0  0  0  1 V2000
  150.3946  133.3075  155.3107 C   0  0  0  0  0  0  0  0  0  0  0  0
  149.2702  134.2732  154.8918 C   0  0  2  0  0  0  0  0  0  0  0  0
  148.3545  133.6941  153.7951 C   0  0  0  0  0  0  0  0  0  0  0  0
  147.7539  132.4288  154.1734 N   0  0  0  0  0  0  0  0  0  0  0  0
  147.8453  131.2188  153.4974 C   0  0  0  0  0  0  0  0  0  0  0  0
  147.1153  130.3063  154.2251 C   0  0  0  0  0  0  0  0  0  0  0  0
  146.5648  130.9301  155.3422 N   0  0  0  0  0  0  0  0  0  0  0  0
  146.9841  132.1847  155.2428 C   0  0  0  0  0  0  0  0  0  0  0  0
  149.8357  135.5354  154.4229 N   0  0  0  0  0  0  0  0  0  0  0  0
  150.8724  136.1790  154.9822 C   0  0  0  0  0  0  0  0  0  0  0  0
  151.4759  135.7584  155.9698 O   0  0  0  0  0  0  0  0  0  0  0  0
  151.2924  137.5029  154.3245 C   0  0  2  0  0  0  0  0  0  0  0  0
  152.4221  138.1921  155.1168 C   0  0  0  0  0  0  0  0  0  0  0  0
  151.7685  139.4447  155.6766 C   0  0  0  0  0  0  0  0  0  0  0  0
  152.3422  140.2085  156.4515 O   0  0  0  0  0  0  0  0  0  0  0  0
  150.5200  139.5770  155.2208 N   0  0  0  0  0  0  0  0  0  0  0  0
  149.5989  140.6527  155.5614 C   0  0  0  0  0  0  0  0  0  0  0  0
  150.1416  138.5329  154.2838 C   0  0  0  0  0  0  0  0  0  0  0  0
  149.9933  132.3834  155.7270 H   0  0  0  0  0  0  0  0  0  0  0  0
  151.0332  133.7513  156.0750 H   0  0  0  0  0  0  0  0  0  0  0  0
  151.0262  133.0435  154.4622 H   0  0  0  0  0  0  0  0  0  0  0  0
  148.6516  134.4763  155.7683 H   0  0  0  0  0  0  0  0  0  0  0  0
  147.5503  134.3946  153.5654 H   0  0  0  0  0  0  0  0  0  0  0  0
  148.9152  133.5479  152.8706 H   0  0  0  0  0  0  0  0  0  0  0  0
  148.4087  131.1088  152.5825 H   0  0  0  0  0  0  0  0  0  0  0  0
  146.9438  129.2576  154.0316 H   0  0  0  0  0  0  0  0  0  0  0  0
  146.7271  132.9444  155.9664 H   0  0  0  0  0  0  0  0  0  0  0  0
  149.4024  135.9540  153.6126 H   0  0  0  0  0  0  0  0  0  0  0  0
  151.6306  137.3014  153.3064 H   0  0  0  0  0  0  0  0  0  0  0  0
  152.8293  137.5809  155.9245 H   0  0  0  0  0  0  0  0  0  0  0  0
  153.2464  138.4741  154.4611 H   0  0  0  0  0  0  0  0  0  0  0  0
  150.0319  141.6222  155.3132 H   0  0  0  0  0  0  0  0  0  0  0  0
  149.3749  140.6384  156.6286 H   0  0  0  0  0  0  0  0  0  0  0  0
  148.6593  140.5536  155.0170 H   0  0  0  0  0  0  0  0  0  0  0  0
  150.0414  138.9625  153.2863 H   0  0  0  0  0  0  0  0  0  0  0  0
  149.1744  138.1064  154.5568 H   0  0  0  0  0  0  0  0  0  0  0  0
  1  2  1  0  0  0  0
  1 19  1  0  0  0  0
  1 20  1  0  0  0  0
  1 21  1  0  0  0  0
  2  3  1  0  0  0  0
  2  9  1  0  0  0  0
  2 22  1  0  0  0  0
  3  4  1  0  0  0  0
  3 23  1  0  0  0  0
  3 24  1  0  0  0  0
  4  8  1  0  0  0  0
  4  5  1  0  0  0  0
  5  6  2  0  0  0  0
  5 25  1  0  0  0  0
  6  7  1  0  0  0  0
  6 26  1  0  0  0  0
  7  8  2  0  0  0  0
  8 27  1  0  0  0  0
  9 10  1  0  0  0  0
  9 28  1  0  0  0  0
 10 11  2  0  0  0  0
 10 12  1  0  0  0  0
 12 18  1  0  0  0  0
 12 13  1  0  0  0  0
 12 29  1  0  0  0  0
 13 14  1  0  0  0  0
 13 30  1  0  0  0  0
 13 31  1  0  0  0  0
 14 15  2  0  0  0  0
 14 16  1  0  0  0  0
 16 17  1  0  0  0  0
 16 18  1  0  0  0  0
 17 32  1  0  0  0  0
 17 33  1  0  0  0  0
 17 34  1  0  0  0  0
 18 35  1  0  0  0  0
 18 36  1  0  0  0  0
M  END
> <s_m_source_file>
AV-unprocessed.smi

> <i_m_source_file_index>
3253

> <i_lp_mmshare_version>
43012

> <i_f3d_flags>
0

> <s_epik_input>
W2NIXTFuW2NIXVtjSF1uMVtDSDJdW0NAQEhdKFtDSDNdKVtOSF1DKD1PKVtDQEBIXTJbQ0gyXUMoPU8pTihbQ0gzXSlbQ0gyXTI=

> <s_epik_cmdline>
J2VwaWtfcHl0aG9uJywgJy1waCcsICc3LjAnLCAnLXRuJywgJzgnLCAnLW1hJywgJzIwMCcsICctbWV0YWxfYmluZGluZycsICctaW1hZScsICc8aW5maWxlLm1hZT4nLCAnLW9tYWUnLCAnPG91dGZpbGUubWFlPic=

> <r_lp_tautomer_probability>
1

> <r_epik_Ionization_Penalty>
0.628884

> <r_epik_Ionization_Penalty_Charging>
0.628884

> <r_epik_Ionization_Penalty_Neutral>
2.35084e-08

> <r_epik_State_Penalty>
0.64556

> <r_epik_Charging_Adjusted_Penalty>
1.27444

> <i_epik_Tot_Q>
0

> <i_epik_Tot_abs_Q>
0

> <r_epik_Metal_State_Penalty>
0.308736

> <b_epik_Metal_Only>
0

> <s_lp_Force_Field>
OPLS_2005

> <r_lp_Energy>
13.4006

> <b_lp_Chiralities_Consistent>
1

> <s_lp_Variant>
AV-unprocessed.smi:3253-5

> <Gold.Version>
5.8.1

> <Gold.Id.Protein>
6NUR|6NUR_protein|mol2

> <Gold.PLP.Fitness>
40.0481

> <Gold.PLP.PLP>
-28.5237

> <Gold.PLP.part.hbond>
-3.3407

> <Gold.PLP.part.metal>
0.0000

> <Gold.PLP.part.buried>
-0.2954

> <Gold.PLP.part.nonpolar>
-25.9064

> <Gold.PLP.part.repulsive>
0.2111

> <Gold.PLP.ligand.clash>
0.0000

> <Gold.PLP.ligand.torsion>
0.2525

> <Gold.PLP.Chemscore.Hbond>
2.9920

> <Gold.PLP.Chemscore.CHOScore>
1.0000

> <Gold.PLP.Chemscore.Metal>
0.0000

> <Gold.Chemscore.Hbonds>
donor molecule, donor type, donor heavy atom, donor atom, acceptor molecule, acceptor atom, score
      L1  H     9    28       P1  7948  1.00
      P1  H  7997  8010       L1    15  1.00
      P1  H 10752 10764       L1    11  0.99
      L1  C     5    25       P1 10747  1.00

> <Gold.PLP.Chemscore.Internal.Correction>
0.0533

> <Gold.Rescore>
     Score         DG    S(hbond)    S(metal)    S(lipo)     H(rot)  DE(clash)    DE(int)     intcor
     13.09     -15.26       2.59        0.00      52.78       1.97       0.40       1.77       ----

> <Gold.Chemscore.Fitness>
13.0868

> <Gold.Chemscore.DG>
-15.2570

> <Gold.Chemscore.ZeroCoef>
-5.4800

> <Gold.Chemscore.Hbond>
2.5860

> <Gold.Chemscore.Metal>
0.0000

> <Gold.Chemscore.Lipo>
52.7770

> <Gold.Chemscore.Internal_Hbond>
0.0000

> <Gold.Chemscore.DEClash>
0.4011

> <Gold.Chemscore.DEInternal>
1.7691

> <Gold.Chemscore.Rot>
1.9669

> <Gold.Chemscore.Internal.Correction>
   9.000000E+99

> <Gold.Chemscore.Hbonds>
donor molecule, donor type, donor heavy atom, donor atom, acceptor molecule, acceptor atom, score
      L1  H     9    28       P1  7948  0.55
      P1  H  7997  8010       L1    15  0.79
      P1  H 10752 10764       L1    11  0.23

> <Gold.Chemscore.Hbond.Weighted>
-8.6373

> <Gold.Chemscore.Metal.Weighted>
-0.0000

> <Gold.Chemscore.Lipo.Weighted>
-6.1749

> <Gold.Chemscore.Internal_Hbond.Weighted>
0.0000

> <Gold.Chemscore.DEClash.Weighted>
0.4011

> <Gold.Chemscore.DEInternal.Weighted>
1.7691

> <Gold.Chemscore.Rot.Weighted>
5.0352

> <Gold.Chemscore.Internal.Correction.Weighted>
   9.000000E+99

> <Gold.Protein.RotatedTorsions>
[ 6907 6896 6895 6894 ] final  132.83 input  -60.11 | X-H torsion
[ 7974 7965 7964 7962 ] final   46.22 input  175.53 | X-H torsion
[ 8008 7997 7996 7995 ] final   82.23 input   59.86 | X-H torsion
[ 10167 10162 10161 10158 ] final  -21.06 input  -65.29 | X-H torsion
[ 10718 10713 10712 10709 ] final   62.74 input   66.30 | X-H torsion
[ 10763 10752 10751 10750 ] final  -17.76 input  -60.55 | X-H torsion
[ 11005 11000 10999 10996 ] final   24.39 input  -57.11 | X-H torsion

> <Gold.Protein.ActiveResidues>
 VAL166  LYS551  ARG553  GLY616  TRP617  ASP618  TYR619  PRO620  LYS621  CYS622 
 ASP623  PHE694  ASN695  SER759  ASP760  ASP761  ALA762  ILE779  LEU786  VAL792 
 PHE793  MET794  SER795  GLU796  ALA797  LYS798  CYS799  TRP800  GLU811  SER814 

> <Gold.Protein.RotatedAtoms>
  152.3283  133.5929  159.5791 H   0  0  0  0  0  0  0  0  0  0  0  0  # atno 6907 bound_to 6896
  150.7409  133.9907  159.3615 H   0  0  0  0  0  0  0  0  0  0  0  0  # atno 6908 bound_to 6896
  151.7784  135.0768  160.0421 H   0  0  0  0  0  0  0  0  0  0  0  0  # atno 6909 bound_to 6896
  146.0409  139.4879  142.9778 H   0  0  0  0  0  0  0  0  0  0  0  0  # atno 7974 bound_to 7965
  155.9078  140.3429  155.6075 H   0  0  0  0  0  0  0  0  0  0  0  0  # atno 8008 bound_to 7997
  155.7424  140.0809  157.2258 H   0  0  0  0  0  0  0  0  0  0  0  0  # atno 8009 bound_to 7997
  154.4052  140.1568  156.2618 H   0  0  0  0  0  0  0  0  0  0  0  0  # atno 8010 bound_to 7997
  140.7280  143.4663  151.0308 H   0  0  0  0  0  0  0  0  0  0  0  0  # atno 10167 bound_to 10162
  157.5922  130.9067  149.9626 H   0  0  0  0  0  0  0  0  0  0  0  0  # atno 10718 bound_to 10713
  153.5788  135.7005  153.5472 H   0  0  0  0  0  0  0  0  0  0  0  0  # atno 10763 bound_to 10752
  153.3279  135.4055  155.1471 H   0  0  0  0  0  0  0  0  0  0  0  0  # atno 10764 bound_to 10752
  154.8621  135.3711  154.5314 H   0  0  0  0  0  0  0  0  0  0  0  0  # atno 10765 bound_to 10752
  140.3592  134.2144  155.7673 H   0  0  0  0  0  0  0  0  0  0  0  0  # atno 11005 bound_to 11000
  145.6885  141.0171  143.1568 LP  0  0  0  0  0  0  0  0  0  0  0  0  # atno 17320 bound_to 7965
  144.7074  139.8505  143.7425 LP  0  0  0  0  0  0  0  0  0  0  0  0  # atno 17321 bound_to 7965
  139.8352  143.7637  152.3180 LP  0  0  0  0  0  0  0  0  0  0  0  0  # atno 17342 bound_to 10162
  139.7767  144.7458  151.0147 LP  0  0  0  0  0  0  0  0  0  0  0  0  # atno 17343 bound_to 10162
  156.0978  130.3658  150.0273 LP  0  0  0  0  0  0  0  0  0  0  0  0  # atno 17370 bound_to 10713
  156.8394  130.9420  151.3633 LP  0  0  0  0  0  0  0  0  0  0  0  0  # atno 17371 bound_to 10713
  141.1989  133.8024  157.0561 LP  0  0  0  0  0  0  0  0  0  0  0  0  # atno 17394 bound_to 11000
  140.0640  134.9739  157.1354 LP  0  0  0  0  0  0  0  0  0  0  0  0  # atno 17395 bound_to 11000

$$$$
