AV-unprocessed.smi:2635|AV-procd|sdf|10256|dock8
  -GOLD-   2272014263D 1   1.00000     0.00000
 Structure written by MMmdl.
 31 32  0  0  0  0  0  0  0  0  2 V2000
  147.6984  141.5560  154.1135 C   0  0  0  0  0  0  0  0  0  0  0  0
  148.9779  141.0151  154.7251 C   0  0  0  0  0  0  0  0  0  0  0  0
  149.7794  141.7593  155.5150 C   0  0  0  0  0  0  0  0  0  0  0  0
  150.9617  141.2482  156.0754 N   0  0  0  0  0  0  0  0  0  0  0  0
  151.7910  142.1285  156.8806 C   0  0  0  0  0  0  0  0  0  0  0  0
  150.9761  143.0474  157.5320 O   0  0  0  0  0  0  0  0  0  0  0  0
  151.7065  144.0973  158.1444 C   0  0  0  0  0  0  0  0  0  0  0  0
  152.1483  143.7271  159.5466 C   0  0  0  0  0  0  0  0  0  0  0  0
  152.8970  142.5509  159.7624 C   0  0  0  0  0  0  0  0  0  0  0  0
  153.2973  142.1954  161.0654 C   0  0  0  0  0  0  0  0  0  0  0  0
  152.9474  143.0127  162.1577 C   0  0  0  0  0  0  0  0  0  0  0  0
  152.1951  144.1845  161.9468 C   0  0  0  0  0  0  0  0  0  0  0  0
  151.7936  144.5399  160.6442 C   0  0  0  0  0  0  0  0  0  0  0  0
  151.3613  139.9719  155.7964 C   0  0  0  0  0  0  0  0  0  0  0  0
  152.4214  139.5562  156.2669 O   0  0  0  0  0  0  0  0  0  0  0  0
  150.5594  139.1960  155.0046 N   0  5  0  0  0  0  0  0  0  0  0  0
  149.3886  139.6345  154.4557 C   0  0  0  0  0  0  0  0  0  0  0  0
  148.6809  138.9151  153.7513 O   0  0  0  0  0  0  0  0  0  0  0  0
  147.5204  142.5868  154.4211 H   0  0  0  0  0  0  0  0  0  0  0  0
  146.8428  140.9567  154.4261 H   0  0  0  0  0  0  0  0  0  0  0  0
  147.7575  141.5322  153.0249 H   0  0  0  0  0  0  0  0  0  0  0  0
  149.5656  142.7890  155.7612 H   0  0  0  0  0  0  0  0  0  0  0  0
  152.3502  141.5384  157.6083 H   0  0  0  0  0  0  0  0  0  0  0  0
  152.5072  142.6321  156.2275 H   0  0  0  0  0  0  0  0  0  0  0  0
  152.5779  144.3443  157.5360 H   0  0  0  0  0  0  0  0  0  0  0  0
  151.0883  144.9941  158.2067 H   0  0  0  0  0  0  0  0  0  0  0  0
  153.1659  141.9200  158.9276 H   0  0  0  0  0  0  0  0  0  0  0  0
  153.8717  141.2954  161.2272 H   0  0  0  0  0  0  0  0  0  0  0  0
  153.2545  142.7401  163.1565 H   0  0  0  0  0  0  0  0  0  0  0  0
  151.9249  144.8107  162.7841 H   0  0  0  0  0  0  0  0  0  0  0  0
  151.2148  145.4390  160.4921 H   0  0  0  0  0  0  0  0  0  0  0  0
  1  2  1  0  0  0  0
  1 19  1  0  0  0  0
  1 20  1  0  0  0  0
  1 21  1  0  0  0  0
  2 17  1  0  0  0  0
  2  3  2  0  0  0  0
  3  4  1  0  0  0  0
  3 22  1  0  0  0  0
  4  5  1  0  0  0  0
  4 14  1  0  0  0  0
  5  6  1  0  0  0  0
  5 23  1  0  0  0  0
  5 24  1  0  0  0  0
  6  7  1  0  0  0  0
  7  8  1  0  0  0  0
  7 25  1  0  0  0  0
  7 26  1  0  0  0  0
  8 13  1  0  0  0  0
  8  9  2  0  0  0  0
  9 10  1  0  0  0  0
  9 27  1  0  0  0  0
 10 11  2  0  0  0  0
 10 28  1  0  0  0  0
 11 12  1  0  0  0  0
 11 29  1  0  0  0  0
 12 13  2  0  0  0  0
 12 30  1  0  0  0  0
 13 31  1  0  0  0  0
 14 15  2  0  0  0  0
 14 16  1  0  0  0  0
 16 17  1  0  0  0  0
 17 18  2  0  0  0  0
M  CHG  1  16  -1
M  END
> <s_m_source_file>
AV-unprocessed.smi

> <i_m_source_file_index>
2635

> <i_lp_mmshare_version>
43012

> <i_f3d_flags>
0

> <s_epik_input>
Tz1jMVtuSF1jKD1PKW4oW2NIXWMxW0NIM10pW0NIMl1PW0NIMl1jMltjSF1bY0hdW2NIXVtjSF1bY0hdMg==

> <s_epik_cmdline>
J2VwaWtfcHl0aG9uJywgJy1waCcsICc3LjAnLCAnLXRuJywgJzgnLCAnLW1hJywgJzIwMCcsICctbWV0YWxfYmluZGluZycsICctaW1hZScsICc8aW5maWxlLm1hZT4nLCAnLW9tYWUnLCAnPG91dGZpbGUubWFlPic=

> <r_lp_tautomer_probability>
0.999537

> <r_epik_Ionization_Penalty>
3.41553

> <r_epik_Ionization_Penalty_Charging>
6.94296e-08

> <r_epik_Ionization_Penalty_Neutral>
3.41553

> <r_epik_State_Penalty>
3.41493

> <r_epik_Charging_Adjusted_Penalty>
3.41493

> <i_epik_Tot_Q>
-1

> <i_epik_Tot_abs_Q>
1

> <r_epik_Metal_State_Penalty>
0.16353

> <b_epik_Metal_Only>
1

> <s_epik_Chemistry_Notes>
This compound contains an acetal/aminal-like group ( X-CH(R)-Y where X, Y are N, S, or O) that may be acid/base labile, releasing an aldehyde.

> <s_lp_Force_Field>
OPLS_2005

> <r_lp_Energy>
15.2245

> <b_lp_Chiralities_Consistent>
1

> <s_lp_Variant>
AV-unprocessed.smi:2635-2

> <Gold.Version>
5.8.1

> <Gold.Id.Protein>
6NUR|6NUR_protein|mol2

> <Gold.PLP.Fitness>
49.3161

> <Gold.PLP.PLP>
-44.4581

> <Gold.PLP.part.hbond>
-1.0000

> <Gold.PLP.part.metal>
0.0000

> <Gold.PLP.part.buried>
-5.9195

> <Gold.PLP.part.nonpolar>
-38.5463

> <Gold.PLP.part.repulsive>
1.8326

> <Gold.PLP.ligand.clash>
0.0000

> <Gold.PLP.ligand.torsion>
0.5809

> <Gold.PLP.Chemscore.Hbond>
1.0000

> <Gold.PLP.Chemscore.CHOScore>
1.0000

> <Gold.PLP.Chemscore.Metal>
0.0000

> <Gold.Chemscore.Hbonds>
donor molecule, donor type, donor heavy atom, donor atom, acceptor molecule, acceptor atom, score
      P1  H  7997  8008       L1    15  1.00
      L1  C     3    22       P1  8028  1.00

> <Gold.PLP.Chemscore.Internal.Correction>
0.0199

> <Gold.Rescore>
     Score         DG    S(hbond)    S(metal)    S(lipo)     H(rot)  DE(clash)    DE(int)     intcor
     13.94     -16.14       1.00        0.00     104.18       1.90       1.63       0.57       ----

> <Gold.Chemscore.Fitness>
13.9432

> <Gold.Chemscore.DG>
-16.1438

> <Gold.Chemscore.ZeroCoef>
-5.4800

> <Gold.Chemscore.Hbond>
1.0000

> <Gold.Chemscore.Metal>
0.0000

> <Gold.Chemscore.Lipo>
104.1790

> <Gold.Chemscore.Internal_Hbond>
0.0000

> <Gold.Chemscore.DEClash>
1.6325

> <Gold.Chemscore.DEInternal>
0.5680

> <Gold.Chemscore.Rot>
1.9004

> <Gold.Chemscore.Internal.Correction>
   9.000000E+99

> <Gold.Chemscore.Hbonds>
donor molecule, donor type, donor heavy atom, donor atom, acceptor molecule, acceptor atom, score
      P1  H  7997  8008       L1    15  0.95

> <Gold.Chemscore.Hbond.Weighted>
-3.3399

> <Gold.Chemscore.Metal.Weighted>
-0.0000

> <Gold.Chemscore.Lipo.Weighted>
-12.1889

> <Gold.Chemscore.Internal_Hbond.Weighted>
0.0000

> <Gold.Chemscore.DEClash.Weighted>
1.6325

> <Gold.Chemscore.DEInternal.Weighted>
0.5680

> <Gold.Chemscore.Rot.Weighted>
4.8651

> <Gold.Chemscore.Internal.Correction.Weighted>
   9.000000E+99

> <Gold.Protein.RotatedTorsions>
[ 6907 6896 6895 6894 ] final  -88.41 input  -60.11 | X-H torsion
[ 7974 7965 7964 7962 ] final   36.16 input  175.53 | X-H torsion
[ 8008 7997 7996 7995 ] final  -36.45 input   59.86 | X-H torsion
[ 10167 10162 10161 10158 ] final  149.46 input  -65.29 | X-H torsion
[ 10718 10713 10712 10709 ] final   -9.09 input   66.30 | X-H torsion
[ 10763 10752 10751 10750 ] final   93.13 input  -60.55 | X-H torsion
[ 11005 11000 10999 10996 ] final  -27.43 input  -57.11 | X-H torsion

> <Gold.Protein.ActiveResidues>
 VAL166  LYS551  ARG553  GLY616  TRP617  ASP618  TYR619  PRO620  LYS621  CYS622 
 ASP623  PHE694  ASN695  SER759  ASP760  ASP761  ALA762  ILE779  LEU786  VAL792 
 PHE793  MET794  SER795  GLU796  ALA797  LYS798  CYS799  TRP800  GLU811  SER814 

> <Gold.Protein.RotatedAtoms>
  150.6868  134.2746  159.4602 H   0  0  0  0  0  0  0  0  0  0  0  0  # atno 6907 bound_to 6896
  152.0666  134.9558  160.0584 H   0  0  0  0  0  0  0  0  0  0  0  0  # atno 6908 bound_to 6896
  152.0964  133.4192  159.4604 H   0  0  0  0  0  0  0  0  0  0  0  0  # atno 6909 bound_to 6896
  146.1231  139.6052  142.9276 H   0  0  0  0  0  0  0  0  0  0  0  0  # atno 7974 bound_to 7965
  154.4073  140.1630  156.2377 H   0  0  0  0  0  0  0  0  0  0  0  0  # atno 8008 bound_to 7997
  155.9228  140.3420  155.6164 H   0  0  0  0  0  0  0  0  0  0  0  0  # atno 8009 bound_to 7997
  155.7201  140.0767  157.2325 H   0  0  0  0  0  0  0  0  0  0  0  0  # atno 8010 bound_to 7997
  139.4861  144.5600  151.7248 H   0  0  0  0  0  0  0  0  0  0  0  0  # atno 10167 bound_to 10162
  156.6931  130.5071  149.5938 H   0  0  0  0  0  0  0  0  0  0  0  0  # atno 10718 bound_to 10713
  153.2268  135.4336  155.0551 H   0  0  0  0  0  0  0  0  0  0  0  0  # atno 10763 bound_to 10752
  154.8277  135.3370  154.6845 H   0  0  0  0  0  0  0  0  0  0  0  0  # atno 10764 bound_to 10752
  153.7274  135.7013  153.5054 H   0  0  0  0  0  0  0  0  0  0  0  0  # atno 10765 bound_to 10752
  140.9119  133.7455  156.0682 H   0  0  0  0  0  0  0  0  0  0  0  0  # atno 11005 bound_to 11000
  145.5423  141.0420  143.2324 LP  0  0  0  0  0  0  0  0  0  0  0  0  # atno 17320 bound_to 7965
  144.7616  139.6942  143.7232 LP  0  0  0  0  0  0  0  0  0  0  0  0  # atno 17321 bound_to 7965
  140.5168  144.0940  150.6011 LP  0  0  0  0  0  0  0  0  0  0  0  0  # atno 17342 bound_to 10162
  140.3885  143.2765  152.0088 LP  0  0  0  0  0  0  0  0  0  0  0  0  # atno 17343 bound_to 10162
  156.1783  130.6482  151.0921 LP  0  0  0  0  0  0  0  0  0  0  0  0  # atno 17370 bound_to 10713
  157.7001  131.0779  150.6846 LP  0  0  0  0  0  0  0  0  0  0  0  0  # atno 17371 bound_to 10713
  140.8099  134.3411  157.5415 LP  0  0  0  0  0  0  0  0  0  0  0  0  # atno 17394 bound_to 11000
  139.8759  134.9248  156.3359 LP  0  0  0  0  0  0  0  0  0  0  0  0  # atno 17395 bound_to 11000

$$$$
