AV-unprocessed.smi:2468|AV-procd|sdf|9732|dock1
  -GOLD-   2272013373D 1   1.00000     0.00000
 Structure written by MMmdl.
 32 33  0  0  0  0  0  0  0  0  1 V2000
  153.7672  142.3466  162.7729 C   0  0  0  0  0  0  0  0  0  0  0  0
  152.9422  142.7836  161.5771 C   0  0  0  0  0  0  0  0  0  0  0  0
  152.2812  143.9534  161.7188 N   0  0  0  0  0  0  0  0  0  0  0  0
  151.5390  144.3924  160.6819 C   0  0  0  0  0  0  0  0  0  0  0  0
  151.4145  143.6923  159.4667 C   0  0  0  0  0  0  0  0  0  0  0  0
  152.0919  142.4580  159.3209 C   0  0  0  0  0  0  0  0  0  0  0  0
  152.0526  141.6809  158.1305 N   0  0  0  0  0  0  0  0  0  0  0  0
  151.1490  141.7048  157.1333 C   0  0  0  0  0  0  0  0  0  0  0  0
  150.1678  142.4475  157.1015 O   0  0  0  0  0  0  0  0  0  0  0  0
  151.4055  140.7148  155.9866 C   0  0  1  0  0  0  0  0  0  0  0  0
  152.4108  139.7779  156.3739 O   0  0  0  0  0  0  0  0  0  0  0  0
  152.0939  138.4781  155.8841 C   0  0  0  0  0  0  0  0  0  0  0  0
  150.8959  138.6583  154.9576 C   0  0  0  0  0  0  0  0  0  0  0  0
  150.1999  139.8593  155.5652 C   0  0  2  0  0  0  0  0  0  0  0  0
  149.2203  140.5530  154.6053 C   0  0  0  0  0  0  0  0  0  0  0  0
  152.8854  142.0013  160.3996 C   0  0  0  0  0  0  0  0  0  0  0  0
  153.7639  140.5127  160.2849 Cl  0  0  0  0  0  0  0  0  0  0  0  0
  153.4208  141.3802  163.1397 H   0  0  0  0  0  0  0  0  0  0  0  0
  153.6966  143.0629  163.5926 H   0  0  0  0  0  0  0  0  0  0  0  0
  154.8176  142.2548  162.4956 H   0  0  0  0  0  0  0  0  0  0  0  0
  151.0335  145.3364  160.8222 H   0  0  0  0  0  0  0  0  0  0  0  0
  150.8192  144.1189  158.6744 H   0  0  0  0  0  0  0  0  0  0  0  0
  152.7549  140.9580  158.0643 H   0  0  0  0  0  0  0  0  0  0  0  0
  151.7852  141.2671  155.1257 H   0  0  0  0  0  0  0  0  0  0  0  0
  152.9461  138.0237  155.3781 H   0  0  0  0  0  0  0  0  0  0  0  0
  151.8275  137.8464  156.7323 H   0  0  0  0  0  0  0  0  0  0  0  0
  151.2390  138.8878  153.9474 H   0  0  0  0  0  0  0  0  0  0  0  0
  150.2609  137.7731  154.9088 H   0  0  0  0  0  0  0  0  0  0  0  0
  149.6564  139.5289  156.4526 H   0  0  0  0  0  0  0  0  0  0  0  0
  149.7257  140.9022  153.7045 H   0  0  0  0  0  0  0  0  0  0  0  0
  148.7463  141.4150  155.0747 H   0  0  0  0  0  0  0  0  0  0  0  0
  148.4283  139.8695  154.2982 H   0  0  0  0  0  0  0  0  0  0  0  0
  1  2  1  0  0  0  0
  1 18  1  0  0  0  0
  1 19  1  0  0  0  0
  1 20  1  0  0  0  0
  2 16  1  0  0  0  0
  2  3  2  0  0  0  0
  3  4  1  0  0  0  0
  4  5  2  0  0  0  0
  4 21  1  0  0  0  0
  5  6  1  0  0  0  0
  5 22  1  0  0  0  0
  6  7  1  0  0  0  0
  6 16  2  0  0  0  0
  7  8  1  0  0  0  0
  7 23  1  0  0  0  0
  8  9  2  0  0  0  0
  8 10  1  0  0  0  0
 10 14  1  0  0  0  0
 10 11  1  0  0  0  0
 10 24  1  0  0  0  0
 11 12  1  0  0  0  0
 12 13  1  0  0  0  0
 12 25  1  0  0  0  0
 12 26  1  0  0  0  0
 13 14  1  0  0  0  0
 13 27  1  0  0  0  0
 13 28  1  0  0  0  0
 14 15  1  0  0  0  0
 14 29  1  0  0  0  0
 15 30  1  0  0  0  0
 15 31  1  0  0  0  0
 15 32  1  0  0  0  0
 16 17  1  0  0  0  0
M  END
> <s_m_source_file>
AV-unprocessed.smi

> <i_m_source_file_index>
2468

> <i_lp_mmshare_version>
43012

> <i_f3d_flags>
0

> <s_epik_input>
W0NIM11jMW5bY0hdW2NIXWMoYzFDbClbTkhdQyg9TylbQ0BASF0yT1tDSDJdW0NIMl1bQ0BIXTJbQ0gzXQ==

> <s_epik_cmdline>
J2VwaWtfcHl0aG9uJywgJy1waCcsICc3LjAnLCAnLXRuJywgJzgnLCAnLW1hJywgJzIwMCcsICctbWV0YWxfYmluZGluZycsICctaW1hZScsICc8aW5maWxlLm1hZT4nLCAnLW9tYWUnLCAnPG91dGZpbGUubWFlPic=

> <r_epik_Ionization_Penalty>
0.000361027

> <r_epik_Ionization_Penalty_Charging>
0

> <r_epik_Ionization_Penalty_Neutral>
0.000361027

> <r_epik_State_Penalty>
0.000217849

> <r_epik_Charging_Adjusted_Penalty>
0.000217849

> <i_epik_Tot_Q>
0

> <i_epik_Tot_abs_Q>
0

> <r_epik_Metal_State_Penalty>
-0

> <b_epik_Metal_Only>
0

> <s_lp_Force_Field>
OPLS_2005

> <r_lp_Energy>
24.7843

> <b_lp_Chiralities_Consistent>
1

> <s_lp_Variant>
AV-unprocessed.smi:2468-4

> <Gold.Version>
5.8.1

> <Gold.Id.Protein>
6NUR|6NUR_protein|mol2

> <Gold.PLP.Fitness>
42.1647

> <Gold.PLP.PLP>
-39.8290

> <Gold.PLP.part.hbond>
-1.0000

> <Gold.PLP.part.metal>
0.0000

> <Gold.PLP.part.buried>
-3.6764

> <Gold.PLP.part.nonpolar>
-34.5563

> <Gold.PLP.part.repulsive>
1.6128

> <Gold.PLP.ligand.clash>
0.0000

> <Gold.PLP.ligand.torsion>
0.3335

> <Gold.PLP.Chemscore.Hbond>
1.0000

> <Gold.PLP.Chemscore.CHOScore>
0.0000

> <Gold.PLP.Chemscore.Metal>
0.0000

> <Gold.Chemscore.Hbonds>
donor molecule, donor type, donor heavy atom, donor atom, acceptor molecule, acceptor atom, score
      P1  H  7997  8009       L1    11  1.00

> <Gold.PLP.Chemscore.Internal.Correction>
0.0027

> <Gold.Rescore>
     Score         DG    S(hbond)    S(metal)    S(lipo)     H(rot)  DE(clash)    DE(int)     intcor
     17.14     -18.80       0.94        0.00     108.80       1.00       0.09       1.57       ----

> <Gold.Chemscore.Fitness>
17.1410

> <Gold.Chemscore.DG>
-18.7971

> <Gold.Chemscore.ZeroCoef>
-5.4800

> <Gold.Chemscore.Hbond>
0.9424

> <Gold.Chemscore.Metal>
0.0000

> <Gold.Chemscore.Lipo>
108.8000

> <Gold.Chemscore.Internal_Hbond>
0.0000

> <Gold.Chemscore.DEClash>
0.0865

> <Gold.Chemscore.DEInternal>
1.5696

> <Gold.Chemscore.Rot>
1.0000

> <Gold.Chemscore.Internal.Correction>
   9.000000E+99

> <Gold.Chemscore.Hbonds>
donor molecule, donor type, donor heavy atom, donor atom, acceptor molecule, acceptor atom, score
      P1  H  7997  8009       L1    11  0.81

> <Gold.Chemscore.Hbond.Weighted>
-3.1474

> <Gold.Chemscore.Metal.Weighted>
-0.0000

> <Gold.Chemscore.Lipo.Weighted>
-12.7296

> <Gold.Chemscore.Internal_Hbond.Weighted>
0.0000

> <Gold.Chemscore.DEClash.Weighted>
0.0865

> <Gold.Chemscore.DEInternal.Weighted>
1.5696

> <Gold.Chemscore.Rot.Weighted>
2.5600

> <Gold.Chemscore.Internal.Correction.Weighted>
   9.000000E+99

> <Gold.Protein.RotatedTorsions>
[ 6907 6896 6895 6894 ] final  -76.17 input  -60.11 | X-H torsion
[ 7974 7965 7964 7962 ] final -125.17 input  175.53 | X-H torsion
[ 8008 7997 7996 7995 ] final -160.04 input   59.86 | X-H torsion
[ 10167 10162 10161 10158 ] final   27.97 input  -65.29 | X-H torsion
[ 10718 10713 10712 10709 ] final  -86.64 input   66.30 | X-H torsion
[ 10763 10752 10751 10750 ] final  174.02 input  -60.55 | X-H torsion
[ 11005 11000 10999 10996 ] final  179.66 input  -57.11 | X-H torsion

> <Gold.Protein.ActiveResidues>
 VAL166  LYS551  ARG553  GLY616  TRP617  ASP618  TYR619  PRO620  LYS621  CYS622 
 ASP623  PHE694  ASN695  SER759  ASP760  ASP761  ALA762  ILE779  LEU786  VAL792 
 PHE793  MET794  SER795  GLU796  ALA797  LYS798  CYS799  TRP800  GLU811  SER814 

> <Gold.Protein.RotatedAtoms>
  150.7035  134.4611  159.5380 H   0  0  0  0  0  0  0  0  0  0  0  0  # atno 6907 bound_to 6896
  152.2286  134.8341  160.0486 H   0  0  0  0  0  0  0  0  0  0  0  0  # atno 6908 bound_to 6896
  151.9166  133.3539  159.3919 H   0  0  0  0  0  0  0  0  0  0  0  0  # atno 6909 bound_to 6896
  145.0004  140.7815  143.4500 H   0  0  0  0  0  0  0  0  0  0  0  0  # atno 7974 bound_to 7965
  155.7716  140.0853  157.2105 H   0  0  0  0  0  0  0  0  0  0  0  0  # atno 8008 bound_to 7997
  154.3996  140.1524  156.3005 H   0  0  0  0  0  0  0  0  0  0  0  0  # atno 8009 bound_to 7997
  155.8741  140.3424  155.5844 H   0  0  0  0  0  0  0  0  0  0  0  0  # atno 8010 bound_to 7997
  140.4892  144.0493  150.6291 H   0  0  0  0  0  0  0  0  0  0  0  0  # atno 10167 bound_to 10162
  155.9989  130.4772  150.4745 H   0  0  0  0  0  0  0  0  0  0  0  0  # atno 10718 bound_to 10713
  154.4481  135.2764  155.1800 H   0  0  0  0  0  0  0  0  0  0  0  0  # atno 10763 bound_to 10752
  154.3639  135.6123  153.5708 H   0  0  0  0  0  0  0  0  0  0  0  0  # atno 10764 bound_to 10752
  152.9845  135.5841  154.4821 H   0  0  0  0  0  0  0  0  0  0  0  0  # atno 10765 bound_to 10752
  140.4086  134.6712  157.4602 H   0  0  0  0  0  0  0  0  0  0  0  0  # atno 11005 bound_to 11000
  145.2161  139.2181  143.5117 LP  0  0  0  0  0  0  0  0  0  0  0  0  # atno 17320 bound_to 7965
  146.3450  140.2009  142.8589 LP  0  0  0  0  0  0  0  0  0  0  0  0  # atno 17321 bound_to 7965
  140.3758  143.2830  152.0227 LP  0  0  0  0  0  0  0  0  0  0  0  0  # atno 17342 bound_to 10162
  139.4848  144.6194  151.7284 LP  0  0  0  0  0  0  0  0  0  0  0  0  # atno 17343 bound_to 10162
  157.2757  131.0596  151.2231 LP  0  0  0  0  0  0  0  0  0  0  0  0  # atno 17370 bound_to 10713
  157.3295  130.6978  149.6316 LP  0  0  0  0  0  0  0  0  0  0  0  0  # atno 17371 bound_to 10713
  140.0284  134.6443  155.9141 LP  0  0  0  0  0  0  0  0  0  0  0  0  # atno 17394 bound_to 11000
  141.1829  133.6550  156.5097 LP  0  0  0  0  0  0  0  0  0  0  0  0  # atno 17395 bound_to 11000

$$$$
