AV-unprocessed.smi:3163|AV-procd|sdf|12074|dock3
  -GOLD-   2272017503D 1   1.00000     0.00000
 Structure written by MMmdl.
 36 37  0  0  0  0  0  0  0  0  2 V2000
  150.1797  140.2218  155.0664 C   0  0  0  0  0  0  0  0  0  0  0  0
  149.2590  140.2784  153.9118 N   0  3  2  0  0  0  0  0  0  0  0  0
  148.3119  141.4180  153.9341 C   0  0  0  0  0  0  0  0  0  0  0  0
  146.9263  140.8467  153.6082 C   0  0  0  0  0  0  0  0  0  0  0  0
  147.2188  139.4951  152.9557 C   0  0  2  0  0  0  0  0  0  0  0  0
  146.0588  138.4825  153.0162 C   0  0  0  0  0  0  0  0  0  0  0  0
  146.3923  137.2250  152.3552 N   0  0  0  0  0  0  0  0  0  0  0  0
  145.4998  136.3299  151.9077 C   0  0  0  0  0  0  0  0  0  0  0  0
  144.2831  136.4854  152.0072 O   0  0  0  0  0  0  0  0  0  0  0  0
  146.1140  135.2741  151.3453 N   0  0  0  0  0  0  0  0  0  0  0  0
  145.5499  134.1053  150.7624 C   0  0  0  0  0  0  0  0  0  0  0  0
  146.4398  133.0852  150.3663 C   0  0  0  0  0  0  0  0  0  0  0  0
  145.9166  131.9077  149.7957 C   0  0  0  0  0  0  0  0  0  0  0  0
  144.5970  131.6973  149.6094 N   0  0  0  0  0  0  0  0  0  0  0  0
  143.7450  132.6696  149.9968 C   0  0  0  0  0  0  0  0  0  0  0  0
  144.1630  133.8837  150.5783 C   0  0  0  0  0  0  0  0  0  0  0  0
  148.4749  139.0444  153.7001 C   0  0  0  0  0  0  0  0  0  0  0  0
  149.6307  140.1010  156.0012 H   0  0  0  0  0  0  0  0  0  0  0  0
  150.7680  141.1378  155.1298 H   0  0  0  0  0  0  0  0  0  0  0  0
  150.8698  139.3839  154.9626 H   0  0  0  0  0  0  0  0  0  0  0  0
  148.3029  141.9335  154.8958 H   0  0  0  0  0  0  0  0  0  0  0  0
  148.6215  142.1391  153.1768 H   0  0  0  0  0  0  0  0  0  0  0  0
  146.3659  140.7012  154.5329 H   0  0  0  0  0  0  0  0  0  0  0  0
  146.3413  141.5066  152.9666 H   0  0  0  0  0  0  0  0  0  0  0  0
  147.4911  139.6697  151.9132 H   0  0  0  0  0  0  0  0  0  0  0  0
  145.7768  138.2917  154.0530 H   0  0  0  0  0  0  0  0  0  0  0  0
  145.1748  138.8941  152.5284 H   0  0  0  0  0  0  0  0  0  0  0  0
  147.3735  137.0236  152.2274 H   0  0  0  0  0  0  0  0  0  0  0  0
  147.1210  135.3271  151.3003 H   0  0  0  0  0  0  0  0  0  0  0  0
  147.5067  133.1985  150.4928 H   0  0  0  0  0  0  0  0  0  0  0  0
  146.5771  131.1128  149.4824 H   0  0  0  0  0  0  0  0  0  0  0  0
  142.6945  132.4726  149.8430 H   0  0  0  0  0  0  0  0  0  0  0  0
  143.4143  134.6018  150.8722 H   0  0  0  0  0  0  0  0  0  0  0  0
  149.0460  138.2985  153.1465 H   0  0  0  0  0  0  0  0  0  0  0  0
  148.2014  138.6117  154.6642 H   0  0  0  0  0  0  0  0  0  0  0  0
  149.8235  140.4011  153.0830 H   0  0  0  0  0  0  0  0  0  0  0  0
  1  2  1  0  0  0  0
  1 18  1  0  0  0  0
  1 19  1  0  0  0  0
  1 20  1  0  0  0  0
  2 17  1  0  0  0  0
  2  3  1  0  0  0  0
  2 36  1  0  0  0  0
  3  4  1  0  0  0  0
  3 21  1  0  0  0  0
  3 22  1  0  0  0  0
  4  5  1  0  0  0  0
  4 23  1  0  0  0  0
  4 24  1  0  0  0  0
  5  6  1  0  0  0  0
  5 17  1  0  0  0  0
  5 25  1  0  0  0  0
  6  7  1  0  0  0  0
  6 26  1  0  0  0  0
  6 27  1  0  0  0  0
  7  8  1  0  0  0  0
  7 28  1  0  0  0  0
  8  9  2  0  0  0  0
  8 10  1  0  0  0  0
 10 11  1  0  0  0  0
 10 29  1  0  0  0  0
 11 16  1  0  0  0  0
 11 12  2  0  0  0  0
 12 13  1  0  0  0  0
 12 30  1  0  0  0  0
 13 14  2  0  0  0  0
 13 31  1  0  0  0  0
 14 15  1  0  0  0  0
 15 16  2  0  0  0  0
 15 32  1  0  0  0  0
 16 33  1  0  0  0  0
 17 34  1  0  0  0  0
 17 35  1  0  0  0  0
M  CHG  1   2   1
M  END
> <s_m_source_file>
AV-unprocessed.smi

> <i_m_source_file_index>
3163

> <i_lp_mmshare_version>
43012

> <i_f3d_flags>
0

> <s_epik_input>
W0NIM11OMVtDSDJdW0NIMl1bQ0BIXShbQ0gyXTEpW0NIMl1bTkhdQyg9TylbTkhdYzJbY0hdW2NIXW5bY0hdW2NIXTI=

> <s_epik_cmdline>
J2VwaWtfcHl0aG9uJywgJy1waCcsICc3LjAnLCAnLXRuJywgJzgnLCAnLW1hJywgJzIwMCcsICctbWV0YWxfYmluZGluZycsICctaW1hZScsICc8aW5maWxlLm1hZT4nLCAnLW9tYWUnLCAnPG91dGZpbGUubWFlPic=

> <r_epik_Ionization_Penalty>
0.103936

> <r_epik_Ionization_Penalty_Charging>
0.0012301

> <r_epik_Ionization_Penalty_Neutral>
0.102706

> <r_epik_State_Penalty>
0.0926275

> <r_epik_Charging_Adjusted_Penalty>
0.0938576

> <i_epik_Tot_Q>
1

> <i_epik_Tot_abs_Q>
1

> <r_epik_Metal_State_Penalty>
0.0788376

> <b_epik_Metal_Only>
0

> <s_lp_Force_Field>
OPLS_2005

> <r_lp_Energy>
32.247

> <b_lp_Chiralities_Consistent>
1

> <s_lp_Variant>
AV-unprocessed.smi:3163-4

> <Gold.Version>
5.8.1

> <Gold.Id.Protein>
6NUR|6NUR_protein|mol2

> <Gold.PLP.Fitness>
45.6001

> <Gold.PLP.PLP>
-31.5914

> <Gold.PLP.part.hbond>
-4.0000

> <Gold.PLP.part.metal>
0.0000

> <Gold.PLP.part.buried>
-0.4734

> <Gold.PLP.part.nonpolar>
-28.8052

> <Gold.PLP.part.repulsive>
1.0989

> <Gold.PLP.ligand.clash>
0.0000

> <Gold.PLP.ligand.torsion>
0.1553

> <Gold.PLP.Chemscore.Hbond>
2.8259

> <Gold.PLP.Chemscore.CHOScore>
1.9462

> <Gold.PLP.Chemscore.Metal>
0.0000

> <Gold.Chemscore.Hbonds>
donor molecule, donor type, donor heavy atom, donor atom, acceptor molecule, acceptor atom, score
      L1  H     2    36       P1  7957  0.74
      L1  H     7    28       P1  7948  1.00
      L1  H    10    29       P1  7948  0.91
      P1  H 10785 10796       L1    14  0.20
      L1  C    13    31       P1 10747  0.90
      L1  C    15    32       P1 10186  0.71
      L1  C    15    32       P1 10952  0.23

> <Gold.PLP.Chemscore.Internal.Correction>
0.0030

> <Gold.Rescore>
     Score         DG    S(hbond)    S(metal)    S(lipo)     H(rot)  DE(clash)    DE(int)     intcor
     18.56     -20.26       2.50        0.00      82.37       1.26       0.54       1.16       ----

> <Gold.Chemscore.Fitness>
18.5636

> <Gold.Chemscore.DG>
-20.2646

> <Gold.Chemscore.ZeroCoef>
-5.4800

> <Gold.Chemscore.Hbond>
2.5036

> <Gold.Chemscore.Metal>
0.0000

> <Gold.Chemscore.Lipo>
82.3736

> <Gold.Chemscore.Internal_Hbond>
0.0000

> <Gold.Chemscore.DEClash>
0.5383

> <Gold.Chemscore.DEInternal>
1.1627

> <Gold.Chemscore.Rot>
1.2559

> <Gold.Chemscore.Internal.Correction>
   9.000000E+99

> <Gold.Chemscore.Hbonds>
donor molecule, donor type, donor heavy atom, donor atom, acceptor molecule, acceptor atom, score
      L1  H     2    36       P1  7957  0.73
      L1  H     7    28       P1  7948  1.00
      L1  H    10    29       P1  7948  0.74
      P1  H 10785 10796       L1    14  0.08

> <Gold.Chemscore.Hbond.Weighted>
-8.3620

> <Gold.Chemscore.Metal.Weighted>
-0.0000

> <Gold.Chemscore.Lipo.Weighted>
-9.6377

> <Gold.Chemscore.Internal_Hbond.Weighted>
0.0000

> <Gold.Chemscore.DEClash.Weighted>
0.5383

> <Gold.Chemscore.DEInternal.Weighted>
1.1627

> <Gold.Chemscore.Rot.Weighted>
3.2151

> <Gold.Chemscore.Internal.Correction.Weighted>
   9.000000E+99

> <Gold.Protein.RotatedTorsions>
[ 6907 6896 6895 6894 ] final -166.31 input  -60.11 | X-H torsion
[ 7974 7965 7964 7962 ] final  106.54 input  175.53 | X-H torsion
[ 8008 7997 7996 7995 ] final  -77.64 input   59.86 | X-H torsion
[ 10167 10162 10161 10158 ] final  151.08 input  -65.29 | X-H torsion
[ 10718 10713 10712 10709 ] final   99.27 input   66.30 | X-H torsion
[ 10763 10752 10751 10750 ] final -149.77 input  -60.55 | X-H torsion
[ 11005 11000 10999 10996 ] final  116.01 input  -57.11 | X-H torsion

> <Gold.Protein.ActiveResidues>
 VAL166  LYS551  ARG553  GLY616  TRP617  ASP618  TYR619  PRO620  LYS621  CYS622 
 ASP623  PHE694  ASN695  SER759  ASP760  ASP761  ALA762  ILE779  LEU786  VAL792 
 PHE793  MET794  SER795  GLU796  ALA797  LYS798  CYS799  TRP800  GLU811  SER814 

> <Gold.Protein.RotatedAtoms>
  151.4415  133.3642  159.2782 H   0  0  0  0  0  0  0  0  0  0  0  0  # atno 6907 bound_to 6896
  150.9154  134.8573  159.7464 H   0  0  0  0  0  0  0  0  0  0  0  0  # atno 6908 bound_to 6896
  152.4954  134.4348  159.9576 H   0  0  0  0  0  0  0  0  0  0  0  0  # atno 6909 bound_to 6896
  145.3053  139.2557  143.3792 H   0  0  0  0  0  0  0  0  0  0  0  0  # atno 7974 bound_to 7965
  154.5615  140.0707  156.8825 H   0  0  0  0  0  0  0  0  0  0  0  0  # atno 8008 bound_to 7997
  155.2803  140.3371  155.4240 H   0  0  0  0  0  0  0  0  0  0  0  0  # atno 8009 bound_to 7997
  156.2046  140.1735  156.7813 H   0  0  0  0  0  0  0  0  0  0  0  0  # atno 8010 bound_to 7997
  139.4844  144.5470  151.7467 H   0  0  0  0  0  0  0  0  0  0  0  0  # atno 10167 bound_to 10162
  157.6879  131.0665  150.4923 H   0  0  0  0  0  0  0  0  0  0  0  0  # atno 10718 bound_to 10713
  154.8158  135.3301  154.7179 H   0  0  0  0  0  0  0  0  0  0  0  0  # atno 10763 bound_to 10752
  153.7820  135.6917  153.4891 H   0  0  0  0  0  0  0  0  0  0  0  0  # atno 10764 bound_to 10752
  153.1974  135.4529  155.0171 H   0  0  0  0  0  0  0  0  0  0  0  0  # atno 10765 bound_to 10752
  139.9028  134.9592  156.7133 H   0  0  0  0  0  0  0  0  0  0  0  0  # atno 11005 bound_to 11000
  146.3137  140.3576  142.8662 LP  0  0  0  0  0  0  0  0  0  0  0  0  # atno 17320 bound_to 7965
  144.9060  140.7700  143.5837 LP  0  0  0  0  0  0  0  0  0  0  0  0  # atno 17321 bound_to 7965
  140.5018  144.1158  150.5973 LP  0  0  0  0  0  0  0  0  0  0  0  0  # atno 17342 bound_to 10162
  140.4054  143.2683  151.9898 LP  0  0  0  0  0  0  0  0  0  0  0  0  # atno 17343 bound_to 10162
  156.5249  130.4171  149.6231 LP  0  0  0  0  0  0  0  0  0  0  0  0  # atno 17370 bound_to 10713
  156.3121  130.7234  151.2129 LP  0  0  0  0  0  0  0  0  0  0  0  0  # atno 17371 bound_to 10713
  140.7058  133.9266  155.8053 LP  0  0  0  0  0  0  0  0  0  0  0  0  # atno 17394 bound_to 11000
  141.0337  134.0719  157.3984 LP  0  0  0  0  0  0  0  0  0  0  0  0  # atno 17395 bound_to 11000

$$$$
