#       Name:                AV-unprocessed.smi:1701
#       Creating user name   scv26
#       Creation time:       Fri Mar 27 08:01:34 2020


#       File generated by GOLD software.
#

@<TRIPOS>MOLECULE
AV-unprocessed.smi:1701
    57    59     1
SMALL
NO_CHARGES


@<TRIPOS>ATOM
      1 ****        -5.9153   0.1943   3.2408 C.3            1 S1                 0.0000
      2 ****        -6.1245  -0.5567   1.9165 C.3            1 S1                 0.0000
      3 ****        -5.4264   0.0561   0.7863 N.pl3          1 S1                 0.0000
      4 ****        -6.1464   0.9938  -0.0788 C.3            1 S1                 0.0000
      5 ****        -6.0770   2.4465   0.4140 C.3            1 S1                 0.0000
      6 ****        -4.0262  -0.1045   0.6430 C.ar           1 S1                 0.0000
      7 ****        -3.2485  -0.9623   1.4615 C.ar           1 S1                 0.0000
      8 ****        -1.8581  -1.0663   1.2535 C.ar           1 S1                 0.0000
      9 ****        -1.2460  -0.3266   0.2220 C.ar           1 S1                 0.0000
     10 ****         0.1606  -0.4463   0.0605 N.am           1 S1                 0.0000
     11 ****         0.9146  -0.2510  -1.0494 C.2            1 S1                 0.0000
     12 ****         0.3563   0.0210  -2.1104 O.2            1 S1                 0.0000
     13 ****         2.2730  -0.3872  -0.9810 N.pl3          1 S1                -1.0000
     14 ****         3.1239  -0.6873   0.1835 C.3            1 S1                 0.0000
     15 ****         3.4353  -2.1884   0.2295 C.3            1 S1                 0.0000
     16 ****         4.6634  -2.3868  -0.6801 C.3            1 S1                 0.0000
     17 ****         5.2895  -1.0533  -0.8746 N.4            1 S1                 1.0000
     18 ****         5.3918  -0.6724  -2.3134 C.3            1 S1                 0.0000
     19 ****         5.8134   0.7895  -2.5019 C.3            1 S1                 0.0000
     20 ****         4.7974   1.7154  -1.8302 C.3            1 S1                 0.0000
     21 ****         4.7295   1.4014  -0.3298 C.3            1 S1                 0.0000
     22 ****         4.5418  -0.1063  -0.0001 C.3            1 S1                 0.0000
     23 ****        -2.0573   0.5273  -0.5599 C.ar           1 S1                 0.0000
     24 ****        -3.3851   0.5973  -0.3243 N.pl3          1 S1                 1.0000
     25 ****        -6.4399  -0.3100   4.0524 H              1 S1                 0.0000
     26 ****        -6.2981   1.2124   3.1915 H              1 S1                 0.0000
     27 ****        -4.8619   0.2472   3.5150 H              1 S1                 0.0000
     28 ****        -5.8287  -1.6006   2.0176 H              1 S1                 0.0000
     29 ****        -7.1916  -0.5842   1.6947 H              1 S1                 0.0000
     30 ****        -5.7735   0.9262  -1.1011 H              1 S1                 0.0000
     31 ****        -7.1915   0.6882  -0.1359 H              1 S1                 0.0000
     32 ****        -6.5815   3.1119  -0.2868 H              1 S1                 0.0000
     33 ****        -5.0466   2.7894   0.5099 H              1 S1                 0.0000
     34 ****        -6.5633   2.5666   1.3809 H              1 S1                 0.0000
     35 ****        -3.6903  -1.5463   2.2539 H              1 S1                 0.0000
     36 ****        -1.2678  -1.7177   1.8814 H              1 S1                 0.0000
     37 ****         0.6645  -0.7698   0.8730 H              1 S1                 0.0000
     38 ****         2.6860  -0.3475   1.1231 H              1 S1                 0.0000
     39 ****         3.6996  -2.4649   1.2512 H              1 S1                 0.0000
     40 ****         2.5912  -2.8159  -0.0609 H              1 S1                 0.0000
     41 ****         5.3791  -3.0725  -0.2254 H              1 S1                 0.0000
     42 ****         4.3629  -2.8285  -1.6324 H              1 S1                 0.0000
     43 ****         6.1083  -1.3332  -2.8021 H              1 S1                 0.0000
     44 ****         4.4340  -0.8302  -2.8121 H              1 S1                 0.0000
     45 ****         6.8078   0.9524  -2.0844 H              1 S1                 0.0000
     46 ****         5.8783   1.0215  -3.5653 H              1 S1                 0.0000
     47 ****         5.0811   2.7572  -1.9803 H              1 S1                 0.0000
     48 ****         3.8164   1.5927  -2.2906 H              1 S1                 0.0000
     49 ****         5.6750   1.7229   0.1093 H              1 S1                 0.0000
     50 ****         3.9682   2.0176   0.1523 H              1 S1                 0.0000
     51 ****         5.0070  -0.2307   0.9798 H              1 S1                 0.0000
     52 ****        -1.7002   1.1661  -1.3539 H              1 S1                 0.0000
     53 ****         6.2341  -1.0902  -0.5206 H              1 S1                 0.0000
     54 ****        -3.9386   1.2222  -0.9103 H              1 S1                 0.0000
     55 ****        -0.6403   0.0954  -2.1463 LP             1 S1                 0.0000
     56 ****         0.8988   0.1679  -2.9376 LP             1 S1                 0.0000
     57 ****         2.7593  -0.2656  -1.8463 LP             1 S1                 0.0000
@<TRIPOS>BOND
    1    1    2 1     
    2    1   25 1     
    3    1   26 1     
    4    1   27 1     
    5    2    3 1     
    6    2   28 1     
    7    2   29 1     
    8    3    4 1     
    9    3    6 1     
   10    4    5 1     
   11    4   30 1     
   12    4   31 1     
   13    5   32 1     
   14    5   33 1     
   15    5   34 1     
   16    6   24 ar    
   17    6    7 ar    
   18    7    8 ar    
   19    7   35 1     
   20    8    9 ar    
   21    8   36 1     
   22    9   10 1     
   23    9   23 ar    
   24   10   11 am    
   25   10   37 1     
   26   11   12 2     
   27   11   13 1     
   28   13   14 1     
   29   14   22 1     
   30   14   15 1     
   31   14   38 1     
   32   15   16 1     
   33   15   39 1     
   34   15   40 1     
   35   16   17 1     
   36   16   41 1     
   37   16   42 1     
   38   17   22 1     
   39   17   18 1     
   40   17   53 1     
   41   18   19 1     
   42   18   43 1     
   43   18   44 1     
   44   19   20 1     
   45   19   45 1     
   46   19   46 1     
   47   20   21 1     
   48   20   47 1     
   49   20   48 1     
   50   21   22 1     
   51   21   49 1     
   52   21   50 1     
   53   22   51 1     
   54   23   24 ar    
   55   23   52 1     
   56   24   54 1     
   57   12   55 1     
   58   12   56 1     
   59   13   57 1     
@<TRIPOS>SUBSTRUCTURE
      1 S1             1
@<TRIPOS>SET
LONE_PAIRS      STATIC     ATOMS    <user>   **** ""
3 55 56 57
DONOR_HYDROGENS      STATIC     ATOMS    <user>   **** ""
3 37 53 54
ATOM$BLUE        STATIC     ATOMS    COLORGROUP SYSTEM
3 55 56 57
ATOM$RED        STATIC     ATOMS    COLORGROUP SYSTEM
3 37 53 54
