AV-unprocessed.smi:2311|AV-procd|sdf|9262|dock9
  -GOLD-   2272012483D 1   1.00000     0.00000
 Structure written by MMmdl.
 40 41  0  0  0  0  0  0  0  0  1 V2000
  149.8739  129.9670  156.2024 C   0  0  0  0  0  0  0  0  0  0  0  0
  149.0838  130.8634  155.2725 C   0  0  0  0  0  0  0  0  0  0  0  0
  147.9835  130.3657  154.5469 C   0  0  0  0  0  0  0  0  0  0  0  0
  147.2910  131.2519  153.7026 C   0  0  0  0  0  0  0  0  0  0  0  0
  147.7232  132.5897  153.6200 C   0  0  0  0  0  0  0  0  0  0  0  0
  148.8367  133.0091  154.3824 C   0  0  0  0  0  0  0  0  0  0  0  0
  149.1918  134.3757  154.2287 N   0  0  0  0  0  0  0  0  0  0  0  0
  149.9096  135.1474  155.0644 C   0  0  0  0  0  0  0  0  0  0  0  0
  150.3931  134.7802  156.1357 O   0  0  0  0  0  0  0  0  0  0  0  0
  150.0382  136.3932  154.5846 N   0  0  0  0  0  0  0  0  0  0  0  0
  150.7553  137.4796  155.2466 C   0  0  1  0  0  0  0  0  0  0  0  0
  152.1619  137.6113  154.6511 C   0  0  0  0  0  0  0  0  0  0  0  0
  152.8904  138.8224  155.2496 C   0  0  0  0  0  0  0  0  0  0  0  0
  152.1287  140.0117  155.0498 O   0  0  0  0  0  0  0  0  0  0  0  0
  150.8120  140.0226  155.6118 C   0  0  0  0  0  0  0  0  0  0  0  0
  150.8736  140.0482  157.1543 C   0  0  0  0  0  0  0  0  0  0  0  0
  150.1737  141.3315  155.1181 C   0  0  0  0  0  0  0  0  0  0  0  0
  150.0076  138.8145  155.0739 C   0  0  0  0  0  0  0  0  0  0  0  0
  149.4984  132.1462  155.1935 N   0  0  0  0  0  0  0  0  0  0  0  0
  149.5745  128.9241  156.0947 H   0  0  0  0  0  0  0  0  0  0  0  0
  149.7127  130.2633  157.2391 H   0  0  0  0  0  0  0  0  0  0  0  0
  150.9402  130.0376  155.9865 H   0  0  0  0  0  0  0  0  0  0  0  0
  147.6758  129.3339  154.6336 H   0  0  0  0  0  0  0  0  0  0  0  0
  146.4417  130.9125  153.1279 H   0  0  0  0  0  0  0  0  0  0  0  0
  147.2015  133.2831  152.9763 H   0  0  0  0  0  0  0  0  0  0  0  0
  148.8581  134.8178  153.3853 H   0  0  0  0  0  0  0  0  0  0  0  0
  149.6082  136.6080  153.6969 H   0  0  0  0  0  0  0  0  0  0  0  0
  150.8496  137.2452  156.3081 H   0  0  0  0  0  0  0  0  0  0  0  0
  152.7377  136.7030  154.8324 H   0  0  0  0  0  0  0  0  0  0  0  0
  152.0982  137.7313  153.5685 H   0  0  0  0  0  0  0  0  0  0  0  0
  153.1006  138.6680  156.3078 H   0  0  0  0  0  0  0  0  0  0  0  0
  153.8569  138.9481  154.7618 H   0  0  0  0  0  0  0  0  0  0  0  0
  149.8766  140.1595  157.5816 H   0  0  0  0  0  0  0  0  0  0  0  0
  151.4770  140.8848  157.5079 H   0  0  0  0  0  0  0  0  0  0  0  0
  151.2987  139.1384  157.5756 H   0  0  0  0  0  0  0  0  0  0  0  0
  149.1492  141.4337  155.4776 H   0  0  0  0  0  0  0  0  0  0  0  0
  150.1473  141.3738  154.0287 H   0  0  0  0  0  0  0  0  0  0  0  0
  150.7348  142.1999  155.4648 H   0  0  0  0  0  0  0  0  0  0  0  0
  149.8085  138.9641  154.0115 H   0  0  0  0  0  0  0  0  0  0  0  0
  149.0321  138.7698  155.5601 H   0  0  0  0  0  0  0  0  0  0  0  0
  1  2  1  0  0  0  0
  1 20  1  0  0  0  0
  1 21  1  0  0  0  0
  1 22  1  0  0  0  0
  2 19  1  0  0  0  0
  2  3  2  0  0  0  0
  3  4  1  0  0  0  0
  3 23  1  0  0  0  0
  4  5  2  0  0  0  0
  4 24  1  0  0  0  0
  5  6  1  0  0  0  0
  5 25  1  0  0  0  0
  6  7  1  0  0  0  0
  6 19  2  0  0  0  0
  7  8  1  0  0  0  0
  7 26  1  0  0  0  0
  8  9  2  0  0  0  0
  8 10  1  0  0  0  0
 10 11  1  0  0  0  0
 10 27  1  0  0  0  0
 11 18  1  0  0  0  0
 11 12  1  0  0  0  0
 11 28  1  0  0  0  0
 12 13  1  0  0  0  0
 12 29  1  0  0  0  0
 12 30  1  0  0  0  0
 13 14  1  0  0  0  0
 13 31  1  0  0  0  0
 13 32  1  0  0  0  0
 14 15  1  0  0  0  0
 15 16  1  0  0  0  0
 15 17  1  0  0  0  0
 15 18  1  0  0  0  0
 16 33  1  0  0  0  0
 16 34  1  0  0  0  0
 16 35  1  0  0  0  0
 17 36  1  0  0  0  0
 17 37  1  0  0  0  0
 17 38  1  0  0  0  0
 18 39  1  0  0  0  0
 18 40  1  0  0  0  0
M  END
> <s_m_source_file>
AV-unprocessed.smi

> <i_m_source_file_index>
2311

> <i_lp_mmshare_version>
43012

> <i_f3d_flags>
0

> <s_epik_input>
W0NIM11jMVtjSF1bY0hdW2NIXWMobjEpW05IXUMoPU8pW05IXVtDQEBIXShbQ0gyXTIpW0NIMl1bQ0gyXU9DMihbQ0gzXSlbQ0gzXQ==

> <s_epik_cmdline>
J2VwaWtfcHl0aG9uJywgJy1waCcsICc3LjAnLCAnLXRuJywgJzgnLCAnLW1hJywgJzIwMCcsICctbWV0YWxfYmluZGluZycsICctaW1hZScsICc8aW5maWxlLm1hZT4nLCAnLW9tYWUnLCAnPG91dGZpbGUubWFlPic=

> <r_lp_tautomer_probability>
1

> <r_epik_Ionization_Penalty>
8.54628e-05

> <r_epik_Ionization_Penalty_Charging>
0

> <r_epik_Ionization_Penalty_Neutral>
8.54628e-05

> <r_epik_State_Penalty>
-0

> <r_epik_Charging_Adjusted_Penalty>
0

> <i_epik_Tot_Q>
0

> <i_epik_Tot_abs_Q>
0

> <r_epik_Metal_State_Penalty>
-0

> <b_epik_Metal_Only>
0

> <s_lp_Force_Field>
OPLS_2005

> <r_lp_Energy>
12.4955

> <b_lp_Chiralities_Consistent>
1

> <s_lp_Variant>
AV-unprocessed.smi:2311-2

> <Gold.Version>
5.8.1

> <Gold.Id.Protein>
6NUR|6NUR_protein|mol2

> <Gold.PLP.Fitness>
41.5158

> <Gold.PLP.PLP>
-34.2012

> <Gold.PLP.part.hbond>
-3.4886

> <Gold.PLP.part.metal>
0.0000

> <Gold.PLP.part.buried>
-1.5835

> <Gold.PLP.part.nonpolar>
-30.0239

> <Gold.PLP.part.repulsive>
0.1880

> <Gold.PLP.ligand.clash>
0.0000

> <Gold.PLP.ligand.torsion>
0.3988

> <Gold.PLP.Chemscore.Hbond>
2.7040

> <Gold.PLP.Chemscore.CHOScore>
0.0000

> <Gold.PLP.Chemscore.Metal>
0.0000

> <Gold.Chemscore.Hbonds>
donor molecule, donor type, donor heavy atom, donor atom, acceptor molecule, acceptor atom, score
      L1  H     7    26       P1  7948  0.98
      L1  H    10    27       P1  7948  1.00
      P1  H  7989  7998       L1    14  0.61

> <Gold.PLP.Chemscore.Internal.Correction>
0.0002

> <Gold.Rescore>
     Score         DG    S(hbond)    S(metal)    S(lipo)     H(rot)  DE(clash)    DE(int)     intcor
     16.41     -17.76       2.02        0.00      69.11       1.00       0.00       1.34       ----

> <Gold.Chemscore.Fitness>
16.4123

> <Gold.Chemscore.DG>
-17.7587

> <Gold.Chemscore.ZeroCoef>
-5.4800

> <Gold.Chemscore.Hbond>
2.0217

> <Gold.Chemscore.Metal>
0.0000

> <Gold.Chemscore.Lipo>
69.1116

> <Gold.Chemscore.Internal_Hbond>
0.0000

> <Gold.Chemscore.DEClash>
0.0018

> <Gold.Chemscore.DEInternal>
1.3446

> <Gold.Chemscore.Rot>
1.0000

> <Gold.Chemscore.Internal.Correction>
   9.000000E+99

> <Gold.Chemscore.Hbonds>
donor molecule, donor type, donor heavy atom, donor atom, acceptor molecule, acceptor atom, score
      L1  H     7    26       P1  7948  0.27
      L1  H    10    27       P1  7948  0.68
      P1  H  7989  7998       L1    14  0.09

> <Gold.Chemscore.Hbond.Weighted>
-6.7526

> <Gold.Chemscore.Metal.Weighted>
-0.0000

> <Gold.Chemscore.Lipo.Weighted>
-8.0861

> <Gold.Chemscore.Internal_Hbond.Weighted>
0.0000

> <Gold.Chemscore.DEClash.Weighted>
0.0018

> <Gold.Chemscore.DEInternal.Weighted>
1.3446

> <Gold.Chemscore.Rot.Weighted>
2.5600

> <Gold.Chemscore.Internal.Correction.Weighted>
   9.000000E+99

> <Gold.Protein.RotatedTorsions>
[ 6907 6896 6895 6894 ] final -179.00 input  -60.11 | X-H torsion
[ 7974 7965 7964 7962 ] final  -82.06 input  175.53 | X-H torsion
[ 8008 7997 7996 7995 ] final  133.72 input   59.86 | X-H torsion
[ 10167 10162 10161 10158 ] final -169.55 input  -65.29 | X-H torsion
[ 10718 10713 10712 10709 ] final -121.91 input   66.30 | X-H torsion
[ 10763 10752 10751 10750 ] final  113.11 input  -60.55 | X-H torsion
[ 11005 11000 10999 10996 ] final  -82.98 input  -57.11 | X-H torsion

> <Gold.Protein.ActiveResidues>
 VAL166  LYS551  ARG553  GLY616  TRP617  ASP618  TYR619  PRO620  LYS621  CYS622 
 ASP623  PHE694  ASN695  SER759  ASP760  ASP761  ALA762  ILE779  LEU786  VAL792 
 PHE793  MET794  SER795  GLU796  ALA797  LYS798  CYS799  TRP800  GLU811  SER814 

> <Gold.Protein.RotatedAtoms>
  151.6463  133.3323  159.3141 H   0  0  0  0  0  0  0  0  0  0  0  0  # atno 6907 bound_to 6896
  150.7982  134.7061  159.6587 H   0  0  0  0  0  0  0  0  0  0  0  0  # atno 6908 bound_to 6896
  152.4072  134.6191  160.0097 H   0  0  0  0  0  0  0  0  0  0  0  0  # atno 6909 bound_to 6896
  145.5384  140.9513  143.1565 H   0  0  0  0  0  0  0  0  0  0  0  0  # atno 7974 bound_to 7965
  156.2994  140.2514  156.3299 H   0  0  0  0  0  0  0  0  0  0  0  0  # atno 8008 bound_to 7997
  154.9155  140.0402  157.1988 H   0  0  0  0  0  0  0  0  0  0  0  0  # atno 8009 bound_to 7997
  154.8363  140.2883  155.5693 H   0  0  0  0  0  0  0  0  0  0  0  0  # atno 8010 bound_to 7997
  139.5916  144.1202  152.1640 H   0  0  0  0  0  0  0  0  0  0  0  0  # atno 10167 bound_to 10162
  156.1375  130.6441  150.9719 H   0  0  0  0  0  0  0  0  0  0  0  0  # atno 10718 bound_to 10713
  153.4876  135.3665  155.2475 H   0  0  0  0  0  0  0  0  0  0  0  0  # atno 10763 bound_to 10752
  154.8753  135.3969  154.3626 H   0  0  0  0  0  0  0  0  0  0  0  0  # atno 10764 bound_to 10752
  153.4240  135.7081  153.6340 H   0  0  0  0  0  0  0  0  0  0  0  0  # atno 10765 bound_to 10752
  141.1660  133.7271  156.8652 H   0  0  0  0  0  0  0  0  0  0  0  0  # atno 11005 bound_to 11000
  144.7590  139.7004  143.7242 LP  0  0  0  0  0  0  0  0  0  0  0  0  # atno 17320 bound_to 7965
  146.1998  139.5285  142.9751 LP  0  0  0  0  0  0  0  0  0  0  0  0  # atno 17321 bound_to 7965
  140.0777  144.5726  150.7145 LP  0  0  0  0  0  0  0  0  0  0  0  0  # atno 17342 bound_to 10162
  140.7177  143.2560  151.4380 LP  0  0  0  0  0  0  0  0  0  0  0  0  # atno 17343 bound_to 10162
  157.6546  131.0891  150.7976 LP  0  0  0  0  0  0  0  0  0  0  0  0  # atno 17370 bound_to 10713
  156.8055  130.4935  149.5363 LP  0  0  0  0  0  0  0  0  0  0  0  0  # atno 17371 bound_to 10713
  140.1821  134.9026  157.2960 LP  0  0  0  0  0  0  0  0  0  0  0  0  # atno 17394 bound_to 11000
  140.2384  134.3825  155.7491 LP  0  0  0  0  0  0  0  0  0  0  0  0  # atno 17395 bound_to 11000

$$$$
