AV-unprocessed.smi:2672|AV-procd|sdf|10354|dock1
  -GOLD-   2272014383D 1   1.00000     0.00000
 Structure written by MMmdl.
 36 36  0  0  0  0  0  0  0  0  2 V2000
  153.5984  142.3795  161.5378 C   0  0  0  0  0  0  0  0  0  0  0  0
  152.7288  142.2003  160.3024 C   0  0  0  0  0  0  0  0  0  0  0  0
  151.8605  143.1717  159.9612 C   0  0  0  0  0  0  0  0  0  0  0  0
  150.9787  143.0722  158.8044 C   0  0  0  0  0  0  0  0  0  0  0  0
  150.2003  143.9824  158.5134 O   0  0  0  0  0  0  0  0  0  0  0  0
  151.0557  141.9093  158.0880 N   0  0  0  0  0  0  0  0  0  0  0  0
  150.0693  141.7083  156.9980 C   0  0  0  0  0  0  0  0  0  0  0  0
  148.6137  141.6028  157.4803 C   0  0  0  0  0  0  0  0  0  0  0  0
  148.2830  140.7785  158.3336 O   0  0  0  0  0  0  0  0  0  0  0  0
  147.7517  142.4643  156.9187 N   0  0  0  0  0  0  0  0  0  0  0  0
  146.3263  142.5560  157.2216 C   0  0  0  0  0  0  0  0  0  0  0  0
  145.5832  143.1313  156.0088 C   0  0  0  0  0  0  0  0  0  0  0  0
  146.0963  143.4058  158.4817 C   0  0  0  0  0  0  0  0  0  0  0  0
  152.0112  140.8926  158.3933 C   0  0  0  0  0  0  0  0  0  0  0  0
  152.0830  139.6994  157.4310 C   0  0  0  0  0  0  0  0  0  0  0  0
  152.8273  141.0053  159.4731 C   0  0  0  0  0  0  0  0  0  0  0  0
  153.8668  139.8983  159.8447 C   0  0  0  0  0  0  0  0  0  0  0  0
  154.0468  139.7061  161.0669 O   0  0  0  0  0  0  0  0  0  0  0  0
  154.4174  139.3183  158.8834 O   0  5  0  0  0  0  0  0  0  0  0  0
  153.3713  143.3077  162.0628 H   0  0  0  0  0  0  0  0  0  0  0  0
  154.6525  142.4012  161.2600 H   0  0  0  0  0  0  0  0  0  0  0  0
  153.4429  141.5562  162.2357 H   0  0  0  0  0  0  0  0  0  0  0  0
  151.7957  144.0613  160.5705 H   0  0  0  0  0  0  0  0  0  0  0  0
  150.1459  142.4848  156.2377 H   0  0  0  0  0  0  0  0  0  0  0  0
  150.2985  140.8011  156.4359 H   0  0  0  0  0  0  0  0  0  0  0  0
  148.1118  143.1073  156.2288 H   0  0  0  0  0  0  0  0  0  0  0  0
  145.9380  141.5521  157.4031 H   0  0  0  0  0  0  0  0  0  0  0  0
  144.5098  143.1805  156.1943 H   0  0  0  0  0  0  0  0  0  0  0  0
  145.7351  142.5117  155.1245 H   0  0  0  0  0  0  0  0  0  0  0  0
  145.9264  144.1394  155.7735 H   0  0  0  0  0  0  0  0  0  0  0  0
  145.0342  143.4739  158.7183 H   0  0  0  0  0  0  0  0  0  0  0  0
  146.4740  144.4204  158.3507 H   0  0  0  0  0  0  0  0  0  0  0  0
  146.5968  142.9738  159.3490 H   0  0  0  0  0  0  0  0  0  0  0  0
  153.0764  139.2536  157.4053 H   0  0  0  0  0  0  0  0  0  0  0  0
  151.8792  139.9681  156.3964 H   0  0  0  0  0  0  0  0  0  0  0  0
  151.3799  138.9253  157.7386 H   0  0  0  0  0  0  0  0  0  0  0  0
  1  2  1  0  0  0  0
  1 20  1  0  0  0  0
  1 21  1  0  0  0  0
  1 22  1  0  0  0  0
  2 16  1  0  0  0  0
  2  3  2  0  0  0  0
  3  4  1  0  0  0  0
  3 23  1  0  0  0  0
  4  5  2  0  0  0  0
  4  6  1  0  0  0  0
  6  7  1  0  0  0  0
  6 14  1  0  0  0  0
  7  8  1  0  0  0  0
  7 24  1  0  0  0  0
  7 25  1  0  0  0  0
  8  9  2  0  0  0  0
  8 10  1  0  0  0  0
 10 11  1  0  0  0  0
 10 26  1  0  0  0  0
 11 12  1  0  0  0  0
 11 13  1  0  0  0  0
 11 27  1  0  0  0  0
 12 28  1  0  0  0  0
 12 29  1  0  0  0  0
 12 30  1  0  0  0  0
 13 31  1  0  0  0  0
 13 32  1  0  0  0  0
 13 33  1  0  0  0  0
 14 15  1  0  0  0  0
 14 16  2  0  0  0  0
 15 34  1  0  0  0  0
 15 35  1  0  0  0  0
 15 36  1  0  0  0  0
 16 17  1  0  0  0  0
 17 18  2  0  0  0  0
 17 19  1  0  0  0  0
M  CHG  1  19  -1
M  END
> <s_m_source_file>
AV-unprocessed.smi

> <i_m_source_file_index>
2672

> <i_lp_mmshare_version>
43012

> <i_f3d_flags>
0

> <s_epik_input>
W0NIM11jMVtjSF1jKD1PKW4oYyhbQ0gzXSljMUMoPU8pW09IXSlbQ0gyXUMoPU8pW05IXVtDSF0oW0NIM10pW0NIM10=

> <s_epik_cmdline>
J2VwaWtfcHl0aG9uJywgJy1waCcsICc3LjAnLCAnLXRuJywgJzgnLCAnLW1hJywgJzIwMCcsICctbWV0YWxfYmluZGluZycsICctaW1hZScsICc8aW5maWxlLm1hZT4nLCAnLW9tYWUnLCAnPG91dGZpbGUubWFlPic=

> <r_lp_tautomer_probability>
1

> <r_epik_Ionization_Penalty>
0.000277152

> <r_epik_Ionization_Penalty_Charging>
0.000277132

> <r_epik_Ionization_Penalty_Neutral>
2.06705e-08

> <r_epik_State_Penalty>
-0

> <r_epik_Charging_Adjusted_Penalty>
0.000277132

> <i_epik_Tot_Q>
-1

> <i_epik_Tot_abs_Q>
1

> <r_epik_Metal_State_Penalty>
-0

> <b_epik_Metal_Only>
0

> <s_lp_Force_Field>
OPLS_2005

> <r_lp_Energy>
18.8997

> <b_lp_Chiralities_Consistent>
1

> <s_lp_Variant>
AV-unprocessed.smi:2672-1

> <Gold.Version>
5.8.1

> <Gold.Id.Protein>
6NUR|6NUR_protein|mol2

> <Gold.PLP.Fitness>
39.2705

> <Gold.PLP.PLP>
-31.0315

> <Gold.PLP.part.hbond>
-3.0000

> <Gold.PLP.part.metal>
0.0000

> <Gold.PLP.part.buried>
-3.8479

> <Gold.PLP.part.nonpolar>
-23.3498

> <Gold.PLP.part.repulsive>
0.2023

> <Gold.PLP.ligand.clash>
0.0000

> <Gold.PLP.ligand.torsion>
0.9152

> <Gold.PLP.Chemscore.Hbond>
3.0000

> <Gold.PLP.Chemscore.CHOScore>
0.0000

> <Gold.PLP.Chemscore.Metal>
0.0000

> <Gold.Chemscore.Hbonds>
donor molecule, donor type, donor heavy atom, donor atom, acceptor molecule, acceptor atom, score
      L1  H    10    26       P1  8028  1.00
      P1  H  7997  8008       L1    19  2.00

> <Gold.PLP.Chemscore.Internal.Correction>
1.0694

> <Gold.Rescore>
     Score         DG    S(hbond)    S(metal)    S(lipo)     H(rot)  DE(clash)    DE(int)     intcor
     12.07     -15.92       1.85        0.00      69.27       1.50       0.12       3.73       ----

> <Gold.Chemscore.Fitness>
12.0685

> <Gold.Chemscore.DG>
-15.9159

> <Gold.Chemscore.ZeroCoef>
-5.4800

> <Gold.Chemscore.Hbond>
1.8461

> <Gold.Chemscore.Metal>
0.0000

> <Gold.Chemscore.Lipo>
69.2729

> <Gold.Chemscore.Internal_Hbond>
0.0000

> <Gold.Chemscore.DEClash>
0.1167

> <Gold.Chemscore.DEInternal>
3.7307

> <Gold.Chemscore.Rot>
1.4980

> <Gold.Chemscore.Internal.Correction>
   9.000000E+99

> <Gold.Chemscore.Hbonds>
donor molecule, donor type, donor heavy atom, donor atom, acceptor molecule, acceptor atom, score
      L1  H    10    26       P1  8028  0.49
      P1  H  7997  8008       L1    19  1.00

> <Gold.Chemscore.Hbond.Weighted>
-6.1660

> <Gold.Chemscore.Metal.Weighted>
-0.0000

> <Gold.Chemscore.Lipo.Weighted>
-8.1049

> <Gold.Chemscore.Internal_Hbond.Weighted>
0.0000

> <Gold.Chemscore.DEClash.Weighted>
0.1167

> <Gold.Chemscore.DEInternal.Weighted>
3.7307

> <Gold.Chemscore.Rot.Weighted>
3.8350

> <Gold.Chemscore.Internal.Correction.Weighted>
   9.000000E+99

> <Gold.Protein.RotatedTorsions>
[ 6907 6896 6895 6894 ] final   13.96 input  -60.11 | X-H torsion
[ 7974 7965 7964 7962 ] final -164.36 input  175.53 | X-H torsion
[ 8008 7997 7996 7995 ] final -126.80 input   59.86 | X-H torsion
[ 10167 10162 10161 10158 ] final  171.20 input  -65.29 | X-H torsion
[ 10718 10713 10712 10709 ] final   -6.22 input   66.30 | X-H torsion
[ 10763 10752 10751 10750 ] final  120.50 input  -60.55 | X-H torsion
[ 11005 11000 10999 10996 ] final  161.36 input  -57.11 | X-H torsion

> <Gold.Protein.ActiveResidues>
 VAL166  LYS551  ARG553  GLY616  TRP617  ASP618  TYR619  PRO620  LYS621  CYS622 
 ASP623  PHE694  ASN695  SER759  ASP760  ASP761  ALA762  ILE779  LEU786  VAL792 
 PHE793  MET794  SER795  GLU796  ALA797  LYS798  CYS799  TRP800  GLU811  SER814 

> <Gold.Protein.RotatedAtoms>
  151.7946  135.0726  160.0391 H   0  0  0  0  0  0  0  0  0  0  0  0  # atno 6907 bound_to 6896
  152.3132  133.5770  159.5703 H   0  0  0  0  0  0  0  0  0  0  0  0  # atno 6908 bound_to 6896
  150.7330  134.0037  159.3689 H   0  0  0  0  0  0  0  0  0  0  0  0  # atno 6909 bound_to 6896
  144.7299  140.2972  143.6210 H   0  0  0  0  0  0  0  0  0  0  0  0  # atno 7974 bound_to 7965
  155.2356  140.0427  157.2968 H   0  0  0  0  0  0  0  0  0  0  0  0  # atno 8008 bound_to 7997
  154.5861  140.2414  155.7956 H   0  0  0  0  0  0  0  0  0  0  0  0  # atno 8009 bound_to 7997
  156.2227  140.2964  155.9999 H   0  0  0  0  0  0  0  0  0  0  0  0  # atno 8010 bound_to 7997
  139.5040  144.3512  151.9921 H   0  0  0  0  0  0  0  0  0  0  0  0  # atno 10167 bound_to 10162
  156.7351  130.5192  149.5837 H   0  0  0  0  0  0  0  0  0  0  0  0  # atno 10718 bound_to 10713
  153.5995  135.3450  155.2940 H   0  0  0  0  0  0  0  0  0  0  0  0  # atno 10763 bound_to 10752
  154.8638  135.4224  154.2428 H   0  0  0  0  0  0  0  0  0  0  0  0  # atno 10764 bound_to 10752
  153.3253  135.7041  153.7066 H   0  0  0  0  0  0  0  0  0  0  0  0  # atno 10765 bound_to 10752
  140.2151  134.8238  157.3161 H   0  0  0  0  0  0  0  0  0  0  0  0  # atno 11005 bound_to 11000
  145.7796  139.1886  143.2165 LP  0  0  0  0  0  0  0  0  0  0  0  0  # atno 17320 bound_to 7965
  146.0845  140.7727  142.9625 LP  0  0  0  0  0  0  0  0  0  0  0  0  # atno 17321 bound_to 7965
  140.2949  144.3712  150.6077 LP  0  0  0  0  0  0  0  0  0  0  0  0  # atno 17342 bound_to 10162
  140.5918  143.2168  151.7238 LP  0  0  0  0  0  0  0  0  0  0  0  0  # atno 17343 bound_to 10162
  156.1503  130.6305  151.0586 LP  0  0  0  0  0  0  0  0  0  0  0  0  # atno 17370 bound_to 10713
  157.6842  131.0829  150.7287 LP  0  0  0  0  0  0  0  0  0  0  0  0  # atno 17371 bound_to 10713
  140.1909  134.4372  155.7716 LP  0  0  0  0  0  0  0  0  0  0  0  0  # atno 17394 bound_to 11000
  141.2225  133.7027  156.8026 LP  0  0  0  0  0  0  0  0  0  0  0  0  # atno 17395 bound_to 11000

$$$$
