#       Name:                AV-unprocessed.smi:845
#       Creating user name   scv26
#       Creation time:       Fri Mar 27 01:39:07 2020


#       File generated by GOLD software.
#

@<TRIPOS>MOLECULE
AV-unprocessed.smi:845
    48    49     1
SMALL
NO_CHARGES


@<TRIPOS>ATOM
      1 ****        -1.9584  -1.1732  -0.5555 C.3            1 S1                 0.0000
      2 ****        -1.3701  -0.8729   0.8358 C.3            1 S1                 0.0000
      3 ****        -2.0302   0.3656   1.4720 C.3            1 S1                 0.0000
      4 ****         0.2024  -0.8516   0.8740 C.3            1 S1                 0.0000
      5 ****         0.7968  -0.0268  -0.3118 C.3            1 S1                 0.0000
      6 ****         0.2821   1.3347  -0.3863 N.am           1 S1                 0.0000
      7 ****         0.1790   2.0601  -1.5081 C.2            1 S1                 0.0000
      8 ****         0.5413   1.6579  -2.6141 O.2            1 S1                 0.0000
      9 ****        -0.3694   3.2620  -1.2585 N.am           1 S1                 0.0000
     10 ****        -0.6767   4.2959  -2.1813 C.2            1 S1                 0.0000
     11 ****        -0.4511   4.2243  -3.4983 N.2            1 S1                 0.0000
     12 ****        -0.8549   5.3848  -4.1634 C.2            1 S1                 0.0000
     13 ****        -1.3894   6.3366  -3.3311 C.2            1 S1                 0.0000
     14 ****        -1.4081   5.8096  -1.6694 S.3            1 S1                 0.0000
     15 ****         0.7868  -2.2153   1.0017 N.3            1 S1                 0.0000
     16 ****         2.2443  -2.2533   0.8238 C.3            1 S1                 0.0000
     17 ****         2.8321  -3.6673   0.9751 C.3            1 S1                 0.0000
     18 ****         2.4917  -4.1954   2.2486 O.3            1 S1                 0.0000
     19 ****         1.0859  -4.2486   2.4422 C.3            1 S1                 0.0000
     20 ****         0.4915  -2.8365   2.3032 C.3            1 S1                 0.0000
     21 ****        -1.7979  -0.3549  -1.2569 H              1 S1                 0.0000
     22 ****        -3.0346  -1.3372  -0.4945 H              1 S1                 0.0000
     23 ****        -1.5150  -2.0731  -0.9826 H              1 S1                 0.0000
     24 ****        -1.7335  -1.6830   1.4583 H              1 S1                 0.0000
     25 ****        -1.9408   1.2594   0.8578 H              1 S1                 0.0000
     26 ****        -1.6007   0.5832   2.4500 H              1 S1                 0.0000
     27 ****        -3.0970   0.1954   1.6199 H              1 S1                 0.0000
     28 ****         0.4877  -0.3098   1.7771 H              1 S1                 0.0000
     29 ****         1.8727   0.0998  -0.1984 H              1 S1                 0.0000
     30 ****         0.6424  -0.5564  -1.2536 H              1 S1                 0.0000
     31 ****        -0.0393   1.7456   0.4780 H              1 S1                 0.0000
     32 ****        -0.6086   3.4552  -0.2971 H              1 S1                 0.0000
     33 ****        -0.7245   5.4485  -5.2336 H              1 S1                 0.0000
     34 ****        -1.7720   7.3115  -3.5941 H              1 S1                 0.0000
     35 ****         2.5163  -1.9134  -0.1744 H              1 S1                 0.0000
     36 ****         2.7240  -1.5802   1.5360 H              1 S1                 0.0000
     37 ****         2.4610  -4.3257   0.1880 H              1 S1                 0.0000
     38 ****         3.9178  -3.6377   0.8817 H              1 S1                 0.0000
     39 ****         0.6343  -4.9317   1.7210 H              1 S1                 0.0000
     40 ****         0.8801  -4.6493   3.4348 H              1 S1                 0.0000
     41 ****         0.8792  -2.2073   3.1057 H              1 S1                 0.0000
     42 ****        -0.5757  -2.9313   2.4792 H              1 S1                 0.0000
     43 ****         0.9372   0.7446  -2.7089 LP             1 S1                 0.0000
     44 ****         0.4395   2.2447  -3.4175 LP             1 S1                 0.0000
     45 ****        -0.0417   3.4334  -3.9530 LP             1 S1                 0.0000
     46 ****         0.3504  -2.7267   0.2614 LP             1 S1                 0.0000
     47 ****         2.8937  -3.6152   2.9570 LP             1 S1                 0.0000
     48 ****         2.8636  -5.1205   2.3247 LP             1 S1                 0.0000
@<TRIPOS>BOND
    1    1    2 1     
    2    1   21 1     
    3    1   22 1     
    4    1   23 1     
    5    2    3 1     
    6    2    4 1     
    7    2   24 1     
    8    3   25 1     
    9    3   26 1     
   10    3   27 1     
   11    4    5 1     
   12    4   15 1     
   13    4   28 1     
   14    5    6 1     
   15    5   29 1     
   16    5   30 1     
   17    6    7 am    
   18    6   31 1     
   19    7    8 2     
   20    7    9 am    
   21    9   10 1     
   22    9   32 1     
   23   10   14 1     
   24   10   11 2     
   25   11   12 1     
   26   12   13 2     
   27   12   33 1     
   28   13   14 1     
   29   13   34 1     
   30   15   20 1     
   31   15   16 1     
   32   16   17 1     
   33   16   35 1     
   34   16   36 1     
   35   17   18 1     
   36   17   37 1     
   37   17   38 1     
   38   18   19 1     
   39   19   20 1     
   40   19   39 1     
   41   19   40 1     
   42   20   41 1     
   43   20   42 1     
   44    8   43 1     
   45    8   44 1     
   46   11   45 1     
   47   15   46 1     
   48   18   47 1     
   49   18   48 1     
@<TRIPOS>SUBSTRUCTURE
      1 S1             1
@<TRIPOS>SET
LONE_PAIRS      STATIC     ATOMS    <user>   **** ""
6 43 44 45 46 47 48
DONOR_HYDROGENS      STATIC     ATOMS    <user>   **** ""
2 31 32
ATOM$BLUE        STATIC     ATOMS    COLORGROUP SYSTEM
6 43 44 45 46 47 48
ATOM$RED        STATIC     ATOMS    COLORGROUP SYSTEM
2 31 32
