AV-unprocessed.smi:2414|AV-procd|sdf|9540|dock1
  -GOLD-   2272013173D 1   1.00000     0.00000
 Structure written by MMmdl.
 43 44  0  0  0  0  0  0  0  0  1 V2000
  152.2990  143.3752  158.8625 C   0  0  0  0  0  0  0  0  0  0  0  0
  151.8640  142.4592  157.7691 C   0  0  0  0  0  0  0  0  0  0  0  0
  151.2330  142.7981  156.5980 C   0  0  0  0  0  0  0  0  0  0  0  0
  150.9513  141.7073  155.7729 N   0  0  0  0  0  0  0  0  0  0  0  0
  151.3618  140.5491  156.2974 C   0  0  0  0  0  0  0  0  0  0  0  0
  151.1737  139.2203  155.6299 C   0  0  2  0  0  0  0  0  0  0  0  0
  152.5073  138.4895  155.4166 C   0  0  0  0  0  0  0  0  0  0  0  0
  150.3236  139.3057  154.3472 C   0  0  0  0  0  0  0  0  0  0  0  0
  149.6809  138.0332  154.0388 N   0  0  0  0  0  0  0  0  0  0  0  0
  149.0344  137.2761  154.9335 C   0  0  0  0  0  0  0  0  0  0  0  0
  148.8995  137.5775  156.1195 O   0  0  0  0  0  0  0  0  0  0  0  0
  148.5539  136.1560  154.3780 N   0  0  0  0  0  0  0  0  0  0  0  0
  147.7828  135.1280  155.0711 C   0  0  0  0  0  0  0  0  0  0  0  0
  148.4989  133.7607  155.0434 C   0  0  2  0  0  0  0  0  0  0  0  0
  149.8313  133.7763  155.8180 C   0  0  0  0  0  0  0  0  0  0  0  0
  148.7025  133.2582  153.6024 C   0  0  0  0  0  0  0  0  0  0  0  0
  148.3838  131.7823  153.6982 C   0  0  0  0  0  0  0  0  0  0  0  0
  147.2656  131.7900  154.7289 C   0  0  0  0  0  0  0  0  0  0  0  0
  147.6575  132.7854  155.6653 O   0  0  0  0  0  0  0  0  0  0  0  0
  152.1318  140.7384  157.8688 S   0  0  0  0  0  0  0  0  0  0  0  0
  151.5094  144.0849  159.1100 H   0  0  0  0  0  0  0  0  0  0  0  0
  153.1808  143.9416  158.5630 H   0  0  0  0  0  0  0  0  0  0  0  0
  152.5459  142.8198  159.7674 H   0  0  0  0  0  0  0  0  0  0  0  0
  150.9461  143.7873  156.2728 H   0  0  0  0  0  0  0  0  0  0  0  0
  150.6053  138.6088  156.3323 H   0  0  0  0  0  0  0  0  0  0  0  0
  153.0367  138.3558  156.3605 H   0  0  0  0  0  0  0  0  0  0  0  0
  153.1609  139.0451  154.7434 H   0  0  0  0  0  0  0  0  0  0  0  0
  152.3485  137.5015  154.9840 H   0  0  0  0  0  0  0  0  0  0  0  0
  149.5525  140.0686  154.4676 H   0  0  0  0  0  0  0  0  0  0  0  0
  150.9450  139.6116  153.5042 H   0  0  0  0  0  0  0  0  0  0  0  0
  149.7421  137.7054  153.0859 H   0  0  0  0  0  0  0  0  0  0  0  0
  148.7211  136.0039  153.3940 H   0  0  0  0  0  0  0  0  0  0  0  0
  147.6358  135.4559  156.1008 H   0  0  0  0  0  0  0  0  0  0  0  0
  146.7882  135.0219  154.6347 H   0  0  0  0  0  0  0  0  0  0  0  0
  150.5194  134.5119  155.4005 H   0  0  0  0  0  0  0  0  0  0  0  0
  150.3226  132.8039  155.7781 H   0  0  0  0  0  0  0  0  0  0  0  0
  149.6854  134.0193  156.8706 H   0  0  0  0  0  0  0  0  0  0  0  0
  147.9913  133.7312  152.9238 H   0  0  0  0  0  0  0  0  0  0  0  0
  149.7028  133.4511  153.2131 H   0  0  0  0  0  0  0  0  0  0  0  0
  148.0846  131.3442  152.7459 H   0  0  0  0  0  0  0  0  0  0  0  0
  149.2453  131.2307  154.0767 H   0  0  0  0  0  0  0  0  0  0  0  0
  146.3216  132.0866  154.2693 H   0  0  0  0  0  0  0  0  0  0  0  0
  147.1248  130.8208  155.2078 H   0  0  0  0  0  0  0  0  0  0  0  0
  1  2  1  0  0  0  0
  1 21  1  0  0  0  0
  1 22  1  0  0  0  0
  1 23  1  0  0  0  0
  2 20  1  0  0  0  0
  2  3  2  0  0  0  0
  3  4  1  0  0  0  0
  3 24  1  0  0  0  0
  4  5  2  0  0  0  0
  5  6  1  0  0  0  0
  5 20  1  0  0  0  0
  6  7  1  0  0  0  0
  6  8  1  0  0  0  0
  6 25  1  0  0  0  0
  7 26  1  0  0  0  0
  7 27  1  0  0  0  0
  7 28  1  0  0  0  0
  8  9  1  0  0  0  0
  8 29  1  0  0  0  0
  8 30  1  0  0  0  0
  9 10  1  0  0  0  0
  9 31  1  0  0  0  0
 10 11  2  0  0  0  0
 10 12  1  0  0  0  0
 12 13  1  0  0  0  0
 12 32  1  0  0  0  0
 13 14  1  0  0  0  0
 13 33  1  0  0  0  0
 13 34  1  0  0  0  0
 14 19  1  0  0  0  0
 14 15  1  0  0  0  0
 14 16  1  0  0  0  0
 15 35  1  0  0  0  0
 15 36  1  0  0  0  0
 15 37  1  0  0  0  0
 16 17  1  0  0  0  0
 16 38  1  0  0  0  0
 16 39  1  0  0  0  0
 17 18  1  0  0  0  0
 17 40  1  0  0  0  0
 17 41  1  0  0  0  0
 18 19  1  0  0  0  0
 18 42  1  0  0  0  0
 18 43  1  0  0  0  0
M  END
> <s_m_source_file>
AV-unprocessed.smi

> <i_m_source_file_index>
2414

> <i_lp_mmshare_version>
43012

> <i_f3d_flags>
0

> <s_epik_input>
W0NIM11jMVtjSF1uYyhzMSlbQ0BIXShbQ0gzXSlbQ0gyXVtOSF1DKD1PKVtOSF1bQ0gyXVtDQEBdMihbQ0gzXSlbQ0gyXVtDSDJdW0NIMl1PMg==

> <s_epik_cmdline>
J2VwaWtfcHl0aG9uJywgJy1waCcsICc3LjAnLCAnLXRuJywgJzgnLCAnLW1hJywgJzIwMCcsICctbWV0YWxfYmluZGluZycsICctaW1hZScsICc8aW5maWxlLm1hZT4nLCAnLW9tYWUnLCAnPG91dGZpbGUubWFlPic=

> <r_epik_Ionization_Penalty>
0.000646956

> <r_epik_Ionization_Penalty_Charging>
0

> <r_epik_Ionization_Penalty_Neutral>
0.000646956

> <r_epik_State_Penalty>
0.000375727

> <r_epik_Charging_Adjusted_Penalty>
0.000375727

> <i_epik_Tot_Q>
0

> <i_epik_Tot_abs_Q>
0

> <r_epik_Metal_State_Penalty>
-0

> <b_epik_Metal_Only>
0

> <s_lp_Force_Field>
OPLS_2005

> <r_lp_Energy>
9.0626

> <b_lp_Chiralities_Consistent>
1

> <s_lp_Variant>
AV-unprocessed.smi:2414-3

> <Gold.Version>
5.8.1

> <Gold.Id.Protein>
6NUR|6NUR_protein|mol2

> <Gold.PLP.Fitness>
41.7107

> <Gold.PLP.PLP>
-33.6575

> <Gold.PLP.part.hbond>
-2.0000

> <Gold.PLP.part.metal>
0.0000

> <Gold.PLP.part.buried>
-2.4755

> <Gold.PLP.part.nonpolar>
-28.5309

> <Gold.PLP.part.repulsive>
0.1266

> <Gold.PLP.ligand.clash>
0.0000

> <Gold.PLP.ligand.torsion>
0.3363

> <Gold.PLP.Chemscore.Hbond>
1.8640

> <Gold.PLP.Chemscore.CHOScore>
1.0000

> <Gold.PLP.Chemscore.Metal>
0.0000

> <Gold.Chemscore.Hbonds>
donor molecule, donor type, donor heavy atom, donor atom, acceptor molecule, acceptor atom, score
      L1  H     9    31       P1  7948  0.83
      L1  H    12    32       P1  7948  1.00
      L1  C     3    24       P1  8028  1.00

> <Gold.PLP.Chemscore.Internal.Correction>
0.1338

> <Gold.Rescore>
     Score         DG    S(hbond)    S(metal)    S(lipo)     H(rot)  DE(clash)    DE(int)     intcor
     16.66     -18.34       1.92        0.00      91.35       1.65       0.01       1.67       ----

> <Gold.Chemscore.Fitness>
16.6576

> <Gold.Chemscore.DG>
-18.3435

> <Gold.Chemscore.ZeroCoef>
-5.4800

> <Gold.Chemscore.Hbond>
1.9177

> <Gold.Chemscore.Metal>
0.0000

> <Gold.Chemscore.Lipo>
91.3506

> <Gold.Chemscore.Internal_Hbond>
0.0000

> <Gold.Chemscore.DEClash>
0.0149

> <Gold.Chemscore.DEInternal>
1.6711

> <Gold.Chemscore.Rot>
1.6522

> <Gold.Chemscore.Internal.Correction>
   9.000000E+99

> <Gold.Chemscore.Hbonds>
donor molecule, donor type, donor heavy atom, donor atom, acceptor molecule, acceptor atom, score
      L1  H     9    31       P1  7948  0.47
      L1  H    12    32       P1  7948  0.95

> <Gold.Chemscore.Hbond.Weighted>
-6.4050

> <Gold.Chemscore.Metal.Weighted>
-0.0000

> <Gold.Chemscore.Lipo.Weighted>
-10.6880

> <Gold.Chemscore.Internal_Hbond.Weighted>
0.0000

> <Gold.Chemscore.DEClash.Weighted>
0.0149

> <Gold.Chemscore.DEInternal.Weighted>
1.6711

> <Gold.Chemscore.Rot.Weighted>
4.2295

> <Gold.Chemscore.Internal.Correction.Weighted>
   9.000000E+99

> <Gold.Protein.RotatedTorsions>
[ 6907 6896 6895 6894 ] final -117.46 input  -60.11 | X-H torsion
[ 7974 7965 7964 7962 ] final    4.76 input  175.53 | X-H torsion
[ 8008 7997 7996 7995 ] final  119.16 input   59.86 | X-H torsion
[ 10167 10162 10161 10158 ] final  162.64 input  -65.29 | X-H torsion
[ 10718 10713 10712 10709 ] final  168.00 input   66.30 | X-H torsion
[ 10763 10752 10751 10750 ] final  -22.81 input  -60.55 | X-H torsion
[ 11005 11000 10999 10996 ] final  149.07 input  -57.11 | X-H torsion

> <Gold.Protein.ActiveResidues>
 VAL166  LYS551  ARG553  GLY616  TRP617  ASP618  TYR619  PRO620  LYS621  CYS622 
 ASP623  PHE694  ASN695  SER759  ASP760  ASP761  ALA762  ILE779  LEU786  VAL792 
 PHE793  MET794  SER795  GLU796  ALA797  LYS798  CYS799  TRP800  GLU811  SER814 

> <Gold.Protein.RotatedAtoms>
  150.8138  133.8373  159.3169 H   0  0  0  0  0  0  0  0  0  0  0  0  # atno 6907 bound_to 6896
  151.6151  135.1035  160.0099 H   0  0  0  0  0  0  0  0  0  0  0  0  # atno 6908 bound_to 6896
  152.4230  133.7107  159.6534 H   0  0  0  0  0  0  0  0  0  0  0  0  # atno 6909 bound_to 6896
  146.2443  140.0486  142.8376 H   0  0  0  0  0  0  0  0  0  0  0  0  # atno 7974 bound_to 7965
  156.2582  140.2859  156.0948 H   0  0  0  0  0  0  0  0  0  0  0  0  # atno 8008 bound_to 7997
  155.1424  140.0396  157.2819 H   0  0  0  0  0  0  0  0  0  0  0  0  # atno 8009 bound_to 7997
  154.6520  140.2547  155.7209 H   0  0  0  0  0  0  0  0  0  0  0  0  # atno 8010 bound_to 7997
  139.4863  144.4417  151.8943 H   0  0  0  0  0  0  0  0  0  0  0  0  # atno 10167 bound_to 10162
  157.0434  131.0293  151.2705 H   0  0  0  0  0  0  0  0  0  0  0  0  # atno 10718 bound_to 10713
  153.6579  135.6978  153.5187 H   0  0  0  0  0  0  0  0  0  0  0  0  # atno 10763 bound_to 10752
  153.2655  135.4231  155.0936 H   0  0  0  0  0  0  0  0  0  0  0  0  # atno 10764 bound_to 10752
  154.8460  135.3565  154.6123 H   0  0  0  0  0  0  0  0  0  0  0  0  # atno 10765 bound_to 10752
  140.1013  134.8981  157.1801 H   0  0  0  0  0  0  0  0  0  0  0  0  # atno 11005 bound_to 11000
  145.1004  140.9342  143.4716 LP  0  0  0  0  0  0  0  0  0  0  0  0  # atno 17320 bound_to 7965
  145.0678  139.3055  143.5847 LP  0  0  0  0  0  0  0  0  0  0  0  0  # atno 17321 bound_to 7965
  140.3870  144.2664  150.5903 LP  0  0  0  0  0  0  0  0  0  0  0  0  # atno 17342 bound_to 10162
  140.5181  143.2272  151.8431 LP  0  0  0  0  0  0  0  0  0  0  0  0  # atno 17343 bound_to 10162
  157.5087  130.7925  149.7681 LP  0  0  0  0  0  0  0  0  0  0  0  0  # atno 17370 bound_to 10713
  156.0031  130.3870  150.2532 LP  0  0  0  0  0  0  0  0  0  0  0  0  # atno 17371 bound_to 10713
  140.3216  134.2910  155.7245 LP  0  0  0  0  0  0  0  0  0  0  0  0  # atno 17394 bound_to 11000
  141.2106  133.7713  156.9918 LP  0  0  0  0  0  0  0  0  0  0  0  0  # atno 17395 bound_to 11000

$$$$
