#       Name:                AV-unprocessed.smi:420
#       Creating user name   scv26
#       Creation time:       Thu Mar 26 22:49:11 2020


#       File generated by GOLD software.
#

@<TRIPOS>MOLECULE
AV-unprocessed.smi:420
    40    42     1
SMALL
NO_CHARGES


@<TRIPOS>ATOM
      1 ****        -2.2250   3.8538  -1.7157 C.3            1 S1                 0.0000
      2 ****        -1.7239   2.6660  -1.0351 N.am           1 S1                 0.0000
      3 ****        -1.3292   1.5033  -1.6056 C.2            1 S1                 0.0000
      4 ****        -1.3247   1.2526  -2.8107 O.2            1 S1                 0.0000
      5 ****        -0.9393   0.6638  -0.6175 N.am           1 S1                 0.0000
      6 ****        -0.4278  -0.6953  -0.7812 C.3            1 S1                 0.0000
      7 ****         1.1107  -0.7450  -0.6985 C.3            1 S1                 0.0000
      8 ****         1.6470  -0.2696  -1.9174 O.3            1 S1                 0.0000
      9 ****         1.5903  -2.1560  -0.3939 C.ar           1 S1                 0.0000
     10 ****         2.0572  -2.4768   0.8991 C.ar           1 S1                 0.0000
     11 ****         2.4916  -3.7841   1.1931 C.ar           1 S1                 0.0000
     12 ****         2.4596  -4.7787   0.1969 C.ar           1 S1                 0.0000
     13 ****         2.8775  -6.0349   0.4804 F              1 S1                 0.0000
     14 ****         1.9904  -4.4663  -1.0933 C.ar           1 S1                 0.0000
     15 ****         1.5556  -3.1594  -1.3878 C.ar           1 S1                 0.0000
     16 ****        -1.0809   1.3110   0.6184 C.ar           1 S1                 0.0000
     17 ****        -0.8060   0.8784   1.9274 C.ar           1 S1                 0.0000
     18 ****        -1.0624   1.7921   2.9766 C.ar           1 S1                 0.0000
     19 ****        -1.5764   3.0869   2.7043 C.ar           1 S1                 0.0000
     20 ****        -1.8428   3.4966   1.3766 C.ar           1 S1                 0.0000
     21 ****        -1.5772   2.5698   0.3543 C.ar           1 S1                 0.0000
     22 ****        -2.2080   3.7431  -2.8007 H              1 S1                 0.0000
     23 ****        -1.6165   4.7208  -1.4576 H              1 S1                 0.0000
     24 ****        -3.2531   4.0544  -1.4131 H              1 S1                 0.0000
     25 ****        -0.8543  -1.2948   0.0241 H              1 S1                 0.0000
     26 ****        -0.7872  -1.1480  -1.7071 H              1 S1                 0.0000
     27 ****         1.4617  -0.0846   0.0959 H              1 S1                 0.0000
     28 ****         2.5879  -0.2329  -1.8373 H              1 S1                 0.0000
     29 ****         2.0813  -1.7222   1.6718 H              1 S1                 0.0000
     30 ****         2.8480  -4.0246   2.1837 H              1 S1                 0.0000
     31 ****         1.9621  -5.2294  -1.8573 H              1 S1                 0.0000
     32 ****         1.1919  -2.9305  -2.3789 H              1 S1                 0.0000
     33 ****        -0.4140  -0.1079   2.1276 H              1 S1                 0.0000
     34 ****        -0.8648   1.5006   3.9976 H              1 S1                 0.0000
     35 ****        -1.7656   3.7685   3.5205 H              1 S1                 0.0000
     36 ****        -2.2325   4.4805   1.1605 H              1 S1                 0.0000
     37 ****        -1.6329   1.9422  -3.4660 LP             1 S1                 0.0000
     38 ****        -1.0129   0.3593  -3.1344 LP             1 S1                 0.0000
     39 ****         1.2890   0.6441  -2.1098 LP             1 S1                 0.0000
     40 ****         1.3957  -0.8894  -2.6609 LP             1 S1                 0.0000
@<TRIPOS>BOND
    1    1    2 1     
    2    1   22 1     
    3    1   23 1     
    4    1   24 1     
    5    2   21 1     
    6    2    3 am    
    7    3    4 2     
    8    3    5 am    
    9    5    6 1     
   10    5   16 1     
   11    6    7 1     
   12    6   25 1     
   13    6   26 1     
   14    7    8 1     
   15    7    9 1     
   16    7   27 1     
   17    8   28 1     
   18    9   15 ar    
   19    9   10 ar    
   20   10   11 ar    
   21   10   29 1     
   22   11   12 ar    
   23   11   30 1     
   24   12   13 1     
   25   12   14 ar    
   26   14   15 ar    
   27   14   31 1     
   28   15   32 1     
   29   16   21 ar    
   30   16   17 ar    
   31   17   18 ar    
   32   17   33 1     
   33   18   19 ar    
   34   18   34 1     
   35   19   20 ar    
   36   19   35 1     
   37   20   21 ar    
   38   20   36 1     
   39    4   37 1     
   40    4   38 1     
   41    8   39 1     
   42    8   40 1     
@<TRIPOS>SUBSTRUCTURE
      1 S1             1
@<TRIPOS>SET
LONE_PAIRS      STATIC     ATOMS    <user>   **** ""
4 37 38 39 40
DONOR_HYDROGENS      STATIC     ATOMS    <user>   **** ""
1 28
ATOM$BLUE        STATIC     ATOMS    COLORGROUP SYSTEM
4 37 38 39 40
ATOM$RED        STATIC     ATOMS    COLORGROUP SYSTEM
1 28
