#       Name:                AV-unprocessed.smi:235
#       Creating user name   scv26
#       Creation time:       Thu Mar 26 20:37:33 2020


#       File generated by GOLD software.
#

@<TRIPOS>MOLECULE
AV-unprocessed.smi:235
    64    68     1
SMALL
NO_CHARGES


@<TRIPOS>ATOM
      1 ****        -5.0455  -0.3297  -1.8182 O.2            1 S1                 0.0000
      2 ****        -4.2169  -0.4176  -0.9121 C.2            1 S1                 0.0000
      3 ****        -3.3088  -1.4057  -0.8515 N.am           1 S1                 0.0000
      4 ****        -3.1608  -2.4701  -1.7879 C.3            1 S1                 0.0000
      5 ****        -2.5772  -3.7694  -1.2763 C.3            1 S1                 0.0000
      6 ****        -1.7540  -2.8803  -2.1668 C.3            1 S1                 0.0000
      7 ****        -4.1883   0.6590   0.1928 C.3            1 S1                 0.0000
      8 ****        -5.5380   0.7916   0.9322 C.3            1 S1                 0.0000
      9 ****        -5.3068   0.1480   2.2972 C.3            1 S1                 0.0000
     10 ****        -3.8391   0.4605   2.5586 C.3            1 S1                 0.0000
     11 ****        -3.2130   0.3663   1.2508 N.3            1 S1                 0.0000
     12 ****        -1.9772   0.9000   1.1428 C.ar           1 S1                 0.0000
     13 ****        -1.8163   2.2476   1.0881 N.ar           1 S1                 0.0000
     14 ****        -0.5891   2.7653   0.9703 C.ar           1 S1                 0.0000
     15 ****         0.5830   2.1294   0.8916 N.ar           1 S1                 0.0000
     16 ****         0.4175   0.7764   0.9508 C.ar           1 S1                 0.0000
     17 ****        -0.8181   0.0852   1.0808 C.ar           1 S1                 0.0000
     18 ****        -0.6003  -1.2864   1.1096 N.2            1 S1                 0.0000
     19 ****         0.6949  -1.4012   0.9946 C.2            1 S1                 0.0000
     20 ****         1.3827  -0.2123   0.8922 N.pl3          1 S1                 0.0000
     21 ****         2.8178  -0.0429   0.7496 C.3            1 S1                 0.0000
     22 ****         3.2336   0.2560  -0.7070 C.3            1 S1                 0.0000
     23 ****         2.8166  -0.8283  -1.5151 O.3            1 S1                 0.0000
     24 ****         4.7575   0.4149  -0.8800 C.3            1 S1                 0.0000
     25 ****         5.4074   1.4313   0.0615 C.3            1 S1                 0.0000
     26 ****         6.6683   1.8494  -0.6764 C.3            1 S1                 0.0000
     27 ****         6.4010   1.4316  -2.1240 C.3            1 S1                 0.0000
     28 ****         5.0479   0.9983  -2.1417 O.3            1 S1                 0.0000
     29 ****        -2.6616  -1.3956  -0.0758 H              1 S1                 0.0000
     30 ****        -3.9161  -2.5609  -2.5673 H              1 S1                 0.0000
     31 ****        -2.2965  -3.8233  -0.2259 H              1 S1                 0.0000
     32 ****        -2.9596  -4.6938  -1.7043 H              1 S1                 0.0000
     33 ****        -1.5871  -3.2096  -3.1903 H              1 S1                 0.0000
     34 ****        -0.9257  -2.3405  -1.7112 H              1 S1                 0.0000
     35 ****        -3.9637   1.6070  -0.2990 H              1 S1                 0.0000
     36 ****        -5.7722   1.8485   1.0662 H              1 S1                 0.0000
     37 ****        -6.3817   0.3415   0.4072 H              1 S1                 0.0000
     38 ****        -5.9702   0.5337   3.0716 H              1 S1                 0.0000
     39 ****        -5.4531  -0.9309   2.2282 H              1 S1                 0.0000
     40 ****        -3.7284   1.4664   2.9679 H              1 S1                 0.0000
     41 ****        -3.3958  -0.2457   3.2615 H              1 S1                 0.0000
     42 ****        -0.5395   3.8435   0.9307 H              1 S1                 0.0000
     43 ****         1.1867  -2.3629   0.9753 H              1 S1                 0.0000
     44 ****         3.1216   0.7680   1.4118 H              1 S1                 0.0000
     45 ****         3.3144  -0.9440   1.1127 H              1 S1                 0.0000
     46 ****         2.7291   1.1616  -1.0468 H              1 S1                 0.0000
     47 ****         3.2913  -1.6009  -1.2498 H              1 S1                 0.0000
     48 ****         5.2660  -0.5474  -0.7910 H              1 S1                 0.0000
     49 ****         4.7553   2.2973   0.1856 H              1 S1                 0.0000
     50 ****         5.6149   1.0213   1.0504 H              1 S1                 0.0000
     51 ****         6.8422   2.9219  -0.5844 H              1 S1                 0.0000
     52 ****         7.5451   1.3310  -0.2865 H              1 S1                 0.0000
     53 ****         6.5577   2.2462  -2.8313 H              1 S1                 0.0000
     54 ****         7.0489   0.6021  -2.4101 H              1 S1                 0.0000
     55 ****        -5.0609  -1.0115  -2.5496 LP             1 S1                 0.0000
     56 ****        -5.7033   0.4235  -1.8229 LP             1 S1                 0.0000
     57 ****        -2.9524  -0.5884   1.1066 LP             1 S1                 0.0000
     58 ****        -2.6128   2.8504   1.1357 LP             1 S1                 0.0000
     59 ****         1.4679   2.5862   0.8009 LP             1 S1                 0.0000
     60 ****        -1.2782  -2.0163   1.1979 LP             1 S1                 0.0000
     61 ****         3.0100  -0.6270  -2.4754 LP             1 S1                 0.0000
     62 ****         1.8350  -0.9787  -1.3972 LP             1 S1                 0.0000
     63 ****         4.4436   1.7788  -2.3019 LP             1 S1                 0.0000
     64 ****         4.9176   0.3217  -2.8665 LP             1 S1                 0.0000
@<TRIPOS>BOND
    1    1    2 2     
    2    2    3 am    
    3    2    7 1     
    4    3    4 1     
    5    3   29 1     
    6    4    6 1     
    7    4    5 1     
    8    4   30 1     
    9    5    6 1     
   10    5   31 1     
   11    5   32 1     
   12    6   33 1     
   13    6   34 1     
   14    7   11 1     
   15    7    8 1     
   16    7   35 1     
   17    8    9 1     
   18    8   36 1     
   19    8   37 1     
   20    9   10 1     
   21    9   38 1     
   22    9   39 1     
   23   10   11 1     
   24   10   40 1     
   25   10   41 1     
   26   11   12 1     
   27   12   17 ar    
   28   12   13 ar    
   29   13   14 ar    
   30   14   15 ar    
   31   14   42 1     
   32   15   16 ar    
   33   16   20 1     
   34   16   17 ar    
   35   17   18 1     
   36   18   19 2     
   37   19   20 1     
   38   19   43 1     
   39   20   21 1     
   40   21   22 1     
   41   21   44 1     
   42   21   45 1     
   43   22   23 1     
   44   22   24 1     
   45   22   46 1     
   46   23   47 1     
   47   24   28 1     
   48   24   25 1     
   49   24   48 1     
   50   25   26 1     
   51   25   49 1     
   52   25   50 1     
   53   26   27 1     
   54   26   51 1     
   55   26   52 1     
   56   27   28 1     
   57   27   53 1     
   58   27   54 1     
   59    1   55 1     
   60    1   56 1     
   61   11   57 1     
   62   13   58 1     
   63   15   59 1     
   64   18   60 1     
   65   23   61 1     
   66   23   62 1     
   67   28   63 1     
   68   28   64 1     
@<TRIPOS>SUBSTRUCTURE
      1 S1             1
@<TRIPOS>SET
LONE_PAIRS      STATIC     ATOMS    <user>   **** ""
10 55 56 57 58 59 60 61 62 63 64
DONOR_HYDROGENS      STATIC     ATOMS    <user>   **** ""
2 29 47
ATOM$BLUE        STATIC     ATOMS    COLORGROUP SYSTEM
10 55 56 57 58 59 60 61 62 63 64
ATOM$RED        STATIC     ATOMS    COLORGROUP SYSTEM
2 29 47
