AV-unprocessed.smi:1662|AV-procd|sdf|6662|dock2
  -GOLD-   22720 7373D 1   1.00000     0.00000
 Structure written by MMmdl.
 47 48  0  0  0  0  0  0  0  0  1 V2000
  143.6929  145.0824  156.8831 C   0  0  0  0  0  0  0  0  0  0  0  0
  144.5038  145.9289  157.8269 C   0  0  0  0  0  0  0  0  0  0  0  0
  145.0066  145.3309  158.8566 N   0  0  0  0  0  0  0  0  0  0  0  0
  145.7628  146.0160  159.7878 N   0  0  0  0  0  0  0  0  0  0  0  0
  146.2332  145.1875  160.9074 C   0  0  0  0  0  0  0  0  0  0  0  0
  147.2650  144.1350  160.4784 C   0  0  0  0  0  0  0  0  0  0  0  0
  147.0596  142.9375  160.6813 O   0  0  0  0  0  0  0  0  0  0  0  0
  148.3651  144.6023  159.8695 N   0  0  0  0  0  0  0  0  0  0  0  0
  149.4891  143.7906  159.4067 C   0  0  1  0  0  0  0  0  0  0  0  0
  148.9846  142.7769  158.3625 C   0  0  0  0  0  0  0  0  0  0  0  0
  150.1337  141.9275  157.8119 C   0  0  0  0  0  0  0  0  0  0  0  0
  151.2266  142.8204  157.2143 C   0  0  0  0  0  0  0  0  0  0  0  0
  151.7683  143.8330  158.2435 C   0  0  1  0  0  0  0  0  0  0  0  0
  152.8834  144.6760  157.5977 C   0  0  0  0  0  0  0  0  0  0  0  0
  150.6188  144.6937  158.8413 C   0  0  2  0  0  0  0  0  0  0  0  0
  151.1329  145.6771  159.9163 C   0  0  0  0  0  0  0  0  0  0  0  0
  146.0645  147.3449  159.7176 C   0  0  0  0  0  0  0  0  0  0  0  0
  146.7547  147.9132  160.5657 O   0  0  0  0  0  0  0  0  0  0  0  0
  145.4903  148.0160  158.5494 C   0  0  0  0  0  0  0  0  0  0  0  0
  145.7740  149.4108  158.4427 C   0  0  0  0  0  0  0  0  0  0  0  0
  146.0071  150.5397  158.3364 N   0  0  0  0  0  0  0  0  0  0  0  0
  144.7381  147.3563  157.6333 C   0  0  0  0  0  0  0  0  0  0  0  0
  144.1193  148.0070  156.4038 C   0  0  0  0  0  0  0  0  0  0  0  0
  144.0847  145.1477  155.8678 H   0  0  0  0  0  0  0  0  0  0  0  0
  142.6537  145.4111  156.8669 H   0  0  0  0  0  0  0  0  0  0  0  0
  143.7012  144.0298  157.1708 H   0  0  0  0  0  0  0  0  0  0  0  0
  146.6896  145.8115  161.6779 H   0  0  0  0  0  0  0  0  0  0  0  0
  145.3830  144.7012  161.3902 H   0  0  0  0  0  0  0  0  0  0  0  0
  148.4435  145.6004  159.7374 H   0  0  0  0  0  0  0  0  0  0  0  0
  149.9021  143.2352  160.2514 H   0  0  0  0  0  0  0  0  0  0  0  0
  148.2309  142.1243  158.8050 H   0  0  0  0  0  0  0  0  0  0  0  0
  148.4949  143.3019  157.5408 H   0  0  0  0  0  0  0  0  0  0  0  0
  150.5531  141.3121  158.6088 H   0  0  0  0  0  0  0  0  0  0  0  0
  149.7580  141.2405  157.0532 H   0  0  0  0  0  0  0  0  0  0  0  0
  152.0387  142.1935  156.8441 H   0  0  0  0  0  0  0  0  0  0  0  0
  150.8284  143.3512  156.3484 H   0  0  0  0  0  0  0  0  0  0  0  0
  152.2201  143.2632  159.0571 H   0  0  0  0  0  0  0  0  0  0  0  0
  152.4851  145.3416  156.8316 H   0  0  0  0  0  0  0  0  0  0  0  0
  153.6312  144.0382  157.1254 H   0  0  0  0  0  0  0  0  0  0  0  0
  153.4113  145.2841  158.3316 H   0  0  0  0  0  0  0  0  0  0  0  0
  150.1938  145.2882  158.0306 H   0  0  0  0  0  0  0  0  0  0  0  0
  151.6268  145.1474  160.7312 H   0  0  0  0  0  0  0  0  0  0  0  0
  150.3259  146.2677  160.3498 H   0  0  0  0  0  0  0  0  0  0  0  0
  151.8429  146.3928  159.5039 H   0  0  0  0  0  0  0  0  0  0  0  0
  144.2858  149.0836  156.3784 H   0  0  0  0  0  0  0  0  0  0  0  0
  143.0412  147.8445  156.3837 H   0  0  0  0  0  0  0  0  0  0  0  0
  144.5481  147.5857  155.4939 H   0  0  0  0  0  0  0  0  0  0  0  0
  1  2  1  0  0  0  0
  1 24  1  0  0  0  0
  1 25  1  0  0  0  0
  1 26  1  0  0  0  0
  2 22  1  0  0  0  0
  2  3  2  0  0  0  0
  3  4  1  0  0  0  0
  4  5  1  0  0  0  0
  4 17  1  0  0  0  0
  5  6  1  0  0  0  0
  5 27  1  0  0  0  0
  5 28  1  0  0  0  0
  6  7  2  0  0  0  0
  6  8  1  0  0  0  0
  8  9  1  0  0  0  0
  8 29  1  0  0  0  0
  9 15  1  0  0  0  0
  9 10  1  0  0  0  0
  9 30  1  0  0  0  0
 10 11  1  0  0  0  0
 10 31  1  0  0  0  0
 10 32  1  0  0  0  0
 11 12  1  0  0  0  0
 11 33  1  0  0  0  0
 11 34  1  0  0  0  0
 12 13  1  0  0  0  0
 12 35  1  0  0  0  0
 12 36  1  0  0  0  0
 13 14  1  0  0  0  0
 13 15  1  0  0  0  0
 13 37  1  0  0  0  0
 14 38  1  0  0  0  0
 14 39  1  0  0  0  0
 14 40  1  0  0  0  0
 15 16  1  0  0  0  0
 15 41  1  0  0  0  0
 16 42  1  0  0  0  0
 16 43  1  0  0  0  0
 16 44  1  0  0  0  0
 17 18  2  0  0  0  0
 17 19  1  0  0  0  0
 19 20  1  0  0  0  0
 19 22  2  0  0  0  0
 20 21  3  0  0  0  0
 22 23  1  0  0  0  0
 23 45  1  0  0  0  0
 23 46  1  0  0  0  0
 23 47  1  0  0  0  0
M  END
> <s_m_source_file>
AV-unprocessed.smi

> <i_m_source_file_index>
1662

> <i_lp_mmshare_version>
43012

> <i_f3d_flags>
0

> <s_epik_input>
TiNDYyhjMVtDSDNdKWMoPU8pbihuYzFbQ0gzXSlbQ0gyXUMoPU8pW05IXVtDQEBIXTJbQ0gyXVtDSDJdW0NIMl1bQ0BASF0oW0NIM10pW0NASF0yW0NIM10=

> <s_epik_cmdline>
J2VwaWtfcHl0aG9uJywgJy1waCcsICc3LjAnLCAnLXRuJywgJzgnLCAnLW1hJywgJzIwMCcsICctbWV0YWxfYmluZGluZycsICctaW1hZScsICc8aW5maWxlLm1hZT4nLCAnLW9tYWUnLCAnPG91dGZpbGUubWFlPic=

> <r_lp_tautomer_probability>
1

> <r_epik_Ionization_Penalty>
1.90709e-08

> <r_epik_Ionization_Penalty_Charging>
2.37982e-11

> <r_epik_Ionization_Penalty_Neutral>
1.90471e-08

> <r_epik_State_Penalty>
-0

> <r_epik_Charging_Adjusted_Penalty>
2.37982e-11

> <i_epik_Tot_Q>
0

> <i_epik_Tot_abs_Q>
0

> <r_epik_Metal_State_Penalty>
-0

> <b_epik_Metal_Only>
0

> <s_lp_Force_Field>
OPLS_2005

> <r_lp_Energy>
26.9998

> <b_lp_Chiralities_Consistent>
1

> <s_lp_Variant>
AV-unprocessed.smi:1662-6

> <Gold.Version>
5.8.1

> <Gold.Id.Protein>
6NUR|6NUR_protein|mol2

> <Gold.PLP.Fitness>
50.0373

> <Gold.PLP.PLP>
-45.0118

> <Gold.PLP.part.hbond>
-5.4503

> <Gold.PLP.part.metal>
0.0000

> <Gold.PLP.part.buried>
-3.5194

> <Gold.PLP.part.nonpolar>
-37.8397

> <Gold.PLP.part.repulsive>
0.5523

> <Gold.PLP.ligand.clash>
0.0000

> <Gold.PLP.ligand.torsion>
0.0702

> <Gold.PLP.Chemscore.Hbond>
1.7186

> <Gold.PLP.Chemscore.CHOScore>
0.0000

> <Gold.PLP.Chemscore.Metal>
0.0000

> <Gold.Chemscore.Hbonds>
donor molecule, donor type, donor heavy atom, donor atom, acceptor molecule, acceptor atom, score
      P1  H  6933  6944       L1     7  1.00
      P1  H  6934  6946       L1     7  0.68

> <Gold.PLP.Chemscore.Internal.Correction>
0.0102

> <Gold.Rescore>
     Score         DG    S(hbond)    S(metal)    S(lipo)     H(rot)  DE(clash)    DE(int)     intcor
     14.03     -17.39       0.98        0.00     105.66       1.45       2.39       0.97       ----

> <Gold.Chemscore.Fitness>
14.0324

> <Gold.Chemscore.DG>
-17.3950

> <Gold.Chemscore.ZeroCoef>
-5.4800

> <Gold.Chemscore.Hbond>
0.9776

> <Gold.Chemscore.Metal>
0.0000

> <Gold.Chemscore.Lipo>
105.6638

> <Gold.Chemscore.Internal_Hbond>
0.0000

> <Gold.Chemscore.DEClash>
2.3939

> <Gold.Chemscore.DEInternal>
0.9687

> <Gold.Chemscore.Rot>
1.4504

> <Gold.Chemscore.Internal.Correction>
   9.000000E+99

> <Gold.Chemscore.Hbonds>
donor molecule, donor type, donor heavy atom, donor atom, acceptor molecule, acceptor atom, score
      P1  H  6933  6944       L1     7  0.53
      P1  H  6934  6946       L1     7  0.64

> <Gold.Chemscore.Hbond.Weighted>
-3.2652

> <Gold.Chemscore.Metal.Weighted>
-0.0000

> <Gold.Chemscore.Lipo.Weighted>
-12.3627

> <Gold.Chemscore.Internal_Hbond.Weighted>
0.0000

> <Gold.Chemscore.DEClash.Weighted>
2.3939

> <Gold.Chemscore.DEInternal.Weighted>
0.9687

> <Gold.Chemscore.Rot.Weighted>
3.7129

> <Gold.Chemscore.Internal.Correction.Weighted>
   9.000000E+99

> <Gold.Protein.RotatedTorsions>
[ 6907 6896 6895 6894 ] final  -43.58 input  -60.11 | X-H torsion
[ 7974 7965 7964 7962 ] final  -58.83 input  175.53 | X-H torsion
[ 8008 7997 7996 7995 ] final -167.21 input   59.86 | X-H torsion
[ 10167 10162 10161 10158 ] final   -1.52 input  -65.29 | X-H torsion
[ 10718 10713 10712 10709 ] final   86.47 input   66.30 | X-H torsion
[ 10763 10752 10751 10750 ] final  -85.61 input  -60.55 | X-H torsion
[ 11005 11000 10999 10996 ] final   77.40 input  -57.11 | X-H torsion

> <Gold.Protein.ActiveResidues>
 VAL166  LYS551  ARG553  GLY616  TRP617  ASP618  TYR619  PRO620  LYS621  CYS622 
 ASP623  PHE694  ASN695  SER759  ASP760  ASP761  ALA762  ILE779  LEU786  VAL792 
 PHE793  MET794  SER795  GLU796  ALA797  LYS798  CYS799  TRP800  GLU811  SER814 

> <Gold.Protein.RotatedAtoms>
  150.9424  134.8831  159.7620 H   0  0  0  0  0  0  0  0  0  0  0  0  # atno 6907 bound_to 6896
  152.5085  134.3923  159.9398 H   0  0  0  0  0  0  0  0  0  0  0  0  # atno 6908 bound_to 6896
  151.3944  133.3738  159.2759 H   0  0  0  0  0  0  0  0  0  0  0  0  # atno 6909 bound_to 6896
  145.8346  140.8457  143.0066 H   0  0  0  0  0  0  0  0  0  0  0  0  # atno 7974 bound_to 7965
  155.8745  140.0999  157.1528 H   0  0  0  0  0  0  0  0  0  0  0  0  # atno 8008 bound_to 7997
  154.4000  140.1341  156.4182 H   0  0  0  0  0  0  0  0  0  0  0  0  # atno 8009 bound_to 7997
  155.7713  140.3461  155.5251 H   0  0  0  0  0  0  0  0  0  0  0  0  # atno 8010 bound_to 7997
  140.6813  143.6766  150.8141 H   0  0  0  0  0  0  0  0  0  0  0  0  # atno 10167 bound_to 10162
  157.6929  131.0216  150.2977 H   0  0  0  0  0  0  0  0  0  0  0  0  # atno 10718 bound_to 10713
  154.6131  135.5479  153.7494 H   0  0  0  0  0  0  0  0  0  0  0  0  # atno 10763 bound_to 10752
  153.0204  135.6394  154.1550 H   0  0  0  0  0  0  0  0  0  0  0  0  # atno 10764 bound_to 10752
  154.1487  135.2904  155.3121 H   0  0  0  0  0  0  0  0  0  0  0  0  # atno 10765 bound_to 10752
  139.9256  134.7679  156.1517 H   0  0  0  0  0  0  0  0  0  0  0  0  # atno 11005 bound_to 11000
  144.6737  140.0723  143.7472 LP  0  0  0  0  0  0  0  0  0  0  0  0  # atno 17320 bound_to 7965
  145.9532  139.2748  143.1199 LP  0  0  0  0  0  0  0  0  0  0  0  0  # atno 17321 bound_to 7965
  140.0466  143.5292  152.2693 LP  0  0  0  0  0  0  0  0  0  0  0  0  # atno 17342 bound_to 10162
  139.6138  144.7615  151.2891 LP  0  0  0  0  0  0  0  0  0  0  0  0  # atno 17343 bound_to 10162
  156.3498  130.3829  149.7339 LP  0  0  0  0  0  0  0  0  0  0  0  0  # atno 17370 bound_to 10713
  156.4820  130.8045  151.3059 LP  0  0  0  0  0  0  0  0  0  0  0  0  # atno 17371 bound_to 10713
  141.0811  133.6754  156.2338 LP  0  0  0  0  0  0  0  0  0  0  0  0  # atno 17394 bound_to 11000
  140.6346  134.5229  157.5563 LP  0  0  0  0  0  0  0  0  0  0  0  0  # atno 17395 bound_to 11000

$$$$
