AV-unprocessed.smi:1488|AV-procd|sdf|6023|dock2
  -GOLD-   22720 6123D 1   1.00000     0.00000
 Structure written by MMmdl.
 36 37  0  0  0  0  0  0  0  0  1 V2000
  146.4155  134.4266  159.8137 C   0  0  0  0  0  0  0  0  0  0  0  0
  147.6581  134.7960  159.0789 C   0  0  0  0  0  0  0  0  0  0  0  0
  148.2869  135.9886  158.8546 C   0  0  0  0  0  0  0  0  0  0  0  0
  149.4185  135.6131  158.0828 C   0  0  0  0  0  0  0  0  0  0  0  0
  150.3495  136.5850  157.6356 N   0  0  0  0  0  0  0  0  0  0  0  0
  150.4387  137.8701  158.0191 C   0  0  0  0  0  0  0  0  0  0  0  0
  149.7011  138.4179  158.8388 O   0  0  0  0  0  0  0  0  0  0  0  0
  151.4401  138.4996  157.3868 N   0  0  0  0  0  0  0  0  0  0  0  0
  151.7943  139.9048  157.5633 C   0  0  2  0  0  0  0  0  0  0  0  0
  152.3020  140.1603  158.9961 C   0  0  0  0  0  0  0  0  0  0  0  0
  152.6116  141.6482  159.2259 C   0  0  0  0  0  0  0  0  0  0  0  0
  151.3911  142.5424  158.9209 C   0  0  1  0  0  0  0  0  0  0  0  0
  151.6932  144.0358  159.1628 C   0  0  0  0  0  0  0  0  0  0  0  0
  152.1426  144.2344  160.4024 F   0  0  0  0  0  0  0  0  0  0  0  0
  152.6133  144.4614  158.2973 F   0  0  0  0  0  0  0  0  0  0  0  0
  150.5882  144.7599  158.9839 F   0  0  0  0  0  0  0  0  0  0  0  0
  150.8891  142.2782  157.4853 C   0  0  0  0  0  0  0  0  0  0  0  0
  150.5741  140.7910  157.2568 C   0  0  0  0  0  0  0  0  0  0  0  0
  149.4740  134.3098  157.8544 N   0  0  0  0  0  0  0  0  0  0  0  0
  148.3457  133.7797  158.4910 O   0  0  0  0  0  0  0  0  0  0  0  0
  146.0636  135.2569  160.4261 H   0  0  0  0  0  0  0  0  0  0  0  0
  146.5921  133.5744  160.4701 H   0  0  0  0  0  0  0  0  0  0  0  0
  145.6210  134.1592  159.1171 H   0  0  0  0  0  0  0  0  0  0  0  0
  147.9845  136.9690  159.1917 H   0  0  0  0  0  0  0  0  0  0  0  0
  151.0143  136.2692  156.9452 H   0  0  0  0  0  0  0  0  0  0  0  0
  151.9957  137.9707  156.7305 H   0  0  0  0  0  0  0  0  0  0  0  0
  152.5855  140.1641  156.8569 H   0  0  0  0  0  0  0  0  0  0  0  0
  151.5538  139.8307  159.7186 H   0  0  0  0  0  0  0  0  0  0  0  0
  153.1979  139.5691  159.1889 H   0  0  0  0  0  0  0  0  0  0  0  0
  152.9346  141.7934  160.2571 H   0  0  0  0  0  0  0  0  0  0  0  0
  153.4522  141.9429  158.5965 H   0  0  0  0  0  0  0  0  0  0  0  0
  150.5928  142.2569  159.6077 H   0  0  0  0  0  0  0  0  0  0  0  0
  149.9959  142.8705  157.2850 H   0  0  0  0  0  0  0  0  0  0  0  0
  151.6409  142.6032  156.7652 H   0  0  0  0  0  0  0  0  0  0  0  0
  150.2522  140.6394  156.2256 H   0  0  0  0  0  0  0  0  0  0  0  0
  149.7342  140.4987  157.8888 H   0  0  0  0  0  0  0  0  0  0  0  0
  1  2  1  0  0  0  0
  1 21  1  0  0  0  0
  1 22  1  0  0  0  0
  1 23  1  0  0  0  0
  2 20  1  0  0  0  0
  2  3  2  0  0  0  0
  3  4  1  0  0  0  0
  3 24  1  0  0  0  0
  4  5  1  0  0  0  0
  4 19  2  0  0  0  0
  5  6  1  0  0  0  0
  5 25  1  0  0  0  0
  6  7  2  0  0  0  0
  6  8  1  0  0  0  0
  8  9  1  0  0  0  0
  8 26  1  0  0  0  0
  9 18  1  0  0  0  0
  9 10  1  0  0  0  0
  9 27  1  0  0  0  0
 10 11  1  0  0  0  0
 10 28  1  0  0  0  0
 10 29  1  0  0  0  0
 11 12  1  0  0  0  0
 11 30  1  0  0  0  0
 11 31  1  0  0  0  0
 12 13  1  0  0  0  0
 12 17  1  0  0  0  0
 12 32  1  0  0  0  0
 13 14  1  0  0  0  0
 13 15  1  0  0  0  0
 13 16  1  0  0  0  0
 17 18  1  0  0  0  0
 17 33  1  0  0  0  0
 17 34  1  0  0  0  0
 18 35  1  0  0  0  0
 18 36  1  0  0  0  0
 19 20  1  0  0  0  0
M  END
> <s_m_source_file>
AV-unprocessed.smi

> <i_m_source_file_index>
1488

> <i_lp_mmshare_version>
43012

> <i_f3d_flags>
0

> <s_epik_input>
W0NIM11jMVtjSF1jKG5vMSlbTkhdQyg9TylbTkhdW0NAQEhdMltDSDJdW0NIMl1bQ0BASF0oQyhGKShGKUYpW0NIMl1bQ0gyXTI=

> <s_epik_cmdline>
J2VwaWtfcHl0aG9uJywgJy1waCcsICc3LjAnLCAnLXRuJywgJzgnLCAnLW1hJywgJzIwMCcsICctbWV0YWxfYmluZGluZycsICctaW1hZScsICc8aW5maWxlLm1hZT4nLCAnLW9tYWUnLCAnPG91dGZpbGUubWFlPic=

> <r_lp_tautomer_probability>
1

> <r_epik_Ionization_Penalty>
2.30349e-05

> <r_epik_Ionization_Penalty_Charging>
0

> <r_epik_Ionization_Penalty_Neutral>
2.30349e-05

> <r_epik_State_Penalty>
-0

> <r_epik_Charging_Adjusted_Penalty>
0

> <i_epik_Tot_Q>
0

> <i_epik_Tot_abs_Q>
0

> <r_epik_Metal_State_Penalty>
-0

> <b_epik_Metal_Only>
0

> <s_lp_Force_Field>
OPLS_2005

> <r_lp_Energy>
8.97319

> <b_lp_Chiralities_Consistent>
1

> <s_lp_Variant>
AV-unprocessed.smi:1488-1

> <Gold.Version>
5.8.1

> <Gold.Id.Protein>
6NUR|6NUR_protein|mol2

> <Gold.PLP.Fitness>
37.7203

> <Gold.PLP.PLP>
-34.8398

> <Gold.PLP.part.hbond>
-2.4853

> <Gold.PLP.part.metal>
0.0000

> <Gold.PLP.part.buried>
-4.1834

> <Gold.PLP.part.nonpolar>
-28.7439

> <Gold.PLP.part.repulsive>
0.1143

> <Gold.PLP.ligand.clash>
0.0000

> <Gold.PLP.ligand.torsion>
0.0696

> <Gold.PLP.Chemscore.Hbond>
1.0000

> <Gold.PLP.Chemscore.CHOScore>
0.0000

> <Gold.PLP.Chemscore.Metal>
0.0000

> <Gold.Chemscore.Hbonds>
donor molecule, donor type, donor heavy atom, donor atom, acceptor molecule, acceptor atom, score
      P1  H  6896  6908       L1    19  0.44

> <Gold.PLP.Chemscore.Internal.Correction>
0.0198

> <Gold.Rescore>
     Score         DG    S(hbond)    S(metal)    S(lipo)     H(rot)  DE(clash)    DE(int)     intcor
     11.16     -13.81       0.93        0.00      66.45       1.00       0.04       2.60       ----

> <Gold.Chemscore.Fitness>
11.1642

> <Gold.Chemscore.DG>
-13.8109

> <Gold.Chemscore.ZeroCoef>
-5.4800

> <Gold.Chemscore.Hbond>
0.9331

> <Gold.Chemscore.Metal>
0.0000

> <Gold.Chemscore.Lipo>
66.4487

> <Gold.Chemscore.Internal_Hbond>
0.0000

> <Gold.Chemscore.DEClash>
0.0434

> <Gold.Chemscore.DEInternal>
2.6033

> <Gold.Chemscore.Rot>
1.0000

> <Gold.Chemscore.Internal.Correction>
   9.000000E+99

> <Gold.Chemscore.Hbond.Weighted>
-3.1164

> <Gold.Chemscore.Metal.Weighted>
-0.0000

> <Gold.Chemscore.Lipo.Weighted>
-7.7745

> <Gold.Chemscore.Internal_Hbond.Weighted>
0.0000

> <Gold.Chemscore.DEClash.Weighted>
0.0434

> <Gold.Chemscore.DEInternal.Weighted>
2.6033

> <Gold.Chemscore.Rot.Weighted>
2.5600

> <Gold.Chemscore.Internal.Correction.Weighted>
   9.000000E+99

> <Gold.Protein.RotatedTorsions>
[ 6907 6896 6895 6894 ] final  136.86 input  -60.11 | X-H torsion
[ 7974 7965 7964 7962 ] final  170.18 input  175.53 | X-H torsion
[ 8008 7997 7996 7995 ] final  -18.60 input   59.86 | X-H torsion
[ 10167 10162 10161 10158 ] final  109.66 input  -65.29 | X-H torsion
[ 10718 10713 10712 10709 ] final   12.19 input   66.30 | X-H torsion
[ 10763 10752 10751 10750 ] final   71.94 input  -60.55 | X-H torsion
[ 11005 11000 10999 10996 ] final -148.52 input  -57.11 | X-H torsion

> <Gold.Protein.ActiveResidues>
 VAL166  LYS551  ARG553  GLY616  TRP617  ASP618  TYR619  PRO620  LYS621  CYS622 
 ASP623  PHE694  ASN695  SER759  ASP760  ASP761  ALA762  ILE779  LEU786  VAL792 
 PHE793  MET794  SER795  GLU796  ALA797  LYS798  CYS799  TRP800  GLU811  SER814 

> <Gold.Protein.RotatedAtoms>
  152.2846  133.5502  159.5518 H   0  0  0  0  0  0  0  0  0  0  0  0  # atno 6907 bound_to 6896
  150.7210  134.0516  159.3809 H   0  0  0  0  0  0  0  0  0  0  0  0  # atno 6908 bound_to 6896
  151.8425  135.0585  160.0500 H   0  0  0  0  0  0  0  0  0  0  0  0  # atno 6909 bound_to 6896
  144.7332  139.9164  143.6418 H   0  0  0  0  0  0  0  0  0  0  0  0  # atno 7974 bound_to 7965
  154.4895  140.2111  155.9581 H   0  0  0  0  0  0  0  0  0  0  0  0  # atno 8008 bound_to 7997
  156.1284  140.3201  155.8281 H   0  0  0  0  0  0  0  0  0  0  0  0  # atno 8009 bound_to 7997
  155.4341  140.0505  157.3007 H   0  0  0  0  0  0  0  0  0  0  0  0  # atno 8010 bound_to 7997
  139.6749  144.7123  151.1620 H   0  0  0  0  0  0  0  0  0  0  0  0  # atno 10167 bound_to 10162
  157.0066  130.6100  149.5703 H   0  0  0  0  0  0  0  0  0  0  0  0  # atno 10718 bound_to 10713
  153.0429  135.5118  154.7669 H   0  0  0  0  0  0  0  0  0  0  0  0  # atno 10763 bound_to 10752
  154.6592  135.2936  154.9890 H   0  0  0  0  0  0  0  0  0  0  0  0  # atno 10764 bound_to 10752
  154.0747  135.6672  153.4882 H   0  0  0  0  0  0  0  0  0  0  0  0  # atno 10765 bound_to 10752
  140.7603  134.3305  157.5103 H   0  0  0  0  0  0  0  0  0  0  0  0  # atno 11005 bound_to 11000
  146.0963  139.3955  143.0375 LP  0  0  0  0  0  0  0  0  0  0  0  0  # atno 17320 bound_to 7965
  145.7641  140.9923  143.1184 LP  0  0  0  0  0  0  0  0  0  0  0  0  # atno 17321 bound_to 7965
  140.7632  143.5787  150.8918 LP  0  0  0  0  0  0  0  0  0  0  0  0  # atno 17342 bound_to 10162
  139.9455  143.6332  152.3043 LP  0  0  0  0  0  0  0  0  0  0  0  0  # atno 17343 bound_to 10162
  156.0151  130.5245  150.8110 LP  0  0  0  0  0  0  0  0  0  0  0  0  # atno 17370 bound_to 10713
  157.5351  131.0938  150.9903 LP  0  0  0  0  0  0  0  0  0  0  0  0  # atno 17371 bound_to 10713
  139.8772  134.9198  156.3235 LP  0  0  0  0  0  0  0  0  0  0  0  0  # atno 17394 bound_to 11000
  140.9669  133.7352  156.0479 LP  0  0  0  0  0  0  0  0  0  0  0  0  # atno 17395 bound_to 11000

$$$$
