AV-unprocessed.smi:290|AV-procd|sdf|2221|dock7
  -GOLD-   2262022 63D 1   1.00000     0.00000
 Structure written by MMmdl.
 59 62  0  0  0  0  0  0  0  0  2 V2000
  145.5449  137.1058  159.9713 C   0  0  0  0  0  0  0  0  0  0  0  0
  145.9329  136.5139  161.3369 C   0  0  2  0  0  0  0  0  0  0  0  0
  145.4778  137.3635  162.3896 O   0  0  0  0  0  0  0  0  0  0  0  0
  146.5775  137.7946  163.1770 C   0  0  0  0  0  0  0  0  0  0  0  0
  147.5916  136.6666  163.0442 C   0  0  0  0  0  0  0  0  0  0  0  0
  147.4409  136.2574  161.5866 C   0  0  2  0  0  0  0  0  0  0  0  0
  148.2439  137.1255  160.8018 O   0  0  0  0  0  0  0  0  0  0  0  0
  147.8979  134.8010  161.3318 C   0  0  0  0  0  0  0  0  0  0  0  0
  147.6749  134.3514  159.9665 N   0  0  0  0  0  0  0  0  0  0  0  0
  146.7744  133.3961  159.5491 C   0  0  0  0  0  0  0  0  0  0  0  0
  146.7574  133.1679  158.2637 N   0  0  0  0  0  0  0  0  0  0  0  0
  147.7167  134.0346  157.7581 C   0  0  0  0  0  0  0  0  0  0  0  0
  148.2026  134.3130  156.4547 C   0  0  0  0  0  0  0  0  0  0  0  0
  147.7172  133.6758  155.3652 N   0  0  0  0  0  0  0  0  0  0  0  0
  148.7214  132.9654  154.5970 C   0  0  0  0  0  0  0  0  0  0  0  0
  148.0935  132.7156  153.2248 C   0  0  0  0  0  0  0  0  0  0  0  0
  146.8237  133.5911  153.1647 C   0  0  2  0  0  0  0  0  0  0  0  0
  146.7176  134.3019  151.8506 N   0  3  1  0  0  0  0  0  0  0  0  0
  146.8083  133.3436  150.7182 C   0  0  0  0  0  0  0  0  0  0  0  0
  145.5579  135.2295  151.7172 C   0  0  0  0  0  0  0  0  0  0  0  0
  145.5959  136.1074  150.4516 C   0  0  0  0  0  0  0  0  0  0  0  0
  146.2405  137.3340  150.7240 O   0  0  0  0  0  0  0  0  0  0  0  0
  146.9399  134.4781  154.4279 C   0  0  1  0  0  0  0  0  0  0  0  0
  145.5860  134.8614  155.0663 C   0  0  0  0  0  0  0  0  0  0  0  0
  149.1737  135.2553  156.3237 N   0  0  0  0  0  0  0  0  0  0  0  0
  149.6376  135.8881  157.4059 C   0  0  0  0  0  0  0  0  0  0  0  0
  149.2738  135.7369  158.6816 N   0  0  0  0  0  0  0  0  0  0  0  0
  148.3015  134.7892  158.8126 C   0  0  0  0  0  0  0  0  0  0  0  0
  145.9520  132.9445  153.2854 H   0  0  0  0  0  0  0  0  0  0  0  0
  147.5069  135.3781  154.1852 H   0  0  0  0  0  0  0  0  0  0  0  0
  145.8962  136.4794  159.1516 H   0  0  0  0  0  0  0  0  0  0  0  0
  145.9593  138.1048  159.8346 H   0  0  0  0  0  0  0  0  0  0  0  0
  144.4615  137.1870  159.8828 H   0  0  0  0  0  0  0  0  0  0  0  0
  145.3892  135.5790  161.4716 H   0  0  0  0  0  0  0  0  0  0  0  0
  146.9743  138.7221  162.7619 H   0  0  0  0  0  0  0  0  0  0  0  0
  146.2836  137.9797  164.2104 H   0  0  0  0  0  0  0  0  0  0  0  0
  148.6049  136.9660  163.3157 H   0  0  0  0  0  0  0  0  0  0  0  0
  147.2994  135.8460  163.7012 H   0  0  0  0  0  0  0  0  0  0  0  0
  148.6651  136.6165  160.1265 H   0  0  0  0  0  0  0  0  0  0  0  0
  148.9594  134.6917  161.5585 H   0  0  0  0  0  0  0  0  0  0  0  0
  147.3741  134.1194  162.0033 H   0  0  0  0  0  0  0  0  0  0  0  0
  146.1278  132.8677  160.2345 H   0  0  0  0  0  0  0  0  0  0  0  0
  149.6291  133.5627  154.4952 H   0  0  0  0  0  0  0  0  0  0  0  0
  148.9891  132.0291  155.0881 H   0  0  0  0  0  0  0  0  0  0  0  0
  148.8126  132.9683  152.4443 H   0  0  0  0  0  0  0  0  0  0  0  0
  147.8349  131.6633  153.1007 H   0  0  0  0  0  0  0  0  0  0  0  0
  145.8845  132.7726  150.6172 H   0  0  0  0  0  0  0  0  0  0  0  0
  147.6242  132.6336  150.8513 H   0  0  0  0  0  0  0  0  0  0  0  0
  147.0041  133.8533  149.7760 H   0  0  0  0  0  0  0  0  0  0  0  0
  144.6333  134.6511  151.7362 H   0  0  0  0  0  0  0  0  0  0  0  0
  145.5258  135.9143  152.5627 H   0  0  0  0  0  0  0  0  0  0  0  0
  146.0766  135.6092  149.6107 H   0  0  0  0  0  0  0  0  0  0  0  0
  144.5776  136.3269  150.1295 H   0  0  0  0  0  0  0  0  0  0  0  0
  145.6126  138.0348  150.6305 H   0  0  0  0  0  0  0  0  0  0  0  0
  144.9370  135.4165  154.3932 H   0  0  0  0  0  0  0  0  0  0  0  0
  145.7308  135.4848  155.9492 H   0  0  0  0  0  0  0  0  0  0  0  0
  145.0374  133.9731  155.3819 H   0  0  0  0  0  0  0  0  0  0  0  0
  150.4100  136.6210  157.2244 H   0  0  0  0  0  0  0  0  0  0  0  0
  147.5370  134.8902  151.7942 H   0  0  0  0  0  0  0  0  0  0  0  0
  1  2  1  0  0  0  0
  1 31  1  0  0  0  0
  1 32  1  0  0  0  0
  1 33  1  0  0  0  0
  2  6  1  0  0  0  0
  2  3  1  0  0  0  0
  2 34  1  0  0  0  0
  3  4  1  0  0  0  0
  4  5  1  0  0  0  0
  4 35  1  0  0  0  0
  4 36  1  0  0  0  0
  5  6  1  0  0  0  0
  5 37  1  0  0  0  0
  5 38  1  0  0  0  0
  6  7  1  0  0  0  0
  6  8  1  0  0  0  0
  7 39  1  0  0  0  0
  8  9  1  0  0  0  0
  8 40  1  0  0  0  0
  8 41  1  0  0  0  0
  9 28  1  0  0  0  0
  9 10  1  0  0  0  0
 10 11  2  0  0  0  0
 10 42  1  0  0  0  0
 11 12  1  0  0  0  0
 12 28  2  0  0  0  0
 12 13  1  0  0  0  0
 13 14  1  0  0  0  0
 13 25  2  0  0  0  0
 14 23  1  0  0  0  0
 14 15  1  0  0  0  0
 15 16  1  0  0  0  0
 15 43  1  0  0  0  0
 15 44  1  0  0  0  0
 16 17  1  0  0  0  0
 16 45  1  0  0  0  0
 16 46  1  0  0  0  0
 17 29  1  0  0  0  0
 17 18  1  0  0  0  0
 17 23  1  0  0  0  0
 18 19  1  0  0  0  0
 18 20  1  0  0  0  0
 18 59  1  0  0  0  0
 19 47  1  0  0  0  0
 19 48  1  0  0  0  0
 19 49  1  0  0  0  0
 20 21  1  0  0  0  0
 20 50  1  0  0  0  0
 20 51  1  0  0  0  0
 21 22  1  0  0  0  0
 21 52  1  0  0  0  0
 21 53  1  0  0  0  0
 22 54  1  0  0  0  0
 23 30  1  0  0  0  0
 23 24  1  0  0  0  0
 24 55  1  0  0  0  0
 24 56  1  0  0  0  0
 24 57  1  0  0  0  0
 25 26  1  0  0  0  0
 26 27  2  0  0  0  0
 26 58  1  0  0  0  0
 27 28  1  0  0  0  0
M  CHG  1  18   1
M  END
> <s_m_source_file>
AV-unprocessed.smi

> <i_m_source_file_index>
290

> <i_lp_mmshare_version>
43012

> <i_f3d_flags>
0

> <s_epik_input>
W0NIMl0xW0NIMl1PW0NAQEhdKFtDSDNdKVtDQEBdMShbT0hdKVtDSDJdbihbY0hdbjIpYyhjMjMpbltjSF1uYzNONFtDSDJdW0NIMl1bQ0BIXShbQ0BIXTRbQ0gzXSlOKFtDSDNdKVtDSDJdW0NIMl1bT0hd

> <s_epik_cmdline>
J2VwaWtfcHl0aG9uJywgJy1waCcsICc3LjAnLCAnLXRuJywgJzgnLCAnLW1hJywgJzIwMCcsICctbWV0YWxfYmluZGluZycsICctaW1hZScsICc8aW5maWxlLm1hZT4nLCAnLW9tYWUnLCAnPG91dGZpbGUubWFlPic=

> <r_lp_tautomer_probability>
1

> <r_epik_Ionization_Penalty>
0.0036983

> <r_epik_Ionization_Penalty_Charging>
0.0032725

> <r_epik_Ionization_Penalty_Neutral>
0.000425798

> <r_epik_State_Penalty>
-0

> <r_epik_Charging_Adjusted_Penalty>
0.0032725

> <i_epik_Tot_Q>
1

> <i_epik_Tot_abs_Q>
1

> <r_epik_Metal_State_Penalty>
-0

> <b_epik_Metal_Only>
0

> <s_lp_Force_Field>
OPLS_2005

> <r_lp_Energy>
65.2566

> <b_lp_Chiralities_Consistent>
1

> <s_lp_Variant>
AV-unprocessed.smi:290-7

> <Gold.Version>
5.8.1

> <Gold.Id.Protein>
6NUR|6NUR_protein|mol2

> <Gold.PLP.Fitness>
52.9393

> <Gold.PLP.PLP>
-35.3642

> <Gold.PLP.part.hbond>
-6.9346

> <Gold.PLP.part.metal>
0.0000

> <Gold.PLP.part.buried>
-2.8283

> <Gold.PLP.part.nonpolar>
-26.0246

> <Gold.PLP.part.repulsive>
0.0841

> <Gold.PLP.ligand.clash>
0.0000

> <Gold.PLP.ligand.torsion>
0.3989

> <Gold.PLP.Chemscore.Hbond>
6.0344

> <Gold.PLP.Chemscore.CHOScore>
0.0000

> <Gold.PLP.Chemscore.Metal>
0.0000

> <Gold.Chemscore.Hbonds>
donor molecule, donor type, donor heavy atom, donor atom, acceptor molecule, acceptor atom, score
      L1  H    18    59       P1  7948  2.00
      L1  H    22    54       P1 10171  0.91
      P1  H  6896  6908       L1    27  0.90
      P1  H  6931  6943       L1     7  0.91
      P1  H  6934  6947       L1     7  0.43
      P1  H  7954  7966       L1    22  0.68

> <Gold.PLP.Chemscore.Internal.Correction>
0.2698

> <Gold.Rescore>
     Score         DG    S(hbond)    S(metal)    S(lipo)     H(rot)  DE(clash)    DE(int)     intcor
     14.41     -17.10       3.50        0.00      79.59       3.67       0.84       1.85       ----

> <Gold.Chemscore.Fitness>
14.4052

> <Gold.Chemscore.DG>
-17.1027

> <Gold.Chemscore.ZeroCoef>
-5.4800

> <Gold.Chemscore.Hbond>
3.5015

> <Gold.Chemscore.Metal>
0.0000

> <Gold.Chemscore.Lipo>
79.5892

> <Gold.Chemscore.Internal_Hbond>
0.0000

> <Gold.Chemscore.DEClash>
0.8441

> <Gold.Chemscore.DEInternal>
1.8533

> <Gold.Chemscore.Rot>
3.6658

> <Gold.Chemscore.Internal.Correction>
   9.000000E+99

> <Gold.Chemscore.Hbonds>
donor molecule, donor type, donor heavy atom, donor atom, acceptor molecule, acceptor atom, score
      L1  H    18    59       P1  7948  0.70
      L1  H    22    54       P1 10171  0.87
      P1  H  6896  6908       L1    27  0.11
      P1  H  6931  6943       L1     7  0.57
      P1  H  6934  6947       L1     7  0.19
      P1  H  7954  7966       L1    22  0.53

> <Gold.Chemscore.Hbond.Weighted>
-11.6951

> <Gold.Chemscore.Metal.Weighted>
-0.0000

> <Gold.Chemscore.Lipo.Weighted>
-9.3119

> <Gold.Chemscore.Internal_Hbond.Weighted>
0.0000

> <Gold.Chemscore.DEClash.Weighted>
0.8441

> <Gold.Chemscore.DEInternal.Weighted>
1.8533

> <Gold.Chemscore.Rot.Weighted>
9.3844

> <Gold.Chemscore.Internal.Correction.Weighted>
   9.000000E+99

> <Gold.Protein.RotatedTorsions>
[ 6907 6896 6895 6894 ] final -178.31 input  -60.11 | X-H torsion
[ 7974 7965 7964 7962 ] final  -34.91 input  175.53 | X-H torsion
[ 8008 7997 7996 7995 ] final   65.78 input   59.86 | X-H torsion
[ 10167 10162 10161 10158 ] final  -37.42 input  -65.29 | X-H torsion
[ 10718 10713 10712 10709 ] final   79.08 input   66.30 | X-H torsion
[ 10763 10752 10751 10750 ] final  131.28 input  -60.55 | X-H torsion
[ 11005 11000 10999 10996 ] final   79.95 input  -57.11 | X-H torsion

> <Gold.Protein.ActiveResidues>
 VAL166  LYS551  ARG553  GLY616  TRP617  ASP618  TYR619  PRO620  LYS621  CYS622 
 ASP623  PHE694  ASN695  SER759  ASP760  ASP761  ALA762  ILE779  LEU786  VAL792 
 PHE793  MET794  SER795  GLU796  ALA797  LYS798  CYS799  TRP800  GLU811  SER814 

> <Gold.Protein.RotatedAtoms>
  151.6351  133.3329  159.3117 H   0  0  0  0  0  0  0  0  0  0  0  0  # atno 6907 bound_to 6896
  150.8036  134.7150  159.6635 H   0  0  0  0  0  0  0  0  0  0  0  0  # atno 6908 bound_to 6896
  152.4130  134.6095  160.0073 H   0  0  0  0  0  0  0  0  0  0  0  0  # atno 6909 bound_to 6896
  146.0790  140.6096  142.8917 H   0  0  0  0  0  0  0  0  0  0  0  0  # atno 7974 bound_to 7965
  155.6670  140.3497  155.4804 H   0  0  0  0  0  0  0  0  0  0  0  0  # atno 8008 bound_to 7997
  155.9720  140.1157  157.0826 H   0  0  0  0  0  0  0  0  0  0  0  0  # atno 8009 bound_to 7997
  154.4169  140.1155  156.5306 H   0  0  0  0  0  0  0  0  0  0  0  0  # atno 8010 bound_to 7997
  140.7118  143.3343  151.2498 H   0  0  0  0  0  0  0  0  0  0  0  0  # atno 10167 bound_to 10162
  157.6765  130.9898  150.1881 H   0  0  0  0  0  0  0  0  0  0  0  0  # atno 10718 bound_to 10713
  153.7717  135.3181  155.3353 H   0  0  0  0  0  0  0  0  0  0  0  0  # atno 10763 bound_to 10752
  154.8194  135.4614  154.0737 H   0  0  0  0  0  0  0  0  0  0  0  0  # atno 10764 bound_to 10752
  153.1999  135.6921  153.8329 H   0  0  0  0  0  0  0  0  0  0  0  0  # atno 10765 bound_to 10752
  139.9153  134.7883  156.1846 H   0  0  0  0  0  0  0  0  0  0  0  0  # atno 11005 bound_to 11000
  144.7281  140.4586  143.6958 LP  0  0  0  0  0  0  0  0  0  0  0  0  # atno 17320 bound_to 7965
  145.6253  139.1529  143.3000 LP  0  0  0  0  0  0  0  0  0  0  0  0  # atno 17321 bound_to 7965
  139.6833  143.9816  152.2820 LP  0  0  0  0  0  0  0  0  0  0  0  0  # atno 17342 bound_to 10162
  139.9453  144.6655  150.8225 LP  0  0  0  0  0  0  0  0  0  0  0  0  # atno 17343 bound_to 10162
  156.2598  130.3709  149.8142 LP  0  0  0  0  0  0  0  0  0  0  0  0  # atno 17370 bound_to 10713
  156.5891  130.8498  151.3403 LP  0  0  0  0  0  0  0  0  0  0  0  0  # atno 17371 bound_to 10713
  141.0621  133.6836  156.1973 LP  0  0  0  0  0  0  0  0  0  0  0  0  # atno 17394 bound_to 11000
  140.6644  134.4934  157.5585 LP  0  0  0  0  0  0  0  0  0  0  0  0  # atno 17395 bound_to 11000

$$$$
