#       Name:                AV-unprocessed.smi:157
#       Creating user name   scv26
#       Creation time:       Thu Mar 26 19:01:07 2020


#       File generated by GOLD software.
#

@<TRIPOS>MOLECULE
AV-unprocessed.smi:157
    45    47     1
SMALL
NO_CHARGES


@<TRIPOS>ATOM
      1 ****        -4.9032   2.8656  -0.0221 O.3            1 S1                 0.0000
      2 ****        -4.1366   1.6816  -0.0829 C.3            1 S1                 0.0000
      3 ****        -2.7104   1.9955  -0.5596 C.3            1 S1                 0.0000
      4 ****        -2.0283   0.7642  -0.7892 O.3            1 S1                 0.0000
      5 ****        -0.6927   0.9545  -0.4676 C.3            1 S1                 0.0000
      6 ****        -0.0630  -0.3711  -0.1951 N.pl3          1 S1                 0.0000
      7 ****        -0.6846  -1.4745   0.2716 C.2            1 S1                 0.0000
      8 ****         0.1099  -2.5192   0.4340 N.pl3          1 S1                 1.0000
      9 ****         1.3727  -2.1123   0.0577 C.2            1 S1                 0.0000
     10 ****         1.2468  -0.7723  -0.3178 C.2            1 S1                 0.0000
     11 ****         2.2214   0.1317  -0.7670 N.2            1 S1                 0.0000
     12 ****         3.4902  -0.0760  -0.6270 C.2            1 S1                 0.0000
     13 ****         4.1427  -1.1917  -0.1295 N.pl3          1 S1                 0.0000
     14 ****         3.8098  -2.5477  -0.5287 C.3            1 S1                 0.0000
     15 ****         2.5163  -3.0772   0.1047 C.3            1 S1                 0.0000
     16 ****         2.8029  -3.5150   1.4170 O.3            1 S1                 0.0000
     17 ****        -0.7069   1.8162   0.7843 C.3            1 S1                 0.0000
     18 ****        -1.8543   2.7636   0.4740 C.3            1 S1                 0.0000
     19 ****        -1.3530   3.9568  -0.0950 O.3            1 S1                 0.0000
     20 ****        -2.7476   2.5320  -1.5099 H              1 S1                 0.0000
     21 ****        -0.1441   1.3920  -1.3034 H              1 S1                 0.0000
     22 ****         2.2189  -3.9679  -0.4497 H              1 S1                 0.0000
     23 ****        -2.4098   3.0135   1.3787 H              1 S1                 0.0000
     24 ****        -5.7810   2.6428   0.2490 H              1 S1                 0.0000
     25 ****        -4.1252   1.1986   0.8947 H              1 S1                 0.0000
     26 ****        -4.6219   0.9955  -0.7776 H              1 S1                 0.0000
     27 ****        -1.7374  -1.4977   0.4900 H              1 S1                 0.0000
     28 ****         4.1894   0.7029  -0.9351 H              1 S1                 0.0000
     29 ****         5.1179  -1.1090   0.1203 H              1 S1                 0.0000
     30 ****         3.6977  -2.5488  -1.6141 H              1 S1                 0.0000
     31 ****         4.6477  -3.2109  -0.3111 H              1 S1                 0.0000
     32 ****         2.0582  -3.9932   1.7477 H              1 S1                 0.0000
     33 ****        -0.9535   1.1952   1.6470 H              1 S1                 0.0000
     34 ****         0.2572   2.2985   0.9525 H              1 S1                 0.0000
     35 ****        -2.0838   4.5181  -0.3063 H              1 S1                 0.0000
     36 ****        -0.1624  -3.4360   0.7651 H              1 S1                 0.0000
     37 ****        -4.9284   3.2974  -0.9237 LP             1 S1                 0.0000
     38 ****        -4.4965   3.4968   0.6384 LP             1 S1                 0.0000
     39 ****        -2.1130   0.5023  -1.7506 LP             1 S1                 0.0000
     40 ****        -2.4183   0.0464  -0.2125 LP             1 S1                 0.0000
     41 ****         1.9216   0.9739  -1.2152 LP             1 S1                 0.0000
     42 ****         2.9824  -2.7249   2.0032 LP             1 S1                 0.0000
     43 ****         3.6063  -4.1103   1.4048 LP             1 S1                 0.0000
     44 ****        -0.8393   3.7444  -0.9263 LP             1 S1                 0.0000
     45 ****        -0.7527   4.4165   0.5595 LP             1 S1                 0.0000
@<TRIPOS>BOND
    1    1    2 1     
    2    1   24 1     
    3    2    3 1     
    4    2   25 1     
    5    2   26 1     
    6    3   20 1     
    7    3   18 1     
    8    3    4 1     
    9    4    5 1     
   10    5   21 1     
   11    5    6 1     
   12    5   17 1     
   13    6   10 1     
   14    6    7 1     
   15    7    8 2     
   16    7   27 1     
   17    8    9 1     
   18    8   36 1     
   19    9   15 1     
   20    9   10 2     
   21   10   11 1     
   22   11   12 2     
   23   12   13 1     
   24   12   28 1     
   25   13   14 1     
   26   13   29 1     
   27   14   15 1     
   28   14   30 1     
   29   14   31 1     
   30   15   22 1     
   31   15   16 1     
   32   16   32 1     
   33   17   18 1     
   34   17   33 1     
   35   17   34 1     
   36   18   23 1     
   37   18   19 1     
   38   19   35 1     
   39    1   37 1     
   40    1   38 1     
   41    4   39 1     
   42    4   40 1     
   43   11   41 1     
   44   16   42 1     
   45   16   43 1     
   46   19   44 1     
   47   19   45 1     
@<TRIPOS>SUBSTRUCTURE
      1 S1             1
@<TRIPOS>SET
LONE_PAIRS      STATIC     ATOMS    <user>   **** ""
9 37 38 39 40 41 42 43 44 45
DONOR_HYDROGENS      STATIC     ATOMS    <user>   **** ""
5 24 36 29 32 35
ATOM$BLUE        STATIC     ATOMS    COLORGROUP SYSTEM
9 37 38 39 40 41 42 43 44 45
ATOM$RED        STATIC     ATOMS    COLORGROUP SYSTEM
5 24 36 29 32 35
