AV-unprocessed.smi:1867|AV-procd|sdf|7572|dock1
  -GOLD-   22720 9283D 1   1.00000     0.00000
 Structure written by MMmdl.
 53 56  0  0  0  0  0  0  0  0  3 V2000
  146.6401  139.5548  154.0477 O   0  0  0  0  0  0  0  0  0  0  0  0
  147.4508  138.8382  153.4661 C   0  0  0  0  0  0  0  0  0  0  0  0
  148.7832  138.8665  153.6681 N   0  0  0  0  0  0  0  0  0  0  0  0
  149.5373  139.7316  154.5070 C   0  0  0  0  0  0  0  0  0  0  0  0
  150.8153  139.4158  155.0335 C   0  0  0  0  0  0  0  0  0  0  0  0
  151.4701  140.3423  155.8705 C   0  0  0  0  0  0  0  0  0  0  0  0
  150.8376  141.5679  156.1829 C   0  0  0  0  0  0  0  0  0  0  0  0
  151.4075  142.5567  156.9974 N   0  0  0  0  0  0  0  0  0  0  0  0
  151.3701  143.9091  156.4647 C   0  0  0  0  0  0  0  0  0  0  0  0
  151.6303  144.8290  157.6605 C   0  0  0  0  0  0  0  0  0  0  0  0
  151.2742  143.9873  158.8915 C   0  0  0  0  0  0  0  0  0  0  0  0
  150.8326  142.6335  158.3296 C   0  0  0  0  0  0  0  0  0  0  0  0
  149.6150  141.8247  155.6690 N   0  3  0  0  0  0  0  0  0  0  0  0
  148.9541  140.9659  154.8629 C   0  0  0  0  0  0  0  0  0  0  0  0
  147.0451  137.9185  152.5722 N   0  0  0  0  0  0  0  0  0  0  0  0
  145.6814  137.6261  152.1248 C   0  0  2  0  0  0  0  0  0  0  0  0
  144.6956  137.4799  153.2772 C   0  0  0  0  0  0  0  0  0  0  0  0
  143.5236  136.7299  152.6368 C   0  0  0  0  0  0  0  0  0  0  0  0
  144.0852  135.9329  151.5190 N   0  3  2  0  0  0  0  0  0  0  0  0
  143.7972  134.4765  151.6126 C   0  0  0  0  0  0  0  0  0  0  0  0
  144.7080  133.6744  150.6718 C   0  0  0  0  0  0  0  0  0  0  0  0
  146.1931  133.8438  151.0438 C   0  0  0  0  0  0  0  0  0  0  0  0
  146.4625  135.1476  151.8192 C   0  0  0  0  0  0  0  0  0  0  0  0
  145.5243  136.2932  151.3656 C   0  0  2  0  0  0  0  0  0  0  0  0
  149.3182  138.1601  153.1851 H   0  0  0  0  0  0  0  0  0  0  0  0
  151.3055  138.4780  154.8240 H   0  0  0  0  0  0  0  0  0  0  0  0
  152.4482  140.1069  156.2639 H   0  0  0  0  0  0  0  0  0  0  0  0
  152.1222  144.0439  155.6866 H   0  0  0  0  0  0  0  0  0  0  0  0
  150.3950  144.1316  156.0301 H   0  0  0  0  0  0  0  0  0  0  0  0
  152.6822  145.1156  157.6981 H   0  0  0  0  0  0  0  0  0  0  0  0
  151.0398  145.7437  157.5985 H   0  0  0  0  0  0  0  0  0  0  0  0
  152.1532  143.8671  159.5263 H   0  0  0  0  0  0  0  0  0  0  0  0
  150.4897  144.4453  159.4945 H   0  0  0  0  0  0  0  0  0  0  0  0
  149.7439  142.5845  158.2776 H   0  0  0  0  0  0  0  0  0  0  0  0
  151.1776  141.8092  158.9545 H   0  0  0  0  0  0  0  0  0  0  0  0
  147.9824  141.2959  154.5250 H   0  0  0  0  0  0  0  0  0  0  0  0
  147.7710  137.3493  152.1601 H   0  0  0  0  0  0  0  0  0  0  0  0
  145.3198  138.4408  151.4938 H   0  0  0  0  0  0  0  0  0  0  0  0
  145.1301  136.8737  154.0738 H   0  0  0  0  0  0  0  0  0  0  0  0
  144.3986  138.4367  153.7076 H   0  0  0  0  0  0  0  0  0  0  0  0
  142.9844  136.1268  153.3686 H   0  0  0  0  0  0  0  0  0  0  0  0
  142.8118  137.4406  152.2155 H   0  0  0  0  0  0  0  0  0  0  0  0
  143.9445  134.1284  152.6364 H   0  0  0  0  0  0  0  0  0  0  0  0
  142.7481  134.3062  151.3691 H   0  0  0  0  0  0  0  0  0  0  0  0
  144.4389  132.6178  150.6872 H   0  0  0  0  0  0  0  0  0  0  0  0
  144.5469  134.0144  149.6479 H   0  0  0  0  0  0  0  0  0  0  0  0
  146.5267  132.9988  151.6471 H   0  0  0  0  0  0  0  0  0  0  0  0
  146.7918  133.8194  150.1326 H   0  0  0  0  0  0  0  0  0  0  0  0
  146.3209  134.9675  152.8859 H   0  0  0  0  0  0  0  0  0  0  0  0
  147.5103  135.4224  151.6958 H   0  0  0  0  0  0  0  0  0  0  0  0
  145.7131  136.4689  150.3055 H   0  0  0  0  0  0  0  0  0  0  0  0
  143.6274  136.2617  150.6806 H   0  0  0  0  0  0  0  0  0  0  0  0
  149.1686  142.7120  155.9031 H   0  0  0  0  0  0  0  0  0  0  0  0
  1  2  2  0  0  0  0
  2  3  1  0  0  0  0
  2 15  1  0  0  0  0
  3  4  1  0  0  0  0
  3 25  1  0  0  0  0
  4 14  1  0  0  0  0
  4  5  2  0  0  0  0
  5  6  1  0  0  0  0
  5 26  1  0  0  0  0
  6  7  2  0  0  0  0
  6 27  1  0  0  0  0
  7  8  1  0  0  0  0
  7 13  1  0  0  0  0
  8 12  1  0  0  0  0
  8  9  1  0  0  0  0
  9 10  1  0  0  0  0
  9 28  1  0  0  0  0
  9 29  1  0  0  0  0
 10 11  1  0  0  0  0
 10 30  1  0  0  0  0
 10 31  1  0  0  0  0
 11 12  1  0  0  0  0
 11 32  1  0  0  0  0
 11 33  1  0  0  0  0
 12 34  1  0  0  0  0
 12 35  1  0  0  0  0
 13 14  2  0  0  0  0
 13 53  1  0  0  0  0
 14 36  1  0  0  0  0
 15 16  1  0  0  0  0
 15 37  1  0  0  0  0
 16 24  1  0  0  0  0
 16 17  1  0  0  0  0
 16 38  1  0  0  0  0
 17 18  1  0  0  0  0
 17 39  1  0  0  0  0
 17 40  1  0  0  0  0
 18 19  1  0  0  0  0
 18 41  1  0  0  0  0
 18 42  1  0  0  0  0
 19 24  1  0  0  0  0
 19 20  1  0  0  0  0
 19 52  1  0  0  0  0
 20 21  1  0  0  0  0
 20 43  1  0  0  0  0
 20 44  1  0  0  0  0
 21 22  1  0  0  0  0
 21 45  1  0  0  0  0
 21 46  1  0  0  0  0
 22 23  1  0  0  0  0
 22 47  1  0  0  0  0
 22 48  1  0  0  0  0
 23 24  1  0  0  0  0
 23 49  1  0  0  0  0
 23 50  1  0  0  0  0
 24 51  1  0  0  0  0
M  CHG  1  13   1
M  CHG  1  19   1
M  END
> <s_m_source_file>
AV-unprocessed.smi

> <i_m_source_file_index>
1867

> <i_lp_mmshare_version>
43012

> <i_f3d_flags>
0

> <s_epik_input>
W0NIMl0xW0NIMl1bQ0gyXVtDSDJdW0NASF0oTjEyKVtDQEBIXShbQ0gyXVtDSDJdMilbTkhdQyg9TylbTkhdYzNbY0hdW2NIXWMobltjSF0zKU40W0NIMl1bQ0gyXVtDSDJdW0NIMl00

> <s_epik_cmdline>
J2VwaWtfcHl0aG9uJywgJy1waCcsICc3LjAnLCAnLXRuJywgJzgnLCAnLW1hJywgJzIwMCcsICctbWV0YWxfYmluZGluZycsICctaW1hZScsICc8aW5maWxlLm1hZT4nLCAnLW9tYWUnLCAnPG91dGZpbGUubWFlPic=

> <r_lp_tautomer_probability>
0.999994

> <r_epik_Ionization_Penalty>
1.27347

> <r_epik_Ionization_Penalty_Charging>
1.27345

> <r_epik_Ionization_Penalty_Neutral>
1.96458e-05

> <r_epik_State_Penalty>
1.34393

> <r_epik_Charging_Adjusted_Penalty>
2.61738

> <i_epik_Tot_Q>
2

> <i_epik_Tot_abs_Q>
2

> <r_epik_Metal_State_Penalty>
1.41094

> <b_epik_Metal_Only>
0

> <s_lp_Force_Field>
OPLS_2005

> <r_lp_Energy>
89.9373

> <b_lp_Chiralities_Consistent>
1

> <s_lp_Variant>
AV-unprocessed.smi:1867-13

> <Gold.Version>
5.8.1

> <Gold.Id.Protein>
6NUR|6NUR_protein|mol2

> <Gold.PLP.Fitness>
48.4562

> <Gold.PLP.PLP>
-39.7196

> <Gold.PLP.part.hbond>
-4.5856

> <Gold.PLP.part.metal>
0.0000

> <Gold.PLP.part.buried>
4.7044

> <Gold.PLP.part.nonpolar>
-39.7763

> <Gold.PLP.part.repulsive>
0.5264

> <Gold.PLP.ligand.clash>
0.0000

> <Gold.PLP.ligand.torsion>
0.5798

> <Gold.PLP.Chemscore.Hbond>
3.2872

> <Gold.PLP.Chemscore.CHOScore>
0.0000

> <Gold.PLP.Chemscore.Metal>
0.0000

> <Gold.Chemscore.Hbonds>
donor molecule, donor type, donor heavy atom, donor atom, acceptor molecule, acceptor atom, score
      L1  H     3    25       P1  7948  0.20
      L1  H    13    53       P1  8028  1.95
      L1  H    15    37       P1  7948  1.00

> <Gold.PLP.Chemscore.Internal.Correction>
0.0345

> <Gold.Rescore>
     Score         DG    S(hbond)    S(metal)    S(lipo)     H(rot)  DE(clash)    DE(int)     intcor
     17.04     -23.20       2.39        0.00     109.53       1.20       2.68       3.48       ----

> <Gold.Chemscore.Fitness>
17.0412

> <Gold.Chemscore.DG>
-23.2026

> <Gold.Chemscore.ZeroCoef>
-5.4800

> <Gold.Chemscore.Hbond>
2.3851

> <Gold.Chemscore.Metal>
0.0000

> <Gold.Chemscore.Lipo>
109.5345

> <Gold.Chemscore.Internal_Hbond>
0.0000

> <Gold.Chemscore.DEClash>
2.6845

> <Gold.Chemscore.DEInternal>
3.4769

> <Gold.Chemscore.Rot>
1.1950

> <Gold.Chemscore.Internal.Correction>
   9.000000E+99

> <Gold.Chemscore.Hbonds>
donor molecule, donor type, donor heavy atom, donor atom, acceptor molecule, acceptor atom, score
      L1  H     3    25       P1  7948  0.19
      L1  H    13    53       P1  8028  0.88
      L1  H    15    37       P1  7948  1.00
      L1  H    19    52       P1 10171  0.01

> <Gold.Chemscore.Hbond.Weighted>
-7.9663

> <Gold.Chemscore.Metal.Weighted>
-0.0000

> <Gold.Chemscore.Lipo.Weighted>
-12.8155

> <Gold.Chemscore.Internal_Hbond.Weighted>
0.0000

> <Gold.Chemscore.DEClash.Weighted>
2.6845

> <Gold.Chemscore.DEInternal.Weighted>
3.4769

> <Gold.Chemscore.Rot.Weighted>
3.0593

> <Gold.Chemscore.Internal.Correction.Weighted>
   9.000000E+99

> <Gold.Protein.RotatedTorsions>
[ 6907 6896 6895 6894 ] final  -22.70 input  -60.11 | X-H torsion
[ 7974 7965 7964 7962 ] final -136.38 input  175.53 | X-H torsion
[ 8008 7997 7996 7995 ] final  146.16 input   59.86 | X-H torsion
[ 10167 10162 10161 10158 ] final -177.96 input  -65.29 | X-H torsion
[ 10718 10713 10712 10709 ] final -110.23 input   66.30 | X-H torsion
[ 10763 10752 10751 10750 ] final    0.46 input  -60.55 | X-H torsion
[ 11005 11000 10999 10996 ] final   16.68 input  -57.11 | X-H torsion

> <Gold.Protein.ActiveResidues>
 VAL166  LYS551  ARG553  GLY616  TRP617  ASP618  TYR619  PRO620  LYS621  CYS622 
 ASP623  PHE694  ASN695  SER759  ASP760  ASP761  ALA762  ILE779  LEU786  VAL792 
 PHE793  MET794  SER795  GLU796  ALA797  LYS798  CYS799  TRP800  GLU811  SER814 

> <Gold.Protein.RotatedAtoms>
  151.2147  135.0495  159.8925 H   0  0  0  0  0  0  0  0  0  0  0  0  # atno 6907 bound_to 6896
  152.5421  134.0706  159.8202 H   0  0  0  0  0  0  0  0  0  0  0  0  # atno 6908 bound_to 6896
  151.0864  133.5302  159.2649 H   0  0  0  0  0  0  0  0  0  0  0  0  # atno 6909 bound_to 6896
  144.8932  140.6671  143.5132 H   0  0  0  0  0  0  0  0  0  0  0  0  # atno 7974 bound_to 7965
  156.2863  140.2189  156.5333 H   0  0  0  0  0  0  0  0  0  0  0  0  # atno 8008 bound_to 7997
  154.7431  140.0486  157.0850 H   0  0  0  0  0  0  0  0  0  0  0  0  # atno 8009 bound_to 7997
  155.0205  140.3123  155.4798 H   0  0  0  0  0  0  0  0  0  0  0  0  # atno 8010 bound_to 7997
  139.5455  144.2247  152.0979 H   0  0  0  0  0  0  0  0  0  0  0  0  # atno 10167 bound_to 10162
  156.0580  130.5805  150.8209 H   0  0  0  0  0  0  0  0  0  0  0  0  # atno 10718 bound_to 10713
  153.3204  135.6969  153.7036 H   0  0  0  0  0  0  0  0  0  0  0  0  # atno 10763 bound_to 10752
  153.5878  135.3485  155.2900 H   0  0  0  0  0  0  0  0  0  0  0  0  # atno 10764 bound_to 10752
  154.8596  135.4310  154.2366 H   0  0  0  0  0  0  0  0  0  0  0  0  # atno 10765 bound_to 10752
  140.4444  134.1288  155.7694 H   0  0  0  0  0  0  0  0  0  0  0  0  # atno 11005 bound_to 11000
  145.3746  139.1651  143.4313 LP  0  0  0  0  0  0  0  0  0  0  0  0  # atno 17320 bound_to 7965
  146.3066  140.3821  142.8685 LP  0  0  0  0  0  0  0  0  0  0  0  0  # atno 17321 bound_to 7965
  140.1733  144.4915  150.6567 LP  0  0  0  0  0  0  0  0  0  0  0  0  # atno 17342 bound_to 10162
  140.6701  143.2282  151.5645 LP  0  0  0  0  0  0  0  0  0  0  0  0  # atno 17343 bound_to 10162
  157.5565  131.0945  150.9620 LP  0  0  0  0  0  0  0  0  0  0  0  0  # atno 17370 bound_to 10713
  156.9868  130.5548  149.5300 LP  0  0  0  0  0  0  0  0  0  0  0  0  # atno 17371 bound_to 10713
  141.1691  133.8644  157.1624 LP  0  0  0  0  0  0  0  0  0  0  0  0  # atno 17394 bound_to 11000
  140.0048  135.0013  157.0269 LP  0  0  0  0  0  0  0  0  0  0  0  0  # atno 17395 bound_to 11000

$$$$
