AV-unprocessed.smi:1560|AV-procd|sdf|6280|dock4
  -GOLD-   22720 6473D 1   1.00000     0.00000
 Structure written by MMmdl.
 46 47  0  0  0  0  0  0  0  0  2 V2000
  144.1051  132.4429  150.3047 C   0  0  0  0  0  0  0  0  0  0  0  0
  144.4220  133.9387  150.1256 C   0  0  0  0  0  0  0  0  0  0  0  0
  144.7907  134.7164  151.4299 C   0  0  2  0  0  0  0  0  0  0  0  0
  145.5343  136.0010  150.9740 C   0  0  0  0  0  0  0  0  0  0  0  0
  145.7862  133.8520  152.2715 C   0  0  0  0  0  0  0  0  0  0  0  0
  146.7229  134.6441  153.0672 N   0  0  0  0  0  0  0  0  0  0  0  0
  146.7358  134.7327  154.4056 C   0  0  0  0  0  0  0  0  0  0  0  0
  145.8983  134.1959  155.1313 O   0  0  0  0  0  0  0  0  0  0  0  0
  147.8715  135.5586  155.0188 C   0  0  0  0  0  0  0  0  0  0  0  0
  148.8718  134.7013  155.6729 N   0  0  0  0  0  0  0  0  0  0  0  0
  149.6042  133.8134  154.8655 C   0  0  0  0  0  0  0  0  0  0  0  0
  150.5502  133.0035  155.3784 C   0  0  0  0  0  0  0  0  0  0  0  0
  150.8076  133.0637  156.8121 C   0  0  0  0  0  0  0  0  0  0  0  0
  151.6660  132.3298  157.2981 O   0  0  0  0  0  0  0  0  0  0  0  0
  150.0725  133.9438  157.5527 N   0  5  0  0  0  0  0  0  0  0  0  0
  149.1155  134.7633  157.0174 C   0  0  0  0  0  0  0  0  0  0  0  0
  148.4669  135.5544  157.7037 O   0  0  0  0  0  0  0  0  0  0  0  0
  143.5659  135.0678  152.2035 N   0  0  0  0  0  0  0  0  0  0  0  0
  143.7985  135.8414  153.4288 C   0  0  0  0  0  0  0  0  0  0  0  0
  142.4819  136.2863  154.0884 C   0  0  0  0  0  0  0  0  0  0  0  0
  141.6709  135.1492  154.3590 O   0  0  0  0  0  0  0  0  0  0  0  0
  141.3753  134.4016  153.1853 C   0  0  0  0  0  0  0  0  0  0  0  0
  142.6845  133.9385  152.5244 C   0  0  0  0  0  0  0  0  0  0  0  0
  143.8652  131.9891  149.3430 H   0  0  0  0  0  0  0  0  0  0  0  0
  143.2469  132.2873  150.9578 H   0  0  0  0  0  0  0  0  0  0  0  0
  144.9493  131.8936  150.7207 H   0  0  0  0  0  0  0  0  0  0  0  0
  145.2151  134.0452  149.3854 H   0  0  0  0  0  0  0  0  0  0  0  0
  143.5498  134.3924  149.6548 H   0  0  0  0  0  0  0  0  0  0  0  0
  146.2904  135.7899  150.2165 H   0  0  0  0  0  0  0  0  0  0  0  0
  146.0546  136.4867  151.7996 H   0  0  0  0  0  0  0  0  0  0  0  0
  144.8490  136.7331  150.5460 H   0  0  0  0  0  0  0  0  0  0  0  0
  145.2450  133.2299  152.9829 H   0  0  0  0  0  0  0  0  0  0  0  0
  146.3382  133.1602  151.6351 H   0  0  0  0  0  0  0  0  0  0  0  0
  147.4566  135.1185  152.5610 H   0  0  0  0  0  0  0  0  0  0  0  0
  148.3461  136.1815  154.2578 H   0  0  0  0  0  0  0  0  0  0  0  0
  147.4378  136.2591  155.7338 H   0  0  0  0  0  0  0  0  0  0  0  0
  149.3578  133.8370  153.8142 H   0  0  0  0  0  0  0  0  0  0  0  0
  151.1069  132.3295  154.7440 H   0  0  0  0  0  0  0  0  0  0  0  0
  144.3651  135.2506  154.1484 H   0  0  0  0  0  0  0  0  0  0  0  0
  144.3846  136.7347  153.2205 H   0  0  0  0  0  0  0  0  0  0  0  0
  142.6848  136.8085  155.0236 H   0  0  0  0  0  0  0  0  0  0  0  0
  141.9428  136.9820  153.4435 H   0  0  0  0  0  0  0  0  0  0  0  0
  140.7626  133.5415  153.4558 H   0  0  0  0  0  0  0  0  0  0  0  0
  140.7880  135.0092  152.4948 H   0  0  0  0  0  0  0  0  0  0  0  0
  142.4247  133.3772  151.6291 H   0  0  0  0  0  0  0  0  0  0  0  0
  143.1875  133.2445  153.1974 H   0  0  0  0  0  0  0  0  0  0  0  0
  1  2  1  0  0  0  0
  1 24  1  0  0  0  0
  1 25  1  0  0  0  0
  1 26  1  0  0  0  0
  2  3  1  0  0  0  0
  2 27  1  0  0  0  0
  2 28  1  0  0  0  0
  3  4  1  0  0  0  0
  3  5  1  0  0  0  0
  3 18  1  0  0  0  0
  4 29  1  0  0  0  0
  4 30  1  0  0  0  0
  4 31  1  0  0  0  0
  5  6  1  0  0  0  0
  5 32  1  0  0  0  0
  5 33  1  0  0  0  0
  6  7  1  0  0  0  0
  6 34  1  0  0  0  0
  7  8  2  0  0  0  0
  7  9  1  0  0  0  0
  9 10  1  0  0  0  0
  9 35  1  0  0  0  0
  9 36  1  0  0  0  0
 10 16  1  0  0  0  0
 10 11  1  0  0  0  0
 11 12  2  0  0  0  0
 11 37  1  0  0  0  0
 12 13  1  0  0  0  0
 12 38  1  0  0  0  0
 13 14  2  0  0  0  0
 13 15  1  0  0  0  0
 15 16  1  0  0  0  0
 16 17  2  0  0  0  0
 18 23  1  0  0  0  0
 18 19  1  0  0  0  0
 19 20  1  0  0  0  0
 19 39  1  0  0  0  0
 19 40  1  0  0  0  0
 20 21  1  0  0  0  0
 20 41  1  0  0  0  0
 20 42  1  0  0  0  0
 21 22  1  0  0  0  0
 22 23  1  0  0  0  0
 22 43  1  0  0  0  0
 22 44  1  0  0  0  0
 23 45  1  0  0  0  0
 23 46  1  0  0  0  0
M  CHG  1  15  -1
M  END
> <s_m_source_file>
AV-unprocessed.smi

> <i_m_source_file_index>
1560

> <i_lp_mmshare_version>
43012

> <i_f3d_flags>
0

> <s_epik_input>
W0NIMl0xW0NIMl1PW0NIMl1bQ0gyXU4xW0NAQF0oW0NIM10pKFtDSDJdW0NIM10pW0NIMl1bTkhdQyg9TylbQ0gyXW4yW2NIXVtjSF1jKD1PKVtuSF1jMj1P

> <s_epik_cmdline>
J2VwaWtfcHl0aG9uJywgJy1waCcsICc3LjAnLCAnLXRuJywgJzgnLCAnLW1hJywgJzIwMCcsICctbWV0YWxfYmluZGluZycsICctaW1hZScsICc8aW5maWxlLm1hZT4nLCAnLW9tYWUnLCAnPG91dGZpbGUubWFlPic=

> <r_lp_tautomer_probability>
0.999537

> <r_epik_Ionization_Penalty>
3.35108

> <r_epik_Ionization_Penalty_Charging>
2.65778e-08

> <r_epik_Ionization_Penalty_Neutral>
3.35108

> <r_epik_State_Penalty>
3.36199

> <r_epik_Charging_Adjusted_Penalty>
3.36199

> <i_epik_Tot_Q>
-1

> <i_epik_Tot_abs_Q>
1

> <r_epik_Metal_State_Penalty>
0.748914

> <b_epik_Metal_Only>
1

> <s_lp_Force_Field>
OPLS_2005

> <r_lp_Energy>
50.983

> <b_lp_Chiralities_Consistent>
1

> <s_lp_Variant>
AV-unprocessed.smi:1560-6

> <Gold.Version>
5.8.1

> <Gold.Id.Protein>
6NUR|6NUR_protein|mol2

> <Gold.PLP.Fitness>
40.8227

> <Gold.PLP.PLP>
-31.4400

> <Gold.PLP.part.hbond>
-3.4631

> <Gold.PLP.part.metal>
0.0000

> <Gold.PLP.part.buried>
-4.7416

> <Gold.PLP.part.nonpolar>
-25.2344

> <Gold.PLP.part.repulsive>
0.3261

> <Gold.PLP.ligand.clash>
0.0000

> <Gold.PLP.ligand.torsion>
0.9774

> <Gold.PLP.Chemscore.Hbond>
3.7363

> <Gold.PLP.Chemscore.CHOScore>
0.0000

> <Gold.PLP.Chemscore.Metal>
0.0000

> <Gold.Chemscore.Hbonds>
donor molecule, donor type, donor heavy atom, donor atom, acceptor molecule, acceptor atom, score
      L1  H     6    34       P1  7948  1.00
      P1  H  6896  6907       L1    15  1.95
      P1  H 11000 11005       L1    21  0.71

> <Gold.PLP.Chemscore.Internal.Correction>
0.1285

> <Gold.Rescore>
     Score         DG    S(hbond)    S(metal)    S(lipo)     H(rot)  DE(clash)    DE(int)     intcor
     14.35     -15.67       2.59        0.00      66.07       2.42       0.14       1.18       ----

> <Gold.Chemscore.Fitness>
14.3547

> <Gold.Chemscore.DG>
-15.6724

> <Gold.Chemscore.ZeroCoef>
-5.4800

> <Gold.Chemscore.Hbond>
2.5917

> <Gold.Chemscore.Metal>
0.0000

> <Gold.Chemscore.Lipo>
66.0741

> <Gold.Chemscore.Internal_Hbond>
0.0000

> <Gold.Chemscore.DEClash>
0.1405

> <Gold.Chemscore.DEInternal>
1.1772

> <Gold.Chemscore.Rot>
2.4197

> <Gold.Chemscore.Internal.Correction>
   9.000000E+99

> <Gold.Chemscore.Hbonds>
donor molecule, donor type, donor heavy atom, donor atom, acceptor molecule, acceptor atom, score
      L1  H     6    34       P1  7948  0.98
      P1  H  6896  6907       L1    15  0.41
      P1  H 11000 11005       L1    21  0.17

> <Gold.Chemscore.Hbond.Weighted>
-8.6561

> <Gold.Chemscore.Metal.Weighted>
-0.0000

> <Gold.Chemscore.Lipo.Weighted>
-7.7307

> <Gold.Chemscore.Internal_Hbond.Weighted>
0.0000

> <Gold.Chemscore.DEClash.Weighted>
0.1405

> <Gold.Chemscore.DEInternal.Weighted>
1.1772

> <Gold.Chemscore.Rot.Weighted>
6.1943

> <Gold.Chemscore.Internal.Correction.Weighted>
   9.000000E+99

> <Gold.Protein.RotatedTorsions>
[ 6907 6896 6895 6894 ] final -120.07 input  -60.11 | X-H torsion
[ 7974 7965 7964 7962 ] final -170.08 input  175.53 | X-H torsion
[ 8008 7997 7996 7995 ] final -137.27 input   59.86 | X-H torsion
[ 10167 10162 10161 10158 ] final -129.71 input  -65.29 | X-H torsion
[ 10718 10713 10712 10709 ] final   34.03 input   66.30 | X-H torsion
[ 10763 10752 10751 10750 ] final   75.25 input  -60.55 | X-H torsion
[ 11005 11000 10999 10996 ] final   18.94 input  -57.11 | X-H torsion

> <Gold.Protein.ActiveResidues>
 VAL166  LYS551  ARG553  GLY616  TRP617  ASP618  TYR619  PRO620  LYS621  CYS622 
 ASP623  PHE694  ASN695  SER759  ASP760  ASP761  ALA762  ILE779  LEU786  VAL792 
 PHE793  MET794  SER795  GLU796  ALA797  LYS798  CYS799  TRP800  GLU811  SER814 

> <Gold.Protein.RotatedAtoms>
  150.8360  133.8012  159.3079 H   0  0  0  0  0  0  0  0  0  0  0  0  # atno 6907 bound_to 6896
  151.5728  135.1060  160.0008 H   0  0  0  0  0  0  0  0  0  0  0  0  # atno 6908 bound_to 6896
  152.4433  133.7446  159.6716 H   0  0  0  0  0  0  0  0  0  0  0  0  # atno 6909 bound_to 6896
  144.7175  140.2125  143.6326 H   0  0  0  0  0  0  0  0  0  0  0  0  # atno 7974 bound_to 7965
  155.4090  140.0511  157.3033 H   0  0  0  0  0  0  0  0  0  0  0  0  # atno 8008 bound_to 7997
  154.4955  140.2136  155.9416 H   0  0  0  0  0  0  0  0  0  0  0  0  # atno 8009 bound_to 7997
  156.1399  140.3156  155.8485 H   0  0  0  0  0  0  0  0  0  0  0  0  # atno 8010 bound_to 7997
  139.9369  143.6207  152.2514 H   0  0  0  0  0  0  0  0  0  0  0  0  # atno 10167 bound_to 10162
  157.3053  130.7371  149.6691 H   0  0  0  0  0  0  0  0  0  0  0  0  # atno 10718 bound_to 10713
  153.0642  135.4995  154.8162 H   0  0  0  0  0  0  0  0  0  0  0  0  # atno 10763 bound_to 10752
  154.6928  135.2987  154.9457 H   0  0  0  0  0  0  0  0  0  0  0  0  # atno 10764 bound_to 10752
  154.0206  135.6742  153.4825 H   0  0  0  0  0  0  0  0  0  0  0  0  # atno 10765 bound_to 10752
  140.4192  134.1536  155.7672 H   0  0  0  0  0  0  0  0  0  0  0  0  # atno 11005 bound_to 11000
  145.8578  139.2207  143.1734 LP  0  0  0  0  0  0  0  0  0  0  0  0  # atno 17320 bound_to 7965
  146.0202  140.8355  142.9927 LP  0  0  0  0  0  0  0  0  0  0  0  0  # atno 17321 bound_to 7965
  139.6736  144.7660  151.1737 LP  0  0  0  0  0  0  0  0  0  0  0  0  # atno 17342 bound_to 10162
  140.7622  143.5828  150.8877 LP  0  0  0  0  0  0  0  0  0  0  0  0  # atno 17343 bound_to 10162
  155.9674  130.4268  150.4714 LP  0  0  0  0  0  0  0  0  0  0  0  0  # atno 17370 bound_to 10713
  157.2702  131.0585  151.2265 LP  0  0  0  0  0  0  0  0  0  0  0  0  # atno 17371 bound_to 10713
  141.1791  133.8453  157.1322 LP  0  0  0  0  0  0  0  0  0  0  0  0  # atno 17394 bound_to 11000
  140.0212  134.9945  157.0595 LP  0  0  0  0  0  0  0  0  0  0  0  0  # atno 17395 bound_to 11000

$$$$
