AV-unprocessed.smi:2267|AV-procd|sdf|9148|dock2
  -GOLD-   2272012353D 1   1.00000     0.00000
 Structure written by MMmdl.
 41 42  0  0  0  0  0  0  0  0  1 V2000
  152.8973  142.2128  161.0689 C   0  0  0  0  0  0  0  0  0  0  0  0
  152.4479  142.8703  159.7805 C   0  0  0  0  0  0  0  0  0  0  0  0
  152.7155  144.2341  159.5470 C   0  0  0  0  0  0  0  0  0  0  0  0
  152.2960  144.8364  158.3469 C   0  0  0  0  0  0  0  0  0  0  0  0
  151.6094  144.0775  157.3803 C   0  0  0  0  0  0  0  0  0  0  0  0
  151.3334  142.7120  157.5971 C   0  0  0  0  0  0  0  0  0  0  0  0
  150.6560  142.0456  156.5984 O   0  0  0  0  0  0  0  0  0  0  0  0
  150.3095  140.6833  156.8105 C   0  0  0  0  0  0  0  0  0  0  0  0
  151.2513  139.7950  155.9796 C   0  0  2  0  0  0  0  0  0  0  0  0
  150.8485  139.9097  154.6287 O   0  0  0  0  0  0  0  0  0  0  0  0
  151.1439  138.3063  156.3816 C   0  0  0  0  0  0  0  0  0  0  0  0
  151.9049  138.0049  157.6062 N   0  0  0  0  0  0  0  0  0  0  0  0
  151.1623  137.5285  158.6992 C   0  0  0  0  0  0  0  0  0  0  0  0
  151.7241  137.2329  159.8254 N   0  0  0  0  0  0  0  0  0  0  0  0
  153.1060  137.3811  159.9753 C   0  0  0  0  0  0  0  0  0  0  0  0
  153.6620  137.0050  161.3373 C   0  0  0  0  0  0  0  0  0  0  0  0
  153.8837  137.8312  158.9530 C   0  0  0  0  0  0  0  0  0  0  0  0
  155.3933  138.0095  159.0573 C   0  0  0  0  0  0  0  0  0  0  0  0
  153.2582  138.1700  157.6643 C   0  0  0  0  0  0  0  0  0  0  0  0
  153.9021  138.5755  156.6946 O   0  0  0  0  0  0  0  0  0  0  0  0
  151.7612  142.1127  158.8092 C   0  0  0  0  0  0  0  0  0  0  0  0
  153.2144  142.9539  161.8032 H   0  0  0  0  0  0  0  0  0  0  0  0
  153.7342  141.5413  160.8764 H   0  0  0  0  0  0  0  0  0  0  0  0
  152.0834  141.6323  161.5043 H   0  0  0  0  0  0  0  0  0  0  0  0
  153.2422  144.8217  160.2849 H   0  0  0  0  0  0  0  0  0  0  0  0
  152.5005  145.8815  158.1669 H   0  0  0  0  0  0  0  0  0  0  0  0
  151.2906  144.5486  156.4618 H   0  0  0  0  0  0  0  0  0  0  0  0
  150.4424  140.4632  157.8711 H   0  0  0  0  0  0  0  0  0  0  0  0
  149.2662  140.4863  156.5572 H   0  0  0  0  0  0  0  0  0  0  0  0
  152.2772  140.1481  156.0933 H   0  0  0  0  0  0  0  0  0  0  0  0
  150.0605  139.4030  154.5052 H   0  0  0  0  0  0  0  0  0  0  0  0
  150.0982  138.0511  156.5629 H   0  0  0  0  0  0  0  0  0  0  0  0
  151.4320  137.6619  155.5482 H   0  0  0  0  0  0  0  0  0  0  0  0
  150.0894  137.4242  158.5286 H   0  0  0  0  0  0  0  0  0  0  0  0
  154.1589  137.8595  161.7978 H   0  0  0  0  0  0  0  0  0  0  0  0
  154.3811  136.1905  161.2442 H   0  0  0  0  0  0  0  0  0  0  0  0
  152.8706  136.6759  162.0120 H   0  0  0  0  0  0  0  0  0  0  0  0
  155.8970  137.3801  158.3231 H   0  0  0  0  0  0  0  0  0  0  0  0
  155.7900  137.7509  160.0376 H   0  0  0  0  0  0  0  0  0  0  0  0
  155.6641  139.0467  158.8575 H   0  0  0  0  0  0  0  0  0  0  0  0
  151.5739  141.0702  159.0168 H   0  0  0  0  0  0  0  0  0  0  0  0
  1  2  1  0  0  0  0
  1 22  1  0  0  0  0
  1 23  1  0  0  0  0
  1 24  1  0  0  0  0
  2 21  1  0  0  0  0
  2  3  2  0  0  0  0
  3  4  1  0  0  0  0
  3 25  1  0  0  0  0
  4  5  2  0  0  0  0
  4 26  1  0  0  0  0
  5  6  1  0  0  0  0
  5 27  1  0  0  0  0
  6  7  1  0  0  0  0
  6 21  2  0  0  0  0
  7  8  1  0  0  0  0
  8  9  1  0  0  0  0
  8 28  1  0  0  0  0
  8 29  1  0  0  0  0
  9 10  1  0  0  0  0
  9 11  1  0  0  0  0
  9 30  1  0  0  0  0
 10 31  1  0  0  0  0
 11 12  1  0  0  0  0
 11 32  1  0  0  0  0
 11 33  1  0  0  0  0
 12 19  1  0  0  0  0
 12 13  1  0  0  0  0
 13 14  2  0  0  0  0
 13 34  1  0  0  0  0
 14 15  1  0  0  0  0
 15 16  1  0  0  0  0
 15 17  2  0  0  0  0
 16 35  1  0  0  0  0
 16 36  1  0  0  0  0
 16 37  1  0  0  0  0
 17 18  1  0  0  0  0
 17 19  1  0  0  0  0
 18 38  1  0  0  0  0
 18 39  1  0  0  0  0
 18 40  1  0  0  0  0
 19 20  2  0  0  0  0
 21 41  1  0  0  0  0
M  END
> <s_m_source_file>
AV-unprocessed.smi

> <i_m_source_file_index>
2267

> <i_lp_mmshare_version>
43012

> <i_f3d_flags>
0

> <s_epik_input>
W0NIM11jMVtjSF1bY0hdW2NIXWMoW2NIXTEpT1tDSDJdW0NASF0oW09IXSlbQ0gyXW4yW2NIXW5jKFtDSDNdKWMoW0NIM10pYzI9Tw==

> <s_epik_cmdline>
J2VwaWtfcHl0aG9uJywgJy1waCcsICc3LjAnLCAnLXRuJywgJzgnLCAnLW1hJywgJzIwMCcsICctbWV0YWxfYmluZGluZycsICctaW1hZScsICc8aW5maWxlLm1hZT4nLCAnLW9tYWUnLCAnPG91dGZpbGUubWFlPic=

> <r_lp_tautomer_probability>
1

> <r_epik_Ionization_Penalty>
3.72236e-05

> <r_epik_Ionization_Penalty_Charging>
8.38864e-08

> <r_epik_Ionization_Penalty_Neutral>
3.71397e-05

> <r_epik_State_Penalty>
-0

> <r_epik_Charging_Adjusted_Penalty>
8.38864e-08

> <i_epik_Tot_Q>
0

> <i_epik_Tot_abs_Q>
0

> <r_epik_Metal_State_Penalty>
-0

> <b_epik_Metal_Only>
0

> <s_lp_Force_Field>
OPLS_2005

> <r_lp_Energy>
23.9214

> <b_lp_Chiralities_Consistent>
1

> <s_lp_Variant>
AV-unprocessed.smi:2267-1

> <Gold.Version>
5.8.1

> <Gold.Id.Protein>
6NUR|6NUR_protein|mol2

> <Gold.PLP.Fitness>
47.6161

> <Gold.PLP.PLP>
-40.6926

> <Gold.PLP.part.hbond>
-2.4038

> <Gold.PLP.part.metal>
0.0000

> <Gold.PLP.part.buried>
-6.3749

> <Gold.PLP.part.nonpolar>
-33.0760

> <Gold.PLP.part.repulsive>
0.0954

> <Gold.PLP.ligand.clash>
0.0000

> <Gold.PLP.ligand.torsion>
0.5780

> <Gold.PLP.Chemscore.Hbond>
2.6793

> <Gold.PLP.Chemscore.CHOScore>
0.0000

> <Gold.PLP.Chemscore.Metal>
0.0000

> <Gold.Chemscore.Hbonds>
donor molecule, donor type, donor heavy atom, donor atom, acceptor molecule, acceptor atom, score
      P1  H  6896  6909       L1    14  0.89
      P1  H  7989  7998       L1    10  1.00
      P1  H  7997  8009       L1    20  0.69

> <Gold.PLP.Chemscore.Internal.Correction>
0.0419

> <Gold.Rescore>
     Score         DG    S(hbond)    S(metal)    S(lipo)     H(rot)  DE(clash)    DE(int)     intcor
     18.20     -19.70       1.85        0.00     120.28       2.35       0.00       1.50       ----

> <Gold.Chemscore.Fitness>
18.2002

> <Gold.Chemscore.DG>
-19.7017

> <Gold.Chemscore.ZeroCoef>
-5.4800

> <Gold.Chemscore.Hbond>
1.8451

> <Gold.Chemscore.Metal>
0.0000

> <Gold.Chemscore.Lipo>
120.2790

> <Gold.Chemscore.Internal_Hbond>
0.0000

> <Gold.Chemscore.DEClash>
0.0000

> <Gold.Chemscore.DEInternal>
1.5014

> <Gold.Chemscore.Rot>
2.3490

> <Gold.Chemscore.Internal.Correction>
   9.000000E+99

> <Gold.Chemscore.Hbonds>
donor molecule, donor type, donor heavy atom, donor atom, acceptor molecule, acceptor atom, score
      P1  H  6896  6909       L1    14  0.13
      P1  H  7989  7998       L1    10  0.99
      P1  H  7997  8009       L1    20  0.63

> <Gold.Chemscore.Hbond.Weighted>
-6.1626

> <Gold.Chemscore.Metal.Weighted>
-0.0000

> <Gold.Chemscore.Lipo.Weighted>
-14.0726

> <Gold.Chemscore.Internal_Hbond.Weighted>
0.0000

> <Gold.Chemscore.DEClash.Weighted>
0.0000

> <Gold.Chemscore.DEInternal.Weighted>
1.5014

> <Gold.Chemscore.Rot.Weighted>
6.0136

> <Gold.Chemscore.Internal.Correction.Weighted>
   9.000000E+99

> <Gold.Protein.RotatedTorsions>
[ 6907 6896 6895 6894 ] final  116.59 input  -60.11 | X-H torsion
[ 7974 7965 7964 7962 ] final   85.74 input  175.53 | X-H torsion
[ 8008 7997 7996 7995 ] final  175.68 input   59.86 | X-H torsion
[ 10167 10162 10161 10158 ] final -168.06 input  -65.29 | X-H torsion
[ 10718 10713 10712 10709 ] final    4.51 input   66.30 | X-H torsion
[ 10763 10752 10751 10750 ] final   78.66 input  -60.55 | X-H torsion
[ 11005 11000 10999 10996 ] final   66.04 input  -57.11 | X-H torsion

> <Gold.Protein.ActiveResidues>
 VAL166  LYS551  ARG553  GLY616  TRP617  ASP618  TYR619  PRO620  LYS621  CYS622 
 ASP623  PHE694  ASN695  SER759  ASP760  ASP761  ALA762  ILE779  LEU786  VAL792 
 PHE793  MET794  SER795  GLU796  ALA797  LYS798  CYS799  TRP800  GLU811  SER814 

> <Gold.Protein.RotatedAtoms>
  152.4668  133.7941  159.6917 H   0  0  0  0  0  0  0  0  0  0  0  0  # atno 6907 bound_to 6896
  150.8637  133.7597  159.2990 H   0  0  0  0  0  0  0  0  0  0  0  0  # atno 6908 bound_to 6896
  151.5154  135.1069  159.9916 H   0  0  0  0  0  0  0  0  0  0  0  0  # atno 6909 bound_to 6896
  145.5815  139.2326  143.2350 H   0  0  0  0  0  0  0  0  0  0  0  0  # atno 7974 bound_to 7965
  156.0845  140.1403  156.9671 H   0  0  0  0  0  0  0  0  0  0  0  0  # atno 8008 bound_to 7997
  154.4604  140.0945  156.6926 H   0  0  0  0  0  0  0  0  0  0  0  0  # atno 8009 bound_to 7997
  155.5021  140.3451  155.4375 H   0  0  0  0  0  0  0  0  0  0  0  0  # atno 8010 bound_to 7997
  139.6009  144.1012  152.1742 H   0  0  0  0  0  0  0  0  0  0  0  0  # atno 10167 bound_to 10162
  156.8936  130.5696  149.5649 H   0  0  0  0  0  0  0  0  0  0  0  0  # atno 10718 bound_to 10713
  153.0892  135.4868  154.8656 H   0  0  0  0  0  0  0  0  0  0  0  0  # atno 10763 bound_to 10752
  154.7248  135.3047  154.8991 H   0  0  0  0  0  0  0  0  0  0  0  0  # atno 10764 bound_to 10752
  153.9644  135.6808  153.4799 H   0  0  0  0  0  0  0  0  0  0  0  0  # atno 10765 bound_to 10752
  139.9857  134.6672  156.0181 H   0  0  0  0  0  0  0  0  0  0  0  0  # atno 11005 bound_to 11000
  146.1713  140.6641  142.9232 LP  0  0  0  0  0  0  0  0  0  0  0  0  # atno 17320 bound_to 7965
  144.7392  140.4894  143.6881 LP  0  0  0  0  0  0  0  0  0  0  0  0  # atno 17321 bound_to 7965
  140.0608  144.5858  150.7264 LP  0  0  0  0  0  0  0  0  0  0  0  0  # atno 17342 bound_to 10162
  140.7249  143.2626  151.4154 LP  0  0  0  0  0  0  0  0  0  0  0  0  # atno 17343 bound_to 10162
  156.0616  130.5668  150.9205 LP  0  0  0  0  0  0  0  0  0  0  0  0  # atno 17370 bound_to 10713
  157.6069  131.0938  150.8864 LP  0  0  0  0  0  0  0  0  0  0  0  0  # atno 17371 bound_to 10713
  141.1522  133.6547  156.4049 LP  0  0  0  0  0  0  0  0  0  0  0  0  # atno 17394 bound_to 11000
  140.5008  134.6488  157.5247 LP  0  0  0  0  0  0  0  0  0  0  0  0  # atno 17395 bound_to 11000

$$$$
