#       Name:                AV-unprocessed.smi:2032
#       Creating user name   scv26
#       Creation time:       Fri Mar 27 10:50:58 2020


#       File generated by GOLD software.
#

@<TRIPOS>MOLECULE
AV-unprocessed.smi:2032
    48    49     1
SMALL
NO_CHARGES


@<TRIPOS>ATOM
      1 ****        -4.0394  -2.4205  -2.5843 C.3            1 S1                 0.0000
      2 ****        -3.4973  -1.5088  -1.4778 C.3            1 S1                 0.0000
      3 ****        -1.9605  -1.5246  -1.4184 C.3            1 S1                 0.0000
      4 ****        -1.4623  -0.6819  -0.2994 N.4            1 S1                 1.0000
      5 ****         0.0308  -0.5334  -0.3146 C.3            1 S1                 0.0000
      6 ****         0.4385   0.4980  -1.3910 C.3            1 S1                 0.0000
      7 ****         0.6401  -0.1622   1.0662 C.3            1 S1                 0.0000
      8 ****         2.0967  -0.0457   1.0362 N.am           1 S1                 0.0000
      9 ****         2.7852   1.1055   1.0394 C.2            1 S1                 0.0000
     10 ****         2.2511   2.2147   1.0487 O.2            1 S1                 0.0000
     11 ****         4.1107   0.8809   1.0243 N.am           1 S1                 0.0000
     12 ****         5.1617   1.8351   0.9957 C.2            1 S1                 0.0000
     13 ****         4.9773   3.1599   0.9604 N.2            1 S1                 0.0000
     14 ****         6.1876   3.8575   0.9326 C.2            1 S1                 0.0000
     15 ****         7.2915   3.0418   0.9467 C.2            1 S1                 0.0000
     16 ****         6.8524   1.3553   0.9966 S.3            1 S1                 0.0000
     17 ****        -2.0621  -1.1579   0.9775 C.3            1 S1                 0.0000
     18 ****        -3.6016  -1.2162   0.8979 C.3            1 S1                 0.0000
     19 ****        -4.2725   0.1683   0.9516 C.3            1 S1                 0.0000
     20 ****        -4.0171  -1.9726  -0.2368 O.3            1 S1                 0.0000
     21 ****        -3.6781  -2.1069  -3.5642 H              1 S1                 0.0000
     22 ****        -5.1292  -2.3963  -2.6101 H              1 S1                 0.0000
     23 ****        -3.7332  -3.4555  -2.4301 H              1 S1                 0.0000
     24 ****        -3.8483  -0.4958  -1.6746 H              1 S1                 0.0000
     25 ****        -1.6017  -2.5473  -1.2886 H              1 S1                 0.0000
     26 ****        -1.5715  -1.1770  -2.3738 H              1 S1                 0.0000
     27 ****         0.4537  -1.5004  -0.5927 H              1 S1                 0.0000
     28 ****         1.5202   0.5512  -1.5106 H              1 S1                 0.0000
     29 ****         0.0864   1.4964  -1.1290 H              1 S1                 0.0000
     30 ****         0.0423   0.2598  -2.3763 H              1 S1                 0.0000
     31 ****         0.1861   0.7534   1.4500 H              1 S1                 0.0000
     32 ****         0.4311  -0.9427   1.7975 H              1 S1                 0.0000
     33 ****         2.6202  -0.9090   1.0274 H              1 S1                 0.0000
     34 ****         4.4042  -0.0847   1.0273 H              1 S1                 0.0000
     35 ****         6.1706   4.9368   0.9023 H              1 S1                 0.0000
     36 ****         8.3321   3.3298   0.9306 H              1 S1                 0.0000
     37 ****        -1.6680  -2.1492   1.2072 H              1 S1                 0.0000
     38 ****        -1.7982  -0.5047   1.8085 H              1 S1                 0.0000
     39 ****        -3.9557  -1.7677   1.7695 H              1 S1                 0.0000
     40 ****        -4.0543   0.6674   1.8960 H              1 S1                 0.0000
     41 ****        -5.3559   0.0780   0.8716 H              1 S1                 0.0000
     42 ****        -3.9309   0.8262   0.1531 H              1 S1                 0.0000
     43 ****        -1.8328   0.2469  -0.4426 H              1 S1                 0.0000
     44 ****         1.2539   2.2894   1.0543 LP             1 S1                 0.0000
     45 ****         2.8145   3.0409   1.0506 LP             1 S1                 0.0000
     46 ****         4.0789   3.5990   0.9546 LP             1 S1                 0.0000
     47 ****        -3.7196  -2.9186  -0.1076 LP             1 S1                 0.0000
     48 ****        -5.0154  -1.9408  -0.2849 LP             1 S1                 0.0000
@<TRIPOS>BOND
    1    1    2 1     
    2    1   21 1     
    3    1   22 1     
    4    1   23 1     
    5    2   20 1     
    6    2    3 1     
    7    2   24 1     
    8    3    4 1     
    9    3   25 1     
   10    3   26 1     
   11    4    5 1     
   12    4   17 1     
   13    4   43 1     
   14    5    6 1     
   15    5    7 1     
   16    5   27 1     
   17    6   28 1     
   18    6   29 1     
   19    6   30 1     
   20    7    8 1     
   21    7   31 1     
   22    7   32 1     
   23    8    9 am    
   24    8   33 1     
   25    9   10 2     
   26    9   11 am    
   27   11   12 1     
   28   11   34 1     
   29   12   16 1     
   30   12   13 2     
   31   13   14 1     
   32   14   15 2     
   33   14   35 1     
   34   15   16 1     
   35   15   36 1     
   36   17   18 1     
   37   17   37 1     
   38   17   38 1     
   39   18   19 1     
   40   18   20 1     
   41   18   39 1     
   42   19   40 1     
   43   19   41 1     
   44   19   42 1     
   45   10   44 1     
   46   10   45 1     
   47   13   46 1     
   48   20   47 1     
   49   20   48 1     
@<TRIPOS>SUBSTRUCTURE
      1 S1             1
@<TRIPOS>SET
LONE_PAIRS      STATIC     ATOMS    <user>   **** ""
5 44 45 46 47 48
DONOR_HYDROGENS      STATIC     ATOMS    <user>   **** ""
3 43 33 34
ATOM$BLUE        STATIC     ATOMS    COLORGROUP SYSTEM
5 44 45 46 47 48
ATOM$RED        STATIC     ATOMS    COLORGROUP SYSTEM
3 43 33 34
