AV-unprocessed.smi:3280|AV-procd|sdf|12553|dock7
  -GOLD-   2272018473D 1   1.00000     0.00000
 Structure written by MMmdl.
 39 40  0  0  0  0  0  0  0  0  2 V2000
  144.4253  144.3944  154.9490 C   0  0  0  0  0  0  0  0  0  0  0  0
  144.9137  143.1897  155.7669 C   0  0  0  0  0  0  0  0  0  0  0  0
  145.2220  143.5441  157.2293 C   0  0  0  0  0  0  0  0  0  0  0  0
  146.0700  142.5028  155.1067 C   0  0  0  0  0  0  0  0  0  0  0  0
  146.0117  142.1223  153.8353 N   0  0  0  0  0  0  0  0  0  0  0  0
  147.2675  141.5406  153.6104 O   0  0  0  0  0  0  0  0  0  0  0  0
  147.9292  141.6262  154.7885 C   0  0  0  0  0  0  0  0  0  0  0  0
  149.3345  141.1320  154.8639 C   0  0  0  0  0  0  0  0  0  0  0  0
  149.9455  141.3257  156.2572 C   0  0  0  0  0  0  0  0  0  0  0  0
  150.6499  142.6199  156.3543 N   0  3  0  0  0  0  0  0  0  0  0  0
  151.1250  142.9663  157.7115 C   0  0  1  0  0  0  0  0  0  0  0  0
  152.0293  141.8409  158.2495 C   0  0  0  0  0  0  0  0  0  0  0  0
  152.5144  142.1036  159.6848 C   0  0  0  0  0  0  0  0  0  0  0  0
  153.3451  143.3895  159.7972 C   0  0  0  0  0  0  0  0  0  0  0  0
  152.3646  144.8438  159.3379 S   0  0  0  0  0  0  0  0  0  0  0  0
  151.8606  144.3175  157.6769 C   0  0  0  0  0  0  0  0  0  0  0  0
  147.2416  142.2354  155.7502 N   0  0  0  0  0  0  0  0  0  0  0  0
  144.1480  144.0951  153.9378 H   0  0  0  0  0  0  0  0  0  0  0  0
  145.1966  145.1611  154.8705 H   0  0  0  0  0  0  0  0  0  0  0  0
  143.5494  144.8517  155.4098 H   0  0  0  0  0  0  0  0  0  0  0  0
  144.0854  142.4794  155.7915 H   0  0  0  0  0  0  0  0  0  0  0  0
  145.4934  142.6550  157.7994 H   0  0  0  0  0  0  0  0  0  0  0  0
  144.3562  143.9957  157.7140 H   0  0  0  0  0  0  0  0  0  0  0  0
  146.0485  144.2517  157.3016 H   0  0  0  0  0  0  0  0  0  0  0  0
  149.3459  140.0758  154.5912 H   0  0  0  0  0  0  0  0  0  0  0  0
  149.9281  141.6565  154.1138 H   0  0  0  0  0  0  0  0  0  0  0  0
  149.1636  141.2851  157.0168 H   0  0  0  0  0  0  0  0  0  0  0  0
  150.6483  140.5188  156.4704 H   0  0  0  0  0  0  0  0  0  0  0  0
  151.4484  142.5955  155.7361 H   0  0  0  0  0  0  0  0  0  0  0  0
  150.2655  143.0626  158.3778 H   0  0  0  0  0  0  0  0  0  0  0  0
  151.4836  140.8966  158.2302 H   0  0  0  0  0  0  0  0  0  0  0  0
  152.8904  141.7092  157.5928 H   0  0  0  0  0  0  0  0  0  0  0  0
  151.6597  142.1575  160.3604 H   0  0  0  0  0  0  0  0  0  0  0  0
  153.1153  141.2581  160.0211 H   0  0  0  0  0  0  0  0  0  0  0  0
  153.7047  143.5189  160.8183 H   0  0  0  0  0  0  0  0  0  0  0  0
  154.2237  143.3335  159.1537 H   0  0  0  0  0  0  0  0  0  0  0  0
  152.7457  144.2581  157.0423 H   0  0  0  0  0  0  0  0  0  0  0  0
  151.2170  145.0909  157.2560 H   0  0  0  0  0  0  0  0  0  0  0  0
  150.0253  143.3492  156.0406 H   0  0  0  0  0  0  0  0  0  0  0  0
  1  2  1  0  0  0  0
  1 18  1  0  0  0  0
  1 19  1  0  0  0  0
  1 20  1  0  0  0  0
  2  3  1  0  0  0  0
  2  4  1  0  0  0  0
  2 21  1  0  0  0  0
  3 22  1  0  0  0  0
  3 23  1  0  0  0  0
  3 24  1  0  0  0  0
  4 17  1  0  0  0  0
  4  5  2  0  0  0  0
  5  6  1  0  0  0  0
  6  7  1  0  0  0  0
  7  8  1  0  0  0  0
  7 17  2  0  0  0  0
  8  9  1  0  0  0  0
  8 25  1  0  0  0  0
  8 26  1  0  0  0  0
  9 10  1  0  0  0  0
  9 27  1  0  0  0  0
  9 28  1  0  0  0  0
 10 11  1  0  0  0  0
 10 29  1  0  0  0  0
 10 39  1  0  0  0  0
 11 16  1  0  0  0  0
 11 12  1  0  0  0  0
 11 30  1  0  0  0  0
 12 13  1  0  0  0  0
 12 31  1  0  0  0  0
 12 32  1  0  0  0  0
 13 14  1  0  0  0  0
 13 33  1  0  0  0  0
 13 34  1  0  0  0  0
 14 15  1  0  0  0  0
 14 35  1  0  0  0  0
 14 36  1  0  0  0  0
 15 16  1  0  0  0  0
 16 37  1  0  0  0  0
 16 38  1  0  0  0  0
M  CHG  1  10   1
M  END
> <s_m_source_file>
AV-unprocessed.smi

> <i_m_source_file_index>
3280

> <i_lp_mmshare_version>
43012

> <i_f3d_flags>
0

> <s_epik_input>
W0NIM11bQ0hdKFtDSDNdKWMxbm9jKG4xKVtDSDJdW0NIMl1bTkhdW0NAQEhdMltDSDJdW0NIMl1bQ0gyXVNbQ0gyXTI=

> <s_epik_cmdline>
J2VwaWtfcHl0aG9uJywgJy1waCcsICc3LjAnLCAnLXRuJywgJzgnLCAnLW1hJywgJzIwMCcsICctbWV0YWxfYmluZGluZycsICctaW1hZScsICc8aW5maWxlLm1hZT4nLCAnLW9tYWUnLCAnPG91dGZpbGUubWFlPic=

> <r_lp_tautomer_probability>
1

> <r_epik_Ionization_Penalty>
0.0103043

> <r_epik_Ionization_Penalty_Charging>
0.0103043

> <r_epik_Ionization_Penalty_Neutral>
2.61801e-13

> <r_epik_State_Penalty>
0.0078728

> <r_epik_Charging_Adjusted_Penalty>
0.0181771

> <i_epik_Tot_Q>
1

> <i_epik_Tot_abs_Q>
1

> <r_epik_Metal_State_Penalty>
0.0078728

> <b_epik_Metal_Only>
0

> <s_lp_Force_Field>
OPLS_2005

> <r_lp_Energy>
2.51022

> <b_lp_Chiralities_Consistent>
1

> <s_lp_Variant>
AV-unprocessed.smi:3280-2

> <Gold.Version>
5.8.1

> <Gold.Id.Protein>
6NUR|6NUR_protein|mol2

> <Gold.PLP.Fitness>
41.9459

> <Gold.PLP.PLP>
-36.4492

> <Gold.PLP.part.hbond>
-1.0000

> <Gold.PLP.part.metal>
0.0000

> <Gold.PLP.part.buried>
-4.9615

> <Gold.PLP.part.nonpolar>
-32.3175

> <Gold.PLP.part.repulsive>
1.9410

> <Gold.PLP.ligand.clash>
0.0000

> <Gold.PLP.ligand.torsion>
0.2930

> <Gold.PLP.Chemscore.Hbond>
2.0000

> <Gold.PLP.Chemscore.CHOScore>
0.0000

> <Gold.PLP.Chemscore.Metal>
0.0000

> <Gold.Chemscore.Hbonds>
donor molecule, donor type, donor heavy atom, donor atom, acceptor molecule, acceptor atom, score
      L1  H    10    39       P1  8028  2.00

> <Gold.PLP.Chemscore.Internal.Correction>
0.0828

> <Gold.Rescore>
     Score         DG    S(hbond)    S(metal)    S(lipo)     H(rot)  DE(clash)    DE(int)     intcor
     14.67     -14.95       1.00        0.00      90.87       1.76       0.02       0.27       ----

> <Gold.Chemscore.Fitness>
14.6719

> <Gold.Chemscore.DG>
-14.9537

> <Gold.Chemscore.ZeroCoef>
-5.4800

> <Gold.Chemscore.Hbond>
1.0000

> <Gold.Chemscore.Metal>
0.0000

> <Gold.Chemscore.Lipo>
90.8725

> <Gold.Chemscore.Internal_Hbond>
0.0000

> <Gold.Chemscore.DEClash>
0.0154

> <Gold.Chemscore.DEInternal>
0.2664

> <Gold.Chemscore.Rot>
1.7572

> <Gold.Chemscore.Internal.Correction>
   9.000000E+99

> <Gold.Chemscore.Hbonds>
donor molecule, donor type, donor heavy atom, donor atom, acceptor molecule, acceptor atom, score
      L1  H    10    39       P1  8028  1.00

> <Gold.Chemscore.Hbond.Weighted>
-3.3400

> <Gold.Chemscore.Metal.Weighted>
-0.0000

> <Gold.Chemscore.Lipo.Weighted>
-10.6321

> <Gold.Chemscore.Internal_Hbond.Weighted>
0.0000

> <Gold.Chemscore.DEClash.Weighted>
0.0154

> <Gold.Chemscore.DEInternal.Weighted>
0.2664

> <Gold.Chemscore.Rot.Weighted>
4.4984

> <Gold.Chemscore.Internal.Correction.Weighted>
   9.000000E+99

> <Gold.Protein.RotatedTorsions>
[ 6907 6896 6895 6894 ] final  -41.12 input  -60.11 | X-H torsion
[ 7974 7965 7964 7962 ] final  143.08 input  175.53 | X-H torsion
[ 8008 7997 7996 7995 ] final   33.60 input   59.86 | X-H torsion
[ 10167 10162 10161 10158 ] final -135.80 input  -65.29 | X-H torsion
[ 10718 10713 10712 10709 ] final    8.62 input   66.30 | X-H torsion
[ 10763 10752 10751 10750 ] final   -8.95 input  -60.55 | X-H torsion
[ 11005 11000 10999 10996 ] final  103.44 input  -57.11 | X-H torsion

> <Gold.Protein.ActiveResidues>
 VAL166  LYS551  ARG553  GLY616  TRP617  ASP618  TYR619  PRO620  LYS621  CYS622 
 ASP623  PHE694  ASN695  SER759  ASP760  ASP761  ALA762  ILE779  LEU786  VAL792 
 PHE793  MET794  SER795  GLU796  ALA797  LYS798  CYS799  TRP800  GLU811  SER814 

> <Gold.Protein.RotatedAtoms>
  150.9704  134.9078  159.7784 H   0  0  0  0  0  0  0  0  0  0  0  0  # atno 6907 bound_to 6896
  152.5188  134.3548  159.9274 H   0  0  0  0  0  0  0  0  0  0  0  0  # atno 6908 bound_to 6896
  151.3557  133.3867  159.2719 H   0  0  0  0  0  0  0  0  0  0  0  0  # atno 6909 bound_to 6896
  144.8951  139.5502  143.5780 H   0  0  0  0  0  0  0  0  0  0  0  0  # atno 7974 bound_to 7965
  155.1413  140.3266  155.4451 H   0  0  0  0  0  0  0  0  0  0  0  0  # atno 8008 bound_to 7997
  156.2604  140.1993  156.6478 H   0  0  0  0  0  0  0  0  0  0  0  0  # atno 8009 bound_to 7997
  154.6540  140.0555  156.9974 H   0  0  0  0  0  0  0  0  0  0  0  0  # atno 8010 bound_to 7997
  139.8742  143.6919  152.2636 H   0  0  0  0  0  0  0  0  0  0  0  0  # atno 10167 bound_to 10162
  156.9542  130.5908  149.5658 H   0  0  0  0  0  0  0  0  0  0  0  0  # atno 10718 bound_to 10713
  153.4477  135.7014  153.6128 H   0  0  0  0  0  0  0  0  0  0  0  0  # atno 10763 bound_to 10752
  153.4476  135.3765  155.2265 H   0  0  0  0  0  0  0  0  0  0  0  0  # atno 10764 bound_to 10752
  154.8728  135.3989  154.3885 H   0  0  0  0  0  0  0  0  0  0  0  0  # atno 10765 bound_to 10752
  139.8784  134.9263  156.5210 H   0  0  0  0  0  0  0  0  0  0  0  0  # atno 11005 bound_to 11000
  146.3077  139.7636  142.9044 LP  0  0  0  0  0  0  0  0  0  0  0  0  # atno 17320 bound_to 7965
  145.3713  141.0343  143.3229 LP  0  0  0  0  0  0  0  0  0  0  0  0  # atno 17321 bound_to 7965
  139.7256  144.7593  151.0885 LP  0  0  0  0  0  0  0  0  0  0  0  0  # atno 17342 bound_to 10162
  140.7755  143.5153  150.9603 LP  0  0  0  0  0  0  0  0  0  0  0  0  # atno 17343 bound_to 10162
  156.0349  130.5438  150.8629 LP  0  0  0  0  0  0  0  0  0  0  0  0  # atno 17370 bound_to 10713
  157.5701  131.0946  150.9430 LP  0  0  0  0  0  0  0  0  0  0  0  0  # atno 17371 bound_to 10713
  140.8451  133.8175  155.9113 LP  0  0  0  0  0  0  0  0  0  0  0  0  # atno 17394 bound_to 11000
  140.9200  134.2154  157.4933 LP  0  0  0  0  0  0  0  0  0  0  0  0  # atno 17395 bound_to 11000

$$$$
