#       Name:                AV-unprocessed.smi:2057
#       Creating user name   scv26
#       Creation time:       Fri Mar 27 11:01:23 2020


#       File generated by GOLD software.
#

@<TRIPOS>MOLECULE
AV-unprocessed.smi:2057
    53    55     1
SMALL
NO_CHARGES


@<TRIPOS>ATOM
      1 ****        -4.0445  -3.4840   1.3828 C.3            1 S1                 0.0000
      2 ****        -2.6266  -3.4404   1.3177 O.3            1 S1                 0.0000
      3 ****        -2.0113  -2.2101   1.4006 C.ar           1 S1                 0.0000
      4 ****        -2.6991  -0.9840   1.5560 C.ar           1 S1                 0.0000
      5 ****        -1.9890   0.2288   1.6202 C.ar           1 S1                 0.0000
      6 ****        -0.5750   0.2484   1.5331 C.ar           1 S1                 0.0000
      7 ****         0.1684   1.4109   1.5658 O.3            1 S1                 0.0000
      8 ****        -0.5174   2.6539   1.5608 C.3            1 S1                 0.0000
      9 ****         0.1179  -0.9789   1.3874 C.ar           1 S1                 0.0000
     10 ****         1.6404  -1.0001   1.2572 C.3            1 S1                 0.0000
     11 ****         2.2271  -2.1161   1.8960 O.3            1 S1                 0.0000
     12 ****         2.1106  -0.9868  -0.2130 C.3            1 S1                 0.0000
     13 ****         1.7788   0.2698  -0.9039 N.pl3          1 S1                 0.0000
     14 ****         2.4412   1.4624  -0.9160 C.2            1 S1                 0.0000
     15 ****         3.7226   1.7839  -0.2210 C.3            1 S1                 0.0000
     16 ****         4.8503   1.4017  -0.9766 O.3            1 S1                 0.0000
     17 ****         1.7167   2.3196  -1.6884 N.pl3          1 S1                 1.0000
     18 ****         0.5802   1.6728  -2.1739 C.ar           1 S1                 0.0000
     19 ****        -0.4507   2.1333  -2.9870 C.ar           1 S1                 0.0000
     20 ****        -1.4734   1.2125  -3.2948 C.ar           1 S1                 0.0000
     21 ****        -1.4447  -0.1080  -2.8017 C.ar           1 S1                 0.0000
     22 ****        -0.3918  -0.5643  -1.9820 C.ar           1 S1                 0.0000
     23 ****         0.6148   0.3530  -1.6789 C.ar           1 S1                 0.0000
     24 ****        -0.6065  -2.1901   1.3194 C.ar           1 S1                 0.0000
     25 ****        -4.3765  -4.5190   1.3014 H              1 S1                 0.0000
     26 ****        -4.4981  -2.9268   0.5621 H              1 S1                 0.0000
     27 ****        -4.4128  -3.0935   2.3325 H              1 S1                 0.0000
     28 ****        -3.7755  -0.9452   1.6256 H              1 S1                 0.0000
     29 ****        -2.5596   1.1375   1.7349 H              1 S1                 0.0000
     30 ****         0.2111   3.4636   1.5237 H              1 S1                 0.0000
     31 ****        -1.1116   2.7864   2.4658 H              1 S1                 0.0000
     32 ****        -1.1611   2.7507   0.6852 H              1 S1                 0.0000
     33 ****         2.0525  -0.1322   1.7716 H              1 S1                 0.0000
     34 ****         1.9367  -2.9012   1.4576 H              1 S1                 0.0000
     35 ****         3.1961  -1.0874  -0.2556 H              1 S1                 0.0000
     36 ****         1.7082  -1.8319  -0.7716 H              1 S1                 0.0000
     37 ****         3.7706   2.8556  -0.0262 H              1 S1                 0.0000
     38 ****         3.7525   1.2812   0.7455 H              1 S1                 0.0000
     39 ****         5.6292   1.6148  -0.4851 H              1 S1                 0.0000
     40 ****        -0.4750   3.1447  -3.3657 H              1 S1                 0.0000
     41 ****        -2.2961   1.5249  -3.9215 H              1 S1                 0.0000
     42 ****        -2.2468  -0.7855  -3.0562 H              1 S1                 0.0000
     43 ****        -0.3862  -1.5765  -1.6064 H              1 S1                 0.0000
     44 ****        -0.0824  -3.1258   1.1908 H              1 S1                 0.0000
     45 ****         1.9846   3.2785  -1.8689 H              1 S1                 0.0000
     46 ****        -2.3565  -3.8495   0.4461 LP             1 S1                 0.0000
     47 ****        -2.2773  -3.9986   2.0704 LP             1 S1                 0.0000
     48 ****         0.7673   1.4009   0.7650 LP             1 S1                 0.0000
     49 ****         0.7232   1.3832   2.3973 LP             1 S1                 0.0000
     50 ****         1.9454  -2.1420   2.8552 LP             1 S1                 0.0000
     51 ****         3.2235  -2.0495   1.8429 LP             1 S1                 0.0000
     52 ****         4.8557   1.8946  -1.8466 LP             1 S1                 0.0000
     53 ****         4.8210   0.4175  -1.1512 LP             1 S1                 0.0000
@<TRIPOS>BOND
    1    1    2 1     
    2    1   25 1     
    3    1   26 1     
    4    1   27 1     
    5    2    3 1     
    6    3   24 ar    
    7    3    4 ar    
    8    4    5 ar    
    9    4   28 1     
   10    5    6 ar    
   11    5   29 1     
   12    6    7 1     
   13    6    9 ar    
   14    7    8 1     
   15    8   30 1     
   16    8   31 1     
   17    8   32 1     
   18    9   10 1     
   19    9   24 ar    
   20   10   11 1     
   21   10   12 1     
   22   10   33 1     
   23   11   34 1     
   24   12   13 1     
   25   12   35 1     
   26   12   36 1     
   27   13   23 1     
   28   13   14 1     
   29   14   15 1     
   30   14   17 2     
   31   15   16 1     
   32   15   37 1     
   33   15   38 1     
   34   16   39 1     
   35   17   18 1     
   36   17   45 1     
   37   18   23 ar    
   38   18   19 ar    
   39   19   20 ar    
   40   19   40 1     
   41   20   21 ar    
   42   20   41 1     
   43   21   22 ar    
   44   21   42 1     
   45   22   23 ar    
   46   22   43 1     
   47   24   44 1     
   48    2   46 1     
   49    2   47 1     
   50    7   48 1     
   51    7   49 1     
   52   11   50 1     
   53   11   51 1     
   54   16   52 1     
   55   16   53 1     
@<TRIPOS>SUBSTRUCTURE
      1 S1             1
@<TRIPOS>SET
LONE_PAIRS      STATIC     ATOMS    <user>   **** ""
8 46 47 48 49 50 51 52 53
DONOR_HYDROGENS      STATIC     ATOMS    <user>   **** ""
3 34 39 45
ATOM$BLUE        STATIC     ATOMS    COLORGROUP SYSTEM
8 46 47 48 49 50 51 52 53
ATOM$RED        STATIC     ATOMS    COLORGROUP SYSTEM
3 34 39 45
