AV-unprocessed.smi:1993|AV-procd|sdf|8070|dock3
  -GOLD-   2272010273D 1   1.00000     0.00000
 Structure written by MMmdl.
 50 51  0  0  0  0  0  0  0  0  1 V2000
  147.9593  132.6940  161.8259 C   0  0  0  0  0  0  0  0  0  0  0  0
  147.3458  133.7055  160.8634 C   0  0  0  0  0  0  0  0  0  0  0  0
  147.4160  133.5173  159.6494 O   0  0  0  0  0  0  0  0  0  0  0  0
  146.7490  134.7745  161.4146 N   0  0  0  0  0  0  0  0  0  0  0  0
  146.1102  135.8644  160.6749 C   0  0  2  0  0  0  0  0  0  0  0  0
  147.2041  136.6464  159.9243 C   0  0  0  0  0  0  0  0  0  0  0  0
  148.0996  137.2215  160.5455 O   0  0  0  0  0  0  0  0  0  0  0  0
  147.1037  136.6716  158.5870 N   0  0  0  0  0  0  0  0  0  0  0  0
  147.9968  137.3985  157.6939 C   0  0  0  0  0  0  0  0  0  0  0  0
  147.3019  137.8580  156.4186 C   0  0  0  0  0  0  0  0  0  0  0  0
  145.9232  137.6097  156.2504 C   0  0  0  0  0  0  0  0  0  0  0  0
  145.2887  138.0343  155.0690 C   0  0  0  0  0  0  0  0  0  0  0  0
  146.0624  138.6942  154.0966 C   0  0  0  0  0  0  0  0  0  0  0  0
  147.3817  138.9365  154.2415 N   0  0  0  0  0  0  0  0  0  0  0  0
  147.9961  138.5289  155.3786 C   0  0  0  0  0  0  0  0  0  0  0  0
  149.3740  138.7765  155.4931 N   0  0  0  0  0  0  0  0  0  0  0  0
  149.7496  140.1804  155.6095 C   0  0  0  0  0  0  0  0  0  0  0  0
  151.2575  140.2931  155.8934 C   0  0  0  0  0  0  0  0  0  0  0  0
  151.9875  139.6204  154.8706 O   0  0  0  0  0  0  0  0  0  0  0  0
  151.6630  138.2344  154.8017 C   0  0  0  0  0  0  0  0  0  0  0  0
  150.1650  138.0696  154.4951 C   0  0  0  0  0  0  0  0  0  0  0  0
  145.3813  136.8000  161.6848 C   0  0  0  0  0  0  0  0  0  0  0  0
  146.3658  137.4609  162.6697 C   0  0  0  0  0  0  0  0  0  0  0  0
  144.2766  136.0805  162.4864 C   0  0  0  0  0  0  0  0  0  0  0  0
  149.0471  132.7311  161.7655 H   0  0  0  0  0  0  0  0  0  0  0  0
  147.6356  131.6849  161.5696 H   0  0  0  0  0  0  0  0  0  0  0  0
  147.6659  132.8930  162.8573 H   0  0  0  0  0  0  0  0  0  0  0  0
  146.7477  134.8496  162.4215 H   0  0  0  0  0  0  0  0  0  0  0  0
  145.3841  135.4584  159.9670 H   0  0  0  0  0  0  0  0  0  0  0  0
  146.3421  136.1660  158.1582 H   0  0  0  0  0  0  0  0  0  0  0  0
  148.4340  138.2540  158.2117 H   0  0  0  0  0  0  0  0  0  0  0  0
  148.8336  136.7486  157.4366 H   0  0  0  0  0  0  0  0  0  0  0  0
  145.3579  137.0974  157.0151 H   0  0  0  0  0  0  0  0  0  0  0  0
  144.2349  137.8580  154.9121 H   0  0  0  0  0  0  0  0  0  0  0  0
  145.6106  139.0353  153.1770 H   0  0  0  0  0  0  0  0  0  0  0  0
  149.5091  140.7085  154.6857 H   0  0  0  0  0  0  0  0  0  0  0  0
  149.1788  140.6505  156.4112 H   0  0  0  0  0  0  0  0  0  0  0  0
  151.5590  141.3404  155.9160 H   0  0  0  0  0  0  0  0  0  0  0  0
  151.5027  139.8689  156.8684 H   0  0  0  0  0  0  0  0  0  0  0  0
  152.2606  137.7666  154.0193 H   0  0  0  0  0  0  0  0  0  0  0  0
  151.9233  137.7419  155.7401 H   0  0  0  0  0  0  0  0  0  0  0  0
  149.8995  137.0135  154.4876 H   0  0  0  0  0  0  0  0  0  0  0  0
  149.9397  138.4652  153.5036 H   0  0  0  0  0  0  0  0  0  0  0  0
  144.9012  137.6063  161.1271 H   0  0  0  0  0  0  0  0  0  0  0  0
  146.9127  136.7116  163.2430 H   0  0  0  0  0  0  0  0  0  0  0  0
  145.8404  138.1015  163.3788 H   0  0  0  0  0  0  0  0  0  0  0  0
  147.0968  138.0878  162.1589 H   0  0  0  0  0  0  0  0  0  0  0  0
  144.6865  135.2485  163.0591 H   0  0  0  0  0  0  0  0  0  0  0  0
  143.4860  135.6897  161.8456 H   0  0  0  0  0  0  0  0  0  0  0  0
  143.8003  136.7612  163.1924 H   0  0  0  0  0  0  0  0  0  0  0  0
  1  2  1  0  0  0  0
  1 25  1  0  0  0  0
  1 26  1  0  0  0  0
  1 27  1  0  0  0  0
  2  3  2  0  0  0  0
  2  4  1  0  0  0  0
  4  5  1  0  0  0  0
  4 28  1  0  0  0  0
  5  6  1  0  0  0  0
  5 22  1  0  0  0  0
  5 29  1  0  0  0  0
  6  7  2  0  0  0  0
  6  8  1  0  0  0  0
  8  9  1  0  0  0  0
  8 30  1  0  0  0  0
  9 10  1  0  0  0  0
  9 31  1  0  0  0  0
  9 32  1  0  0  0  0
 10 15  1  0  0  0  0
 10 11  2  0  0  0  0
 11 12  1  0  0  0  0
 11 33  1  0  0  0  0
 12 13  2  0  0  0  0
 12 34  1  0  0  0  0
 13 14  1  0  0  0  0
 13 35  1  0  0  0  0
 14 15  2  0  0  0  0
 15 16  1  0  0  0  0
 16 21  1  0  0  0  0
 16 17  1  0  0  0  0
 17 18  1  0  0  0  0
 17 36  1  0  0  0  0
 17 37  1  0  0  0  0
 18 19  1  0  0  0  0
 18 38  1  0  0  0  0
 18 39  1  0  0  0  0
 19 20  1  0  0  0  0
 20 21  1  0  0  0  0
 20 40  1  0  0  0  0
 20 41  1  0  0  0  0
 21 42  1  0  0  0  0
 21 43  1  0  0  0  0
 22 23  1  0  0  0  0
 22 24  1  0  0  0  0
 22 44  1  0  0  0  0
 23 45  1  0  0  0  0
 23 46  1  0  0  0  0
 23 47  1  0  0  0  0
 24 48  1  0  0  0  0
 24 49  1  0  0  0  0
 24 50  1  0  0  0  0
M  END
> <s_m_source_file>
AV-unprocessed.smi

> <i_m_source_file_index>
1993

> <i_lp_mmshare_version>
43012

> <i_f3d_flags>
0

> <s_epik_input>
W0NIM11DKD1PKVtOSF1bQ0BASF0oW0NIXShbQ0gzXSlbQ0gzXSlDKD1PKVtOSF1bQ0gyXWMxW2NIXVtjSF1bY0hdbmMxTjJbQ0gyXVtDSDJdT1tDSDJdW0NIMl0y

> <s_epik_cmdline>
J2VwaWtfcHl0aG9uJywgJy1waCcsICc3LjAnLCAnLXRuJywgJzgnLCAnLW1hJywgJzIwMCcsICctbWV0YWxfYmluZGluZycsICctaW1hZScsICc8aW5maWxlLm1hZT4nLCAnLW9tYWUnLCAnPG91dGZpbGUubWFlPic=

> <r_lp_tautomer_probability>
1

> <r_epik_Ionization_Penalty>
0.00485175

> <r_epik_Ionization_Penalty_Charging>
0

> <r_epik_Ionization_Penalty_Neutral>
0.00485175

> <r_epik_State_Penalty>
0.00351951

> <r_epik_Charging_Adjusted_Penalty>
0.00351951

> <i_epik_Tot_Q>
0

> <i_epik_Tot_abs_Q>
0

> <r_epik_Metal_State_Penalty>
-0

> <b_epik_Metal_Only>
0

> <s_lp_Force_Field>
OPLS_2005

> <r_lp_Energy>
19.1581

> <b_lp_Chiralities_Consistent>
1

> <s_lp_Variant>
AV-unprocessed.smi:1993-1

> <Gold.Version>
5.8.1

> <Gold.Id.Protein>
6NUR|6NUR_protein|mol2

> <Gold.PLP.Fitness>
36.9827

> <Gold.PLP.PLP>
-27.3255

> <Gold.PLP.part.hbond>
-3.0000

> <Gold.PLP.part.metal>
0.0000

> <Gold.PLP.part.buried>
-5.4084

> <Gold.PLP.part.nonpolar>
-20.0168

> <Gold.PLP.part.repulsive>
0.2937

> <Gold.PLP.ligand.clash>
0.0000

> <Gold.PLP.ligand.torsion>
0.3357

> <Gold.PLP.Chemscore.Hbond>
2.3824

> <Gold.PLP.Chemscore.CHOScore>
1.0000

> <Gold.PLP.Chemscore.Metal>
0.0000

> <Gold.Chemscore.Hbonds>
donor molecule, donor type, donor heavy atom, donor atom, acceptor molecule, acceptor atom, score
      P1  H  6931  6943       L1     7  0.77
      P1  H  6934  6947       L1     7  0.67
      P1  H  7989  7998       L1    19  0.79
      L1  C    13    35       P1 10175  1.00

> <Gold.PLP.Chemscore.Internal.Correction>
0.1813

> <Gold.Rescore>
     Score         DG    S(hbond)    S(metal)    S(lipo)     H(rot)  DE(clash)    DE(int)     intcor
     12.38     -14.21       2.40        0.00      53.85       2.18       0.00       1.84       ----

> <Gold.Chemscore.Fitness>
12.3768

> <Gold.Chemscore.DG>
-14.2138

> <Gold.Chemscore.ZeroCoef>
-5.4800

> <Gold.Chemscore.Hbond>
2.4003

> <Gold.Chemscore.Metal>
0.0000

> <Gold.Chemscore.Lipo>
53.8538

> <Gold.Chemscore.Internal_Hbond>
0.0000

> <Gold.Chemscore.DEClash>
0.0000

> <Gold.Chemscore.DEInternal>
1.8370

> <Gold.Chemscore.Rot>
2.1813

> <Gold.Chemscore.Internal.Correction>
   9.000000E+99

> <Gold.Chemscore.Hbonds>
donor molecule, donor type, donor heavy atom, donor atom, acceptor molecule, acceptor atom, score
      P1  H  6931  6943       L1     7  0.75
      P1  H  6934  6947       L1     7  0.19
      P1  H  7989  7998       L1    19  0.13

> <Gold.Chemscore.Hbond.Weighted>
-8.0170

> <Gold.Chemscore.Metal.Weighted>
-0.0000

> <Gold.Chemscore.Lipo.Weighted>
-6.3009

> <Gold.Chemscore.Internal_Hbond.Weighted>
0.0000

> <Gold.Chemscore.DEClash.Weighted>
0.0000

> <Gold.Chemscore.DEInternal.Weighted>
1.8370

> <Gold.Chemscore.Rot.Weighted>
5.5842

> <Gold.Chemscore.Internal.Correction.Weighted>
   9.000000E+99

> <Gold.Protein.RotatedTorsions>
[ 6907 6896 6895 6894 ] final  -28.74 input  -60.11 | X-H torsion
[ 7974 7965 7964 7962 ] final   98.67 input  175.53 | X-H torsion
[ 8008 7997 7996 7995 ] final  -27.18 input   59.86 | X-H torsion
[ 10167 10162 10161 10158 ] final -134.37 input  -65.29 | X-H torsion
[ 10718 10713 10712 10709 ] final   98.62 input   66.30 | X-H torsion
[ 10763 10752 10751 10750 ] final  113.93 input  -60.55 | X-H torsion
[ 11005 11000 10999 10996 ] final  -31.38 input  -57.11 | X-H torsion

> <Gold.Protein.ActiveResidues>
 VAL166  LYS551  ARG553  GLY616  TRP617  ASP618  TYR619  PRO620  LYS621  CYS622 
 ASP623  PHE694  ASN695  SER759  ASP760  ASP761  ALA762  ILE779  LEU786  VAL792 
 PHE793  MET794  SER795  GLU796  ALA797  LYS798  CYS799  TRP800  GLU811  SER814 

> <Gold.Protein.RotatedAtoms>
  151.1287  135.0119  159.8572 H   0  0  0  0  0  0  0  0  0  0  0  0  # atno 6907 bound_to 6896
  152.5450  134.1636  159.8578 H   0  0  0  0  0  0  0  0  0  0  0  0  # atno 6908 bound_to 6896
  151.1700  133.4745  159.2627 H   0  0  0  0  0  0  0  0  0  0  0  0  # atno 6909 bound_to 6896
  145.4090  139.2336  143.3258 H   0  0  0  0  0  0  0  0  0  0  0  0  # atno 7974 bound_to 7965
  154.4389  140.1879  156.0891 H   0  0  0  0  0  0  0  0  0  0  0  0  # atno 8008 bound_to 7997
  156.0379  140.3323  155.7185 H   0  0  0  0  0  0  0  0  0  0  0  0  # atno 8009 bound_to 7997
  155.5742  140.0615  157.2790 H   0  0  0  0  0  0  0  0  0  0  0  0  # atno 8010 bound_to 7997
  139.8887  143.6749  152.2616 H   0  0  0  0  0  0  0  0  0  0  0  0  # atno 10167 bound_to 10162
  157.6892  131.0645  150.4824 H   0  0  0  0  0  0  0  0  0  0  0  0  # atno 10718 bound_to 10713
  153.4998  135.3640  155.2534 H   0  0  0  0  0  0  0  0  0  0  0  0  # atno 10763 bound_to 10752
  154.8748  135.3997  154.3492 H   0  0  0  0  0  0  0  0  0  0  0  0  # atno 10764 bound_to 10752
  153.4126  135.7078  153.6415 H   0  0  0  0  0  0  0  0  0  0  0  0  # atno 10765 bound_to 10752
  140.9463  133.7248  156.1152 H   0  0  0  0  0  0  0  0  0  0  0  0  # atno 11005 bound_to 11000
  146.2714  140.4799  142.8813 LP  0  0  0  0  0  0  0  0  0  0  0  0  # atno 17320 bound_to 7965
  144.8322  140.6724  143.6284 LP  0  0  0  0  0  0  0  0  0  0  0  0  # atno 17321 bound_to 7965
  139.7129  144.7617  151.1082 LP  0  0  0  0  0  0  0  0  0  0  0  0  # atno 17342 bound_to 10162
  140.7731  143.5307  150.9427 LP  0  0  0  0  0  0  0  0  0  0  0  0  # atno 17343 bound_to 10162
  156.5156  130.4149  149.6278 LP  0  0  0  0  0  0  0  0  0  0  0  0  # atno 17370 bound_to 10713
  156.3201  130.7276  151.2186 LP  0  0  0  0  0  0  0  0  0  0  0  0  # atno 17371 bound_to 10713
  140.7664  134.3881  157.5516 LP  0  0  0  0  0  0  0  0  0  0  0  0  # atno 17394 bound_to 11000
  139.8834  134.8994  156.2766 LP  0  0  0  0  0  0  0  0  0  0  0  0  # atno 17395 bound_to 11000

$$$$
