AV-unprocessed.smi:391|AV-procd|sdf|2479|dock7
  -GOLD-   2262022423D 1   1.00000     0.00000
 Structure written by MMmdl.
 36 37  0  0  0  0  0  0  0  0  1 V2000
  147.7280  141.6130  154.6727 C   0  0  0  0  0  0  0  0  0  0  0  0
  149.1456  141.0401  154.5452 C   0  0  0  0  0  0  0  0  0  0  0  0
  149.1970  139.8702  153.5497 C   0  0  0  0  0  0  0  0  0  0  0  0
  149.6158  140.6124  155.8594 N   0  0  0  0  0  0  0  0  0  0  0  0
  150.8535  140.1779  156.1413 C   0  0  0  0  0  0  0  0  0  0  0  0
  151.7512  140.1035  155.3009 O   0  0  0  0  0  0  0  0  0  0  0  0
  151.1007  139.7729  157.6024 C   0  0  0  0  0  0  0  0  0  0  0  0
  151.8600  140.7803  158.3753 N   0  0  0  0  0  0  0  0  0  0  0  0
  153.1544  140.4470  158.8497 C   0  0  0  0  0  0  0  0  0  0  0  0
  153.6548  139.3465  158.6121 O   0  0  0  0  0  0  0  0  0  0  0  0
  153.8221  141.4827  159.6351 C   0  0  0  0  0  0  0  0  0  0  0  0
  155.1139  141.1754  160.1533 C   0  0  0  0  0  0  0  0  0  0  0  0
  156.1629  140.9048  160.5608 N   0  0  0  0  0  0  0  0  0  0  0  0
  153.2315  142.6746  159.8590 C   0  0  0  0  0  0  0  0  0  0  0  0
  151.9878  142.9915  159.3581 N   0  0  0  0  0  0  0  0  0  0  0  0
  151.3137  144.2000  159.7404 C   0  0  0  0  0  0  0  0  0  0  0  0
  151.8646  145.5508  159.3262 C   0  0  0  0  0  0  0  0  0  0  0  0
  151.9596  145.1062  160.7653 C   0  0  0  0  0  0  0  0  0  0  0  0
  151.2442  142.0271  158.6433 C   0  0  0  0  0  0  0  0  0  0  0  0
  150.0902  142.2564  158.2717 O   0  0  0  0  0  0  0  0  0  0  0  0
  147.3609  141.9678  153.7093 H   0  0  0  0  0  0  0  0  0  0  0  0
  147.7066  142.4566  155.3634 H   0  0  0  0  0  0  0  0  0  0  0  0
  147.0266  140.8628  155.0397 H   0  0  0  0  0  0  0  0  0  0  0  0
  149.7938  141.8379  154.1780 H   0  0  0  0  0  0  0  0  0  0  0  0
  148.8522  140.1804  152.5629 H   0  0  0  0  0  0  0  0  0  0  0  0
  148.5663  139.0427  153.8768 H   0  0  0  0  0  0  0  0  0  0  0  0
  150.2126  139.4899  153.4364 H   0  0  0  0  0  0  0  0  0  0  0  0
  148.9446  140.6433  156.6132 H   0  0  0  0  0  0  0  0  0  0  0  0
  150.1353  139.5594  158.0635 H   0  0  0  0  0  0  0  0  0  0  0  0
  151.6195  138.8126  157.6201 H   0  0  0  0  0  0  0  0  0  0  0  0
  153.7533  143.4140  160.4496 H   0  0  0  0  0  0  0  0  0  0  0  0
  150.2287  144.1281  159.7908 H   0  0  0  0  0  0  0  0  0  0  0  0
  152.7896  145.5775  158.7532 H   0  0  0  0  0  0  0  0  0  0  0  0
  151.1459  146.3313  159.0858 H   0  0  0  0  0  0  0  0  0  0  0  0
  151.3059  145.5928  161.4861 H   0  0  0  0  0  0  0  0  0  0  0  0
  152.9462  144.8379  161.1385 H   0  0  0  0  0  0  0  0  0  0  0  0
  1  2  1  0  0  0  0
  1 21  1  0  0  0  0
  1 22  1  0  0  0  0
  1 23  1  0  0  0  0
  2  3  1  0  0  0  0
  2  4  1  0  0  0  0
  2 24  1  0  0  0  0
  3 25  1  0  0  0  0
  3 26  1  0  0  0  0
  3 27  1  0  0  0  0
  4  5  1  0  0  0  0
  4 28  1  0  0  0  0
  5  6  2  0  0  0  0
  5  7  1  0  0  0  0
  7  8  1  0  0  0  0
  7 29  1  0  0  0  0
  7 30  1  0  0  0  0
  8 19  1  0  0  0  0
  8  9  1  0  0  0  0
  9 10  2  0  0  0  0
  9 11  1  0  0  0  0
 11 12  1  0  0  0  0
 11 14  2  0  0  0  0
 12 13  3  0  0  0  0
 14 15  1  0  0  0  0
 14 31  1  0  0  0  0
 15 16  1  0  0  0  0
 15 19  1  0  0  0  0
 16 18  1  0  0  0  0
 16 17  1  0  0  0  0
 16 32  1  0  0  0  0
 17 18  1  0  0  0  0
 17 33  1  0  0  0  0
 17 34  1  0  0  0  0
 18 35  1  0  0  0  0
 18 36  1  0  0  0  0
 19 20  2  0  0  0  0
M  END
> <s_m_source_file>
AV-unprocessed.smi

> <i_m_source_file_index>
391

> <i_lp_mmshare_version>
43012

> <i_f3d_flags>
0

> <s_epik_input>
W0NIM11bQ0hdKFtDSDNdKVtOSF1DKD1PKVtDSDJdbjFjKD1PKWMoQyNOKVtjSF1uKGMxPU8pW0NIXTJbQ0gyXVtDSDJdMg==

> <s_epik_cmdline>
J2VwaWtfcHl0aG9uJywgJy1waCcsICc3LjAnLCAnLXRuJywgJzgnLCAnLW1hJywgJzIwMCcsICctbWV0YWxfYmluZGluZycsICctaW1hZScsICc8aW5maWxlLm1hZT4nLCAnLW9tYWUnLCAnPG91dGZpbGUubWFlPic=

> <r_lp_tautomer_probability>
1

> <r_epik_Ionization_Penalty>
2.07526e-08

> <r_epik_Ionization_Penalty_Charging>
8.22213e-11

> <r_epik_Ionization_Penalty_Neutral>
2.06703e-08

> <r_epik_State_Penalty>
-0

> <r_epik_Charging_Adjusted_Penalty>
8.22213e-11

> <i_epik_Tot_Q>
0

> <i_epik_Tot_abs_Q>
0

> <r_epik_Metal_State_Penalty>
-0

> <b_epik_Metal_Only>
0

> <s_lp_Force_Field>
OPLS_2005

> <r_lp_Energy>
27.641

> <b_lp_Chiralities_Consistent>
1

> <s_lp_Variant>
AV-unprocessed.smi:391-1

> <Gold.Version>
5.8.1

> <Gold.Id.Protein>
6NUR|6NUR_protein|mol2

> <Gold.PLP.Fitness>
45.6137

> <Gold.PLP.PLP>
-41.1309

> <Gold.PLP.part.hbond>
-3.0000

> <Gold.PLP.part.metal>
0.0000

> <Gold.PLP.part.buried>
0.7536

> <Gold.PLP.part.nonpolar>
-38.9710

> <Gold.PLP.part.repulsive>
0.1968

> <Gold.PLP.ligand.clash>
0.0000

> <Gold.PLP.ligand.torsion>
0.4088

> <Gold.PLP.Chemscore.Hbond>
1.6940

> <Gold.PLP.Chemscore.CHOScore>
0.0000

> <Gold.PLP.Chemscore.Metal>
0.0000

> <Gold.Chemscore.Hbonds>
donor molecule, donor type, donor heavy atom, donor atom, acceptor molecule, acceptor atom, score
      P1  H  7989  7998       L1     6  0.91
      P1  H  7997  8008       L1    10  0.75

> <Gold.PLP.Chemscore.Internal.Correction>
0.2184

> <Gold.Rescore>
     Score         DG    S(hbond)    S(metal)    S(lipo)     H(rot)  DE(clash)    DE(int)     intcor
     11.97     -14.15       1.06        0.00      83.79       1.82       1.89       0.29       ----

> <Gold.Chemscore.Fitness>
11.9721

> <Gold.Chemscore.DG>
-14.1537

> <Gold.Chemscore.ZeroCoef>
-5.4800

> <Gold.Chemscore.Hbond>
1.0592

> <Gold.Chemscore.Metal>
0.0000

> <Gold.Chemscore.Lipo>
83.7942

> <Gold.Chemscore.Internal_Hbond>
0.0000

> <Gold.Chemscore.DEClash>
1.8875

> <Gold.Chemscore.DEInternal>
0.2941

> <Gold.Chemscore.Rot>
1.8234

> <Gold.Chemscore.Internal.Correction>
   9.000000E+99

> <Gold.Chemscore.Hbonds>
donor molecule, donor type, donor heavy atom, donor atom, acceptor molecule, acceptor atom, score
      P1  H  7989  7998       L1     6  0.87
      P1  H  7997  8008       L1    10  0.09

> <Gold.Chemscore.Hbond.Weighted>
-3.5378

> <Gold.Chemscore.Metal.Weighted>
-0.0000

> <Gold.Chemscore.Lipo.Weighted>
-9.8039

> <Gold.Chemscore.Internal_Hbond.Weighted>
0.0000

> <Gold.Chemscore.DEClash.Weighted>
1.8875

> <Gold.Chemscore.DEInternal.Weighted>
0.2941

> <Gold.Chemscore.Rot.Weighted>
4.6680

> <Gold.Chemscore.Internal.Correction.Weighted>
   9.000000E+99

> <Gold.Protein.RotatedTorsions>
[ 6907 6896 6895 6894 ] final  -17.34 input  -60.11 | X-H torsion
[ 7974 7965 7964 7962 ] final  -53.77 input  175.53 | X-H torsion
[ 8008 7997 7996 7995 ] final -110.55 input   59.86 | X-H torsion
[ 10167 10162 10161 10158 ] final   95.08 input  -65.29 | X-H torsion
[ 10718 10713 10712 10709 ] final    5.36 input   66.30 | X-H torsion
[ 10763 10752 10751 10750 ] final -157.01 input  -60.55 | X-H torsion
[ 11005 11000 10999 10996 ] final  -88.90 input  -57.11 | X-H torsion

> <Gold.Protein.ActiveResidues>
 VAL166  LYS551  ARG553  GLY616  TRP617  ASP618  TYR619  PRO620  LYS621  CYS622 
 ASP623  PHE694  ASN695  SER759  ASP760  ASP761  ALA762  ILE779  LEU786  VAL792 
 PHE793  MET794  SER795  GLU796  ALA797  LYS798  CYS799  TRP800  GLU811  SER814 

> <Gold.Protein.RotatedAtoms>
  151.2948  135.0752  159.9217 H   0  0  0  0  0  0  0  0  0  0  0  0  # atno 6907 bound_to 6896
  152.5309  133.9894  159.7854 H   0  0  0  0  0  0  0  0  0  0  0  0  # atno 6908 bound_to 6896
  151.0170  133.5861  159.2706 H   0  0  0  0  0  0  0  0  0  0  0  0  # atno 6909 bound_to 6896
  145.8930  140.8055  142.9781 H   0  0  0  0  0  0  0  0  0  0  0  0  # atno 7974 bound_to 7965
  154.9762  140.0397  157.2257 H   0  0  0  0  0  0  0  0  0  0  0  0  # atno 8008 bound_to 7997
  154.7756  140.2809  155.6081 H   0  0  0  0  0  0  0  0  0  0  0  0  # atno 8009 bound_to 7997
  156.2928  140.2601  156.2569 H   0  0  0  0  0  0  0  0  0  0  0  0  # atno 8010 bound_to 7997
  139.8022  144.6809  150.9750 H   0  0  0  0  0  0  0  0  0  0  0  0  # atno 10167 bound_to 10162
  156.9063  130.5740  149.5647 H   0  0  0  0  0  0  0  0  0  0  0  0  # atno 10718 bound_to 10713
  154.7669  135.3134  154.8268 H   0  0  0  0  0  0  0  0  0  0  0  0  # atno 10763 bound_to 10752
  153.9013  135.6815  153.4759 H   0  0  0  0  0  0  0  0  0  0  0  0  # atno 10764 bound_to 10752
  153.1277  135.4794  154.9231 H   0  0  0  0  0  0  0  0  0  0  0  0  # atno 10765 bound_to 10752
  141.1594  133.7597  156.9517 H   0  0  0  0  0  0  0  0  0  0  0  0  # atno 11005 bound_to 11000
  144.6731  140.1560  143.7426 LP  0  0  0  0  0  0  0  0  0  0  0  0  # atno 17320 bound_to 7965
  145.8884  139.2362  143.1564 LP  0  0  0  0  0  0  0  0  0  0  0  0  # atno 17321 bound_to 7965
  140.7820  143.4270  151.0753 LP  0  0  0  0  0  0  0  0  0  0  0  0  # atno 17342 bound_to 10162
  139.7941  143.8176  152.3155 LP  0  0  0  0  0  0  0  0  0  0  0  0  # atno 17343 bound_to 10162
  156.0557  130.5619  150.9087 LP  0  0  0  0  0  0  0  0  0  0  0  0  # atno 17370 bound_to 10713
  157.5995  131.0942  150.8984 LP  0  0  0  0  0  0  0  0  0  0  0  0  # atno 17371 bound_to 10713
  140.1252  134.9391  157.2260 LP  0  0  0  0  0  0  0  0  0  0  0  0  # atno 17394 bound_to 11000
  140.3021  134.3120  155.7287 LP  0  0  0  0  0  0  0  0  0  0  0  0  # atno 17395 bound_to 11000

$$$$
