AV-unprocessed.smi:1295|AV-procd|sdf|5406|dock8
  -GOLD-   22720 4563D 1   1.00000     0.00000
 Structure written by MMmdl.
 43 44  0  0  0  0  0  0  0  0  1 V2000
  151.3099  143.1846  157.2198 C   0  0  0  0  0  0  0  0  0  0  0  0
  150.9460  141.9009  156.5058 C   0  0  0  0  0  0  0  0  0  0  0  0
  149.8818  142.0341  155.6293 N   0  0  0  0  0  0  0  0  0  0  0  0
  149.4764  140.9123  154.9279 C   0  0  0  0  0  0  0  0  0  0  0  0
  148.3056  141.1440  153.9879 C   0  0  0  0  0  0  0  0  0  0  0  0
  150.0969  139.7168  155.0957 C   0  0  0  0  0  0  0  0  0  0  0  0
  149.6743  138.4557  154.3443 C   0  0  0  0  0  0  0  0  0  0  0  0
  149.2060  137.2926  155.2218 C   0  0  0  0  0  0  0  0  0  0  0  0
  149.2008  137.4060  156.4475 O   0  0  0  0  0  0  0  0  0  0  0  0
  148.8118  136.1839  154.5768 N   0  0  0  0  0  0  0  0  0  0  0  0
  148.2876  134.9639  155.1940 C   0  0  1  0  0  0  0  0  0  0  0  0
  146.8983  134.6433  154.6069 C   0  0  0  0  0  0  0  0  0  0  0  0
  146.9790  134.1832  153.1409 C   0  0  0  0  0  0  0  0  0  0  0  0
  147.9342  132.9907  152.9837 C   0  0  0  0  0  0  0  0  0  0  0  0
  149.3279  133.3102  153.5480 C   0  0  0  0  0  0  0  0  0  0  0  0
  149.2544  133.7641  155.0207 C   0  0  1  0  0  0  0  0  0  0  0  0
  150.6546  134.0250  155.6019 C   0  0  0  0  0  0  0  0  0  0  0  0
  151.2255  139.6349  156.0529 C   0  0  0  0  0  0  0  0  0  0  0  0
  151.8211  138.5782  156.2584 O   0  0  0  0  0  0  0  0  0  0  0  0
  151.6020  140.8041  156.7338 N   0  0  0  0  0  0  0  0  0  0  0  0
  149.3900  142.9031  155.4781 H   0  0  0  0  0  0  0  0  0  0  0  0
  152.2391  143.0698  157.7794 H   0  0  0  0  0  0  0  0  0  0  0  0
  150.5217  143.4644  157.9192 H   0  0  0  0  0  0  0  0  0  0  0  0
  151.4429  143.9965  156.5040 H   0  0  0  0  0  0  0  0  0  0  0  0
  148.5942  140.9293  152.9590 H   0  0  0  0  0  0  0  0  0  0  0  0
  147.9564  142.1764  154.0282 H   0  0  0  0  0  0  0  0  0  0  0  0
  147.4684  140.4980  154.2539 H   0  0  0  0  0  0  0  0  0  0  0  0
  150.4803  138.0954  153.7047 H   0  0  0  0  0  0  0  0  0  0  0  0
  148.8737  138.7238  153.6538 H   0  0  0  0  0  0  0  0  0  0  0  0
  148.8605  136.1884  153.5682 H   0  0  0  0  0  0  0  0  0  0  0  0
  148.1503  135.1344  156.2632 H   0  0  0  0  0  0  0  0  0  0  0  0
  146.4319  133.8566  155.2012 H   0  0  0  0  0  0  0  0  0  0  0  0
  146.2441  135.5123  154.6903 H   0  0  0  0  0  0  0  0  0  0  0  0
  145.9855  133.9116  152.7830 H   0  0  0  0  0  0  0  0  0  0  0  0
  147.3163  135.0078  152.5116 H   0  0  0  0  0  0  0  0  0  0  0  0
  147.5219  132.1226  153.4997 H   0  0  0  0  0  0  0  0  0  0  0  0
  148.0137  132.7150  151.9319 H   0  0  0  0  0  0  0  0  0  0  0  0
  149.9632  132.4280  153.4628 H   0  0  0  0  0  0  0  0  0  0  0  0
  149.7989  134.0853  152.9420 H   0  0  0  0  0  0  0  0  0  0  0  0
  148.8333  132.9343  155.5903 H   0  0  0  0  0  0  0  0  0  0  0  0
  151.1821  134.8047  155.0520 H   0  0  0  0  0  0  0  0  0  0  0  0
  151.2679  133.1245  155.5617 H   0  0  0  0  0  0  0  0  0  0  0  0
  150.5941  134.3350  156.6454 H   0  0  0  0  0  0  0  0  0  0  0  0
  1 22  1  0  0  0  0
  1 23  1  0  0  0  0
  1 24  1  0  0  0  0
  1  2  1  0  0  0  0
  2  3  1  0  0  0  0
  2 20  2  0  0  0  0
  3  4  1  0  0  0  0
  3 21  1  0  0  0  0
  4  6  2  0  0  0  0
  4  5  1  0  0  0  0
  5 25  1  0  0  0  0
  5 26  1  0  0  0  0
  5 27  1  0  0  0  0
  6 18  1  0  0  0  0
  6  7  1  0  0  0  0
  7  8  1  0  0  0  0
  7 28  1  0  0  0  0
  7 29  1  0  0  0  0
  8  9  2  0  0  0  0
  8 10  1  0  0  0  0
 10 11  1  0  0  0  0
 10 30  1  0  0  0  0
 11 16  1  0  0  0  0
 11 12  1  0  0  0  0
 11 31  1  0  0  0  0
 12 13  1  0  0  0  0
 12 32  1  0  0  0  0
 12 33  1  0  0  0  0
 13 14  1  0  0  0  0
 13 34  1  0  0  0  0
 13 35  1  0  0  0  0
 14 15  1  0  0  0  0
 14 36  1  0  0  0  0
 14 37  1  0  0  0  0
 15 16  1  0  0  0  0
 15 38  1  0  0  0  0
 15 39  1  0  0  0  0
 16 17  1  0  0  0  0
 16 40  1  0  0  0  0
 17 41  1  0  0  0  0
 17 42  1  0  0  0  0
 17 43  1  0  0  0  0
 18 19  2  0  0  0  0
 18 20  1  0  0  0  0
M  END
> <s_m_source_file>
AV-unprocessed.smi

> <i_m_source_file_index>
1295

> <i_lp_mmshare_version>
43012

> <i_f3d_flags>
0

> <s_epik_input>
W0NIM11jMW5jKFtDSDNdKWMoYyg9TylbbkhdMSlbQ0gyXUMoPU8pW05IXVtDQEBIXTJbQ0gyXVtDSDJdW0NIMl1bQ0gyXVtDQEhdMltDSDNd

> <s_epik_cmdline>
J2VwaWtfcHl0aG9uJywgJy1waCcsICc3LjAnLCAnLXRuJywgJzgnLCAnLW1hJywgJzIwMCcsICctbWV0YWxfYmluZGluZycsICctaW1hZScsICc8aW5maWxlLm1hZT4nLCAnLW9tYWUnLCAnPG91dGZpbGUubWFlPic=

> <r_lp_tautomer_probability>
0.156392

> <r_epik_Ionization_Penalty>
0.0136057

> <r_epik_Ionization_Penalty_Charging>
0.0134742

> <r_epik_Ionization_Penalty_Neutral>
0.000131572

> <r_epik_State_Penalty>
1.15342

> <r_epik_Charging_Adjusted_Penalty>
1.16689

> <i_epik_Tot_Q>
0

> <i_epik_Tot_abs_Q>
0

> <r_epik_Metal_State_Penalty>
1.31351

> <b_epik_Metal_Only>
0

> <s_lp_Force_Field>
OPLS_2005

> <r_lp_Energy>
15.3468

> <b_lp_Chiralities_Consistent>
1

> <s_lp_Variant>
AV-unprocessed.smi:1295-6

> <Gold.Version>
5.8.1

> <Gold.Id.Protein>
6NUR|6NUR_protein|mol2

> <Gold.PLP.Fitness>
38.2806

> <Gold.PLP.PLP>
-32.3401

> <Gold.PLP.part.hbond>
-2.0000

> <Gold.PLP.part.metal>
0.0000

> <Gold.PLP.part.buried>
-3.2304

> <Gold.PLP.part.nonpolar>
-27.5560

> <Gold.PLP.part.repulsive>
0.1738

> <Gold.PLP.ligand.clash>
0.0000

> <Gold.PLP.ligand.torsion>
0.0341

> <Gold.PLP.Chemscore.Hbond>
2.0000

> <Gold.PLP.Chemscore.CHOScore>
0.0000

> <Gold.PLP.Chemscore.Metal>
0.0000

> <Gold.Chemscore.Hbonds>
donor molecule, donor type, donor heavy atom, donor atom, acceptor molecule, acceptor atom, score
      L1  H     3    21       P1  8028  1.00
      L1  H    10    30       P1  7948  1.00

> <Gold.PLP.Chemscore.Internal.Correction>
0.0086

> <Gold.Rescore>
     Score         DG    S(hbond)    S(metal)    S(lipo)     H(rot)  DE(clash)    DE(int)     intcor
     16.01     -16.21       1.99        0.00      67.16       1.48       0.09       0.10       ----

> <Gold.Chemscore.Fitness>
16.0103

> <Gold.Chemscore.DG>
-16.2053

> <Gold.Chemscore.ZeroCoef>
-5.4800

> <Gold.Chemscore.Hbond>
1.9929

> <Gold.Chemscore.Metal>
0.0000

> <Gold.Chemscore.Lipo>
67.1646

> <Gold.Chemscore.Internal_Hbond>
0.0000

> <Gold.Chemscore.DEClash>
0.0946

> <Gold.Chemscore.DEInternal>
0.1004

> <Gold.Chemscore.Rot>
1.4801

> <Gold.Chemscore.Internal.Correction>
   9.000000E+99

> <Gold.Chemscore.Hbonds>
donor molecule, donor type, donor heavy atom, donor atom, acceptor molecule, acceptor atom, score
      L1  H     3    21       P1  8028  1.00
      L1  H    10    30       P1  7948  1.00

> <Gold.Chemscore.Hbond.Weighted>
-6.6562

> <Gold.Chemscore.Metal.Weighted>
-0.0000

> <Gold.Chemscore.Lipo.Weighted>
-7.8583

> <Gold.Chemscore.Internal_Hbond.Weighted>
0.0000

> <Gold.Chemscore.DEClash.Weighted>
0.0946

> <Gold.Chemscore.DEInternal.Weighted>
0.1004

> <Gold.Chemscore.Rot.Weighted>
3.7891

> <Gold.Chemscore.Internal.Correction.Weighted>
   9.000000E+99

> <Gold.Protein.RotatedTorsions>
[ 6907 6896 6895 6894 ] final    4.69 input  -60.11 | X-H torsion
[ 7974 7965 7964 7962 ] final   63.44 input  175.53 | X-H torsion
[ 8008 7997 7996 7995 ] final -166.83 input   59.86 | X-H torsion
[ 10167 10162 10161 10158 ] final  -10.76 input  -65.29 | X-H torsion
[ 10718 10713 10712 10709 ] final    1.50 input   66.30 | X-H torsion
[ 10763 10752 10751 10750 ] final  162.76 input  -60.55 | X-H torsion
[ 11005 11000 10999 10996 ] final  -39.11 input  -57.11 | X-H torsion

> <Gold.Protein.ActiveResidues>
 VAL166  LYS551  ARG553  GLY616  TRP617  ASP618  TYR619  PRO620  LYS621  CYS622 
 ASP623  PHE694  ASN695  SER759  ASP760  ASP761  ALA762  ILE779  LEU786  VAL792 
 PHE793  MET794  SER795  GLU796  ALA797  LYS798  CYS799  TRP800  GLU811  SER814 

> <Gold.Protein.RotatedAtoms>
  151.6453  135.1008  160.0149 H   0  0  0  0  0  0  0  0  0  0  0  0  # atno 6907 bound_to 6896
  152.4031  133.6844  159.6342 H   0  0  0  0  0  0  0  0  0  0  0  0  # atno 6908 bound_to 6896
  150.7928  133.8673  159.3290 H   0  0  0  0  0  0  0  0  0  0  0  0  # atno 6909 bound_to 6896
  145.8619  139.3320  143.0814 H   0  0  0  0  0  0  0  0  0  0  0  0  # atno 7974 bound_to 7965
  155.8692  140.0990  157.1561 H   0  0  0  0  0  0  0  0  0  0  0  0  # atno 8008 bound_to 7997
  154.3996  140.1350  156.4120 H   0  0  0  0  0  0  0  0  0  0  0  0  # atno 8009 bound_to 7997
  155.7769  140.3459  155.5279 H   0  0  0  0  0  0  0  0  0  0  0  0  # atno 8010 bound_to 7997
  140.7122  143.5713  150.9090 H   0  0  0  0  0  0  0  0  0  0  0  0  # atno 10167 bound_to 10162
  156.8491  130.5547  149.5671 H   0  0  0  0  0  0  0  0  0  0  0  0  # atno 10718 bound_to 10713
  154.2834  135.2762  155.2687 H   0  0  0  0  0  0  0  0  0  0  0  0  # atno 10763 bound_to 10752
  154.5198  135.5759  153.6675 H   0  0  0  0  0  0  0  0  0  0  0  0  # atno 10764 bound_to 10752
  152.9925  135.6201  154.2994 H   0  0  0  0  0  0  0  0  0  0  0  0  # atno 10765 bound_to 10752
  141.0078  133.6923  156.2143 H   0  0  0  0  0  0  0  0  0  0  0  0  # atno 11005 bound_to 11000
  145.9239  140.9096  143.0391 LP  0  0  0  0  0  0  0  0  0  0  0  0  # atno 17320 bound_to 7965
  144.6726  140.1326  143.7442 LP  0  0  0  0  0  0  0  0  0  0  0  0  # atno 17321 bound_to 7965
  139.9439  143.6350  152.3047 LP  0  0  0  0  0  0  0  0  0  0  0  0  # atno 17342 bound_to 10162
  139.6845  144.7653  151.1549 LP  0  0  0  0  0  0  0  0  0  0  0  0  # atno 17343 bound_to 10162
  156.0838  130.5842  150.9611 LP  0  0  0  0  0  0  0  0  0  0  0  0  # atno 17370 bound_to 10713
  157.6313  131.0920  150.8435 LP  0  0  0  0  0  0  0  0  0  0  0  0  # atno 17371 bound_to 10713
  140.6784  134.4793  157.5588 LP  0  0  0  0  0  0  0  0  0  0  0  0  # atno 17394 bound_to 11000
  139.9073  134.8421  156.1659 LP  0  0  0  0  0  0  0  0  0  0  0  0  # atno 17395 bound_to 11000

$$$$
