AV-unprocessed.smi:225|AV-procd|sdf|1723|dock4
  -GOLD-   2262020203D 1   1.00000     0.00000
 Structure written by MMmdl.
 56 59  0  0  0  0  0  0  0  0  1 V2000
  149.5199  142.5869  153.9482 O   0  0  0  0  0  0  0  0  0  0  0  0
  150.0572  141.4567  154.5993 C   0  0  0  0  0  0  0  0  0  0  0  0
  150.8149  141.9035  155.8612 C   0  0  0  0  0  0  0  0  0  0  0  0
  151.5540  140.8096  156.4981 N   0  0  0  0  0  0  0  0  0  0  0  0
  152.3403  141.1324  157.6897 C   0  0  0  0  0  0  0  0  0  0  0  0
  151.6030  142.0636  158.6754 C   0  0  0  0  0  0  0  0  0  0  0  0
  151.7149  143.5324  158.2206 C   0  0  0  0  0  0  0  0  0  0  0  0
  150.9838  144.4837  159.1825 C   0  0  0  0  0  0  0  0  0  0  0  0
  151.4990  144.3260  160.6210 C   0  0  0  0  0  0  0  0  0  0  0  0
  151.3976  142.8654  161.0866 C   0  0  0  0  0  0  0  0  0  0  0  0
  152.1289  141.9205  160.1195 C   0  0  0  0  0  0  0  0  0  0  0  0
  152.1607  139.9030  155.6887 C   0  0  0  0  0  0  0  0  0  0  0  0
  153.4094  140.1456  155.2071 N   0  0  0  0  0  0  0  0  0  0  0  0
  154.0147  139.2520  154.4193 C   0  0  0  0  0  0  0  0  0  0  0  0
  153.5631  138.0687  153.9996 N   0  0  0  0  0  0  0  0  0  0  0  0
  152.3130  137.8169  154.4831 C   0  0  0  0  0  0  0  0  0  0  0  0
  151.5464  138.6726  155.3234 C   0  0  0  0  0  0  0  0  0  0  0  0
  150.3170  138.0873  155.5989 N   0  0  0  0  0  0  0  0  0  0  0  0
  150.3570  136.9476  154.9647 C   0  0  0  0  0  0  0  0  0  0  0  0
  151.5228  136.6998  154.2757 N   0  0  0  0  0  0  0  0  0  0  0  0
  151.8391  135.5154  153.4928 C   0  0  0  0  0  0  0  0  0  0  0  0
  150.5906  134.7031  153.0767 C   0  0  1  0  0  0  0  0  0  0  0  0
  149.6899  135.5557  152.3914 O   0  0  0  0  0  0  0  0  0  0  0  0
  150.8965  133.5041  152.1818 C   0  0  0  0  0  0  0  0  0  0  0  0
  149.8394  132.4902  152.5958 C   0  0  0  0  0  0  0  0  0  0  0  0
  149.7750  132.6735  153.9993 O   0  0  0  0  0  0  0  0  0  0  0  0
  149.8505  134.0688  154.2718 C   0  0  0  0  0  0  0  0  0  0  0  0
  149.1109  143.1401  154.5959 H   0  0  0  0  0  0  0  0  0  0  0  0
  149.2443  140.7791  154.8620 H   0  0  0  0  0  0  0  0  0  0  0  0
  150.7092  140.9302  153.9025 H   0  0  0  0  0  0  0  0  0  0  0  0
  151.4973  142.7206  155.6233 H   0  0  0  0  0  0  0  0  0  0  0  0
  150.0988  142.3165  156.5706 H   0  0  0  0  0  0  0  0  0  0  0  0
  152.6530  140.2288  158.2154 H   0  0  0  0  0  0  0  0  0  0  0  0
  153.2603  141.6148  157.3571 H   0  0  0  0  0  0  0  0  0  0  0  0
  150.5436  141.8077  158.6762 H   0  0  0  0  0  0  0  0  0  0  0  0
  152.7652  143.8198  158.1551 H   0  0  0  0  0  0  0  0  0  0  0  0
  151.3025  143.6443  157.2173 H   0  0  0  0  0  0  0  0  0  0  0  0
  151.1116  145.5153  158.8535 H   0  0  0  0  0  0  0  0  0  0  0  0
  149.9127  144.2807  159.1536 H   0  0  0  0  0  0  0  0  0  0  0  0
  152.5372  144.6562  160.6755 H   0  0  0  0  0  0  0  0  0  0  0  0
  150.9328  144.9718  161.2928 H   0  0  0  0  0  0  0  0  0  0  0  0
  151.8141  142.7657  162.0892 H   0  0  0  0  0  0  0  0  0  0  0  0
  150.3486  142.5753  161.1573 H   0  0  0  0  0  0  0  0  0  0  0  0
  152.0119  140.8927  160.4643 H   0  0  0  0  0  0  0  0  0  0  0  0
  153.1978  142.1359  160.1448 H   0  0  0  0  0  0  0  0  0  0  0  0
  155.0028  139.5233  154.0778 H   0  0  0  0  0  0  0  0  0  0  0  0
  149.5320  136.2508  154.9859 H   0  0  0  0  0  0  0  0  0  0  0  0
  152.3922  135.8329  152.6079 H   0  0  0  0  0  0  0  0  0  0  0  0
  152.5217  134.8907  154.0708 H   0  0  0  0  0  0  0  0  0  0  0  0
  150.1396  135.9354  151.6522 H   0  0  0  0  0  0  0  0  0  0  0  0
  150.8810  133.7329  151.1152 H   0  0  0  0  0  0  0  0  0  0  0  0
  151.8798  133.0963  152.4192 H   0  0  0  0  0  0  0  0  0  0  0  0
  148.8724  132.7221  152.1468 H   0  0  0  0  0  0  0  0  0  0  0  0
  150.1081  131.4667  152.3340 H   0  0  0  0  0  0  0  0  0  0  0  0
  150.3730  134.2231  155.2163 H   0  0  0  0  0  0  0  0  0  0  0  0
  148.8421  134.4692  154.3886 H   0  0  0  0  0  0  0  0  0  0  0  0
  1  2  1  0  0  0  0
  1 28  1  0  0  0  0
  2  3  1  0  0  0  0
  2 29  1  0  0  0  0
  2 30  1  0  0  0  0
  3  4  1  0  0  0  0
  3 31  1  0  0  0  0
  3 32  1  0  0  0  0
  4  5  1  0  0  0  0
  4 12  1  0  0  0  0
  5  6  1  0  0  0  0
  5 33  1  0  0  0  0
  5 34  1  0  0  0  0
  6 11  1  0  0  0  0
  6  7  1  0  0  0  0
  6 35  1  0  0  0  0
  7  8  1  0  0  0  0
  7 36  1  0  0  0  0
  7 37  1  0  0  0  0
  8  9  1  0  0  0  0
  8 38  1  0  0  0  0
  8 39  1  0  0  0  0
  9 10  1  0  0  0  0
  9 40  1  0  0  0  0
  9 41  1  0  0  0  0
 10 11  1  0  0  0  0
 10 42  1  0  0  0  0
 10 43  1  0  0  0  0
 11 44  1  0  0  0  0
 11 45  1  0  0  0  0
 12 17  1  0  0  0  0
 12 13  2  0  0  0  0
 13 14  1  0  0  0  0
 14 15  2  0  0  0  0
 14 46  1  0  0  0  0
 15 16  1  0  0  0  0
 16 20  1  0  0  0  0
 16 17  2  0  0  0  0
 17 18  1  0  0  0  0
 18 19  2  0  0  0  0
 19 20  1  0  0  0  0
 19 47  1  0  0  0  0
 20 21  1  0  0  0  0
 21 22  1  0  0  0  0
 21 48  1  0  0  0  0
 21 49  1  0  0  0  0
 22 27  1  0  0  0  0
 22 23  1  0  0  0  0
 22 24  1  0  0  0  0
 23 50  1  0  0  0  0
 24 25  1  0  0  0  0
 24 51  1  0  0  0  0
 24 52  1  0  0  0  0
 25 26  1  0  0  0  0
 25 53  1  0  0  0  0
 25 54  1  0  0  0  0
 26 27  1  0  0  0  0
 27 55  1  0  0  0  0
 27 56  1  0  0  0  0
M  END
> <s_m_source_file>
AV-unprocessed.smi

> <i_m_source_file_index>
225

> <i_lp_mmshare_version>
43012

> <i_f3d_flags>
0

> <s_epik_input>
W0NIMl0xW0NIMl1bQ0gyXVtDSDJdW0NIMl1bQ0hdMVtDSDJdTihbQ0gyXVtDSDJdW09IXSljKG5bY0hdbjIpYyhjMjMpbltjSF1uM1tDSDJdW0NAQF00KFtPSF0pW0NIMl1bQ0gyXU9bQ0gyXTQ=

> <s_epik_cmdline>
J2VwaWtfcHl0aG9uJywgJy1waCcsICc3LjAnLCAnLXRuJywgJzgnLCAnLW1hJywgJzIwMCcsICctbWV0YWxfYmluZGluZycsICctaW1hZScsICc8aW5maWxlLm1hZT4nLCAnLW9tYWUnLCAnPG91dGZpbGUubWFlPic=

> <r_lp_tautomer_probability>
1

> <r_epik_Ionization_Penalty>
0.00405109

> <r_epik_Ionization_Penalty_Charging>
0

> <r_epik_Ionization_Penalty_Neutral>
0.00405109

> <r_epik_State_Penalty>
0.00270467

> <r_epik_Charging_Adjusted_Penalty>
0.00270467

> <i_epik_Tot_Q>
0

> <i_epik_Tot_abs_Q>
0

> <r_epik_Metal_State_Penalty>
-0

> <b_epik_Metal_Only>
0

> <s_lp_Force_Field>
OPLS_2005

> <r_lp_Energy>
35.3167

> <b_lp_Chiralities_Consistent>
1

> <s_lp_Variant>
AV-unprocessed.smi:225-1

> <Gold.Version>
5.8.1

> <Gold.Id.Protein>
6NUR|6NUR_protein|mol2

> <Gold.PLP.Fitness>
63.1772

> <Gold.PLP.PLP>
-52.0654

> <Gold.PLP.part.hbond>
-5.8211

> <Gold.PLP.part.metal>
0.0000

> <Gold.PLP.part.buried>
-7.3213

> <Gold.PLP.part.nonpolar>
-39.7610

> <Gold.PLP.part.repulsive>
0.1237

> <Gold.PLP.ligand.clash>
0.0000

> <Gold.PLP.ligand.torsion>
1.0984

> <Gold.PLP.Chemscore.Hbond>
3.9891

> <Gold.PLP.Chemscore.CHOScore>
0.0000

> <Gold.PLP.Chemscore.Metal>
0.0000

> <Gold.Chemscore.Hbonds>
donor molecule, donor type, donor heavy atom, donor atom, acceptor molecule, acceptor atom, score
      L1  H     1    28       P1  8028  1.00
      P1  H  7997  8009       L1    13  0.46
      P1  H  8011  8017       L1     1  0.02

> <Gold.PLP.Chemscore.Internal.Correction>
1.3412

> <Gold.Rescore>
     Score         DG    S(hbond)    S(metal)    S(lipo)     H(rot)  DE(clash)    DE(int)     intcor
     14.99     -20.55       3.46        0.00     112.52       3.76       2.17       3.39       ----

> <Gold.Chemscore.Fitness>
14.9888

> <Gold.Chemscore.DG>
-20.5498

> <Gold.Chemscore.ZeroCoef>
-5.4800

> <Gold.Chemscore.Hbond>
3.4556

> <Gold.Chemscore.Metal>
0.0000

> <Gold.Chemscore.Lipo>
112.5217

> <Gold.Chemscore.Internal_Hbond>
0.0000

> <Gold.Chemscore.DEClash>
2.1691

> <Gold.Chemscore.DEInternal>
3.3919

> <Gold.Chemscore.Rot>
3.7644

> <Gold.Chemscore.Internal.Correction>
   9.000000E+99

> <Gold.Chemscore.Hbonds>
donor molecule, donor type, donor heavy atom, donor atom, acceptor molecule, acceptor atom, score
      L1  H     1    28       P1  8028  0.98
      P1  H  7997  8009       L1    13  0.07
      P1  H  8011  8017       L1     1  0.05

> <Gold.Chemscore.Hbond.Weighted>
-11.5417

> <Gold.Chemscore.Metal.Weighted>
-0.0000

> <Gold.Chemscore.Lipo.Weighted>
-13.1650

> <Gold.Chemscore.Internal_Hbond.Weighted>
0.0000

> <Gold.Chemscore.DEClash.Weighted>
2.1691

> <Gold.Chemscore.DEInternal.Weighted>
3.3919

> <Gold.Chemscore.Rot.Weighted>
9.6369

> <Gold.Chemscore.Internal.Correction.Weighted>
   9.000000E+99

> <Gold.Protein.RotatedTorsions>
[ 6907 6896 6895 6894 ] final -125.65 input  -60.11 | X-H torsion
[ 7974 7965 7964 7962 ] final   14.35 input  175.53 | X-H torsion
[ 8008 7997 7996 7995 ] final -163.59 input   59.86 | X-H torsion
[ 10167 10162 10161 10158 ] final -174.46 input  -65.29 | X-H torsion
[ 10718 10713 10712 10709 ] final -161.74 input   66.30 | X-H torsion
[ 10763 10752 10751 10750 ] final  167.29 input  -60.55 | X-H torsion
[ 11005 11000 10999 10996 ] final   71.48 input  -57.11 | X-H torsion

> <Gold.Protein.ActiveResidues>
 VAL166  LYS551  ARG553  GLY616  TRP617  ASP618  TYR619  PRO620  LYS621  CYS622 
 ASP623  PHE694  ASN695  SER759  ASP760  ASP761  ALA762  ILE779  LEU786  VAL792 
 PHE793  MET794  SER795  GLU796  ALA797  LYS798  CYS799  TRP800  GLU811  SER814 

> <Gold.Protein.RotatedAtoms>
  150.8889  133.7270  159.2910 H   0  0  0  0  0  0  0  0  0  0  0  0  # atno 6907 bound_to 6896
  151.4827  135.1051  159.9791 H   0  0  0  0  0  0  0  0  0  0  0  0  # atno 6908 bound_to 6896
  152.4807  133.8201  159.7105 H   0  0  0  0  0  0  0  0  0  0  0  0  # atno 6909 bound_to 6896
  146.2307  139.9055  142.8532 H   0  0  0  0  0  0  0  0  0  0  0  0  # atno 7974 bound_to 7965
  155.8235  140.0923  157.1835 H   0  0  0  0  0  0  0  0  0  0  0  0  # atno 8008 bound_to 7997
  154.3979  140.1432  156.3588 H   0  0  0  0  0  0  0  0  0  0  0  0  # atno 8009 bound_to 7997
  155.8241  140.3445  155.5534 H   0  0  0  0  0  0  0  0  0  0  0  0  # atno 8010 bound_to 7997
  139.5633  144.1817  152.1272 H   0  0  0  0  0  0  0  0  0  0  0  0  # atno 10167 bound_to 10162
  156.6005  130.8808  151.2912 H   0  0  0  0  0  0  0  0  0  0  0  0  # atno 10718 bound_to 10713
  154.3516  135.2753  155.2369 H   0  0  0  0  0  0  0  0  0  0  0  0  # atno 10763 bound_to 10752
  154.4595  135.5910  153.6250 H   0  0  0  0  0  0  0  0  0  0  0  0  # atno 10764 bound_to 10752
  152.9849  135.6061  154.3727 H   0  0  0  0  0  0  0  0  0  0  0  0  # atno 10765 bound_to 10752
  139.9541  134.7174  156.0793 H   0  0  0  0  0  0  0  0  0  0  0  0  # atno 11005 bound_to 11000
  145.2281  140.9962  143.4006 LP  0  0  0  0  0  0  0  0  0  0  0  0  # atno 17320 bound_to 7965
  144.9553  139.4038  143.6382 LP  0  0  0  0  0  0  0  0  0  0  0  0  # atno 17321 bound_to 7965
  140.1335  144.5267  150.6787 LP  0  0  0  0  0  0  0  0  0  0  0  0  # atno 17342 bound_to 10162
  140.6914  143.2378  151.5120 LP  0  0  0  0  0  0  0  0  0  0  0  0  # atno 17343 bound_to 10162
  157.7281  130.9652  150.1726 LP  0  0  0  0  0  0  0  0  0  0  0  0  # atno 17370 bound_to 10713
  156.2473  130.3697  149.8271 LP  0  0  0  0  0  0  0  0  0  0  0  0  # atno 17371 bound_to 10713
  141.1210  133.6613  156.3214 LP  0  0  0  0  0  0  0  0  0  0  0  0  # atno 17394 bound_to 11000
  140.5649  134.5897  157.5443 LP  0  0  0  0  0  0  0  0  0  0  0  0  # atno 17395 bound_to 11000

$$$$
