#       Name:                AV-unprocessed.smi:1289
#       Creating user name   scv26
#       Creation time:       Fri Mar 27 04:53:44 2020


#       File generated by GOLD software.
#

@<TRIPOS>MOLECULE
AV-unprocessed.smi:1289
    43    45     1
SMALL
NO_CHARGES


@<TRIPOS>ATOM
      1 ****        -8.4160   2.1291   0.4043 N.1            1 S1                 0.0000
      2 ****        -7.2772   1.9249   0.3923 C.1            1 S1                 0.0000
      3 ****        -5.8468   1.6681   0.3774 C.ar           1 S1                 0.0000
      4 ****        -4.9366   2.7365   0.2575 C.ar           1 S1                 0.0000
      5 ****        -3.5511   2.4842   0.2467 C.ar           1 S1                 0.0000
      6 ****        -3.0550   1.1687   0.3569 C.ar           1 S1                 0.0000
      7 ****        -1.6853   1.0135   0.3459 O.3            1 S1                 0.0000
      8 ****        -1.1553  -0.2923   0.5331 C.3            1 S1                 0.0000
      9 ****         0.3788  -0.2104   0.5759 C.3            1 S1                 0.0000
     10 ****         0.7679   0.2035   1.8716 O.3            1 S1                 0.0000
     11 ****         1.0318  -1.5725   0.2687 C.3            1 S1                 0.0000
     12 ****         2.4813  -1.5317   0.3548 N.pl3          1 S1                 0.0000
     13 ****         3.2480  -1.9792   1.3681 C.2            1 S1                 0.0000
     14 ****         4.5648  -1.8419   1.2430 N.2            1 S1                 0.0000
     15 ****         4.6660  -1.2386   0.0012 C.ar           1 S1                 0.0000
     16 ****         5.8038  -0.8224  -0.7267 C.ar           1 S1                 0.0000
     17 ****         5.6600  -0.2212  -1.9945 C.ar           1 S1                 0.0000
     18 ****         4.3798  -0.0270  -2.5532 C.ar           1 S1                 0.0000
     19 ****         3.2313  -0.4324  -1.8463 C.ar           1 S1                 0.0000
     20 ****         3.3791  -1.0319  -0.5819 C.ar           1 S1                 0.0000
     21 ****        -3.9780   0.0983   0.4719 C.ar           1 S1                 0.0000
     22 ****        -5.3640   0.3488   0.4830 C.ar           1 S1                 0.0000
     23 ****        -5.2937   3.7532   0.1750 H              1 S1                 0.0000
     24 ****        -2.8613   3.3105   0.1564 H              1 S1                 0.0000
     25 ****        -1.5389  -0.7593   1.4424 H              1 S1                 0.0000
     26 ****        -1.4622  -0.9087  -0.3135 H              1 S1                 0.0000
     27 ****         0.7281   0.5246  -0.1507 H              1 S1                 0.0000
     28 ****         1.7077   0.3011   1.8846 H              1 S1                 0.0000
     29 ****         0.6634  -2.3341   0.9578 H              1 S1                 0.0000
     30 ****         0.7604  -1.9035  -0.7346 H              1 S1                 0.0000
     31 ****         2.8136  -2.4270   2.2501 H              1 S1                 0.0000
     32 ****         6.7892  -0.9662  -0.3088 H              1 S1                 0.0000
     33 ****         6.5370   0.0926  -2.5416 H              1 S1                 0.0000
     34 ****         4.2803   0.4339  -3.5250 H              1 S1                 0.0000
     35 ****         2.2489  -0.2847  -2.2696 H              1 S1                 0.0000
     36 ****        -3.6487  -0.9264   0.5531 H              1 S1                 0.0000
     37 ****        -6.0528  -0.4791   0.5741 H              1 S1                 0.0000
     38 ****        -9.4002   2.3056   0.4147 LP             1 S1                 0.0000
     39 ****        -1.3157   1.5906   1.0742 LP             1 S1                 0.0000
     40 ****        -1.3567   1.3426  -0.5394 LP             1 S1                 0.0000
     41 ****         0.4906  -0.4838   2.5430 LP             1 S1                 0.0000
     42 ****         0.3347   1.0776   2.0910 LP             1 S1                 0.0000
     43 ****         5.2907  -2.1051   1.8785 LP             1 S1                 0.0000
@<TRIPOS>BOND
    1    1    2 3     
    2    2    3 1     
    3    3   22 ar    
    4    3    4 ar    
    5    4    5 ar    
    6    4   23 1     
    7    5    6 ar    
    8    5   24 1     
    9    6    7 1     
   10    6   21 ar    
   11    7    8 1     
   12    8    9 1     
   13    8   25 1     
   14    8   26 1     
   15    9   10 1     
   16    9   11 1     
   17    9   27 1     
   18   10   28 1     
   19   11   12 1     
   20   11   29 1     
   21   11   30 1     
   22   12   20 1     
   23   12   13 1     
   24   13   14 2     
   25   13   31 1     
   26   14   15 1     
   27   15   20 ar    
   28   15   16 ar    
   29   16   17 ar    
   30   16   32 1     
   31   17   18 ar    
   32   17   33 1     
   33   18   19 ar    
   34   18   34 1     
   35   19   20 ar    
   36   19   35 1     
   37   21   22 ar    
   38   21   36 1     
   39   22   37 1     
   40    1   38 1     
   41    7   39 1     
   42    7   40 1     
   43   10   41 1     
   44   10   42 1     
   45   14   43 1     
@<TRIPOS>SUBSTRUCTURE
      1 S1             1
@<TRIPOS>SET
LONE_PAIRS      STATIC     ATOMS    <user>   **** ""
6 38 39 40 41 42 43
DONOR_HYDROGENS      STATIC     ATOMS    <user>   **** ""
1 28
ATOM$BLUE        STATIC     ATOMS    COLORGROUP SYSTEM
6 38 39 40 41 42 43
ATOM$RED        STATIC     ATOMS    COLORGROUP SYSTEM
1 28
