#       Name:                AV-unprocessed.smi:712
#       Creating user name   scv26
#       Creation time:       Fri Mar 27 00:46:17 2020


#       File generated by GOLD software.
#

@<TRIPOS>MOLECULE
AV-unprocessed.smi:712
    57    58     1
SMALL
NO_CHARGES


@<TRIPOS>ATOM
      1 ****        -2.4326   3.5144   2.9264 C.3            1 S1                 0.0000
      2 ****        -2.5878   2.6799   1.6720 C.2            1 S1                 0.0000
      3 ****        -3.7999   1.9254   1.4284 C.2            1 S1                 0.0000
      4 ****        -3.8983   1.1888   0.3107 C.2            1 S1                 0.0000
      5 ****        -2.8574   1.1285  -0.6337 N.am           1 S1                 0.0000
      6 ****        -3.0567   0.2609  -1.8069 C.3            1 S1                 0.0000
      7 ****        -2.3193  -1.0734  -1.6467 C.2            1 S1                 0.0000
      8 ****        -2.4925  -1.7585  -0.6384 O.2            1 S1                 0.0000
      9 ****        -1.4772  -1.4141  -2.6343 N.am           1 S1                 0.0000
     10 ****        -0.5571  -2.5473  -2.6012 C.3            1 S1                 0.0000
     11 ****         0.8375  -2.1309  -2.0903 C.3            1 S1                 0.0000
     12 ****         0.8441  -1.6624  -0.6185 C.3            1 S1                 0.0000
     13 ****         2.2185  -1.3273  -0.1760 N.4            1 S1                 1.0000
     14 ****         2.2961  -0.8230   1.2206 C.3            1 S1                 0.0000
     15 ****         1.6420   0.5634   1.4231 C.3            1 S1                 0.0000
     16 ****         2.2680   1.6391   0.5200 C.3            1 S1                 0.0000
     17 ****         1.7181   0.9889   2.8965 C.3            1 S1                 0.0000
     18 ****         3.1264  -2.4743  -0.4118 C.3            1 S1                 0.0000
     19 ****         3.0519  -2.9288  -1.8788 C.3            1 S1                 0.0000
     20 ****         1.7072  -3.2508  -2.2141 O.3            1 S1                 0.0000
     21 ****        -1.6896   1.8211  -0.4655 C.2            1 S1                 0.0000
     22 ****        -0.7709   1.7673  -1.2845 O.2            1 S1                 0.0000
     23 ****        -1.5927   2.6213   0.7602 C.2            1 S1                 0.0000
     24 ****        -3.3537   3.5243   3.5100 H              1 S1                 0.0000
     25 ****        -2.1817   4.5440   2.6698 H              1 S1                 0.0000
     26 ****        -1.6360   3.1112   3.5526 H              1 S1                 0.0000
     27 ****        -4.6153   1.9485   2.1369 H              1 S1                 0.0000
     28 ****        -4.7705   0.5966   0.0744 H              1 S1                 0.0000
     29 ****        -4.1157   0.0506  -1.9637 H              1 S1                 0.0000
     30 ****        -2.7263   0.7734  -2.7127 H              1 S1                 0.0000
     31 ****        -1.4127  -0.7993  -3.4329 H              1 S1                 0.0000
     32 ****        -0.9588  -3.3644  -1.9993 H              1 S1                 0.0000
     33 ****        -0.4719  -2.9319  -3.6179 H              1 S1                 0.0000
     34 ****         1.2099  -1.3263  -2.7277 H              1 S1                 0.0000
     35 ****         0.2139  -0.7825  -0.5214 H              1 S1                 0.0000
     36 ****         0.4242  -2.4344   0.0283 H              1 S1                 0.0000
     37 ****         1.8412  -1.5557   1.8890 H              1 S1                 0.0000
     38 ****         3.3455  -0.7544   1.5112 H              1 S1                 0.0000
     39 ****         0.5818   0.4979   1.1842 H              1 S1                 0.0000
     40 ****         3.3368   1.7440   0.7089 H              1 S1                 0.0000
     41 ****         1.8041   2.6112   0.6893 H              1 S1                 0.0000
     42 ****         2.1363   1.4002  -0.5355 H              1 S1                 0.0000
     43 ****         2.7518   1.0945   3.2273 H              1 S1                 0.0000
     44 ****         1.2338   0.2565   3.5433 H              1 S1                 0.0000
     45 ****         1.2183   1.9454   3.0550 H              1 S1                 0.0000
     46 ****         4.1514  -2.1931  -0.1669 H              1 S1                 0.0000
     47 ****         2.8527  -3.2991   0.2484 H              1 S1                 0.0000
     48 ****         3.4322  -2.1543  -2.5466 H              1 S1                 0.0000
     49 ****         3.6735  -3.8116  -2.0293 H              1 S1                 0.0000
     50 ****        -0.6853   3.1798   0.9383 H              1 S1                 0.0000
     51 ****         2.5436  -0.5782  -0.7706 H              1 S1                 0.0000
     52 ****        -3.1154  -1.4449   0.0783 LP             1 S1                 0.0000
     53 ****        -2.0103  -2.6286  -0.5362 LP             1 S1                 0.0000
     54 ****         1.6803  -3.5761  -3.1593 LP             1 S1                 0.0000
     55 ****         1.3879  -3.9752  -1.6031 LP             1 S1                 0.0000
     56 ****        -0.8650   1.2036  -2.1051 LP             1 S1                 0.0000
     57 ****         0.0689   2.2873  -1.1287 LP             1 S1                 0.0000
@<TRIPOS>BOND
    1    1    2 1     
    2    1   24 1     
    3    1   25 1     
    4    1   26 1     
    5    2   23 2     
    6    2    3 1     
    7    3    4 2     
    8    3   27 1     
    9    4    5 1     
   10    4   28 1     
   11    5    6 1     
   12    5   21 am    
   13    6    7 1     
   14    6   29 1     
   15    6   30 1     
   16    7    8 2     
   17    7    9 am    
   18    9   10 1     
   19    9   31 1     
   20   10   11 1     
   21   10   32 1     
   22   10   33 1     
   23   11   20 1     
   24   11   12 1     
   25   11   34 1     
   26   12   13 1     
   27   12   35 1     
   28   12   36 1     
   29   13   14 1     
   30   13   18 1     
   31   13   51 1     
   32   14   15 1     
   33   14   37 1     
   34   14   38 1     
   35   15   16 1     
   36   15   17 1     
   37   15   39 1     
   38   16   40 1     
   39   16   41 1     
   40   16   42 1     
   41   17   43 1     
   42   17   44 1     
   43   17   45 1     
   44   18   19 1     
   45   18   46 1     
   46   18   47 1     
   47   19   20 1     
   48   19   48 1     
   49   19   49 1     
   50   21   22 2     
   51   21   23 1     
   52   23   50 1     
   53    8   52 1     
   54    8   53 1     
   55   20   54 1     
   56   20   55 1     
   57   22   56 1     
   58   22   57 1     
@<TRIPOS>SUBSTRUCTURE
      1 S1             1
@<TRIPOS>SET
LONE_PAIRS      STATIC     ATOMS    <user>   **** ""
6 52 53 54 55 56 57
DONOR_HYDROGENS      STATIC     ATOMS    <user>   **** ""
2 31 51
ATOM$BLUE        STATIC     ATOMS    COLORGROUP SYSTEM
6 52 53 54 55 56 57
ATOM$RED        STATIC     ATOMS    COLORGROUP SYSTEM
2 31 51
