AV-unprocessed.smi:278|AV-procd|sdf|2090|dock10
  -GOLD-   2262021373D 1   1.00000     0.00000
 Structure written by MMmdl.
 50 54  0  0  0  0  0  0  0  0  1 V2000
  150.1115  132.8984  152.5088 O   0  0  0  0  0  0  0  0  0  0  0  0
  149.3289  131.9818  153.3522 S   0  0  0  0  0  0  0  0  0  0  0  0
  147.9698  131.5706  152.9699 O   0  0  0  0  0  0  0  0  0  0  0  0
  150.3408  130.5141  153.7337 C   0  0  0  0  0  0  0  0  0  0  0  0
  151.3210  130.9811  154.8197 C   0  0  0  0  0  0  0  0  0  0  0  0
  150.6698  132.0919  155.6856 C   0  0  1  0  0  0  0  0  0  0  0  0
  151.5019  133.3744  155.7898 C   0  0  0  0  0  0  0  0  0  0  0  0
  150.5340  134.4416  155.9865 N   0  0  0  0  0  0  0  0  0  0  0  0
  151.0088  135.6920  155.8044 C   0  0  0  0  0  0  0  0  0  0  0  0
  151.3419  136.0418  154.5382 N   0  0  0  0  0  0  0  0  0  0  0  0
  151.8252  137.2625  154.2874 C   0  0  0  0  0  0  0  0  0  0  0  0
  152.0499  138.2637  155.1413 N   0  0  0  0  0  0  0  0  0  0  0  0
  151.7139  137.9138  156.4160 C   0  0  0  0  0  0  0  0  0  0  0  0
  151.1900  136.6587  156.8346 C   0  0  0  0  0  0  0  0  0  0  0  0
  150.9731  136.6712  158.2075 N   0  0  0  0  0  0  0  0  0  0  0  0
  151.3489  137.8640  158.5798 C   0  0  0  0  0  0  0  0  0  0  0  0
  151.8097  138.6747  157.5676 N   0  0  0  0  0  0  0  0  0  0  0  0
  152.2935  140.0375  157.7003 C   0  0  0  0  0  0  0  0  0  0  0  0
  152.8392  140.3307  159.1113 C   0  0  1  0  0  0  0  0  0  0  0  0
  154.1149  139.7431  159.2858 O   0  0  0  0  0  0  0  0  0  0  0  0
  152.8846  141.8391  159.4322 C   0  0  1  0  0  0  0  0  0  0  0  0
  151.6805  142.6711  158.9786 C   0  0  0  0  0  0  0  0  0  0  0  0
  151.7398  143.8332  159.9451 C   0  0  0  0  0  0  0  0  0  0  0  0
  152.1731  143.1395  161.2334 C   0  0  0  0  0  0  0  0  0  0  0  0
  153.0400  142.0841  160.8288 O   0  0  0  0  0  0  0  0  0  0  0  0
  149.3491  134.1092  155.2075 C   0  0  0  0  0  0  0  0  0  0  0  0
  149.3440  132.5793  155.0824 C   0  0  1  0  0  0  0  0  0  0  0  0
  150.4711  131.7144  156.6899 H   0  0  0  0  0  0  0  0  0  0  0  0
  148.4981  132.1310  155.6045 H   0  0  0  0  0  0  0  0  0  0  0  0
  149.6774  129.7396  154.1191 H   0  0  0  0  0  0  0  0  0  0  0  0
  150.8319  130.1447  152.8334 H   0  0  0  0  0  0  0  0  0  0  0  0
  151.6506  130.1432  155.4344 H   0  0  0  0  0  0  0  0  0  0  0  0
  152.2148  131.3695  154.3306 H   0  0  0  0  0  0  0  0  0  0  0  0
  152.2084  133.3271  156.6188 H   0  0  0  0  0  0  0  0  0  0  0  0
  152.0698  133.5437  154.8747 H   0  0  0  0  0  0  0  0  0  0  0  0
  152.0682  137.4662  153.2550 H   0  0  0  0  0  0  0  0  0  0  0  0
  151.3038  138.1860  159.6101 H   0  0  0  0  0  0  0  0  0  0  0  0
  153.0626  140.2100  156.9464 H   0  0  0  0  0  0  0  0  0  0  0  0
  151.4716  140.7151  157.4661 H   0  0  0  0  0  0  0  0  0  0  0  0
  152.1805  139.8557  159.8393 H   0  0  0  0  0  0  0  0  0  0  0  0
  154.0599  139.1100  159.9851 H   0  0  0  0  0  0  0  0  0  0  0  0
  153.7732  142.2607  158.9600 H   0  0  0  0  0  0  0  0  0  0  0  0
  151.7453  142.9783  157.9347 H   0  0  0  0  0  0  0  0  0  0  0  0
  150.7419  142.1333  159.1165 H   0  0  0  0  0  0  0  0  0  0  0  0
  152.4993  144.5489  159.6276 H   0  0  0  0  0  0  0  0  0  0  0  0
  150.7902  144.3601  160.0424 H   0  0  0  0  0  0  0  0  0  0  0  0
  152.6654  143.8174  161.9311 H   0  0  0  0  0  0  0  0  0  0  0  0
  151.3096  142.7035  161.7374 H   0  0  0  0  0  0  0  0  0  0  0  0
  148.4596  134.4529  155.7364 H   0  0  0  0  0  0  0  0  0  0  0  0
  149.3522  134.5943  154.2315 H   0  0  0  0  0  0  0  0  0  0  0  0
  1  2  2  0  0  0  0
  2 27  1  0  0  0  0
  2  3  2  0  0  0  0
  2  4  1  0  0  0  0
  4  5  1  0  0  0  0
  4 30  1  0  0  0  0
  4 31  1  0  0  0  0
  5  6  1  0  0  0  0
  5 32  1  0  0  0  0
  5 33  1  0  0  0  0
  6 28  1  0  0  0  0
  6 27  1  0  0  0  0
  6  7  1  0  0  0  0
  7  8  1  0  0  0  0
  7 34  1  0  0  0  0
  7 35  1  0  0  0  0
  8  9  1  0  0  0  0
  8 26  1  0  0  0  0
  9 14  1  0  0  0  0
  9 10  2  0  0  0  0
 10 11  1  0  0  0  0
 11 12  2  0  0  0  0
 11 36  1  0  0  0  0
 12 13  1  0  0  0  0
 13 17  1  0  0  0  0
 13 14  2  0  0  0  0
 14 15  1  0  0  0  0
 15 16  2  0  0  0  0
 16 17  1  0  0  0  0
 16 37  1  0  0  0  0
 17 18  1  0  0  0  0
 18 19  1  0  0  0  0
 18 38  1  0  0  0  0
 18 39  1  0  0  0  0
 19 20  1  0  0  0  0
 19 21  1  0  0  0  0
 19 40  1  0  0  0  0
 20 41  1  0  0  0  0
 21 25  1  0  0  0  0
 21 22  1  0  0  0  0
 21 42  1  0  0  0  0
 22 23  1  0  0  0  0
 22 43  1  0  0  0  0
 22 44  1  0  0  0  0
 23 24  1  0  0  0  0
 23 45  1  0  0  0  0
 23 46  1  0  0  0  0
 24 25  1  0  0  0  0
 24 47  1  0  0  0  0
 24 48  1  0  0  0  0
 26 27  1  0  0  0  0
 26 49  1  0  0  0  0
 26 50  1  0  0  0  0
 27 29  1  0  0  0  0
M  END
> <s_m_source_file>
AV-unprocessed.smi

> <i_m_source_file_index>
278

> <i_lp_mmshare_version>
43012

> <i_f3d_flags>
0

> <s_epik_input>
W0NIMl0xW0NIMl1TKD1PKSg9TylbQ0BASF0oW0NAQEhdMTIpW0NIMl1OKFtDSDJdMiljKG5bY0hdbjMpYyhjMzQpbltjSF1uNFtDSDJdW0NASF0oW09IXSlbQ0BASF01W0NIMl1bQ0gyXVtDSDJdTzU=

> <s_epik_cmdline>
J2VwaWtfcHl0aG9uJywgJy1waCcsICc3LjAnLCAnLXRuJywgJzgnLCAnLW1hJywgJzIwMCcsICctbWV0YWxfYmluZGluZycsICctaW1hZScsICc8aW5maWxlLm1hZT4nLCAnLW9tYWUnLCAnPG91dGZpbGUubWFlPic=

> <r_lp_tautomer_probability>
1

> <r_epik_Ionization_Penalty>
0.000636766

> <r_epik_Ionization_Penalty_Charging>
0

> <r_epik_Ionization_Penalty_Neutral>
0.000636766

> <r_epik_State_Penalty>
0.000329976

> <r_epik_Charging_Adjusted_Penalty>
0.000329976

> <i_epik_Tot_Q>
0

> <i_epik_Tot_abs_Q>
0

> <r_epik_Metal_State_Penalty>
-0

> <b_epik_Metal_Only>
0

> <s_lp_Force_Field>
OPLS_2005

> <r_lp_Energy>
54.1016

> <b_lp_Chiralities_Consistent>
1

> <s_lp_Variant>
AV-unprocessed.smi:278-4

> <Gold.Version>
5.8.1

> <Gold.Id.Protein>
6NUR|6NUR_protein|mol2

> <Gold.PLP.Fitness>
45.5743

> <Gold.PLP.PLP>
-38.5129

> <Gold.PLP.part.hbond>
-2.0000

> <Gold.PLP.part.metal>
0.0000

> <Gold.PLP.part.buried>
-7.6538

> <Gold.PLP.part.nonpolar>
-30.0848

> <Gold.PLP.part.repulsive>
0.5514

> <Gold.PLP.ligand.clash>
0.0000

> <Gold.PLP.ligand.torsion>
0.8156

> <Gold.PLP.Chemscore.Hbond>
1.8647

> <Gold.PLP.Chemscore.CHOScore>
1.0089

> <Gold.PLP.Chemscore.Metal>
0.0000

> <Gold.Chemscore.Hbonds>
donor molecule, donor type, donor heavy atom, donor atom, acceptor molecule, acceptor atom, score
      P1  H  6896  6907       L1    15  0.29
      P1  H  7997  8009       L1    20  0.59
      P1  H 10752 10763       L1    10  0.20
      L1  C    11    36       P1  7949  0.79

> <Gold.PLP.Chemscore.Internal.Correction>
0.0717

> <Gold.Rescore>
     Score         DG    S(hbond)    S(metal)    S(lipo)     H(rot)  DE(clash)    DE(int)     intcor
     14.37     -14.91       1.72        0.00      85.35       2.46       0.00       0.53       ----

> <Gold.Chemscore.Fitness>
14.3700

> <Gold.Chemscore.DG>
-14.9059

> <Gold.Chemscore.ZeroCoef>
-5.4800

> <Gold.Chemscore.Hbond>
1.7205

> <Gold.Chemscore.Metal>
0.0000

> <Gold.Chemscore.Lipo>
85.3512

> <Gold.Chemscore.Internal_Hbond>
0.0000

> <Gold.Chemscore.DEClash>
0.0015

> <Gold.Chemscore.DEInternal>
0.5344

> <Gold.Chemscore.Rot>
2.4636

> <Gold.Chemscore.Internal.Correction>
   9.000000E+99

> <Gold.Chemscore.Hbonds>
donor molecule, donor type, donor heavy atom, donor atom, acceptor molecule, acceptor atom, score
      P1  H  6896  6907       L1    15  0.27
      P1  H  7997  8009       L1    20  0.26

> <Gold.Chemscore.Hbond.Weighted>
-5.7466

> <Gold.Chemscore.Metal.Weighted>
-0.0000

> <Gold.Chemscore.Lipo.Weighted>
-9.9861

> <Gold.Chemscore.Internal_Hbond.Weighted>
0.0000

> <Gold.Chemscore.DEClash.Weighted>
0.0015

> <Gold.Chemscore.DEInternal.Weighted>
0.5344

> <Gold.Chemscore.Rot.Weighted>
6.3068

> <Gold.Chemscore.Internal.Correction.Weighted>
   9.000000E+99

> <Gold.Protein.RotatedTorsions>
[ 6907 6896 6895 6894 ] final  -27.23 input  -60.11 | X-H torsion
[ 7974 7965 7964 7962 ] final -113.01 input  175.53 | X-H torsion
[ 8008 7997 7996 7995 ] final  119.74 input   59.86 | X-H torsion
[ 10167 10162 10161 10158 ] final   96.20 input  -65.29 | X-H torsion
[ 10718 10713 10712 10709 ] final  163.97 input   66.30 | X-H torsion
[ 10763 10752 10751 10750 ] final   55.64 input  -60.55 | X-H torsion
[ 11005 11000 10999 10996 ] final  137.65 input  -57.11 | X-H torsion

> <Gold.Protein.ActiveResidues>
 VAL166  LYS551  ARG553  GLY616  TRP617  ASP618  TYR619  PRO620  LYS621  CYS622 
 ASP623  PHE694  ASN695  SER759  ASP760  ASP761  ALA762  ILE779  LEU786  VAL792 
 PHE793  MET794  SER795  GLU796  ALA797  LYS798  CYS799  TRP800  GLU811  SER814 

> <Gold.Protein.RotatedAtoms>
  151.1498  135.0221  159.8662 H   0  0  0  0  0  0  0  0  0  0  0  0  # atno 6907 bound_to 6896
  152.5453  134.1402  159.8485 H   0  0  0  0  0  0  0  0  0  0  0  0  # atno 6908 bound_to 6896
  151.1486  133.4877  159.2628 H   0  0  0  0  0  0  0  0  0  0  0  0  # atno 6909 bound_to 6896
  145.1372  140.8757  143.3723 H   0  0  0  0  0  0  0  0  0  0  0  0  # atno 7974 bound_to 7965
  156.2610  140.2846  156.1039 H   0  0  0  0  0  0  0  0  0  0  0  0  # atno 8008 bound_to 7997
  155.1330  140.0394  157.2797 H   0  0  0  0  0  0  0  0  0  0  0  0  # atno 8009 bound_to 7997
  154.6586  140.2561  155.7140 H   0  0  0  0  0  0  0  0  0  0  0  0  # atno 8010 bound_to 7997
  139.7917  144.6849  150.9883 H   0  0  0  0  0  0  0  0  0  0  0  0  # atno 10167 bound_to 10162
  157.1010  131.0443  151.2498 H   0  0  0  0  0  0  0  0  0  0  0  0  # atno 10718 bound_to 10713
  152.9820  135.5704  154.5100 H   0  0  0  0  0  0  0  0  0  0  0  0  # atno 10763 bound_to 10752
  154.4605  135.2781  155.1718 H   0  0  0  0  0  0  0  0  0  0  0  0  # atno 10764 bound_to 10752
  154.3308  135.6250  153.5604 H   0  0  0  0  0  0  0  0  0  0  0  0  # atno 10765 bound_to 10752
  140.0129  134.9431  157.0315 H   0  0  0  0  0  0  0  0  0  0  0  0  # atno 11005 bound_to 11000
  145.0572  139.3134  143.5899 LP  0  0  0  0  0  0  0  0  0  0  0  0  # atno 17320 bound_to 7965
  146.3508  140.0001  142.8677 LP  0  0  0  0  0  0  0  0  0  0  0  0  # atno 17321 bound_to 7965
  140.7820  143.4374  151.0603 LP  0  0  0  0  0  0  0  0  0  0  0  0  # atno 17342 bound_to 10162
  139.8050  143.8030  152.3166 LP  0  0  0  0  0  0  0  0  0  0  0  0  # atno 17343 bound_to 10162
  157.4640  130.7670  149.7262 LP  0  0  0  0  0  0  0  0  0  0  0  0  # atno 17370 bound_to 10713
  155.9873  130.3967  150.3169 LP  0  0  0  0  0  0  0  0  0  0  0  0  # atno 17371 bound_to 10713
  140.4523  134.1570  155.7183 LP  0  0  0  0  0  0  0  0  0  0  0  0  # atno 17394 bound_to 11000
  141.1723  133.8584  157.1532 LP  0  0  0  0  0  0  0  0  0  0  0  0  # atno 17395 bound_to 11000

$$$$
