AV-unprocessed.smi:243|AV-procd|sdf|1849|dock2
  -GOLD-   2262020473D 1   1.00000     0.00000
 Structure written by MMmdl.
 58 61  0  0  0  0  0  0  0  0  2 V2000
  144.2233  132.8985  149.8872 C   0  0  0  0  0  0  0  0  0  0  0  0
  143.4294  132.3840  151.0970 C   0  0  0  0  0  0  0  0  0  0  0  0
  143.6531  133.1993  152.3181 N   0  3  1  0  0  0  0  0  0  0  0  0
  145.0821  133.2133  152.7225 C   0  0  0  0  0  0  0  0  0  0  0  0
  145.3017  133.9691  154.0479 C   0  0  0  0  0  0  0  0  0  0  0  0
  144.6426  135.3633  154.1073 C   0  0  1  0  0  0  0  0  0  0  0  0
  145.4792  136.4412  153.5479 N   0  0  0  0  0  0  0  0  0  0  0  0
  145.5187  136.8001  152.1329 C   0  0  0  0  0  0  0  0  0  0  0  0
  146.0851  137.2934  154.4143 C   0  0  0  0  0  0  0  0  0  0  0  0
  145.9918  137.0362  155.7453 N   0  0  0  0  0  0  0  0  0  0  0  0
  146.5811  137.8435  156.6320 C   0  0  0  0  0  0  0  0  0  0  0  0
  147.2989  138.9453  156.4084 N   0  0  0  0  0  0  0  0  0  0  0  0
  147.3910  139.2147  155.0748 C   0  0  0  0  0  0  0  0  0  0  0  0
  146.8242  138.4462  154.0183 C   0  0  0  0  0  0  0  0  0  0  0  0
  147.1273  139.0339  152.7949 N   0  0  0  0  0  0  0  0  0  0  0  0
  147.8417  140.0791  153.1093 C   0  0  0  0  0  0  0  0  0  0  0  0
  148.0385  140.2712  154.4578 N   0  0  0  0  0  0  0  0  0  0  0  0
  148.7867  141.3505  155.0826 C   0  0  0  0  0  0  0  0  0  0  0  0
  150.0957  140.8905  155.7738 C   0  0  1  0  0  0  0  0  0  0  0  0
  150.8963  140.1723  154.8546 O   0  0  0  0  0  0  0  0  0  0  0  0
  150.8887  142.0611  156.3323 C   0  0  0  0  0  0  0  0  0  0  0  0
  150.2597  142.2779  157.7077 C   0  0  0  0  0  0  0  0  0  0  0  0
  149.7083  141.0218  158.0941 O   0  0  0  0  0  0  0  0  0  0  0  0
  149.8822  140.0691  157.0511 C   0  0  0  0  0  0  0  0  0  0  0  0
  143.1938  135.3141  153.5641 C   0  0  1  0  0  0  0  0  0  0  0  0
  142.5008  136.6874  153.5390 C   0  0  0  0  0  0  0  0  0  0  0  0
  143.0938  134.5729  152.2165 C   0  0  0  0  0  0  0  0  0  0  0  0
  143.9542  132.3414  148.9895 H   0  0  0  0  0  0  0  0  0  0  0  0
  145.2987  132.7872  150.0228 H   0  0  0  0  0  0  0  0  0  0  0  0
  144.0134  133.9513  149.6962 H   0  0  0  0  0  0  0  0  0  0  0  0
  142.3712  132.4162  150.8335 H   0  0  0  0  0  0  0  0  0  0  0  0
  143.6649  131.3374  151.2959 H   0  0  0  0  0  0  0  0  0  0  0  0
  145.4267  132.1869  152.8528 H   0  0  0  0  0  0  0  0  0  0  0  0
  145.6869  133.6277  151.9191 H   0  0  0  0  0  0  0  0  0  0  0  0
  144.8724  133.3630  154.8467 H   0  0  0  0  0  0  0  0  0  0  0  0
  146.3663  134.0411  154.2740 H   0  0  0  0  0  0  0  0  0  0  0  0
  144.5255  135.5766  155.1703 H   0  0  0  0  0  0  0  0  0  0  0  0
  146.3881  137.4203  151.9108 H   0  0  0  0  0  0  0  0  0  0  0  0
  144.6282  137.3604  151.8496 H   0  0  0  0  0  0  0  0  0  0  0  0
  145.5940  135.9263  151.4938 H   0  0  0  0  0  0  0  0  0  0  0  0
  146.4606  137.5677  157.6694 H   0  0  0  0  0  0  0  0  0  0  0  0
  148.2407  140.7488  152.3612 H   0  0  0  0  0  0  0  0  0  0  0  0
  149.0086  142.0963  154.3182 H   0  0  0  0  0  0  0  0  0  0  0  0
  148.1295  141.8412  155.8013 H   0  0  0  0  0  0  0  0  0  0  0  0
  150.9761  139.2809  155.1576 H   0  0  0  0  0  0  0  0  0  0  0  0
  151.9363  141.7836  156.4620 H   0  0  0  0  0  0  0  0  0  0  0  0
  150.8581  142.9506  155.7023 H   0  0  0  0  0  0  0  0  0  0  0  0
  150.9864  142.6322  158.4392 H   0  0  0  0  0  0  0  0  0  0  0  0
  149.4534  143.0097  157.6532 H   0  0  0  0  0  0  0  0  0  0  0  0
  149.0521  139.3665  156.9997 H   0  0  0  0  0  0  0  0  0  0  0  0
  150.7781  139.4918  157.2857 H   0  0  0  0  0  0  0  0  0  0  0  0
  142.6276  134.7113  154.2765 H   0  0  0  0  0  0  0  0  0  0  0  0
  142.9441  137.3529  152.7989 H   0  0  0  0  0  0  0  0  0  0  0  0
  142.5688  137.1784  154.5102 H   0  0  0  0  0  0  0  0  0  0  0  0
  141.4428  136.5873  153.2957 H   0  0  0  0  0  0  0  0  0  0  0  0
  143.5999  135.1205  151.4224 H   0  0  0  0  0  0  0  0  0  0  0  0
  142.0440  134.5205  151.9305 H   0  0  0  0  0  0  0  0  0  0  0  0
  143.1558  132.7361  153.0654 H   0  0  0  0  0  0  0  0  0  0  0  0
  1  2  1  0  0  0  0
  1 28  1  0  0  0  0
  1 29  1  0  0  0  0
  1 30  1  0  0  0  0
  2  3  1  0  0  0  0
  2 31  1  0  0  0  0
  2 32  1  0  0  0  0
  3 27  1  0  0  0  0
  3  4  1  0  0  0  0
  3 58  1  0  0  0  0
  4  5  1  0  0  0  0
  4 33  1  0  0  0  0
  4 34  1  0  0  0  0
  5  6  1  0  0  0  0
  5 35  1  0  0  0  0
  5 36  1  0  0  0  0
  6  7  1  0  0  0  0
  6 25  1  0  0  0  0
  6 37  1  0  0  0  0
  7  8  1  0  0  0  0
  7  9  1  0  0  0  0
  8 38  1  0  0  0  0
  8 39  1  0  0  0  0
  8 40  1  0  0  0  0
  9 14  1  0  0  0  0
  9 10  2  0  0  0  0
 10 11  1  0  0  0  0
 11 12  2  0  0  0  0
 11 41  1  0  0  0  0
 12 13  1  0  0  0  0
 13 17  1  0  0  0  0
 13 14  2  0  0  0  0
 14 15  1  0  0  0  0
 15 16  2  0  0  0  0
 16 17  1  0  0  0  0
 16 42  1  0  0  0  0
 17 18  1  0  0  0  0
 18 19  1  0  0  0  0
 18 43  1  0  0  0  0
 18 44  1  0  0  0  0
 19 24  1  0  0  0  0
 19 20  1  0  0  0  0
 19 21  1  0  0  0  0
 20 45  1  0  0  0  0
 21 22  1  0  0  0  0
 21 46  1  0  0  0  0
 21 47  1  0  0  0  0
 22 23  1  0  0  0  0
 22 48  1  0  0  0  0
 22 49  1  0  0  0  0
 23 24  1  0  0  0  0
 24 50  1  0  0  0  0
 24 51  1  0  0  0  0
 25 26  1  0  0  0  0
 25 27  1  0  0  0  0
 25 52  1  0  0  0  0
 26 53  1  0  0  0  0
 26 54  1  0  0  0  0
 26 55  1  0  0  0  0
 27 56  1  0  0  0  0
 27 57  1  0  0  0  0
M  CHG  1   3   1
M  END
> <s_m_source_file>
AV-unprocessed.smi

> <i_m_source_file_index>
243

> <i_lp_mmshare_version>
43012

> <i_f3d_flags>
0

> <s_epik_input>
W0NIM11bQ0gyXU4xW0NIMl1bQ0gyXVtDQEhdKFtDQEBIXShbQ0gzXSlbQ0gyXTEpTihbQ0gzXSljKG5bY0hdbjIpYyhjMjMpbltjSF1uM1tDSDJdW0NAQF00KFtPSF0pW0NIMl1bQ0gyXU9bQ0gyXTQ=

> <s_epik_cmdline>
J2VwaWtfcHl0aG9uJywgJy1waCcsICc3LjAnLCAnLXRuJywgJzgnLCAnLW1hJywgJzIwMCcsICctbWV0YWxfYmluZGluZycsICctaW1hZScsICc8aW5maWxlLm1hZT4nLCAnLW9tYWUnLCAnPG91dGZpbGUubWFlPic=

> <r_lp_tautomer_probability>
1

> <r_epik_Ionization_Penalty>
0.00253099

> <r_epik_Ionization_Penalty_Charging>
0.00137877

> <r_epik_Ionization_Penalty_Neutral>
0.00115221

> <r_epik_State_Penalty>
-0

> <r_epik_Charging_Adjusted_Penalty>
0.00137877

> <i_epik_Tot_Q>
1

> <i_epik_Tot_abs_Q>
1

> <r_epik_Metal_State_Penalty>
-0

> <b_epik_Metal_Only>
0

> <s_lp_Force_Field>
OPLS_2005

> <r_lp_Energy>
52.4655

> <b_lp_Chiralities_Consistent>
1

> <s_lp_Variant>
AV-unprocessed.smi:243-2

> <Gold.Version>
5.8.1

> <Gold.Id.Protein>
6NUR|6NUR_protein|mol2

> <Gold.PLP.Fitness>
42.0969

> <Gold.PLP.PLP>
-31.8384

> <Gold.PLP.part.hbond>
-1.9803

> <Gold.PLP.part.metal>
0.0000

> <Gold.PLP.part.buried>
-5.1230

> <Gold.PLP.part.nonpolar>
-26.5223

> <Gold.PLP.part.repulsive>
0.3052

> <Gold.PLP.ligand.clash>
0.0000

> <Gold.PLP.ligand.torsion>
0.5178

> <Gold.PLP.Chemscore.Hbond>
3.0000

> <Gold.PLP.Chemscore.CHOScore>
0.6685

> <Gold.PLP.Chemscore.Metal>
0.0000

> <Gold.Chemscore.Hbonds>
donor molecule, donor type, donor heavy atom, donor atom, acceptor molecule, acceptor atom, score
      L1  H     3    58       P1 10957  2.00
      P1  H  7989  7998       L1    20  1.00
      L1  C    16    42       P1  7957  0.59

> <Gold.PLP.Chemscore.Internal.Correction>
0.2884

> <Gold.Rescore>
     Score         DG    S(hbond)    S(metal)    S(lipo)     H(rot)  DE(clash)    DE(int)     intcor
     10.75     -14.70       1.85        0.00      74.91       2.24       0.78       3.17       ----

> <Gold.Chemscore.Fitness>
10.7521

> <Gold.Chemscore.DG>
-14.6989

> <Gold.Chemscore.ZeroCoef>
-5.4800

> <Gold.Chemscore.Hbond>
1.8514

> <Gold.Chemscore.Metal>
0.0000

> <Gold.Chemscore.Lipo>
74.9092

> <Gold.Chemscore.Internal_Hbond>
0.0000

> <Gold.Chemscore.DEClash>
0.7803

> <Gold.Chemscore.DEInternal>
3.1665

> <Gold.Chemscore.Rot>
2.2379

> <Gold.Chemscore.Internal.Correction>
   9.000000E+99

> <Gold.Chemscore.Hbonds>
donor molecule, donor type, donor heavy atom, donor atom, acceptor molecule, acceptor atom, score
      L1  H     3    58       P1 10957  0.28
      P1  H  7989  7998       L1    20  0.99

> <Gold.Chemscore.Hbond.Weighted>
-6.1836

> <Gold.Chemscore.Metal.Weighted>
-0.0000

> <Gold.Chemscore.Lipo.Weighted>
-8.7644

> <Gold.Chemscore.Internal_Hbond.Weighted>
0.0000

> <Gold.Chemscore.DEClash.Weighted>
0.7803

> <Gold.Chemscore.DEInternal.Weighted>
3.1665

> <Gold.Chemscore.Rot.Weighted>
5.7291

> <Gold.Chemscore.Internal.Correction.Weighted>
   9.000000E+99

> <Gold.Protein.RotatedTorsions>
[ 6907 6896 6895 6894 ] final  -55.03 input  -60.11 | X-H torsion
[ 7974 7965 7964 7962 ] final  119.34 input  175.53 | X-H torsion
[ 8008 7997 7996 7995 ] final  -39.82 input   59.86 | X-H torsion
[ 10167 10162 10161 10158 ] final  122.86 input  -65.29 | X-H torsion
[ 10718 10713 10712 10709 ] final   50.51 input   66.30 | X-H torsion
[ 10763 10752 10751 10750 ] final -135.91 input  -60.55 | X-H torsion
[ 11005 11000 10999 10996 ] final -106.68 input  -57.11 | X-H torsion

> <Gold.Protein.ActiveResidues>
 VAL166  LYS551  ARG553  GLY616  TRP617  ASP618  TYR619  PRO620  LYS621  CYS622 
 ASP623  PHE694  ASN695  SER759  ASP760  ASP761  ALA762  ILE779  LEU786  VAL792 
 PHE793  MET794  SER795  GLU796  ALA797  LYS798  CYS799  TRP800  GLU811  SER814 

> <Gold.Protein.RotatedAtoms>
  150.8287  134.7530  159.6834 H   0  0  0  0  0  0  0  0  0  0  0  0  # atno 6907 bound_to 6896
  152.4394  134.5618  159.9906 H   0  0  0  0  0  0  0  0  0  0  0  0  # atno 6908 bound_to 6896
  151.5784  133.3343  159.3039 H   0  0  0  0  0  0  0  0  0  0  0  0  # atno 6909 bound_to 6896
  145.1443  139.3249  143.4600 H   0  0  0  0  0  0  0  0  0  0  0  0  # atno 7974 bound_to 7965
  154.4018  140.1541  156.2926 H   0  0  0  0  0  0  0  0  0  0  0  0  # atno 8008 bound_to 7997
  155.8772  140.3446  155.5840 H   0  0  0  0  0  0  0  0  0  0  0  0  # atno 8009 bound_to 7997
  155.7708  140.0830  157.2099 H   0  0  0  0  0  0  0  0  0  0  0  0  # atno 8010 bound_to 7997
  139.5834  144.6996  151.3471 H   0  0  0  0  0  0  0  0  0  0  0  0  # atno 10167 bound_to 10162
  157.4892  130.8365  149.8182 H   0  0  0  0  0  0  0  0  0  0  0  0  # atno 10718 bound_to 10713
  154.8694  135.3689  154.4975 H   0  0  0  0  0  0  0  0  0  0  0  0  # atno 10763 bound_to 10752
  153.5618  135.7022  153.5549 H   0  0  0  0  0  0  0  0  0  0  0  0  # atno 10764 bound_to 10752
  153.3621  135.4044  155.1689 H   0  0  0  0  0  0  0  0  0  0  0  0  # atno 10765 bound_to 10752
  141.0992  133.8914  157.1885 H   0  0  0  0  0  0  0  0  0  0  0  0  # atno 11005 bound_to 11000
  146.3502  140.1492  142.8593 LP  0  0  0  0  0  0  0  0  0  0  0  0  # atno 17320 bound_to 7965
  145.0499  140.9010  143.5002 LP  0  0  0  0  0  0  0  0  0  0  0  0  # atno 17321 bound_to 7965
  140.7109  143.7393  150.7565 LP  0  0  0  0  0  0  0  0  0  0  0  0  # atno 17342 bound_to 10162
  140.0931  143.4859  152.2467 LP  0  0  0  0  0  0  0  0  0  0  0  0  # atno 17343 bound_to 10162
  156.0164  130.3812  150.2099 LP  0  0  0  0  0  0  0  0  0  0  0  0  # atno 17370 bound_to 10713
  157.0287  131.0001  151.3318 LP  0  0  0  0  0  0  0  0  0  0  0  0  # atno 17371 bound_to 10713
  139.9838  135.0089  156.9814 LP  0  0  0  0  0  0  0  0  0  0  0  0  # atno 17394 bound_to 11000
  140.5063  134.1046  155.7261 LP  0  0  0  0  0  0  0  0  0  0  0  0  # atno 17395 bound_to 11000

$$$$
