#       Name:                AV-unprocessed.smi:1152
#       Creating user name   scv26
#       Creation time:       Fri Mar 27 03:47:19 2020


#       File generated by GOLD software.
#

@<TRIPOS>MOLECULE
AV-unprocessed.smi:1152
    36    37     1
SMALL
NO_CHARGES


@<TRIPOS>ATOM
      1 ****        -6.6494   2.0863   0.0005 C.3            1 S1                 0.0000
      2 ****        -5.5805   1.0981   0.0010 N.am           1 S1                 0.0000
      3 ****        -4.2707   1.3803  -0.0000 C.2            1 S1                 0.0000
      4 ****        -3.9078   2.5583  -0.0017 O.2            1 S1                 0.0000
      5 ****        -3.4858   0.2723   0.0011 N.pl3          1 S1                -1.0000
      6 ****        -2.1336   0.2674   0.0005 C.2            1 S1                 0.0000
      7 ****        -1.3314   1.3481   0.0008 N.2            1 S1                 0.0000
      8 ****         0.0191   1.0379   0.0003 N.2            1 S1                 0.0000
      9 ****         0.2327  -0.2797  -0.0002 C.2            1 S1                 0.0000
     10 ****         1.6003  -0.8882  -0.0003 C.3            1 S1                 0.0000
     11 ****         2.3952  -0.5563   1.2776 C.3            1 S1                 0.0000
     12 ****         3.7778  -1.2289   1.2683 C.3            1 S1                 0.0000
     13 ****         4.5673  -0.8673  -0.0003 C.3            1 S1                 0.0000
     14 ****         3.7778  -1.2287  -1.2689 C.3            1 S1                 0.0000
     15 ****         2.3952  -0.5561  -1.2781 C.3            1 S1                 0.0000
     16 ****        -1.2311  -1.2476  -0.0005 S.3            1 S1                 0.0000
     17 ****        -7.6174   1.5857   0.0010 H              1 S1                 0.0000
     18 ****        -6.5923   2.7188  -0.8863 H              1 S1                 0.0000
     19 ****        -6.5919   2.7200   0.8863 H              1 S1                 0.0000
     20 ****        -5.8505   0.1254   0.0022 H              1 S1                 0.0000
     21 ****         1.4492  -1.9688  -0.0004 H              1 S1                 0.0000
     22 ****         2.5194   0.5239   1.3653 H              1 S1                 0.0000
     23 ****         1.8376  -0.8764   2.1585 H              1 S1                 0.0000
     24 ****         4.3403  -0.9323   2.1539 H              1 S1                 0.0000
     25 ****         3.6579  -2.3115   1.3270 H              1 S1                 0.0000
     26 ****         4.7906   0.2003  -0.0002 H              1 S1                 0.0000
     27 ****         5.5272  -1.3844  -0.0003 H              1 S1                 0.0000
     28 ****         4.3403  -0.9320  -2.1545 H              1 S1                 0.0000
     29 ****         3.6578  -2.3113  -1.3278 H              1 S1                 0.0000
     30 ****         1.8376  -0.8760  -2.1591 H              1 S1                 0.0000
     31 ****         2.5194   0.5242  -1.3656 H              1 S1                 0.0000
     32 ****        -4.5882   3.2911  -0.0023 LP             1 S1                 0.0000
     33 ****        -2.9330   2.7811  -0.0025 LP             1 S1                 0.0000
     34 ****        -3.9467  -0.6152   0.0025 LP             1 S1                 0.0000
     35 ****        -1.6773   2.2863   0.0013 LP             1 S1                 0.0000
     36 ****         0.7488   1.7216   0.0003 LP             1 S1                 0.0000
@<TRIPOS>BOND
    1    1    2 1     
    2    1   17 1     
    3    1   18 1     
    4    1   19 1     
    5    2    3 am    
    6    2   20 1     
    7    3    4 2     
    8    3    5 1     
    9    5    6 1     
   10    6   16 1     
   11    6    7 2     
   12    7    8 1     
   13    8    9 2     
   14    9   10 1     
   15    9   16 1     
   16   10   15 1     
   17   10   11 1     
   18   10   21 1     
   19   11   12 1     
   20   11   22 1     
   21   11   23 1     
   22   12   13 1     
   23   12   24 1     
   24   12   25 1     
   25   13   14 1     
   26   13   26 1     
   27   13   27 1     
   28   14   15 1     
   29   14   28 1     
   30   14   29 1     
   31   15   30 1     
   32   15   31 1     
   33    4   32 1     
   34    4   33 1     
   35    5   34 1     
   36    7   35 1     
   37    8   36 1     
@<TRIPOS>SUBSTRUCTURE
      1 S1             1
@<TRIPOS>SET
LONE_PAIRS      STATIC     ATOMS    <user>   **** ""
5 32 33 34 35 36
DONOR_HYDROGENS      STATIC     ATOMS    <user>   **** ""
1 20
ATOM$BLUE        STATIC     ATOMS    COLORGROUP SYSTEM
5 32 33 34 35 36
ATOM$RED        STATIC     ATOMS    COLORGROUP SYSTEM
1 20
