AV-unprocessed.smi:2134|AV-procd|sdf|8697|dock3
  -GOLD-   2272011453D 1   1.00000     0.00000
 Structure written by MMmdl.
 35 36  0  0  0  0  0  0  0  0  3 V2000
  155.4308  138.9840  160.4123 C   0  0  0  0  0  0  0  0  0  0  0  0
  154.3254  139.9294  160.2598 N   0  0  0  0  0  0  0  0  0  0  0  0
  153.6210  139.7672  159.0854 N   0  0  0  0  0  0  0  0  0  0  0  0
  152.4776  140.3416  158.8744 C   0  0  0  0  0  0  0  0  0  0  0  0
  151.7542  140.0914  157.5926 C   0  0  0  0  0  0  0  0  0  0  0  0
  150.5502  140.3742  157.6005 O   0  0  0  0  0  0  0  0  0  0  0  0
  152.4544  139.5714  156.5408 N   0  5  0  0  0  0  0  0  0  0  0  0
  151.9855  139.5139  155.1562 C   0  0  0  0  0  0  0  0  0  0  0  0
  150.5295  139.0002  155.1196 C   0  0  0  0  0  0  0  0  0  0  0  0
  149.5013  140.0544  154.7207 C   0  0  0  0  0  0  0  0  0  0  0  0
  148.4118  139.7245  153.8819 C   0  0  0  0  0  0  0  0  0  0  0  0
  147.4838  140.7247  153.5245 C   0  0  0  0  0  0  0  0  0  0  0  0
  147.6627  142.0343  154.0148 C   0  0  0  0  0  0  0  0  0  0  0  0
  148.7112  142.3141  154.8192 N   0  3  0  0  0  0  0  0  0  0  0  0
  149.6188  141.3844  155.1872 C   0  0  0  0  0  0  0  0  0  0  0  0
  151.8579  141.2260  159.9404 C   0  0  0  0  0  0  0  0  0  0  0  0
  152.9214  141.8540  160.8619 C   0  0  0  0  0  0  0  0  0  0  0  0
  154.0536  140.8775  161.1926 C   0  0  0  0  0  0  0  0  0  0  0  0
  154.6695  141.0020  162.2511 O   0  0  0  0  0  0  0  0  0  0  0  0
  156.0271  139.1431  161.3115 H   0  0  0  0  0  0  0  0  0  0  0  0
  156.1060  139.0549  159.5587 H   0  0  0  0  0  0  0  0  0  0  0  0
  155.0456  137.9644  160.4504 H   0  0  0  0  0  0  0  0  0  0  0  0
  152.0238  140.4886  154.6677 H   0  0  0  0  0  0  0  0  0  0  0  0
  152.6077  138.8517  154.5537 H   0  0  0  0  0  0  0  0  0  0  0  0
  150.4617  138.1683  154.4179 H   0  0  0  0  0  0  0  0  0  0  0  0
  150.2563  138.5900  156.0930 H   0  0  0  0  0  0  0  0  0  0  0  0
  148.2935  138.7172  153.5096 H   0  0  0  0  0  0  0  0  0  0  0  0
  146.6499  140.4906  152.8794 H   0  0  0  0  0  0  0  0  0  0  0  0
  147.0050  142.8605  153.7882 H   0  0  0  0  0  0  0  0  0  0  0  0
  150.4197  141.7312  155.8244 H   0  0  0  0  0  0  0  0  0  0  0  0
  151.2831  142.0337  159.4860 H   0  0  0  0  0  0  0  0  0  0  0  0
  151.1529  140.6387  160.5298 H   0  0  0  0  0  0  0  0  0  0  0  0
  153.3682  142.7187  160.3701 H   0  0  0  0  0  0  0  0  0  0  0  0
  152.4595  142.2185  161.7799 H   0  0  0  0  0  0  0  0  0  0  0  0
  148.8258  143.2684  155.1606 H   0  0  0  0  0  0  0  0  0  0  0  0
  1  2  1  0  0  0  0
  1 20  1  0  0  0  0
  1 21  1  0  0  0  0
  1 22  1  0  0  0  0
  2 18  1  0  0  0  0
  2  3  1  0  0  0  0
  3  4  2  0  0  0  0
  4  5  1  0  0  0  0
  4 16  1  0  0  0  0
  5  6  2  0  0  0  0
  5  7  1  0  0  0  0
  7  8  1  0  0  0  0
  8  9  1  0  0  0  0
  8 23  1  0  0  0  0
  8 24  1  0  0  0  0
  9 10  1  0  0  0  0
  9 25  1  0  0  0  0
  9 26  1  0  0  0  0
 10 15  1  0  0  0  0
 10 11  2  0  0  0  0
 11 12  1  0  0  0  0
 11 27  1  0  0  0  0
 12 13  2  0  0  0  0
 12 28  1  0  0  0  0
 13 14  1  0  0  0  0
 13 29  1  0  0  0  0
 14 15  2  0  0  0  0
 14 35  1  0  0  0  0
 15 30  1  0  0  0  0
 16 17  1  0  0  0  0
 16 31  1  0  0  0  0
 16 32  1  0  0  0  0
 17 18  1  0  0  0  0
 17 33  1  0  0  0  0
 17 34  1  0  0  0  0
 18 19  2  0  0  0  0
M  CHG  1   7  -1
M  CHG  1  14   1
M  END
> <s_m_source_file>
AV-unprocessed.smi

> <i_m_source_file_index>
2134

> <i_lp_mmshare_version>
43012

> <i_f3d_flags>
0

> <s_epik_input>
Tz1DMVtDSDJdW0NIMl1DKD1OTjFbQ0gzXSlDKD1PKVtOSF1bQ0gyXVtDSDJdYzJbY0hdW2NIXVtjSF1uW2NIXTI=

> <s_epik_cmdline>
J2VwaWtfcHl0aG9uJywgJy1waCcsICc3LjAnLCAnLXRuJywgJzgnLCAnLW1hJywgJzIwMCcsICctbWV0YWxfYmluZGluZycsICctaW1hZScsICc8aW5maWxlLm1hZT4nLCAnLW9tYWUnLCAnPG91dGZpbGUubWFlPic=

> <r_epik_Ionization_Penalty>
7.05425

> <r_epik_Ionization_Penalty_Charging>
7.05425

> <r_epik_Ionization_Penalty_Neutral>
3.33049e-09

> <r_epik_State_Penalty>
7.67337

> <r_epik_Charging_Adjusted_Penalty>
14.7276

> <i_epik_Tot_Q>
0

> <i_epik_Tot_abs_Q>
2

> <r_epik_Metal_State_Penalty>
3.75463

> <b_epik_Metal_Only>
1

> <s_epik_Chemistry_Notes>
This compound has an imine and may undergo hydrolysis.

> <s_lp_Force_Field>
OPLS_2005

> <r_lp_Energy>
23.3893

> <b_lp_Chiralities_Consistent>
1

> <s_lp_Variant>
AV-unprocessed.smi:2134-4

> <Gold.Version>
5.8.1

> <Gold.Id.Protein>
6NUR|6NUR_protein|mol2

> <Gold.PLP.Fitness>
48.1588

> <Gold.PLP.PLP>
-37.9088

> <Gold.PLP.part.hbond>
-4.0000

> <Gold.PLP.part.metal>
0.0000

> <Gold.PLP.part.buried>
-2.4473

> <Gold.PLP.part.nonpolar>
-32.3075

> <Gold.PLP.part.repulsive>
0.2264

> <Gold.PLP.ligand.clash>
0.0000

> <Gold.PLP.ligand.torsion>
0.8925

> <Gold.PLP.Chemscore.Hbond>
4.0000

> <Gold.PLP.Chemscore.CHOScore>
0.0000

> <Gold.PLP.Chemscore.Metal>
0.0000

> <Gold.Chemscore.Hbonds>
donor molecule, donor type, donor heavy atom, donor atom, acceptor molecule, acceptor atom, score
      L1  H    14    35       P1  8028  1.95
      P1  H  7997  8009       L1     7  2.00

> <Gold.PLP.Chemscore.Internal.Correction>
0.0350

> <Gold.Rescore>
     Score         DG    S(hbond)    S(metal)    S(lipo)     H(rot)  DE(clash)    DE(int)     intcor
     11.27     -16.20       1.56        0.00      79.65       1.49       1.54       3.40       ----

> <Gold.Chemscore.Fitness>
11.2715

> <Gold.Chemscore.DG>
-16.2049

> <Gold.Chemscore.ZeroCoef>
-5.4800

> <Gold.Chemscore.Hbond>
1.5593

> <Gold.Chemscore.Metal>
0.0000

> <Gold.Chemscore.Lipo>
79.6539

> <Gold.Chemscore.Internal_Hbond>
0.0000

> <Gold.Chemscore.DEClash>
1.5377

> <Gold.Chemscore.DEInternal>
3.3956

> <Gold.Chemscore.Rot>
1.4854

> <Gold.Chemscore.Internal.Correction>
   9.000000E+99

> <Gold.Chemscore.Hbonds>
donor molecule, donor type, donor heavy atom, donor atom, acceptor molecule, acceptor atom, score
      L1  H    14    35       P1  8028  0.92
      P1  H  7997  8009       L1     7  0.56

> <Gold.Chemscore.Hbond.Weighted>
-5.2080

> <Gold.Chemscore.Metal.Weighted>
-0.0000

> <Gold.Chemscore.Lipo.Weighted>
-9.3195

> <Gold.Chemscore.Internal_Hbond.Weighted>
0.0000

> <Gold.Chemscore.DEClash.Weighted>
1.5377

> <Gold.Chemscore.DEInternal.Weighted>
3.3956

> <Gold.Chemscore.Rot.Weighted>
3.8026

> <Gold.Chemscore.Internal.Correction.Weighted>
   9.000000E+99

> <Gold.Protein.RotatedTorsions>
[ 6907 6896 6895 6894 ] final -132.29 input  -60.11 | X-H torsion
[ 7974 7965 7964 7962 ] final  163.79 input  175.53 | X-H torsion
[ 8008 7997 7996 7995 ] final  172.98 input   59.86 | X-H torsion
[ 10167 10162 10161 10158 ] final   -6.31 input  -65.29 | X-H torsion
[ 10718 10713 10712 10709 ] final   -6.97 input   66.30 | X-H torsion
[ 10763 10752 10751 10750 ] final -116.20 input  -60.55 | X-H torsion
[ 11005 11000 10999 10996 ] final  150.68 input  -57.11 | X-H torsion

> <Gold.Protein.ActiveResidues>
 VAL166  LYS551  ARG553  GLY616  TRP617  ASP618  TYR619  PRO620  LYS621  CYS622 
 ASP623  PHE694  ASN695  SER759  ASP760  ASP761  ALA762  ILE779  LEU786  VAL792 
 PHE793  MET794  SER795  GLU796  ALA797  LYS798  CYS799  TRP800  GLU811  SER814 

> <Gold.Protein.RotatedAtoms>
  150.9607  133.6448  159.2754 H   0  0  0  0  0  0  0  0  0  0  0  0  # atno 6907 bound_to 6896
  151.3772  135.0932  159.9494 H   0  0  0  0  0  0  0  0  0  0  0  0  # atno 6908 bound_to 6896
  152.5146  133.9149  159.7561 H   0  0  0  0  0  0  0  0  0  0  0  0  # atno 6909 bound_to 6896
  144.7574  139.8233  143.6345 H   0  0  0  0  0  0  0  0  0  0  0  0  # atno 7974 bound_to 7965
  156.1120  140.1472  156.9325 H   0  0  0  0  0  0  0  0  0  0  0  0  # atno 8008 bound_to 7997
  154.4774  140.0890  156.7338 H   0  0  0  0  0  0  0  0  0  0  0  0  # atno 8009 bound_to 7997
  155.4579  140.3437  155.4311 H   0  0  0  0  0  0  0  0  0  0  0  0  # atno 8010 bound_to 7997
  140.6993  143.6208  150.8614 H   0  0  0  0  0  0  0  0  0  0  0  0  # atno 10167 bound_to 10162
  156.7240  130.5159  149.5861 H   0  0  0  0  0  0  0  0  0  0  0  0  # atno 10718 bound_to 10713
  154.8510  135.4354  154.1783 H   0  0  0  0  0  0  0  0  0  0  0  0  # atno 10763 bound_to 10752
  153.2880  135.6959  153.7326 H   0  0  0  0  0  0  0  0  0  0  0  0  # atno 10764 bound_to 10752
  153.6505  135.3452  155.3073 H   0  0  0  0  0  0  0  0  0  0  0  0  # atno 10765 bound_to 10752
  140.1153  134.8898  157.1994 H   0  0  0  0  0  0  0  0  0  0  0  0  # atno 11005 bound_to 11000
  146.1599  139.4710  142.9995 LP  0  0  0  0  0  0  0  0  0  0  0  0  # atno 17320 bound_to 7965
  145.6734  141.0210  143.1645 LP  0  0  0  0  0  0  0  0  0  0  0  0  # atno 17321 bound_to 7965
  139.9929  143.5828  152.2904 LP  0  0  0  0  0  0  0  0  0  0  0  0  # atno 17342 bound_to 10162
  139.6489  144.7660  151.2187 LP  0  0  0  0  0  0  0  0  0  0  0  0  # atno 17343 bound_to 10162
  156.1575  130.6351  151.0675 LP  0  0  0  0  0  0  0  0  0  0  0  0  # atno 17370 bound_to 10713
  157.6886  131.0817  150.7172 LP  0  0  0  0  0  0  0  0  0  0  0  0  # atno 17371 bound_to 10713
  140.3037  134.3102  155.7283 LP  0  0  0  0  0  0  0  0  0  0  0  0  # atno 17394 bound_to 11000
  141.2139  133.7607  156.9677 LP  0  0  0  0  0  0  0  0  0  0  0  0  # atno 17395 bound_to 11000

$$$$
