AV-unprocessed.smi:1479|AV-procd|sdf|5984|dock2
  -GOLD-   22720 6 73D 1   1.00000     0.00000
 Structure written by MMmdl.
 41 42  0  0  0  0  0  0  0  0  2 V2000
  151.8561  132.6169  155.2726 C   0  0  0  0  0  0  0  0  0  0  0  0
  151.6518  134.2682  156.0606 S   0  0  0  0  0  0  0  0  0  0  0  0
  150.7470  134.1195  157.2098 O   0  0  0  0  0  0  0  0  0  0  0  0
  152.9895  134.8498  156.2494 O   0  0  0  0  0  0  0  0  0  0  0  0
  150.7677  135.2283  154.7554 C   0  0  0  0  0  0  0  0  0  0  0  0
  150.0170  136.4336  155.3383 C   0  0  0  0  0  0  0  0  0  0  0  0
  149.9089  137.5204  154.3461 N   0  3  0  0  0  0  0  0  0  0  0  0
  151.1755  138.2369  154.1014 C   0  0  0  0  0  0  0  0  0  0  0  0
  151.4343  139.2530  155.1939 C   0  0  0  0  0  0  0  0  0  0  0  0
  152.5373  139.1453  156.0642 C   0  0  0  0  0  0  0  0  0  0  0  0
  152.7572  140.0487  157.0420 N   0  0  0  0  0  0  0  0  0  0  0  0
  151.8941  141.0674  157.1634 C   0  0  0  0  0  0  0  0  0  0  0  0
  152.1302  142.0010  158.1810 N   0  0  0  0  0  0  0  0  0  0  0  0
  153.2264  141.8445  159.1404 C   0  0  0  0  0  0  0  0  0  0  0  0
  152.8537  142.4541  160.5024 C   0  0  0  0  0  0  0  0  0  0  0  0
  152.4698  143.8127  160.3333 O   0  0  0  0  0  0  0  0  0  0  0  0
  151.3234  143.9313  159.5006 C   0  0  0  0  0  0  0  0  0  0  0  0
  151.6373  143.3786  158.1003 C   0  0  0  0  0  0  0  0  0  0  0  0
  150.8211  141.2561  156.3820 N   0  0  0  0  0  0  0  0  0  0  0  0
  150.5877  140.3605  155.3999 C   0  0  0  0  0  0  0  0  0  0  0  0
  152.3183  131.9345  155.9861 H   0  0  0  0  0  0  0  0  0  0  0  0
  152.4958  132.6973  154.3947 H   0  0  0  0  0  0  0  0  0  0  0  0
  150.8816  132.2245  154.9830 H   0  0  0  0  0  0  0  0  0  0  0  0
  151.4977  135.5377  154.0069 H   0  0  0  0  0  0  0  0  0  0  0  0
  150.0699  134.5459  154.2687 H   0  0  0  0  0  0  0  0  0  0  0  0
  149.0143  136.1363  155.6477 H   0  0  0  0  0  0  0  0  0  0  0  0
  150.5311  136.8098  156.2227 H   0  0  0  0  0  0  0  0  0  0  0  0
  149.5866  137.1296  153.4722 H   0  0  0  0  0  0  0  0  0  0  0  0
  152.0020  137.5261  154.0630 H   0  0  0  0  0  0  0  0  0  0  0  0
  151.1351  138.7406  153.1345 H   0  0  0  0  0  0  0  0  0  0  0  0
  153.2411  138.3302  155.9823 H   0  0  0  0  0  0  0  0  0  0  0  0
  153.4891  140.7989  159.2972 H   0  0  0  0  0  0  0  0  0  0  0  0
  154.1130  142.3371  158.7400 H   0  0  0  0  0  0  0  0  0  0  0  0
  152.0459  141.8909  160.9725 H   0  0  0  0  0  0  0  0  0  0  0  0
  153.7075  142.4092  161.1786 H   0  0  0  0  0  0  0  0  0  0  0  0
  150.4782  143.4045  159.9462 H   0  0  0  0  0  0  0  0  0  0  0  0
  151.0425  144.9821  159.4331 H   0  0  0  0  0  0  0  0  0  0  0  0
  152.3989  143.9929  157.6188 H   0  0  0  0  0  0  0  0  0  0  0  0
  150.7365  143.4597  157.4930 H   0  0  0  0  0  0  0  0  0  0  0  0
  149.7176  140.5265  154.7819 H   0  0  0  0  0  0  0  0  0  0  0  0
  149.2236  138.1860  154.6748 H   0  0  0  0  0  0  0  0  0  0  0  0
  1  2  1  0  0  0  0
  1 21  1  0  0  0  0
  1 22  1  0  0  0  0
  1 23  1  0  0  0  0
  2  3  2  0  0  0  0
  2  4  2  0  0  0  0
  2  5  1  0  0  0  0
  5  6  1  0  0  0  0
  5 24  1  0  0  0  0
  5 25  1  0  0  0  0
  6  7  1  0  0  0  0
  6 26  1  0  0  0  0
  6 27  1  0  0  0  0
  7  8  1  0  0  0  0
  7 28  1  0  0  0  0
  7 41  1  0  0  0  0
  8  9  1  0  0  0  0
  8 29  1  0  0  0  0
  8 30  1  0  0  0  0
  9 20  1  0  0  0  0
  9 10  2  0  0  0  0
 10 11  1  0  0  0  0
 10 31  1  0  0  0  0
 11 12  2  0  0  0  0
 12 13  1  0  0  0  0
 12 19  1  0  0  0  0
 13 18  1  0  0  0  0
 13 14  1  0  0  0  0
 14 15  1  0  0  0  0
 14 32  1  0  0  0  0
 14 33  1  0  0  0  0
 15 16  1  0  0  0  0
 15 34  1  0  0  0  0
 15 35  1  0  0  0  0
 16 17  1  0  0  0  0
 17 18  1  0  0  0  0
 17 36  1  0  0  0  0
 17 37  1  0  0  0  0
 18 38  1  0  0  0  0
 18 39  1  0  0  0  0
 19 20  2  0  0  0  0
 20 40  1  0  0  0  0
M  CHG  1   7   1
M  END
> <s_m_source_file>
AV-unprocessed.smi

> <i_m_source_file_index>
1479

> <i_lp_mmshare_version>
43012

> <i_f3d_flags>
0

> <s_epik_input>
W0NIM11TKD1PKSg9TylbQ0gyXVtDSDJdW05IXVtDSDJdYzFbY0hdbmMobltjSF0xKU4yW0NIMl1bQ0gyXU9bQ0gyXVtDSDJdMg==

> <s_epik_cmdline>
J2VwaWtfcHl0aG9uJywgJy1waCcsICc3LjAnLCAnLXRuJywgJzgnLCAnLW1hJywgJzIwMCcsICctbWV0YWxfYmluZGluZycsICctaW1hZScsICc8aW5maWxlLm1hZT4nLCAnLW9tYWUnLCAnPG91dGZpbGUubWFlPic=

> <r_lp_tautomer_probability>
1

> <r_epik_Ionization_Penalty>
0.420052

> <r_epik_Ionization_Penalty_Charging>
0.42005

> <r_epik_Ionization_Penalty_Neutral>
1.46734e-06

> <r_epik_State_Penalty>
0.420684

> <r_epik_Charging_Adjusted_Penalty>
0.840734

> <i_epik_Tot_Q>
1

> <i_epik_Tot_abs_Q>
1

> <r_epik_Metal_State_Penalty>
0.420686

> <b_epik_Metal_Only>
0

> <s_lp_Force_Field>
OPLS_2005

> <r_lp_Energy>
3.00328

> <b_lp_Chiralities_Consistent>
1

> <s_lp_Variant>
AV-unprocessed.smi:1479-2

> <Gold.Version>
5.8.1

> <Gold.Id.Protein>
6NUR|6NUR_protein|mol2

> <Gold.PLP.Fitness>
51.1302

> <Gold.PLP.PLP>
-38.5024

> <Gold.PLP.part.hbond>
-4.3485

> <Gold.PLP.part.metal>
0.0000

> <Gold.PLP.part.buried>
-4.2999

> <Gold.PLP.part.nonpolar>
-28.4592

> <Gold.PLP.part.repulsive>
0.1068

> <Gold.PLP.ligand.clash>
0.0000

> <Gold.PLP.ligand.torsion>
0.9111

> <Gold.PLP.Chemscore.Hbond>
4.7224

> <Gold.PLP.Chemscore.CHOScore>
0.0000

> <Gold.PLP.Chemscore.Metal>
0.0000

> <Gold.Chemscore.Hbonds>
donor molecule, donor type, donor heavy atom, donor atom, acceptor molecule, acceptor atom, score
      L1  H     7    28       P1  7948  2.00
      P1  H  6896  6908       L1     3  0.43
      P1  H  7997  8009       L1    11  0.67
      P1  H 10752 10764       L1     4  0.08

> <Gold.PLP.Chemscore.Internal.Correction>
0.2827

> <Gold.Rescore>
     Score         DG    S(hbond)    S(metal)    S(lipo)     H(rot)  DE(clash)    DE(int)     intcor
     19.09     -20.16       2.98        0.00      87.34       2.14       0.12       0.95       ----

> <Gold.Chemscore.Fitness>
19.0936

> <Gold.Chemscore.DG>
-20.1634

> <Gold.Chemscore.ZeroCoef>
-5.4800

> <Gold.Chemscore.Hbond>
2.9790

> <Gold.Chemscore.Metal>
0.0000

> <Gold.Chemscore.Lipo>
87.3365

> <Gold.Chemscore.Internal_Hbond>
0.0000

> <Gold.Chemscore.DEClash>
0.1199

> <Gold.Chemscore.DEInternal>
0.9498

> <Gold.Chemscore.Rot>
2.1426

> <Gold.Chemscore.Internal.Correction>
   9.000000E+99

> <Gold.Chemscore.Hbonds>
donor molecule, donor type, donor heavy atom, donor atom, acceptor molecule, acceptor atom, score
      L1  H     7    28       P1  7948  0.82
      P1  H  6896  6908       L1     3  0.44
      P1  H  7997  8009       L1    11  0.11
      P1  H 10752 10764       L1     4  0.09

> <Gold.Chemscore.Hbond.Weighted>
-9.9500

> <Gold.Chemscore.Metal.Weighted>
-0.0000

> <Gold.Chemscore.Lipo.Weighted>
-10.2184

> <Gold.Chemscore.Internal_Hbond.Weighted>
0.0000

> <Gold.Chemscore.DEClash.Weighted>
0.1199

> <Gold.Chemscore.DEInternal.Weighted>
0.9498

> <Gold.Chemscore.Rot.Weighted>
5.4850

> <Gold.Chemscore.Internal.Correction.Weighted>
   9.000000E+99

> <Gold.Protein.RotatedTorsions>
[ 6907 6896 6895 6894 ] final  133.88 input  -60.11 | X-H torsion
[ 7974 7965 7964 7962 ] final  -36.78 input  175.53 | X-H torsion
[ 8008 7997 7996 7995 ] final  158.62 input   59.86 | X-H torsion
[ 10167 10162 10161 10158 ] final  -10.69 input  -65.29 | X-H torsion
[ 10718 10713 10712 10709 ] final -156.76 input   66.30 | X-H torsion
[ 10763 10752 10751 10750 ] final   -9.88 input  -60.55 | X-H torsion
[ 11005 11000 10999 10996 ] final  -91.02 input  -57.11 | X-H torsion

> <Gold.Protein.ActiveResidues>
 VAL166  LYS551  ARG553  GLY616  TRP617  ASP618  TYR619  PRO620  LYS621  CYS622 
 ASP623  PHE694  ASN695  SER759  ASP760  ASP761  ALA762  ILE779  LEU786  VAL792 
 PHE793  MET794  SER795  GLU796  ALA797  LYS798  CYS799  TRP800  GLU811  SER814 

> <Gold.Protein.RotatedAtoms>
  152.3172  133.5815  159.5719 H   0  0  0  0  0  0  0  0  0  0  0  0  # atno 6907 bound_to 6896
  150.7353  134.0065  159.3664 H   0  0  0  0  0  0  0  0  0  0  0  0  # atno 6908 bound_to 6896
  151.7952  135.0725  160.0444 H   0  0  0  0  0  0  0  0  0  0  0  0  # atno 6909 bound_to 6896
  146.0632  140.6319  142.8987 H   0  0  0  0  0  0  0  0  0  0  0  0  # atno 7974 bound_to 7965
  156.2291  140.1853  156.7288 H   0  0  0  0  0  0  0  0  0  0  0  0  # atno 8008 bound_to 7997
  154.5991  140.0639  156.9372 H   0  0  0  0  0  0  0  0  0  0  0  0  # atno 8009 bound_to 7997
  155.2204  140.3307  155.4319 H   0  0  0  0  0  0  0  0  0  0  0  0  # atno 8010 bound_to 7997
  140.7120  143.5721  150.9082 H   0  0  0  0  0  0  0  0  0  0  0  0  # atno 10167 bound_to 10162
  156.5309  130.8520  151.2716 H   0  0  0  0  0  0  0  0  0  0  0  0  # atno 10718 bound_to 10713
  153.4611  135.7016  153.6050 H   0  0  0  0  0  0  0  0  0  0  0  0  # atno 10763 bound_to 10752
  153.4344  135.3795  155.2190 H   0  0  0  0  0  0  0  0  0  0  0  0  # atno 10764 bound_to 10752
  154.8727  135.3958  154.4037 H   0  0  0  0  0  0  0  0  0  0  0  0  # atno 10765 bound_to 10752
  141.1554  133.7729  156.9819 H   0  0  0  0  0  0  0  0  0  0  0  0  # atno 11005 bound_to 11000
  144.7187  140.4298  143.7025 LP  0  0  0  0  0  0  0  0  0  0  0  0  # atno 17320 bound_to 7965
  145.6524  139.1567  143.2854 LP  0  0  0  0  0  0  0  0  0  0  0  0  # atno 17321 bound_to 7965
  139.9447  143.6341  152.3045 LP  0  0  0  0  0  0  0  0  0  0  0  0  # atno 17342 bound_to 10162
  139.6838  144.7653  151.1560 LP  0  0  0  0  0  0  0  0  0  0  0  0  # atno 17343 bound_to 10162
  157.7422  130.9885  150.2497 LP  0  0  0  0  0  0  0  0  0  0  0  0  # atno 17370 bound_to 10713
  156.3060  130.3765  149.7705 LP  0  0  0  0  0  0  0  0  0  0  0  0  # atno 17371 bound_to 10713
  140.1060  134.9506  157.1994 LP  0  0  0  0  0  0  0  0  0  0  0  0  # atno 17394 bound_to 11000
  140.3256  134.2867  155.7237 LP  0  0  0  0  0  0  0  0  0  0  0  0  # atno 17395 bound_to 11000

$$$$
