AV-unprocessed.smi:100|AV-procd|sdf|909|dock8
  -GOLD-   2262017403D 1   1.00000     0.00000
 Structure written by MMmdl.
 31 33  0  0  0  0  0  0  0  0  1 V2000
  149.3106  137.9032  154.3430 N   0  0  0  0  0  0  0  0  0  0  0  0
  150.1563  138.6267  155.0895 C   0  0  0  0  0  0  0  0  0  0  0  0
  151.4843  138.4023  154.9563 N   0  0  0  0  0  0  0  0  0  0  0  0
  152.3475  139.1112  155.6905 C   0  0  0  0  0  0  0  0  0  0  0  0
  152.0921  140.0654  156.5892 N   0  0  0  0  0  0  0  0  0  0  0  0
  150.7526  140.2922  156.7238 C   0  0  0  0  0  0  0  0  0  0  0  0
  149.7245  139.6134  156.0115 C   0  0  0  0  0  0  0  0  0  0  0  0
  148.4818  140.0928  156.4006 N   0  0  0  0  0  0  0  0  0  0  0  0
  148.7634  141.0036  157.2927 C   0  0  0  0  0  0  0  0  0  0  0  0
  150.1044  141.1912  157.5501 N   0  0  0  0  0  0  0  0  0  0  0  0
  150.7072  142.1636  158.5216 C   0  0  2  0  0  0  0  0  0  0  0  0
  149.6947  142.8068  159.2406 O   0  0  0  0  0  0  0  0  0  0  0  0
  149.7275  144.2080  158.9813 C   0  0  1  0  0  0  0  0  0  0  0  0
  149.1661  144.9986  160.1730 C   0  0  0  0  0  0  0  0  0  0  0  0
  147.7627  144.8586  160.2379 O   0  0  0  0  0  0  0  0  0  0  0  0
  151.1907  144.4862  158.6288 C   0  0  1  0  0  0  0  0  0  0  0  0
  151.9425  144.5540  159.7301 F   0  0  0  0  0  0  0  0  0  0  0  0
  151.5702  143.2464  157.8404 C   0  0  2  0  0  0  0  0  0  0  0  0
  151.3108  143.4232  156.4586 O   0  0  0  0  0  0  0  0  0  0  0  0
  148.3150  138.0514  154.4252 H   0  0  0  0  0  0  0  0  0  0  0  0
  149.6701  137.2127  153.7000 H   0  0  0  0  0  0  0  0  0  0  0  0
  153.3915  138.8816  155.5373 H   0  0  0  0  0  0  0  0  0  0  0  0
  147.9918  141.5695  157.7943 H   0  0  0  0  0  0  0  0  0  0  0  0
  151.2793  141.5428  159.2125 H   0  0  0  0  0  0  0  0  0  0  0  0
  149.1129  144.4022  158.1019 H   0  0  0  0  0  0  0  0  0  0  0  0
  149.5915  144.6203  161.1028 H   0  0  0  0  0  0  0  0  0  0  0  0
  149.4278  146.0551  160.1081 H   0  0  0  0  0  0  0  0  0  0  0  0
  147.4022  145.0445  159.3844 H   0  0  0  0  0  0  0  0  0  0  0  0
  151.3344  145.4183  158.0808 H   0  0  0  0  0  0  0  0  0  0  0  0
  152.6260  142.9980  157.9548 H   0  0  0  0  0  0  0  0  0  0  0  0
  150.3890  143.6004  156.3474 H   0  0  0  0  0  0  0  0  0  0  0  0
  1  2  1  0  0  0  0
  1 20  1  0  0  0  0
  1 21  1  0  0  0  0
  2  7  1  0  0  0  0
  2  3  2  0  0  0  0
  3  4  1  0  0  0  0
  4  5  2  0  0  0  0
  4 22  1  0  0  0  0
  5  6  1  0  0  0  0
  6 10  1  0  0  0  0
  6  7  2  0  0  0  0
  7  8  1  0  0  0  0
  8  9  2  0  0  0  0
  9 10  1  0  0  0  0
  9 23  1  0  0  0  0
 10 11  1  0  0  0  0
 11 18  1  0  0  0  0
 11 12  1  0  0  0  0
 11 24  1  0  0  0  0
 12 13  1  0  0  0  0
 13 14  1  0  0  0  0
 13 16  1  0  0  0  0
 13 25  1  0  0  0  0
 14 15  1  0  0  0  0
 14 26  1  0  0  0  0
 14 27  1  0  0  0  0
 15 28  1  0  0  0  0
 16 17  1  0  0  0  0
 16 18  1  0  0  0  0
 16 29  1  0  0  0  0
 18 19  1  0  0  0  0
 18 30  1  0  0  0  0
 19 31  1  0  0  0  0
M  END
> <s_m_source_file>
AV-unprocessed.smi

> <i_m_source_file_index>
100

> <i_lp_mmshare_version>
43012

> <i_f3d_flags>
0

> <s_epik_input>
bjFbY0hdbmMoW05IMl0pYyhjMTIpbltjSF1uMltDQEBIXTNPW0NAQEhdKFtDSDJdW09IXSlbQ0BIXShGKVtDQEhdM1tPSF0=

> <s_epik_cmdline>
J2VwaWtfcHl0aG9uJywgJy1waCcsICc3LjAnLCAnLXRuJywgJzgnLCAnLW1hJywgJzIwMCcsICctbWV0YWxfYmluZGluZycsICctaW1hZScsICc8aW5maWxlLm1hZT4nLCAnLW9tYWUnLCAnPG91dGZpbGUubWFlPic=

> <r_lp_tautomer_probability>
1

> <r_epik_Ionization_Penalty>
0.000750324

> <r_epik_Ionization_Penalty_Charging>
0

> <r_epik_Ionization_Penalty_Neutral>
0.000750324

> <r_epik_State_Penalty>
-0

> <r_epik_Charging_Adjusted_Penalty>
0

> <i_epik_Tot_Q>
0

> <i_epik_Tot_abs_Q>
0

> <r_epik_Metal_State_Penalty>
-0

> <b_epik_Metal_Only>
0

> <s_epik_Chemistry_Notes>
This compound contains an acetal/aminal-like group ( X-CH(R)-Y where X, Y are N, S, or O) that may be acid/base labile, releasing an aldehyde.

> <s_lp_Force_Field>
OPLS_2005

> <r_lp_Energy>
35.7638

> <b_lp_Chiralities_Consistent>
1

> <s_lp_Variant>
AV-unprocessed.smi:100-13

> <Gold.Version>
5.8.1

> <Gold.Id.Protein>
6NUR|6NUR_protein|mol2

> <Gold.PLP.Fitness>
39.8623

> <Gold.PLP.PLP>
-31.5322

> <Gold.PLP.part.hbond>
-5.2261

> <Gold.PLP.part.metal>
0.0000

> <Gold.PLP.part.buried>
-1.6053

> <Gold.PLP.part.nonpolar>
-25.1160

> <Gold.PLP.part.repulsive>
0.3898

> <Gold.PLP.ligand.clash>
0.0000

> <Gold.PLP.ligand.torsion>
0.1204

> <Gold.PLP.Chemscore.Hbond>
2.8564

> <Gold.PLP.Chemscore.CHOScore>
0.0000

> <Gold.PLP.Chemscore.Metal>
0.0000

> <Gold.Chemscore.Hbonds>
donor molecule, donor type, donor heavy atom, donor atom, acceptor molecule, acceptor atom, score
      L1  H     1    21       P1  7948  0.49
      L1  H    15    28       P1  8029  0.22
      L1  H    19    31       P1  8028  1.00
      P1  H  7997  8008       L1     5  0.01

> <Gold.PLP.Chemscore.Internal.Correction>
0.0016

> <Gold.Rescore>
     Score         DG    S(hbond)    S(metal)    S(lipo)     H(rot)  DE(clash)    DE(int)     intcor
      9.12     -10.56       2.65        0.00      37.57       3.19       1.44       0.00       ----

> <Gold.Chemscore.Fitness>
9.1222

> <Gold.Chemscore.DG>
-10.5643

> <Gold.Chemscore.ZeroCoef>
-5.4800

> <Gold.Chemscore.Hbond>
2.6511

> <Gold.Chemscore.Metal>
0.0000

> <Gold.Chemscore.Lipo>
37.5743

> <Gold.Chemscore.Internal_Hbond>
0.0000

> <Gold.Chemscore.DEClash>
1.4390

> <Gold.Chemscore.DEInternal>
0.0031

> <Gold.Chemscore.Rot>
3.1901

> <Gold.Chemscore.Internal.Correction>
   9.000000E+99

> <Gold.Chemscore.Hbonds>
donor molecule, donor type, donor heavy atom, donor atom, acceptor molecule, acceptor atom, score
      L1  H     1    21       P1  7948  0.39
      L1  H    15    28       P1  8029  0.22
      L1  H    19    31       P1  8028  0.93

> <Gold.Chemscore.Hbond.Weighted>
-8.8548

> <Gold.Chemscore.Metal.Weighted>
-0.0000

> <Gold.Chemscore.Lipo.Weighted>
-4.3962

> <Gold.Chemscore.Internal_Hbond.Weighted>
0.0000

> <Gold.Chemscore.DEClash.Weighted>
1.4390

> <Gold.Chemscore.DEInternal.Weighted>
0.0031

> <Gold.Chemscore.Rot.Weighted>
8.1667

> <Gold.Chemscore.Internal.Correction.Weighted>
   9.000000E+99

> <Gold.Protein.RotatedTorsions>
[ 6907 6896 6895 6894 ] final -118.29 input  -60.11 | X-H torsion
[ 7974 7965 7964 7962 ] final -103.67 input  175.53 | X-H torsion
[ 8008 7997 7996 7995 ] final  -65.30 input   59.86 | X-H torsion
[ 10167 10162 10161 10158 ] final  -60.26 input  -65.29 | X-H torsion
[ 10718 10713 10712 10709 ] final   32.85 input   66.30 | X-H torsion
[ 10763 10752 10751 10750 ] final -133.43 input  -60.55 | X-H torsion
[ 11005 11000 10999 10996 ] final  173.08 input  -57.11 | X-H torsion

> <Gold.Protein.ActiveResidues>
 VAL166  LYS551  ARG553  GLY616  TRP617  ASP618  TYR619  PRO620  LYS621  CYS622 
 ASP623  PHE694  ASN695  SER759  ASP760  ASP761  ALA762  ILE779  LEU786  VAL792 
 PHE793  MET794  SER795  GLU796  ALA797  LYS798  CYS799  TRP800  GLU811  SER814 

> <Gold.Protein.RotatedAtoms>
  150.8207  133.8258  159.3140 H   0  0  0  0  0  0  0  0  0  0  0  0  # atno 6907 bound_to 6896
  151.6017  135.1045  160.0071 H   0  0  0  0  0  0  0  0  0  0  0  0  # atno 6908 bound_to 6896
  152.4296  133.7214  159.6592 H   0  0  0  0  0  0  0  0  0  0  0  0  # atno 6909 bound_to 6896
  145.2529  140.9244  143.3085 H   0  0  0  0  0  0  0  0  0  0  0  0  # atno 7974 bound_to 7965
  154.4663  140.0936  156.7029 H   0  0  0  0  0  0  0  0  0  0  0  0  # atno 8008 bound_to 7997
  155.4848  140.3469  155.4327 H   0  0  0  0  0  0  0  0  0  0  0  0  # atno 8009 bound_to 7997
  156.0962  140.1410  156.9516 H   0  0  0  0  0  0  0  0  0  0  0  0  # atno 8010 bound_to 7997
  140.6083  143.2379  151.5770 H   0  0  0  0  0  0  0  0  0  0  0  0  # atno 10167 bound_to 10162
  157.2904  130.7300  149.6607 H   0  0  0  0  0  0  0  0  0  0  0  0  # atno 10718 bound_to 10713
  154.8732  135.3766  154.4571 H   0  0  0  0  0  0  0  0  0  0  0  0  # atno 10763 bound_to 10752
  153.5243  135.7028  153.5720 H   0  0  0  0  0  0  0  0  0  0  0  0  # atno 10764 bound_to 10752
  153.3954  135.3962  155.1917 H   0  0  0  0  0  0  0  0  0  0  0  0  # atno 10765 bound_to 10752
  140.3366  134.7312  157.4172 H   0  0  0  0  0  0  0  0  0  0  0  0  # atno 11005 bound_to 11000
  144.9486  139.4107  143.6413 LP  0  0  0  0  0  0  0  0  0  0  0  0  # atno 17320 bound_to 7965
  146.3297  139.8483  142.8878 LP  0  0  0  0  0  0  0  0  0  0  0  0  # atno 17321 bound_to 7965
  139.5341  144.2830  152.1214 LP  0  0  0  0  0  0  0  0  0  0  0  0  # atno 17342 bound_to 10162
  140.2024  144.4644  150.6425 LP  0  0  0  0  0  0  0  0  0  0  0  0  # atno 17343 bound_to 10162
  155.9667  130.4310  150.4903 LP  0  0  0  0  0  0  0  0  0  0  0  0  # atno 17370 bound_to 10713
  157.2864  131.0617  151.2163 LP  0  0  0  0  0  0  0  0  0  0  0  0  # atno 17371 bound_to 10713
  140.0816  134.5723  155.8535 LP  0  0  0  0  0  0  0  0  0  0  0  0  # atno 17394 bound_to 11000
  141.2049  133.6643  156.6152 LP  0  0  0  0  0  0  0  0  0  0  0  0  # atno 17395 bound_to 11000

$$$$
