AV-unprocessed.smi:560|AV-procd|sdf|2935|dock4
  -GOLD-   2262023433D 1   1.00000     0.00000
 Structure written by MMmdl.
 41 42  0  0  0  0  0  0  0  0  3 V2000
  148.6629  141.8928  157.8434 C   0  0  0  0  0  0  0  0  0  0  0  0
  150.0484  141.2485  157.6318 C   0  0  1  0  0  0  0  0  0  0  0  0
  150.2765  140.7757  156.1865 C   0  0  0  0  0  0  0  0  0  0  0  0
  151.2310  141.1907  155.5281 O   0  0  0  0  0  0  0  0  0  0  0  0
  149.3775  139.9044  155.7010 N   0  0  0  0  0  0  0  0  0  0  0  0
  149.4039  139.3121  154.3649 C   0  0  2  0  0  0  0  0  0  0  0  0
  148.2519  138.3089  154.1605 C   0  0  0  0  0  0  0  0  0  0  0  0
  148.4469  137.0303  154.9944 C   0  0  0  0  0  0  0  0  0  0  0  0
  149.7547  136.3908  154.7014 N   0  3  2  0  0  0  0  0  0  0  0  0
  149.9073  135.0855  155.3915 C   0  0  0  0  0  0  0  0  0  0  0  0
  148.7392  134.1583  155.0402 C   0  0  0  0  0  0  0  0  0  0  0  0
  148.6319  133.9460  153.7149 N   0  5  0  0  0  0  0  0  0  0  0  0
  148.0222  133.7183  155.9366 O   0  0  0  0  0  0  0  0  0  0  0  0
  150.8893  137.3211  154.9502 C   0  0  0  0  0  0  0  0  0  0  0  0
  150.7493  138.6092  154.1181 C   0  0  0  0  0  0  0  0  0  0  0  0
  151.1308  142.1278  158.0598 N   0  0  0  0  0  0  0  0  0  0  0  0
  151.4162  143.4029  157.6146 C   0  0  0  0  0  0  0  0  0  0  0  0
  152.4979  143.8509  158.3170 C   0  0  0  0  0  0  0  0  0  0  0  0
  152.8051  142.7708  159.1903 C   0  0  0  0  0  0  0  0  0  0  0  0
  151.9818  141.7465  159.0408 N   0  0  0  0  0  0  0  0  0  0  0  0
  147.8617  141.2048  157.5717 H   0  0  0  0  0  0  0  0  0  0  0  0
  148.5369  142.7975  157.2474 H   0  0  0  0  0  0  0  0  0  0  0  0
  148.5173  142.1647  158.8892 H   0  0  0  0  0  0  0  0  0  0  0  0
  150.0880  140.3599  158.2642 H   0  0  0  0  0  0  0  0  0  0  0  0
  148.6295  139.6127  156.3133 H   0  0  0  0  0  0  0  0  0  0  0  0
  149.3046  140.1187  153.6363 H   0  0  0  0  0  0  0  0  0  0  0  0
  147.2928  138.7690  154.4010 H   0  0  0  0  0  0  0  0  0  0  0  0
  148.1981  138.0386  153.1052 H   0  0  0  0  0  0  0  0  0  0  0  0
  148.3803  137.2564  156.0598 H   0  0  0  0  0  0  0  0  0  0  0  0
  147.6386  136.3334  154.7689 H   0  0  0  0  0  0  0  0  0  0  0  0
  150.8809  134.6451  155.1645 H   0  0  0  0  0  0  0  0  0  0  0  0
  149.8789  135.2302  156.4723 H   0  0  0  0  0  0  0  0  0  0  0  0
  148.5765  134.7584  153.0884 H   0  0  0  0  0  0  0  0  0  0  0  0
  150.9375  137.5598  156.0138 H   0  0  0  0  0  0  0  0  0  0  0  0
  151.8345  136.8405  154.6963 H   0  0  0  0  0  0  0  0  0  0  0  0
  150.8331  138.3585  153.0597 H   0  0  0  0  0  0  0  0  0  0  0  0
  151.5760  139.2872  154.3342 H   0  0  0  0  0  0  0  0  0  0  0  0
  150.8324  143.8808  156.8416 H   0  0  0  0  0  0  0  0  0  0  0  0
  152.9932  144.8059  158.2232 H   0  0  0  0  0  0  0  0  0  0  0  0
  153.5938  142.7016  159.9250 H   0  0  0  0  0  0  0  0  0  0  0  0
  149.7560  136.1809  153.7132 H   0  0  0  0  0  0  0  0  0  0  0  0
  1  2  1  0  0  0  0
  1 21  1  0  0  0  0
  1 22  1  0  0  0  0
  1 23  1  0  0  0  0
  2  3  1  0  0  0  0
  2 16  1  0  0  0  0
  2 24  1  0  0  0  0
  3  4  2  0  0  0  0
  3  5  1  0  0  0  0
  5  6  1  0  0  0  0
  5 25  1  0  0  0  0
  6 15  1  0  0  0  0
  6  7  1  0  0  0  0
  6 26  1  0  0  0  0
  7  8  1  0  0  0  0
  7 27  1  0  0  0  0
  7 28  1  0  0  0  0
  8  9  1  0  0  0  0
  8 29  1  0  0  0  0
  8 30  1  0  0  0  0
  9 10  1  0  0  0  0
  9 14  1  0  0  0  0
  9 41  1  0  0  0  0
 10 11  1  0  0  0  0
 10 31  1  0  0  0  0
 10 32  1  0  0  0  0
 11 12  1  0  0  0  0
 11 13  2  0  0  0  0
 12 33  1  0  0  0  0
 14 15  1  0  0  0  0
 14 34  1  0  0  0  0
 14 35  1  0  0  0  0
 15 36  1  0  0  0  0
 15 37  1  0  0  0  0
 16 20  1  0  0  0  0
 16 17  1  0  0  0  0
 17 18  2  0  0  0  0
 17 38  1  0  0  0  0
 18 19  1  0  0  0  0
 18 39  1  0  0  0  0
 19 20  2  0  0  0  0
 19 40  1  0  0  0  0
M  CHG  1   9   1
M  CHG  1  12  -1
M  END
> <s_m_source_file>
AV-unprocessed.smi

> <i_m_source_file_index>
560

> <i_lp_mmshare_version>
43012

> <i_f3d_flags>
0

> <s_epik_input>
bjFbY0hdW2NIXVtjSF1uMVtDQEhdKFtDSDNdKUMoPU8pW05IXVtDSF0yW0NIMl1bQ0gyXU4oW0NIMl1bQ0gyXTIpW0NIMl1DKD1PKVtOSDJd

> <s_epik_cmdline>
J2VwaWtfcHl0aG9uJywgJy1waCcsICc3LjAnLCAnLXRuJywgJzgnLCAnLW1hJywgJzIwMCcsICctbWV0YWxfYmluZGluZycsICctaW1hZScsICc8aW5maWxlLm1hZT4nLCAnLW9tYWUnLCAnPG91dGZpbGUubWFlPic=

> <r_lp_tautomer_probability>
1

> <r_epik_Ionization_Penalty>
5.71084

> <r_epik_Ionization_Penalty_Charging>
5.71081

> <r_epik_Ionization_Penalty_Neutral>
3.04611e-05

> <r_epik_State_Penalty>
6.71277

> <r_epik_Charging_Adjusted_Penalty>
12.4236

> <i_epik_Tot_Q>
0

> <i_epik_Tot_abs_Q>
2

> <r_epik_Metal_State_Penalty>
2.67562

> <b_epik_Metal_Only>
1

> <s_lp_Force_Field>
OPLS_2005

> <r_lp_Energy>
9.86513

> <b_lp_Chiralities_Consistent>
1

> <s_lp_Variant>
AV-unprocessed.smi:560-10

> <Gold.Version>
5.8.1

> <Gold.Id.Protein>
6NUR|6NUR_protein|mol2

> <Gold.PLP.Fitness>
44.9170

> <Gold.PLP.PLP>
-31.9009

> <Gold.PLP.part.hbond>
-3.0000

> <Gold.PLP.part.metal>
0.0000

> <Gold.PLP.part.buried>
-2.4998

> <Gold.PLP.part.nonpolar>
-26.9789

> <Gold.PLP.part.repulsive>
0.1406

> <Gold.PLP.ligand.clash>
0.0000

> <Gold.PLP.ligand.torsion>
0.1037

> <Gold.PLP.Chemscore.Hbond>
3.3627

> <Gold.PLP.Chemscore.CHOScore>
1.0000

> <Gold.PLP.Chemscore.Metal>
0.0000

> <Gold.Chemscore.Hbonds>
donor molecule, donor type, donor heavy atom, donor atom, acceptor molecule, acceptor atom, score
      L1  H     9    41       P1  7948  2.00
      L1  H    12    33       P1  7948  1.00
      P1  H  7989  7998       L1     4  0.49
      L1  C    17    38       P1  8028  1.00

> <Gold.PLP.Chemscore.Internal.Correction>
0.1354

> <Gold.Rescore>
     Score         DG    S(hbond)    S(metal)    S(lipo)     H(rot)  DE(clash)    DE(int)     intcor
     13.75     -15.20       2.21        0.00      74.00       2.47       0.02       1.43       ----

> <Gold.Chemscore.Fitness>
13.7507

> <Gold.Chemscore.DG>
-15.2015

> <Gold.Chemscore.ZeroCoef>
-5.4800

> <Gold.Chemscore.Hbond>
2.2143

> <Gold.Chemscore.Metal>
0.0000

> <Gold.Chemscore.Lipo>
73.9958

> <Gold.Chemscore.Internal_Hbond>
0.0000

> <Gold.Chemscore.DEClash>
0.0240

> <Gold.Chemscore.DEInternal>
1.4268

> <Gold.Chemscore.Rot>
2.4734

> <Gold.Chemscore.Internal.Correction>
   9.000000E+99

> <Gold.Chemscore.Hbonds>
donor molecule, donor type, donor heavy atom, donor atom, acceptor molecule, acceptor atom, score
      L1  H     9    41       P1  7948  0.29
      L1  H    12    33       P1  7948  0.39
      P1  H  7989  7998       L1     4  0.46

> <Gold.Chemscore.Hbond.Weighted>
-7.3958

> <Gold.Chemscore.Metal.Weighted>
-0.0000

> <Gold.Chemscore.Lipo.Weighted>
-8.6575

> <Gold.Chemscore.Internal_Hbond.Weighted>
0.0000

> <Gold.Chemscore.DEClash.Weighted>
0.0240

> <Gold.Chemscore.DEInternal.Weighted>
1.4268

> <Gold.Chemscore.Rot.Weighted>
6.3318

> <Gold.Chemscore.Internal.Correction.Weighted>
   9.000000E+99

> <Gold.Protein.RotatedTorsions>
[ 6907 6896 6895 6894 ] final  -51.81 input  -60.11 | X-H torsion
[ 7974 7965 7964 7962 ] final  -10.70 input  175.53 | X-H torsion
[ 8008 7997 7996 7995 ] final  -85.10 input   59.86 | X-H torsion
[ 10167 10162 10161 10158 ] final   76.15 input  -65.29 | X-H torsion
[ 10718 10713 10712 10709 ] final   22.74 input   66.30 | X-H torsion
[ 10763 10752 10751 10750 ] final    6.46 input  -60.55 | X-H torsion
[ 11005 11000 10999 10996 ] final -111.84 input  -57.11 | X-H torsion

> <Gold.Protein.ActiveResidues>
 VAL166  LYS551  ARG553  GLY616  TRP617  ASP618  TYR619  PRO620  LYS621  CYS622 
 ASP623  PHE694  ASN695  SER759  ASP760  ASP761  ALA762  ILE779  LEU786  VAL792 
 PHE793  MET794  SER795  GLU796  ALA797  LYS798  CYS799  TRP800  GLU811  SER814 

> <Gold.Protein.RotatedAtoms>
  150.8576  134.7919  159.7057 H   0  0  0  0  0  0  0  0  0  0  0  0  # atno 6907 bound_to 6896
  152.4623  134.5152  159.9776 H   0  0  0  0  0  0  0  0  0  0  0  0  # atno 6908 bound_to 6896
  151.5262  133.3419  159.2945 H   0  0  0  0  0  0  0  0  0  0  0  0  # atno 6909 bound_to 6896
  146.2212  140.2803  142.8362 H   0  0  0  0  0  0  0  0  0  0  0  0  # atno 7974 bound_to 7965
  154.6371  140.0596  156.9801 H   0  0  0  0  0  0  0  0  0  0  0  0  # atno 8008 bound_to 7997
  155.1575  140.3279  155.4400 H   0  0  0  0  0  0  0  0  0  0  0  0  # atno 8009 bound_to 7997
  156.2512  140.1936  156.6684 H   0  0  0  0  0  0  0  0  0  0  0  0  # atno 8010 bound_to 7997
  139.9954  144.5726  150.7782 H   0  0  0  0  0  0  0  0  0  0  0  0  # atno 10167 bound_to 10162
  157.1565  130.6698  149.6029 H   0  0  0  0  0  0  0  0  0  0  0  0  # atno 10718 bound_to 10713
  153.2475  135.6910  153.7716 H   0  0  0  0  0  0  0  0  0  0  0  0  # atno 10763 bound_to 10752
  153.6823  135.3326  155.3182 H   0  0  0  0  0  0  0  0  0  0  0  0  # atno 10764 bound_to 10752
  154.8380  135.4525  154.1419 H   0  0  0  0  0  0  0  0  0  0  0  0  # atno 10765 bound_to 10752
  141.0711  133.9378  157.2483 H   0  0  0  0  0  0  0  0  0  0  0  0  # atno 11005 bound_to 11000
  144.9202  140.7859  143.5753 LP  0  0  0  0  0  0  0  0  0  0  0  0  # atno 17320 bound_to 7965
  145.2739  139.1944  143.4827 LP  0  0  0  0  0  0  0  0  0  0  0  0  # atno 17321 bound_to 7965
  140.7439  143.2853  151.3481 LP  0  0  0  0  0  0  0  0  0  0  0  0  # atno 17342 bound_to 10162
  139.6310  144.0721  152.2476 LP  0  0  0  0  0  0  0  0  0  0  0  0  # atno 17343 bound_to 10162
  155.9761  130.4726  150.6506 LP  0  0  0  0  0  0  0  0  0  0  0  0  # atno 17370 bound_to 10713
  157.4172  131.0832  151.1165 LP  0  0  0  0  0  0  0  0  0  0  0  0  # atno 17371 bound_to 10713
  139.9524  135.0172  156.9032 LP  0  0  0  0  0  0  0  0  0  0  0  0  # atno 17394 bound_to 11000
  140.5672  134.0478  155.7418 LP  0  0  0  0  0  0  0  0  0  0  0  0  # atno 17395 bound_to 11000

$$$$
