#       Name:                AV-unprocessed.smi:3342
#       Creating user name   scv26
#       Creation time:       Fri Mar 27 19:29:43 2020


#       File generated by GOLD software.
#

@<TRIPOS>MOLECULE
AV-unprocessed.smi:3342
    46    47     1
SMALL
NO_CHARGES


@<TRIPOS>ATOM
      1 ****        -2.4763  -1.0827  -2.3352 C.3            1 S1                 0.0000
      2 ****        -2.5980  -0.3640  -0.9824 C.3            1 S1                 0.0000
      3 ****        -3.4257  -1.1890   0.0211 C.3            1 S1                 0.0000
      4 ****        -3.6445  -0.4814   1.2693 N.pl3          1 S1                 0.0000
      5 ****        -2.9650  -0.6637   2.4669 C.2            1 S1                 0.0000
      6 ****        -3.5086   0.2258   3.3660 C.2            1 S1                 0.0000
      7 ****        -4.5185   0.9593   2.7477 N.2            1 S1                 0.0000
      8 ****        -4.5415   0.4848   1.5089 C.2            1 S1                 0.0000
      9 ****        -1.2698  -0.1024  -0.4331 N.am           1 S1                 0.0000
     10 ****        -0.4971   0.9610  -0.7113 C.2            1 S1                 0.0000
     11 ****        -0.8406   1.8264  -1.5178 O.2            1 S1                 0.0000
     12 ****         0.6773   1.0003  -0.0320 N.am           1 S1                 0.0000
     13 ****         1.1919  -0.0307   0.8856 C.3            1 S1                 0.0000
     14 ****         2.3612  -0.7610   0.2016 C.3            1 S1                 0.0000
     15 ****         3.4718   0.2334  -0.2119 C.3            1 S1                 0.0000
     16 ****         4.5756  -0.4737  -1.0098 C.2            1 S1                 0.0000
     17 ****         5.8022  -0.4761  -0.4820 N.am           1 S1                 0.0000
     18 ****         4.3275  -1.0118  -2.0873 O.2            1 S1                 0.0000
     19 ****         2.8796   1.4188  -1.0103 C.3            1 S1                 0.0000
     20 ****         1.6818   2.0437  -0.2716 C.3            1 S1                 0.0000
     21 ****        -3.4590  -1.2734  -2.7667 H              1 S1                 0.0000
     22 ****        -1.9670  -2.0414  -2.2312 H              1 S1                 0.0000
     23 ****        -1.9149  -0.4836  -3.0529 H              1 S1                 0.0000
     24 ****        -3.1127   0.5849  -1.1457 H              1 S1                 0.0000
     25 ****        -4.4006  -1.4312  -0.4041 H              1 S1                 0.0000
     26 ****        -2.9339  -2.1387   0.2374 H              1 S1                 0.0000
     27 ****        -2.1715  -1.3883   2.5763 H              1 S1                 0.0000
     28 ****        -3.2525   0.3930   4.4019 H              1 S1                 0.0000
     29 ****        -5.2254   0.8506   0.7569 H              1 S1                 0.0000
     30 ****        -0.9181  -0.7714   0.2360 H              1 S1                 0.0000
     31 ****         1.5393   0.4489   1.8018 H              1 S1                 0.0000
     32 ****         0.4423  -0.7528   1.2095 H              1 S1                 0.0000
     33 ****         2.7677  -1.5154   0.8764 H              1 S1                 0.0000
     34 ****         1.9854  -1.2970  -0.6716 H              1 S1                 0.0000
     35 ****         3.9116   0.6373   0.7018 H              1 S1                 0.0000
     36 ****         6.5610  -0.9301  -0.9692 H              1 S1                 0.0000
     37 ****         5.9656  -0.0237   0.4057 H              1 S1                 0.0000
     38 ****         3.6450   2.1780  -1.1754 H              1 S1                 0.0000
     39 ****         2.5551   1.0880  -1.9986 H              1 S1                 0.0000
     40 ****         1.2906   2.8846  -0.8459 H              1 S1                 0.0000
     41 ****         2.0047   2.4633   0.6823 H              1 S1                 0.0000
     42 ****        -5.0920   1.6759   3.1446 LP             1 S1                 0.0000
     43 ****        -1.7193   1.7502  -1.9891 LP             1 S1                 0.0000
     44 ****        -0.2407   2.6052  -1.7013 LP             1 S1                 0.0000
     45 ****         3.3973  -0.9919  -2.4536 LP             1 S1                 0.0000
     46 ****         5.0561  -1.4692  -2.5972 LP             1 S1                 0.0000
@<TRIPOS>BOND
    1    1    2 1     
    2    1   21 1     
    3    1   22 1     
    4    1   23 1     
    5    2    3 1     
    6    2    9 1     
    7    2   24 1     
    8    3    4 1     
    9    3   25 1     
   10    3   26 1     
   11    4    8 1     
   12    4    5 1     
   13    5    6 2     
   14    5   27 1     
   15    6    7 1     
   16    6   28 1     
   17    7    8 2     
   18    8   29 1     
   19    9   10 am    
   20    9   30 1     
   21   10   11 2     
   22   10   12 am    
   23   12   20 1     
   24   12   13 1     
   25   13   14 1     
   26   13   31 1     
   27   13   32 1     
   28   14   15 1     
   29   14   33 1     
   30   14   34 1     
   31   15   16 1     
   32   15   19 1     
   33   15   35 1     
   34   16   17 am    
   35   16   18 2     
   36   17   36 1     
   37   17   37 1     
   38   19   20 1     
   39   19   38 1     
   40   19   39 1     
   41   20   40 1     
   42   20   41 1     
   43    7   42 1     
   44   11   43 1     
   45   11   44 1     
   46   18   45 1     
   47   18   46 1     
@<TRIPOS>SUBSTRUCTURE
      1 S1             1
@<TRIPOS>SET
LONE_PAIRS      STATIC     ATOMS    <user>   **** ""
5 42 43 44 45 46
DONOR_HYDROGENS      STATIC     ATOMS    <user>   **** ""
3 30 36 37
ATOM$BLUE        STATIC     ATOMS    COLORGROUP SYSTEM
5 42 43 44 45 46
ATOM$RED        STATIC     ATOMS    COLORGROUP SYSTEM
3 30 36 37
