#       Name:                AV-unprocessed.smi:1588
#       Creating user name   scv26
#       Creation time:       Fri Mar 27 07:02:37 2020


#       File generated by GOLD software.
#

@<TRIPOS>MOLECULE
AV-unprocessed.smi:1588
    40    41     1
SMALL
NO_CHARGES


@<TRIPOS>ATOM
      1 ****        -3.9980  -3.1913  -0.1823 C.3            1 S1                 0.0000
      2 ****        -2.4874  -2.9912  -0.3665 C.3            1 S1                 0.0000
      3 ****        -1.9833  -1.8237   0.3936 N.4            1 S1                 1.0000
      4 ****        -2.0133  -1.9683   1.8697 C.3            1 S1                 0.0000
      5 ****        -0.6651  -1.4573   2.3946 C.3            1 S1                 0.0000
      6 ****        -0.0880  -0.6460   1.2369 C.3            1 S1                 0.0000
      7 ****         1.4445  -0.4893   1.2854 C.3            1 S1                 0.0000
      8 ****         1.9599   0.2567   0.1420 N.am           1 S1                 0.0000
      9 ****         1.8802   1.5867  -0.0066 C.2            1 S1                 0.0000
     10 ****         1.3496   2.3313   0.8178 O.2            1 S1                 0.0000
     11 ****         2.4394   1.9847  -1.1610 N.am           1 S1                 0.0000
     12 ****         2.5353   3.3092  -1.6582 C.2            1 S1                 0.0000
     13 ****         3.0922   3.6626  -2.9173 C.2            1 S1                 0.0000
     14 ****         3.0496   4.9725  -3.1143 N.2            1 S1                 0.0000
     15 ****         2.4737   5.4590  -1.9918 N.pl3          1 S1                 0.0000
     16 ****         2.1446   4.4831  -1.0771 C.2            1 S1                 0.0000
     17 ****        -0.6179  -1.4030   0.0185 C.3            1 S1                 0.0000
     18 ****         2.3146   6.4485  -1.8654 H              1 S1                 0.0000
     19 ****        -4.3518  -4.0277  -0.7856 H              1 S1                 0.0000
     20 ****        -4.5533  -2.3044  -0.4890 H              1 S1                 0.0000
     21 ****        -4.2541  -3.4053   0.8554 H              1 S1                 0.0000
     22 ****        -1.9438  -3.8905  -0.0733 H              1 S1                 0.0000
     23 ****        -2.2831  -2.8325  -1.4263 H              1 S1                 0.0000
     24 ****        -2.8370  -1.3703   2.2608 H              1 S1                 0.0000
     25 ****        -2.1768  -3.0005   2.1823 H              1 S1                 0.0000
     26 ****        -0.7654  -0.8706   3.3083 H              1 S1                 0.0000
     27 ****        -0.0170  -2.3065   2.6161 H              1 S1                 0.0000
     28 ****        -0.5533   0.3410   1.2560 H              1 S1                 0.0000
     29 ****         1.7442   0.0041   2.2116 H              1 S1                 0.0000
     30 ****         1.9225  -1.4693   1.2908 H              1 S1                 0.0000
     31 ****         2.4195  -0.2765  -0.5816 H              1 S1                 0.0000
     32 ****         2.8316   1.2654  -1.7509 H              1 S1                 0.0000
     33 ****         3.5156   3.0252  -3.6795 H              1 S1                 0.0000
     34 ****         1.6797   4.7118  -0.1294 H              1 S1                 0.0000
     35 ****        -0.0007  -2.2832  -0.1708 H              1 S1                 0.0000
     36 ****        -0.6231  -0.7932  -0.8855 H              1 S1                 0.0000
     37 ****        -2.5832  -1.0411   0.1740 H              1 S1                 0.0000
     38 ****         0.9491   1.9501   1.6510 LP             1 S1                 0.0000
     39 ****         1.3191   3.3174   0.6542 LP             1 S1                 0.0000
     40 ****         3.3702   5.4843  -3.9113 LP             1 S1                 0.0000
@<TRIPOS>BOND
    1    1    2 1     
    2    1   19 1     
    3    1   20 1     
    4    1   21 1     
    5    2    3 1     
    6    2   22 1     
    7    2   23 1     
    8    3   17 1     
    9    3    4 1     
   10    3   37 1     
   11    4    5 1     
   12    4   24 1     
   13    4   25 1     
   14    5    6 1     
   15    5   26 1     
   16    5   27 1     
   17    6    7 1     
   18    6   17 1     
   19    6   28 1     
   20    7    8 1     
   21    7   29 1     
   22    7   30 1     
   23    8    9 am    
   24    8   31 1     
   25    9   10 2     
   26    9   11 am    
   27   11   12 1     
   28   11   32 1     
   29   12   16 2     
   30   12   13 1     
   31   13   14 2     
   32   13   33 1     
   33   14   15 1     
   34   15   18 1     
   35   15   16 1     
   36   16   34 1     
   37   17   35 1     
   38   17   36 1     
   39   10   38 1     
   40   10   39 1     
   41   14   40 1     
@<TRIPOS>SUBSTRUCTURE
      1 S1             1
@<TRIPOS>SET
LONE_PAIRS      STATIC     ATOMS    <user>   **** ""
3 38 39 40
DONOR_HYDROGENS      STATIC     ATOMS    <user>   **** ""
4 37 31 32 18
ATOM$BLUE        STATIC     ATOMS    COLORGROUP SYSTEM
3 38 39 40
ATOM$RED        STATIC     ATOMS    COLORGROUP SYSTEM
4 37 31 32 18
