#       Name:                AV-unprocessed.smi:2451
#       Creating user name   scv26
#       Creation time:       Fri Mar 27 13:31:26 2020


#       File generated by GOLD software.
#

@<TRIPOS>MOLECULE
AV-unprocessed.smi:2451
    42    43     1
SMALL
NO_CHARGES


@<TRIPOS>ATOM
      1 ****        -3.1519  -2.3228  -1.9712 C.3            1 S1                 0.0000
      2 ****        -2.6914  -1.4591  -0.7826 C.3            1 S1                 0.0000
      3 ****        -3.1224  -2.1278   0.5381 C.3            1 S1                 0.0000
      4 ****        -2.7216  -1.2895   1.7565 C.3            1 S1                 0.0000
      5 ****        -1.2085  -1.0586   1.7720 C.3            1 S1                 0.0000
      6 ****        -0.7309  -0.3887   0.4719 C.3            1 S1                 0.0000
      7 ****         0.7300  -0.2717   0.5215 N.3            1 S1                 0.0000
      8 ****         1.4312   1.2799   0.7938 S.o2           1 S1                 0.0000
      9 ****         0.8555   2.2085  -0.1916 O.2            1 S1                 0.0000
     10 ****         1.3187   1.5720   2.2309 O.2            1 S1                 0.0000
     11 ****         3.2000   0.9944   0.3678 C.3            1 S1                 0.0000
     12 ****         3.9522   2.2917   0.4426 C.2            1 S1                 0.0000
     13 ****         4.0511   3.3127  -0.5429 C.2            1 S1                 0.0000
     14 ****         4.8494   4.2492   0.0477 C.2            1 S1                 0.0000
     15 ****         5.2178   3.8444   1.2894 O.3            1 S1                 0.0000
     16 ****         4.6417   2.5921   1.5319 N.2            1 S1                 0.0000
     17 ****        -1.1630  -1.1696  -0.7977 C.3            1 S1                 0.0000
     18 ****        -0.7427  -0.4064  -2.0731 C.3            1 S1                 0.0000
     19 ****        -2.5964  -3.2599  -2.0191 H              1 S1                 0.0000
     20 ****        -3.0258  -1.8074  -2.9227 H              1 S1                 0.0000
     21 ****        -4.2105  -2.5704  -1.8881 H              1 S1                 0.0000
     22 ****        -3.2157  -0.5046  -0.8500 H              1 S1                 0.0000
     23 ****        -4.2028  -2.2775   0.5455 H              1 S1                 0.0000
     24 ****        -2.6743  -3.1197   0.6143 H              1 S1                 0.0000
     25 ****        -3.2426  -0.3314   1.7353 H              1 S1                 0.0000
     26 ****        -3.0311  -1.7924   2.6732 H              1 S1                 0.0000
     27 ****        -0.9400  -0.4433   2.6317 H              1 S1                 0.0000
     28 ****        -0.7007  -2.0149   1.9052 H              1 S1                 0.0000
     29 ****        -1.1664   0.6105   0.4243 H              1 S1                 0.0000
     30 ****         1.1370  -0.9766   1.1358 H              1 S1                 0.0000
     31 ****         3.6072   0.2513   1.0539 H              1 S1                 0.0000
     32 ****         3.2454   0.5788  -0.6386 H              1 S1                 0.0000
     33 ****         3.6036   3.3528  -1.5248 H              1 S1                 0.0000
     34 ****         5.2283   5.2091  -0.2709 H              1 S1                 0.0000
     35 ****        -0.6419  -2.1285  -0.7949 H              1 S1                 0.0000
     36 ****        -1.2755   0.5410  -2.1604 H              1 S1                 0.0000
     37 ****        -0.9354  -0.9849  -2.9755 H              1 S1                 0.0000
     38 ****         0.3240  -0.1827  -2.0781 H              1 S1                 0.0000
     39 ****         0.9799  -0.4407  -0.4319 LP             1 S1                 0.0000
     40 ****         4.8948   4.5026   1.9694 LP             1 S1                 0.0000
     41 ****         6.2140   3.7740   1.3405 LP             1 S1                 0.0000
     42 ****         4.7324   2.0376   2.3591 LP             1 S1                 0.0000
@<TRIPOS>BOND
    1    1    2 1     
    2    1   19 1     
    3    1   20 1     
    4    1   21 1     
    5    2   17 1     
    6    2    3 1     
    7    2   22 1     
    8    3    4 1     
    9    3   23 1     
   10    3   24 1     
   11    4    5 1     
   12    4   25 1     
   13    4   26 1     
   14    5    6 1     
   15    5   27 1     
   16    5   28 1     
   17    6    7 1     
   18    6   17 1     
   19    6   29 1     
   20    7    8 1     
   21    7   30 1     
   22    8    9 2     
   23    8   10 2     
   24    8   11 1     
   25   11   12 1     
   26   11   31 1     
   27   11   32 1     
   28   12   16 2     
   29   12   13 1     
   30   13   14 2     
   31   13   33 1     
   32   14   15 1     
   33   14   34 1     
   34   15   16 1     
   35   17   18 1     
   36   17   35 1     
   37   18   36 1     
   38   18   37 1     
   39   18   38 1     
   40    7   39 1     
   41   15   40 1     
   42   15   41 1     
   43   16   42 1     
@<TRIPOS>SUBSTRUCTURE
      1 S1             1
@<TRIPOS>SET
LONE_PAIRS      STATIC     ATOMS    <user>   **** ""
6 39 9 10 40 41 42
DONOR_HYDROGENS      STATIC     ATOMS    <user>   **** ""
1 30
ATOM$BLUE        STATIC     ATOMS    COLORGROUP SYSTEM
6 39 9 10 40 41 42
ATOM$RED        STATIC     ATOMS    COLORGROUP SYSTEM
1 30
