AV-unprocessed.smi:1866|AV-procd|sdf|7557|dock9
  -GOLD-   22720 9273D 1   1.00000     0.00000
 Structure written by MMmdl.
 30 31  0  0  0  0  0  0  0  0  1 V2000
  151.6936  130.6021  156.1929 C   0  0  0  0  0  0  0  0  0  0  0  0
  150.9385  131.7246  155.5673 C   0  0  0  0  0  0  0  0  0  0  0  0
  151.0710  132.9974  155.9605 N   0  0  0  0  0  0  0  0  0  0  0  0
  150.2653  133.8601  155.2304 N   0  0  0  0  0  0  0  0  0  0  0  0
  149.5472  133.2099  154.3042 C   0  0  0  0  0  0  0  0  0  0  0  0
  148.6401  133.8475  153.4171 N   0  0  0  0  0  0  0  0  0  0  0  0
  147.5178  133.3478  152.8707 C   0  0  0  0  0  0  0  0  0  0  0  0
  147.0809  132.2113  153.0537 O   0  0  0  0  0  0  0  0  0  0  0  0
  146.9178  134.2534  152.0849 N   0  0  0  0  0  0  0  0  0  0  0  0
  145.6998  134.0302  151.3085 C   0  0  1  0  0  0  0  0  0  0  0  0
  145.9110  132.9274  150.2534 C   0  0  0  0  0  0  0  0  0  0  0  0
  144.5790  132.5577  149.5944 C   0  0  0  0  0  0  0  0  0  0  0  0
  143.5656  132.0958  150.6538 C   0  0  0  0  0  0  0  0  0  0  0  0
  143.5179  132.9705  151.8262 N   0  0  0  0  0  0  0  0  0  0  0  0
  144.4818  133.8188  152.2259 C   0  0  0  0  0  0  0  0  0  0  0  0
  144.3843  134.4463  153.2793 O   0  0  0  0  0  0  0  0  0  0  0  0
  149.8027  131.4742  154.2471 S   0  0  0  0  0  0  0  0  0  0  0  0
  152.2236  130.9427  157.0830 H   0  0  0  0  0  0  0  0  0  0  0  0
  152.4193  130.2018  155.4849 H   0  0  0  0  0  0  0  0  0  0  0  0
  151.0073  129.8053  156.4800 H   0  0  0  0  0  0  0  0  0  0  0  0
  148.8753  134.7965  153.1670 H   0  0  0  0  0  0  0  0  0  0  0  0
  147.3504  135.1605  151.9890 H   0  0  0  0  0  0  0  0  0  0  0  0
  145.4724  134.9533  150.7715 H   0  0  0  0  0  0  0  0  0  0  0  0
  146.6206  133.2591  149.4947 H   0  0  0  0  0  0  0  0  0  0  0  0
  146.3440  132.0410  150.7193 H   0  0  0  0  0  0  0  0  0  0  0  0
  144.1845  133.4247  149.0628 H   0  0  0  0  0  0  0  0  0  0  0  0
  144.7260  131.7761  148.8486 H   0  0  0  0  0  0  0  0  0  0  0  0
  142.5692  132.0268  150.2174 H   0  0  0  0  0  0  0  0  0  0  0  0
  143.8265  131.0942  150.9977 H   0  0  0  0  0  0  0  0  0  0  0  0
  142.7086  132.8766  152.4229 H   0  0  0  0  0  0  0  0  0  0  0  0
  1  2  1  0  0  0  0
  1 18  1  0  0  0  0
  1 19  1  0  0  0  0
  1 20  1  0  0  0  0
  2 17  1  0  0  0  0
  2  3  2  0  0  0  0
  3  4  1  0  0  0  0
  4  5  2  0  0  0  0
  5  6  1  0  0  0  0
  5 17  1  0  0  0  0
  6  7  1  0  0  0  0
  6 21  1  0  0  0  0
  7  8  2  0  0  0  0
  7  9  1  0  0  0  0
  9 10  1  0  0  0  0
  9 22  1  0  0  0  0
 10 15  1  0  0  0  0
 10 11  1  0  0  0  0
 10 23  1  0  0  0  0
 11 12  1  0  0  0  0
 11 24  1  0  0  0  0
 11 25  1  0  0  0  0
 12 13  1  0  0  0  0
 12 26  1  0  0  0  0
 12 27  1  0  0  0  0
 13 14  1  0  0  0  0
 13 28  1  0  0  0  0
 13 29  1  0  0  0  0
 14 15  1  0  0  0  0
 14 30  1  0  0  0  0
 15 16  2  0  0  0  0
M  END
> <s_m_source_file>
AV-unprocessed.smi

> <i_m_source_file_index>
1866

> <i_lp_mmshare_version>
43012

> <i_f3d_flags>
0

> <s_epik_input>
W0NIM11jMW5uYyhzMSlbTkhdQyg9TylbTkhdW0NAQEhdMltDSDJdW0NIMl1bQ0gyXVtOSF1DMj1P

> <s_epik_cmdline>
J2VwaWtfcHl0aG9uJywgJy1waCcsICc3LjAnLCAnLXRuJywgJzgnLCAnLW1hJywgJzIwMCcsICctbWV0YWxfYmluZGluZycsICctaW1hZScsICc8aW5maWxlLm1hZT4nLCAnLW9tYWUnLCAnPG91dGZpbGUubWFlPic=

> <r_lp_tautomer_probability>
1

> <r_epik_Ionization_Penalty>
0.00093002

> <r_epik_Ionization_Penalty_Charging>
0

> <r_epik_Ionization_Penalty_Neutral>
0.00093002

> <r_epik_State_Penalty>
-0

> <r_epik_Charging_Adjusted_Penalty>
0

> <i_epik_Tot_Q>
0

> <i_epik_Tot_abs_Q>
0

> <r_epik_Metal_State_Penalty>
0.280775

> <b_epik_Metal_Only>
0

> <s_lp_Force_Field>
OPLS_2005

> <r_lp_Energy>
8.18439

> <b_lp_Chiralities_Consistent>
1

> <s_lp_Variant>
AV-unprocessed.smi:1866-2

> <Gold.Version>
5.8.1

> <Gold.Id.Protein>
6NUR|6NUR_protein|mol2

> <Gold.PLP.Fitness>
33.6249

> <Gold.PLP.PLP>
-28.0874

> <Gold.PLP.part.hbond>
-2.1774

> <Gold.PLP.part.metal>
0.0000

> <Gold.PLP.part.buried>
-5.1697

> <Gold.PLP.part.nonpolar>
-20.9055

> <Gold.PLP.part.repulsive>
0.2744

> <Gold.PLP.ligand.clash>
0.0000

> <Gold.PLP.ligand.torsion>
0.2164

> <Gold.PLP.Chemscore.Hbond>
1.9760

> <Gold.PLP.Chemscore.CHOScore>
0.0000

> <Gold.PLP.Chemscore.Metal>
0.0000

> <Gold.Chemscore.Hbonds>
donor molecule, donor type, donor heavy atom, donor atom, acceptor molecule, acceptor atom, score
      L1  H     6    21       P1  7948  0.89
      L1  H     9    22       P1  7948  0.96

> <Gold.PLP.Chemscore.Internal.Correction>
0.0422

> <Gold.Rescore>
     Score         DG    S(hbond)    S(metal)    S(lipo)     H(rot)  DE(clash)    DE(int)     intcor
     13.87     -14.13       1.55        0.00      51.61       1.00       0.00       0.27       ----

> <Gold.Chemscore.Fitness>
13.8674

> <Gold.Chemscore.DG>
-14.1344

> <Gold.Chemscore.ZeroCoef>
-5.4800

> <Gold.Chemscore.Hbond>
1.5496

> <Gold.Chemscore.Metal>
0.0000

> <Gold.Chemscore.Lipo>
51.6120

> <Gold.Chemscore.Internal_Hbond>
0.0000

> <Gold.Chemscore.DEClash>
0.0000

> <Gold.Chemscore.DEInternal>
0.2669

> <Gold.Chemscore.Rot>
1.0000

> <Gold.Chemscore.Internal.Correction>
   9.000000E+99

> <Gold.Chemscore.Hbonds>
donor molecule, donor type, donor heavy atom, donor atom, acceptor molecule, acceptor atom, score
      L1  H     6    21       P1  7948  0.17
      L1  H     9    22       P1  7948  0.90

> <Gold.Chemscore.Hbond.Weighted>
-5.1758

> <Gold.Chemscore.Metal.Weighted>
-0.0000

> <Gold.Chemscore.Lipo.Weighted>
-6.0386

> <Gold.Chemscore.Internal_Hbond.Weighted>
0.0000

> <Gold.Chemscore.DEClash.Weighted>
0.0000

> <Gold.Chemscore.DEInternal.Weighted>
0.2669

> <Gold.Chemscore.Rot.Weighted>
2.5600

> <Gold.Chemscore.Internal.Correction.Weighted>
   9.000000E+99

> <Gold.Protein.RotatedTorsions>
[ 6907 6896 6895 6894 ] final -106.87 input  -60.11 | X-H torsion
[ 7974 7965 7964 7962 ] final -152.30 input  175.53 | X-H torsion
[ 8008 7997 7996 7995 ] final -102.25 input   59.86 | X-H torsion
[ 10167 10162 10161 10158 ] final   42.18 input  -65.29 | X-H torsion
[ 10718 10713 10712 10709 ] final  -60.69 input   66.30 | X-H torsion
[ 10763 10752 10751 10750 ] final  -63.75 input  -60.55 | X-H torsion
[ 11005 11000 10999 10996 ] final  -19.81 input  -57.11 | X-H torsion

> <Gold.Protein.ActiveResidues>
 VAL166  LYS551  ARG553  GLY616  TRP617  ASP618  TYR619  PRO620  LYS621  CYS622 
 ASP623  PHE694  ASN695  SER759  ASP760  ASP761  ALA762  ILE779  LEU786  VAL792 
 PHE793  MET794  SER795  GLU796  ALA797  LYS798  CYS799  TRP800  GLU811  SER814 

> <Gold.Protein.RotatedAtoms>
  150.7413  133.9911  159.3607 H   0  0  0  0  0  0  0  0  0  0  0  0  # atno 6907 bound_to 6896
  151.7859  135.0747  160.0390 H   0  0  0  0  0  0  0  0  0  0  0  0  # atno 6908 bound_to 6896
  152.3242  133.5850  159.5801 H   0  0  0  0  0  0  0  0  0  0  0  0  # atno 6909 bound_to 6896
  144.7802  140.4680  143.5845 H   0  0  0  0  0  0  0  0  0  0  0  0  # atno 7974 bound_to 7965
  154.8539  140.0429  157.1622 H   0  0  0  0  0  0  0  0  0  0  0  0  # atno 8008 bound_to 7997
  154.8912  140.2987  155.5349 H   0  0  0  0  0  0  0  0  0  0  0  0  # atno 8009 bound_to 7997
  156.2997  140.2393  156.3928 H   0  0  0  0  0  0  0  0  0  0  0  0  # atno 8010 bound_to 7997
  140.3570  144.2277  150.6141 H   0  0  0  0  0  0  0  0  0  0  0  0  # atno 10167 bound_to 10162
  156.0973  130.4191  150.0890 H   0  0  0  0  0  0  0  0  0  0  0  0  # atno 10718 bound_to 10713
  154.3197  135.6199  153.5502 H   0  0  0  0  0  0  0  0  0  0  0  0  # atno 10763 bound_to 10752
  152.9821  135.5721  154.5084 H   0  0  0  0  0  0  0  0  0  0  0  0  # atno 10764 bound_to 10752
  154.4750  135.2861  155.1591 H   0  0  0  0  0  0  0  0  0  0  0  0  # atno 10765 bound_to 10752
  140.8403  133.7931  155.9853 H   0  0  0  0  0  0  0  0  0  0  0  0  # atno 11005 bound_to 11000
  145.6073  139.1509  143.3095 LP  0  0  0  0  0  0  0  0  0  0  0  0  # atno 17320 bound_to 7965
  146.2005  140.6191  142.9104 LP  0  0  0  0  0  0  0  0  0  0  0  0  # atno 17321 bound_to 7965
  140.5164  143.2277  151.8456 LP  0  0  0  0  0  0  0  0  0  0  0  0  # atno 17342 bound_to 10162
  139.4819  144.4889  151.9211 LP  0  0  0  0  0  0  0  0  0  0  0  0  # atno 17343 bound_to 10162
  156.8886  130.9581  151.3591 LP  0  0  0  0  0  0  0  0  0  0  0  0  # atno 17370 bound_to 10713
  157.6136  130.8601  149.8992 LP  0  0  0  0  0  0  0  0  0  0  0  0  # atno 17371 bound_to 10713
  140.8902  134.2504  157.5098 LP  0  0  0  0  0  0  0  0  0  0  0  0  # atno 17394 bound_to 11000
  139.8703  134.9658  156.4540 LP  0  0  0  0  0  0  0  0  0  0  0  0  # atno 17395 bound_to 11000

$$$$
