AV-unprocessed.smi:1669|AV-procd|sdf|6691|dock10
  -GOLD-   22720 7423D 1   1.00000     0.00000
 Structure written by MMmdl.
 49 51  0  0  0  0  0  0  0  0  3 V2000
  146.8102  137.0763  157.9236 C   0  0  0  0  0  0  0  0  0  0  0  0
  148.1745  136.9267  158.4833 N   0  3  1  0  0  0  0  0  0  0  0  0
  148.4039  135.5405  158.9686 C   0  0  0  0  0  0  0  0  0  0  0  0
  147.7429  135.2669  160.3095 C   0  0  0  0  0  0  0  0  0  0  0  0
  147.1124  134.0272  160.5525 C   0  0  0  0  0  0  0  0  0  0  0  0
  146.5105  133.7719  161.7998 C   0  0  0  0  0  0  0  0  0  0  0  0
  146.5319  134.7561  162.8069 C   0  0  0  0  0  0  0  0  0  0  0  0
  147.1554  135.9958  162.5663 C   0  0  0  0  0  0  0  0  0  0  0  0
  147.7595  136.2513  161.3199 C   0  0  0  0  0  0  0  0  0  0  0  0
  149.2425  137.4056  157.5618 C   0  0  0  0  0  0  0  0  0  0  0  0
  149.9568  138.6922  158.0342 C   0  0  1  0  0  0  0  0  0  0  0  0
  150.8236  138.3823  159.1068 O   0  0  0  0  0  0  0  0  0  0  0  0
  150.8179  139.3565  156.9385 C   0  0  0  0  0  0  0  0  0  0  0  0
  150.8166  140.8279  156.9979 N   0  0  0  0  0  0  0  0  0  0  0  0
  150.0655  141.7313  156.3032 C   0  0  0  0  0  0  0  0  0  0  0  0
  149.0264  141.4328  155.2734 C   0  0  0  0  0  0  0  0  0  0  0  0
  149.1373  142.2693  154.1437 O   0  0  0  0  0  0  0  0  0  0  0  0
  150.4253  142.9729  156.7339 N   0  3  0  0  0  0  0  0  0  0  0  0
  151.4119  142.8664  157.7147 C   0  0  0  0  0  0  0  0  0  0  0  0
  152.0813  143.8462  158.4414 C   0  0  0  0  0  0  0  0  0  0  0  0
  153.0391  143.3988  159.3746 C   0  0  0  0  0  0  0  0  0  0  0  0
  153.2991  142.0255  159.5580 C   0  0  0  0  0  0  0  0  0  0  0  0
  152.6126  141.0413  158.8170 C   0  0  0  0  0  0  0  0  0  0  0  0
  151.6672  141.4909  157.8937 C   0  0  0  0  0  0  0  0  0  0  0  0
  146.7054  136.5150  156.9942 H   0  0  0  0  0  0  0  0  0  0  0  0
  146.5689  138.1196  157.7247 H   0  0  0  0  0  0  0  0  0  0  0  0
  146.0613  136.7099  158.6266 H   0  0  0  0  0  0  0  0  0  0  0  0
  147.9979  134.8270  158.2500 H   0  0  0  0  0  0  0  0  0  0  0  0
  149.4754  135.3425  159.0297 H   0  0  0  0  0  0  0  0  0  0  0  0
  147.0940  133.2657  159.7863 H   0  0  0  0  0  0  0  0  0  0  0  0
  146.0315  132.8215  161.9845 H   0  0  0  0  0  0  0  0  0  0  0  0
  146.0693  134.5607  163.7633 H   0  0  0  0  0  0  0  0  0  0  0  0
  147.1704  136.7507  163.3388 H   0  0  0  0  0  0  0  0  0  0  0  0
  148.2379  137.2039  161.1436 H   0  0  0  0  0  0  0  0  0  0  0  0
  150.0048  136.6362  157.4499 H   0  0  0  0  0  0  0  0  0  0  0  0
  148.8044  137.5512  156.5736 H   0  0  0  0  0  0  0  0  0  0  0  0
  149.2285  139.4229  158.3832 H   0  0  0  0  0  0  0  0  0  0  0  0
  151.0608  137.4689  159.0584 H   0  0  0  0  0  0  0  0  0  0  0  0
  151.8544  139.0297  157.0319 H   0  0  0  0  0  0  0  0  0  0  0  0
  150.4976  139.0417  155.9451 H   0  0  0  0  0  0  0  0  0  0  0  0
  149.1174  140.3938  154.9558 H   0  0  0  0  0  0  0  0  0  0  0  0
  148.0344  141.5489  155.7094 H   0  0  0  0  0  0  0  0  0  0  0  0
  148.8700  143.1430  154.3860 H   0  0  0  0  0  0  0  0  0  0  0  0
  151.8814  144.8992  158.3052 H   0  0  0  0  0  0  0  0  0  0  0  0
  153.5837  144.1235  159.9629 H   0  0  0  0  0  0  0  0  0  0  0  0
  154.0388  141.7203  160.2846 H   0  0  0  0  0  0  0  0  0  0  0  0
  152.8232  139.9937  158.9715 H   0  0  0  0  0  0  0  0  0  0  0  0
  148.2166  137.5156  159.3030 H   0  0  0  0  0  0  0  0  0  0  0  0
  150.0155  143.8307  156.3867 H   0  0  0  0  0  0  0  0  0  0  0  0
  1  2  1  0  0  0  0
  1 25  1  0  0  0  0
  1 26  1  0  0  0  0
  1 27  1  0  0  0  0
  2  3  1  0  0  0  0
  2 10  1  0  0  0  0
  2 48  1  0  0  0  0
  3  4  1  0  0  0  0
  3 28  1  0  0  0  0
  3 29  1  0  0  0  0
  4  9  1  0  0  0  0
  4  5  2  0  0  0  0
  5  6  1  0  0  0  0
  5 30  1  0  0  0  0
  6  7  2  0  0  0  0
  6 31  1  0  0  0  0
  7  8  1  0  0  0  0
  7 32  1  0  0  0  0
  8  9  2  0  0  0  0
  8 33  1  0  0  0  0
  9 34  1  0  0  0  0
 10 11  1  0  0  0  0
 10 35  1  0  0  0  0
 10 36  1  0  0  0  0
 11 12  1  0  0  0  0
 11 13  1  0  0  0  0
 11 37  1  0  0  0  0
 12 38  1  0  0  0  0
 13 14  1  0  0  0  0
 13 39  1  0  0  0  0
 13 40  1  0  0  0  0
 14 24  1  0  0  0  0
 14 15  1  0  0  0  0
 15 16  1  0  0  0  0
 15 18  2  0  0  0  0
 16 17  1  0  0  0  0
 16 41  1  0  0  0  0
 16 42  1  0  0  0  0
 17 43  1  0  0  0  0
 18 19  1  0  0  0  0
 18 49  1  0  0  0  0
 19 24  2  0  0  0  0
 19 20  1  0  0  0  0
 20 21  2  0  0  0  0
 20 44  1  0  0  0  0
 21 22  1  0  0  0  0
 21 45  1  0  0  0  0
 22 23  2  0  0  0  0
 22 46  1  0  0  0  0
 23 24  1  0  0  0  0
 23 47  1  0  0  0  0
M  CHG  1   2   1
M  CHG  1  18   1
M  END
> <s_m_source_file>
AV-unprocessed.smi

> <i_m_source_file_index>
1669

> <i_lp_mmshare_version>
43012

> <i_f3d_flags>
0

> <s_epik_input>
W2NIXTFbY0hdW2NIXVtjSF1bY0hdYzFbQ0gyXU4oW0NIM10pW0NIMl1bQ0BIXShbT0hdKVtDSDJdbihjKG4yKVtDSDJdW09IXSljKGMyMylbY0hdW2NIXVtjSF1bY0hdMw==

> <s_epik_cmdline>
J2VwaWtfcHl0aG9uJywgJy1waCcsICc3LjAnLCAnLXRuJywgJzgnLCAnLW1hJywgJzIwMCcsICctbWV0YWxfYmluZGluZycsICctaW1hZScsICc8aW5maWxlLm1hZT4nLCAnLW9tYWUnLCAnPG91dGZpbGUubWFlPic=

> <r_epik_Ionization_Penalty>
1.57484

> <r_epik_Ionization_Penalty_Charging>
1.57398

> <r_epik_Ionization_Penalty_Neutral>
0.000858917

> <r_epik_State_Penalty>
1.64997

> <r_epik_Charging_Adjusted_Penalty>
3.22395

> <i_epik_Tot_Q>
2

> <i_epik_Tot_abs_Q>
2

> <r_epik_Metal_State_Penalty>
5.70481

> <b_epik_Metal_Only>
0

> <s_lp_Force_Field>
OPLS_2005

> <r_lp_Energy>
25.6323

> <b_lp_Chiralities_Consistent>
1

> <s_lp_Variant>
AV-unprocessed.smi:1669-9

> <Gold.Version>
5.8.1

> <Gold.Id.Protein>
6NUR|6NUR_protein|mol2

> <Gold.PLP.Fitness>
55.5746

> <Gold.PLP.PLP>
-50.1254

> <Gold.PLP.part.hbond>
-3.4163

> <Gold.PLP.part.metal>
0.0000

> <Gold.PLP.part.buried>
-4.4641

> <Gold.PLP.part.nonpolar>
-42.4979

> <Gold.PLP.part.repulsive>
0.1696

> <Gold.PLP.ligand.clash>
0.0000

> <Gold.PLP.ligand.torsion>
2.3099

> <Gold.PLP.Chemscore.Hbond>
3.2793

> <Gold.PLP.Chemscore.CHOScore>
0.0000

> <Gold.PLP.Chemscore.Metal>
0.0000

> <Gold.Chemscore.Hbonds>
donor molecule, donor type, donor heavy atom, donor atom, acceptor molecule, acceptor atom, score
      L1  H    17    43       P1  8028  1.00
      L1  H    18    49       P1  8028  2.00
      P1  H  8011  8017       L1    17  0.24

> <Gold.PLP.Chemscore.Internal.Correction>
0.2313

> <Gold.Rescore>
     Score         DG    S(hbond)    S(metal)    S(lipo)     H(rot)  DE(clash)    DE(int)     intcor
     17.56     -19.52       2.00        0.00     134.58       3.27       0.11       1.85       ----

> <Gold.Chemscore.Fitness>
17.5558

> <Gold.Chemscore.DG>
-19.5189

> <Gold.Chemscore.ZeroCoef>
-5.4800

> <Gold.Chemscore.Hbond>
1.9966

> <Gold.Chemscore.Metal>
0.0000

> <Gold.Chemscore.Lipo>
134.5835

> <Gold.Chemscore.Internal_Hbond>
0.0000

> <Gold.Chemscore.DEClash>
0.1100

> <Gold.Chemscore.DEInternal>
1.8531

> <Gold.Chemscore.Rot>
3.2718

> <Gold.Chemscore.Internal.Correction>
   9.000000E+99

> <Gold.Chemscore.Hbonds>
donor molecule, donor type, donor heavy atom, donor atom, acceptor molecule, acceptor atom, score
      L1  H    17    43       P1  8028  0.93
      L1  H    18    49       P1  8028  0.97
      P1  H  8011  8017       L1    17  0.11

> <Gold.Chemscore.Hbond.Weighted>
-6.6685

> <Gold.Chemscore.Metal.Weighted>
-0.0000

> <Gold.Chemscore.Lipo.Weighted>
-15.7463

> <Gold.Chemscore.Internal_Hbond.Weighted>
0.0000

> <Gold.Chemscore.DEClash.Weighted>
0.1100

> <Gold.Chemscore.DEInternal.Weighted>
1.8531

> <Gold.Chemscore.Rot.Weighted>
8.3759

> <Gold.Chemscore.Internal.Correction.Weighted>
   9.000000E+99

> <Gold.Protein.RotatedTorsions>
[ 6907 6896 6895 6894 ] final  -14.51 input  -60.11 | X-H torsion
[ 7974 7965 7964 7962 ] final   26.84 input  175.53 | X-H torsion
[ 8008 7997 7996 7995 ] final -117.17 input   59.86 | X-H torsion
[ 10167 10162 10161 10158 ] final  101.05 input  -65.29 | X-H torsion
[ 10718 10713 10712 10709 ] final   -5.65 input   66.30 | X-H torsion
[ 10763 10752 10751 10750 ] final  -57.45 input  -60.55 | X-H torsion
[ 11005 11000 10999 10996 ] final  -83.99 input  -57.11 | X-H torsion

> <Gold.Protein.ActiveResidues>
 VAL166  LYS551  ARG553  GLY616  TRP617  ASP618  TYR619  PRO620  LYS621  CYS622 
 ASP623  PHE694  ASN695  SER759  ASP760  ASP761  ALA762  ILE779  LEU786  VAL792 
 PHE793  MET794  SER795  GLU796  ALA797  LYS798  CYS799  TRP800  GLU811  SER814 

> <Gold.Protein.RotatedAtoms>
  151.3382  135.0857  159.9361 H   0  0  0  0  0  0  0  0  0  0  0  0  # atno 6907 bound_to 6896
  152.5218  133.9474  159.7666 H   0  0  0  0  0  0  0  0  0  0  0  0  # atno 6908 bound_to 6896
  150.9825  133.6177  159.2750 H   0  0  0  0  0  0  0  0  0  0  0  0  # atno 6909 bound_to 6896
  146.1816  139.7272  142.8896 H   0  0  0  0  0  0  0  0  0  0  0  0  # atno 7974 bound_to 7965
  155.0794  140.0394  157.2634 H   0  0  0  0  0  0  0  0  0  0  0  0  # atno 8008 bound_to 7997
  154.6919  140.2655  155.6779 H   0  0  0  0  0  0  0  0  0  0  0  0  # atno 8009 bound_to 7997
  156.2731  140.2758  156.1500 H   0  0  0  0  0  0  0  0  0  0  0  0  # atno 8010 bound_to 7997
  139.7472  144.6994  151.0486 H   0  0  0  0  0  0  0  0  0  0  0  0  # atno 10167 bound_to 10162
  156.7434  130.5217  149.5819 H   0  0  0  0  0  0  0  0  0  0  0  0  # atno 10718 bound_to 10713
  154.2226  135.6375  153.5149 H   0  0  0  0  0  0  0  0  0  0  0  0  # atno 10763 bound_to 10752
  152.9965  135.5500  154.6097 H   0  0  0  0  0  0  0  0  0  0  0  0  # atno 10764 bound_to 10752
  154.5561  135.2905  155.0937 H   0  0  0  0  0  0  0  0  0  0  0  0  # atno 10765 bound_to 10752
  141.1654  133.7323  156.8802 H   0  0  0  0  0  0  0  0  0  0  0  0  # atno 11005 bound_to 11000
  145.4060  141.0391  143.3044 LP  0  0  0  0  0  0  0  0  0  0  0  0  # atno 17320 bound_to 7965
  144.8325  139.5605  143.6937 LP  0  0  0  0  0  0  0  0  0  0  0  0  # atno 17321 bound_to 7965
  140.7793  143.4852  150.9965 LP  0  0  0  0  0  0  0  0  0  0  0  0  # atno 17342 bound_to 10162
  139.8540  143.7401  152.3177 LP  0  0  0  0  0  0  0  0  0  0  0  0  # atno 17343 bound_to 10162
  156.1449  130.6270  151.0518 LP  0  0  0  0  0  0  0  0  0  0  0  0  # atno 17370 bound_to 10713
  157.6808  131.0838  150.7373 LP  0  0  0  0  0  0  0  0  0  0  0  0  # atno 17371 bound_to 10713
  140.1720  134.9093  157.2845 LP  0  0  0  0  0  0  0  0  0  0  0  0  # atno 17394 bound_to 11000
  140.2491  134.3705  155.7449 LP  0  0  0  0  0  0  0  0  0  0  0  0  # atno 17395 bound_to 11000

$$$$
