AV-unprocessed.smi:2139|AV-procd|sdf|8713|dock9
  -GOLD-   2272011473D 1   1.00000     0.00000
 Structure written by MMmdl.
 40 41  0  0  0  0  0  0  0  0  1 V2000
  147.2109  139.5873  153.2509 C   0  0  0  0  0  0  0  0  0  0  0  0
  148.2567  140.0379  154.2809 C   0  0  0  0  0  0  0  0  0  0  0  0
  148.6920  141.5079  154.1256 C   0  0  1  0  0  0  0  0  0  0  0  0
  147.4857  142.4417  153.9569 C   0  0  0  0  0  0  0  0  0  0  0  0
  149.4743  141.9403  155.2828 N   0  0  0  0  0  0  0  0  0  0  0  0
  150.5072  141.2768  155.8289 C   0  0  0  0  0  0  0  0  0  0  0  0
  150.9097  140.1859  155.4236 O   0  0  0  0  0  0  0  0  0  0  0  0
  151.1360  141.9476  157.0231 C   0  0  0  0  0  0  0  0  0  0  0  0
  151.3289  143.3487  157.0092 C   0  0  0  0  0  0  0  0  0  0  0  0
  151.9601  143.9747  158.0984 C   0  0  0  0  0  0  0  0  0  0  0  0
  152.3881  143.1721  159.1692 C   0  0  0  0  0  0  0  0  0  0  0  0
  152.2165  141.8355  159.2024 N   0  0  0  0  0  0  0  0  0  0  0  0
  151.6052  141.2218  158.1585 C   0  0  0  0  0  0  0  0  0  0  0  0
  151.4124  139.8307  158.2734 N   0  0  0  0  0  0  0  0  0  0  0  0
  152.2640  139.1057  159.2099 C   0  0  0  0  0  0  0  0  0  0  0  0
  152.0790  137.5912  159.0125 C   0  0  0  0  0  0  0  0  0  0  0  0
  150.7010  137.2547  159.1532 O   0  0  0  0  0  0  0  0  0  0  0  0
  149.8851  137.9153  158.1890 C   0  0  0  0  0  0  0  0  0  0  0  0
  150.0121  139.4383  158.3619 C   0  0  0  0  0  0  0  0  0  0  0  0
  146.8820  138.5682  153.4547 H   0  0  0  0  0  0  0  0  0  0  0  0
  147.6136  139.6049  152.2388 H   0  0  0  0  0  0  0  0  0  0  0  0
  146.3315  140.2317  153.2739 H   0  0  0  0  0  0  0  0  0  0  0  0
  147.8416  139.8939  155.2791 H   0  0  0  0  0  0  0  0  0  0  0  0
  149.1279  139.3846  154.2189 H   0  0  0  0  0  0  0  0  0  0  0  0
  149.2903  141.5848  153.2162 H   0  0  0  0  0  0  0  0  0  0  0  0
  146.8923  142.1628  153.0858 H   0  0  0  0  0  0  0  0  0  0  0  0
  147.8061  143.4749  153.8183 H   0  0  0  0  0  0  0  0  0  0  0  0
  146.8317  142.4095  154.8290 H   0  0  0  0  0  0  0  0  0  0  0  0
  149.2095  142.8199  155.7018 H   0  0  0  0  0  0  0  0  0  0  0  0
  151.0079  143.9459  156.1678 H   0  0  0  0  0  0  0  0  0  0  0  0
  152.1192  145.0429  158.1087 H   0  0  0  0  0  0  0  0  0  0  0  0
  152.8807  143.6142  160.0226 H   0  0  0  0  0  0  0  0  0  0  0  0
  153.3075  139.3807  159.0534 H   0  0  0  0  0  0  0  0  0  0  0  0
  152.0036  139.3784  160.2335 H   0  0  0  0  0  0  0  0  0  0  0  0
  152.4414  137.2803  158.0315 H   0  0  0  0  0  0  0  0  0  0  0  0
  152.6573  137.0418  159.7553 H   0  0  0  0  0  0  0  0  0  0  0  0
  150.1771  137.6141  157.1814 H   0  0  0  0  0  0  0  0  0  0  0  0
  148.8489  137.6058  158.3270 H   0  0  0  0  0  0  0  0  0  0  0  0
  149.6169  139.7395  159.3330 H   0  0  0  0  0  0  0  0  0  0  0  0
  149.4198  139.9507  157.6048 H   0  0  0  0  0  0  0  0  0  0  0  0
  1  2  1  0  0  0  0
  1 20  1  0  0  0  0
  1 21  1  0  0  0  0
  1 22  1  0  0  0  0
  2  3  1  0  0  0  0
  2 23  1  0  0  0  0
  2 24  1  0  0  0  0
  3  4  1  0  0  0  0
  3  5  1  0  0  0  0
  3 25  1  0  0  0  0
  4 26  1  0  0  0  0
  4 27  1  0  0  0  0
  4 28  1  0  0  0  0
  5  6  1  0  0  0  0
  5 29  1  0  0  0  0
  6  7  2  0  0  0  0
  6  8  1  0  0  0  0
  8 13  1  0  0  0  0
  8  9  2  0  0  0  0
  9 10  1  0  0  0  0
  9 30  1  0  0  0  0
 10 11  2  0  0  0  0
 10 31  1  0  0  0  0
 11 12  1  0  0  0  0
 11 32  1  0  0  0  0
 12 13  2  0  0  0  0
 13 14  1  0  0  0  0
 14 19  1  0  0  0  0
 14 15  1  0  0  0  0
 15 16  1  0  0  0  0
 15 33  1  0  0  0  0
 15 34  1  0  0  0  0
 16 17  1  0  0  0  0
 16 35  1  0  0  0  0
 16 36  1  0  0  0  0
 17 18  1  0  0  0  0
 18 19  1  0  0  0  0
 18 37  1  0  0  0  0
 18 38  1  0  0  0  0
 19 39  1  0  0  0  0
 19 40  1  0  0  0  0
M  END
> <s_m_source_file>
AV-unprocessed.smi

> <i_m_source_file_index>
2139

> <i_lp_mmshare_version>
43012

> <i_f3d_flags>
0

> <s_epik_input>
W0NIM11bQ0gyXVtDQEhdKFtDSDNdKVtOSF1DKD1PKWMxW2NIXVtjSF1bY0hdbmMxTjJbQ0gyXVtDSDJdT1tDSDJdW0NIMl0y

> <s_epik_cmdline>
J2VwaWtfcHl0aG9uJywgJy1waCcsICc3LjAnLCAnLXRuJywgJzgnLCAnLW1hJywgJzIwMCcsICctbWV0YWxfYmluZGluZycsICctaW1hZScsICc8aW5maWxlLm1hZT4nLCAnLW9tYWUnLCAnPG91dGZpbGUubWFlPic=

> <r_lp_tautomer_probability>
1

> <r_epik_Ionization_Penalty>
1.73125e-05

> <r_epik_Ionization_Penalty_Charging>
0

> <r_epik_Ionization_Penalty_Neutral>
1.73125e-05

> <r_epik_State_Penalty>
-0

> <r_epik_Charging_Adjusted_Penalty>
0

> <i_epik_Tot_Q>
0

> <i_epik_Tot_abs_Q>
0

> <r_epik_Metal_State_Penalty>
-0

> <b_epik_Metal_Only>
0

> <s_lp_Force_Field>
OPLS_2005

> <r_lp_Energy>
25.2402

> <b_lp_Chiralities_Consistent>
1

> <s_lp_Variant>
AV-unprocessed.smi:2139-2

> <Gold.Version>
5.8.1

> <Gold.Id.Protein>
6NUR|6NUR_protein|mol2

> <Gold.PLP.Fitness>
41.5889

> <Gold.PLP.PLP>
-36.6733

> <Gold.PLP.part.hbond>
-2.5156

> <Gold.PLP.part.metal>
0.0000

> <Gold.PLP.part.buried>
-3.3944

> <Gold.PLP.part.nonpolar>
-29.6198

> <Gold.PLP.part.repulsive>
0.1968

> <Gold.PLP.ligand.clash>
0.0000

> <Gold.PLP.ligand.torsion>
1.0701

> <Gold.PLP.Chemscore.Hbond>
2.2673

> <Gold.PLP.Chemscore.CHOScore>
0.0000

> <Gold.PLP.Chemscore.Metal>
0.0000

> <Gold.Chemscore.Hbonds>
donor molecule, donor type, donor heavy atom, donor atom, acceptor molecule, acceptor atom, score
      L1  H     5    29       P1  8028  1.00
      P1  H  7989  7998       L1     7  0.57

> <Gold.PLP.Chemscore.Internal.Correction>
0.2541

> <Gold.Rescore>
     Score         DG    S(hbond)    S(metal)    S(lipo)     H(rot)  DE(clash)    DE(int)     intcor
     13.18     -16.84       1.41        0.00      85.43       1.30       0.07       3.58       ----

> <Gold.Chemscore.Fitness>
13.1813

> <Gold.Chemscore.DG>
-16.8351

> <Gold.Chemscore.ZeroCoef>
-5.4800

> <Gold.Chemscore.Hbond>
1.4066

> <Gold.Chemscore.Metal>
0.0000

> <Gold.Chemscore.Lipo>
85.4334

> <Gold.Chemscore.Internal_Hbond>
0.0000

> <Gold.Chemscore.DEClash>
0.0689

> <Gold.Chemscore.DEInternal>
3.5849

> <Gold.Chemscore.Rot>
1.3041

> <Gold.Chemscore.Internal.Correction>
   9.000000E+99

> <Gold.Chemscore.Hbonds>
donor molecule, donor type, donor heavy atom, donor atom, acceptor molecule, acceptor atom, score
      L1  H     5    29       P1  8028  0.96
      P1  H  7989  7998       L1     7  0.10

> <Gold.Chemscore.Hbond.Weighted>
-4.6979

> <Gold.Chemscore.Metal.Weighted>
-0.0000

> <Gold.Chemscore.Lipo.Weighted>
-9.9957

> <Gold.Chemscore.Internal_Hbond.Weighted>
0.0000

> <Gold.Chemscore.DEClash.Weighted>
0.0689

> <Gold.Chemscore.DEInternal.Weighted>
3.5849

> <Gold.Chemscore.Rot.Weighted>
3.3385

> <Gold.Chemscore.Internal.Correction.Weighted>
   9.000000E+99

> <Gold.Protein.RotatedTorsions>
[ 6907 6896 6895 6894 ] final  123.75 input  -60.11 | X-H torsion
[ 7974 7965 7964 7962 ] final  -97.33 input  175.53 | X-H torsion
[ 8008 7997 7996 7995 ] final  159.93 input   59.86 | X-H torsion
[ 10167 10162 10161 10158 ] final  -27.14 input  -65.29 | X-H torsion
[ 10718 10713 10712 10709 ] final  164.75 input   66.30 | X-H torsion
[ 10763 10752 10751 10750 ] final -172.68 input  -60.55 | X-H torsion
[ 11005 11000 10999 10996 ] final  -22.89 input  -57.11 | X-H torsion

> <Gold.Protein.ActiveResidues>
 VAL166  LYS551  ARG553  GLY616  TRP617  ASP618  TYR619  PRO620  LYS621  CYS622 
 ASP623  PHE694  ASN695  SER759  ASP760  ASP761  ALA762  ILE779  LEU786  VAL792 
 PHE793  MET794  SER795  GLU796  ALA797  LYS798  CYS799  TRP800  GLU811  SER814 

> <Gold.Protein.RotatedAtoms>
  152.4136  133.7002  159.6419 H   0  0  0  0  0  0  0  0  0  0  0  0  # atno 6907 bound_to 6896
  150.8014  133.8580  159.3232 H   0  0  0  0  0  0  0  0  0  0  0  0  # atno 6908 bound_to 6896
  151.6316  135.1024  160.0174 H   0  0  0  0  0  0  0  0  0  0  0  0  # atno 6909 bound_to 6896
  145.3351  140.9449  143.2640 H   0  0  0  0  0  0  0  0  0  0  0  0  # atno 7974 bound_to 7965
  156.2206  140.1818  156.7485 H   0  0  0  0  0  0  0  0  0  0  0  0  # atno 8008 bound_to 7997
  154.5860  140.0658  156.9200 H   0  0  0  0  0  0  0  0  0  0  0  0  # atno 8009 bound_to 7997
  155.2419  140.3322  155.4294 H   0  0  0  0  0  0  0  0  0  0  0  0  # atno 8010 bound_to 7997
  140.7279  143.4118  151.1093 H   0  0  0  0  0  0  0  0  0  0  0  0  # atno 10167 bound_to 10162
  157.0899  131.0415  151.2541 H   0  0  0  0  0  0  0  0  0  0  0  0  # atno 10718 bound_to 10713
  154.6165  135.2870  155.0374 H   0  0  0  0  0  0  0  0  0  0  0  0  # atno 10763 bound_to 10752
  154.1584  135.6492  153.4984 H   0  0  0  0  0  0  0  0  0  0  0  0  # atno 10764 bound_to 10752
  153.0217  135.5372  154.6939 H   0  0  0  0  0  0  0  0  0  0  0  0  # atno 10765 bound_to 10752
  140.8699  133.7727  156.0175 H   0  0  0  0  0  0  0  0  0  0  0  0  # atno 11005 bound_to 11000
  144.8834  139.4873  143.6712 LP  0  0  0  0  0  0  0  0  0  0  0  0  # atno 17320 bound_to 7965
  146.3030  139.7487  142.9077 LP  0  0  0  0  0  0  0  0  0  0  0  0  # atno 17321 bound_to 7965
  139.7753  143.8435  152.3128 LP  0  0  0  0  0  0  0  0  0  0  0  0  # atno 17342 bound_to 10162
  139.8367  144.7229  150.9382 LP  0  0  0  0  0  0  0  0  0  0  0  0  # atno 17343 bound_to 10162
  157.4730  130.7720  149.7341 LP  0  0  0  0  0  0  0  0  0  0  0  0  # atno 17370 bound_to 10713
  155.9901  130.3947  150.3044 LP  0  0  0  0  0  0  0  0  0  0  0  0  # atno 17371 bound_to 10713
  140.8585  134.2869  157.5245 LP  0  0  0  0  0  0  0  0  0  0  0  0  # atno 17394 bound_to 11000
  139.8711  134.9505  156.4058 LP  0  0  0  0  0  0  0  0  0  0  0  0  # atno 17395 bound_to 11000

$$$$
