AV-unprocessed.smi:3303|AV-procd|sdf|12665|dock2
  -GOLD-   2272019 03D 1   1.00000     0.00000
 Structure written by MMmdl.
 45 46  0  0  0  0  0  0  0  0  3 V2000
  147.5481  141.1831  153.8199 C   0  0  0  0  0  0  0  0  0  0  0  0
  148.3831  139.8917  153.7930 C   0  0  2  0  0  0  0  0  0  0  0  0
  147.6515  138.7106  154.4593 C   0  0  0  0  0  0  0  0  0  0  0  0
  148.4243  137.4453  154.3458 N   0  3  2  0  0  0  0  0  0  0  0  0
  147.6399  136.2991  154.8669 C   0  0  0  0  0  0  0  0  0  0  0  0
  149.7924  137.5629  154.9362 C   0  0  1  0  0  0  0  0  0  0  0  0
  150.6184  136.2716  154.7764 C   0  0  0  0  0  0  0  0  0  0  0  0
  150.5607  138.7458  154.3026 C   0  0  0  0  0  0  0  0  0  0  0  0
  149.7961  140.0775  154.3841 C   0  0  2  0  0  0  0  0  0  0  0  0
  149.7589  140.5763  155.7807 N   0  3  0  0  0  0  0  0  0  0  0  0
  151.0641  141.0108  156.3175 C   0  0  0  0  0  0  0  0  0  0  0  0
  151.0740  140.9613  157.8510 C   0  0  0  0  0  0  0  0  0  0  0  0
  151.3846  142.3134  158.4638 C   0  0  0  0  0  0  0  0  0  0  0  0
  152.4979  142.4829  159.3142 C   0  0  0  0  0  0  0  0  0  0  0  0
  152.7351  143.7590  159.8608 C   0  0  0  0  0  0  0  0  0  0  0  0
  151.8543  144.8094  159.5387 C   0  0  0  0  0  0  0  0  0  0  0  0
  150.7702  144.5364  158.6811 C   0  0  0  0  0  0  0  0  0  0  0  0
  150.5331  143.3160  158.1524 N   0  0  0  0  0  0  0  0  0  0  0  0
  147.3273  141.5023  154.8388 H   0  0  0  0  0  0  0  0  0  0  0  0
  146.5959  141.0430  153.3074 H   0  0  0  0  0  0  0  0  0  0  0  0
  148.0709  141.9991  153.3202 H   0  0  0  0  0  0  0  0  0  0  0  0
  148.5103  139.6326  152.7403 H   0  0  0  0  0  0  0  0  0  0  0  0
  147.4537  138.9256  155.5108 H   0  0  0  0  0  0  0  0  0  0  0  0
  146.6804  138.5791  153.9799 H   0  0  0  0  0  0  0  0  0  0  0  0
  147.5589  136.3415  155.9540 H   0  0  0  0  0  0  0  0  0  0  0  0
  148.0893  135.3464  154.5887 H   0  0  0  0  0  0  0  0  0  0  0  0
  146.6311  136.2992  154.4528 H   0  0  0  0  0  0  0  0  0  0  0  0
  149.6801  137.7565  156.0042 H   0  0  0  0  0  0  0  0  0  0  0  0
  151.6408  136.4182  155.1267 H   0  0  0  0  0  0  0  0  0  0  0  0
  150.6706  135.9581  153.7333 H   0  0  0  0  0  0  0  0  0  0  0  0
  150.2087  135.4464  155.3584 H   0  0  0  0  0  0  0  0  0  0  0  0
  151.5390  138.8549  154.7733 H   0  0  0  0  0  0  0  0  0  0  0  0
  150.7589  138.5189  153.2538 H   0  0  0  0  0  0  0  0  0  0  0  0
  150.3305  140.8029  153.7678 H   0  0  0  0  0  0  0  0  0  0  0  0
  149.1224  141.3594  155.8251 H   0  0  0  0  0  0  0  0  0  0  0  0
  151.8467  140.3650  155.9162 H   0  0  0  0  0  0  0  0  0  0  0  0
  151.2740  142.0262  155.9782 H   0  0  0  0  0  0  0  0  0  0  0  0
  150.1078  140.6139  158.2195 H   0  0  0  0  0  0  0  0  0  0  0  0
  151.8134  140.2384  158.1993 H   0  0  0  0  0  0  0  0  0  0  0  0
  153.1565  141.6584  159.5443 H   0  0  0  0  0  0  0  0  0  0  0  0
  153.5771  143.9290  160.5154 H   0  0  0  0  0  0  0  0  0  0  0  0
  152.0058  145.8010  159.9388 H   0  0  0  0  0  0  0  0  0  0  0  0
  150.0745  145.3179  158.4136 H   0  0  0  0  0  0  0  0  0  0  0  0
  149.4061  139.8409  156.3765 H   0  0  0  0  0  0  0  0  0  0  0  0
  148.5484  137.2750  153.3575 H   0  0  0  0  0  0  0  0  0  0  0  0
  1  2  1  0  0  0  0
  1 19  1  0  0  0  0
  1 20  1  0  0  0  0
  1 21  1  0  0  0  0
  2  9  1  0  0  0  0
  2  3  1  0  0  0  0
  2 22  1  0  0  0  0
  3  4  1  0  0  0  0
  3 23  1  0  0  0  0
  3 24  1  0  0  0  0
  4  5  1  0  0  0  0
  4  6  1  0  0  0  0
  4 45  1  0  0  0  0
  5 25  1  0  0  0  0
  5 26  1  0  0  0  0
  5 27  1  0  0  0  0
  6  7  1  0  0  0  0
  6  8  1  0  0  0  0
  6 28  1  0  0  0  0
  7 29  1  0  0  0  0
  7 30  1  0  0  0  0
  7 31  1  0  0  0  0
  8  9  1  0  0  0  0
  8 32  1  0  0  0  0
  8 33  1  0  0  0  0
  9 10  1  0  0  0  0
  9 34  1  0  0  0  0
 10 11  1  0  0  0  0
 10 35  1  0  0  0  0
 10 44  1  0  0  0  0
 11 12  1  0  0  0  0
 11 36  1  0  0  0  0
 11 37  1  0  0  0  0
 12 13  1  0  0  0  0
 12 38  1  0  0  0  0
 12 39  1  0  0  0  0
 13 18  1  0  0  0  0
 13 14  2  0  0  0  0
 14 15  1  0  0  0  0
 14 40  1  0  0  0  0
 15 16  2  0  0  0  0
 15 41  1  0  0  0  0
 16 17  1  0  0  0  0
 16 42  1  0  0  0  0
 17 18  2  0  0  0  0
 17 43  1  0  0  0  0
M  CHG  1   4   1
M  CHG  1  10   1
M  END
> <s_m_source_file>
AV-unprocessed.smi

> <i_m_source_file_index>
3303

> <i_lp_mmshare_version>
43012

> <i_f3d_flags>
0

> <s_epik_input>
W0NIM11bQ0BASF0xW0NIMl1OKFtDSDNdKVtDQEBIXShbQ0gzXSlbQ0gyXVtDQEhdMVtOSF1bQ0gyXVtDSDJdYzJbY0hdW2NIXVtjSF1bY0hdbjI=

> <s_epik_cmdline>
J2VwaWtfcHl0aG9uJywgJy1waCcsICc3LjAnLCAnLXRuJywgJzgnLCAnLW1hJywgJzIwMCcsICctbWV0YWxfYmluZGluZycsICctaW1hZScsICc8aW5maWxlLm1hZT4nLCAnLW9tYWUnLCAnPG91dGZpbGUubWFlPic=

> <r_epik_Ionization_Penalty>
0.0769462

> <r_epik_Ionization_Penalty_Charging>
0.0759813

> <r_epik_Ionization_Penalty_Neutral>
0.000964829

> <r_epik_State_Penalty>
0.0654373

> <r_epik_Charging_Adjusted_Penalty>
0.141419

> <i_epik_Tot_Q>
2

> <i_epik_Tot_abs_Q>
2

> <r_epik_Metal_State_Penalty>
0.0656439

> <b_epik_Metal_Only>
0

> <s_lp_Force_Field>
OPLS_2005

> <r_lp_Energy>
34.324

> <b_lp_Chiralities_Consistent>
1

> <s_lp_Variant>
AV-unprocessed.smi:3303-9

> <Gold.Version>
5.8.1

> <Gold.Id.Protein>
6NUR|6NUR_protein|mol2

> <Gold.PLP.Fitness>
43.5868

> <Gold.PLP.PLP>
-35.6285

> <Gold.PLP.part.hbond>
-1.0000

> <Gold.PLP.part.metal>
0.0000

> <Gold.PLP.part.buried>
-2.2296

> <Gold.PLP.part.nonpolar>
-33.3745

> <Gold.PLP.part.repulsive>
0.2376

> <Gold.PLP.ligand.clash>
0.0000

> <Gold.PLP.ligand.torsion>
0.5427

> <Gold.PLP.Chemscore.Hbond>
2.0000

> <Gold.PLP.Chemscore.CHOScore>
1.0034

> <Gold.PLP.Chemscore.Metal>
0.0000

> <Gold.Chemscore.Hbonds>
donor molecule, donor type, donor heavy atom, donor atom, acceptor molecule, acceptor atom, score
      L1  H     4    45       P1  7948  2.00
      L1  C    17    43       P1  8029  1.00

> <Gold.PLP.Chemscore.Internal.Correction>
0.0336

> <Gold.Rescore>
     Score         DG    S(hbond)    S(metal)    S(lipo)     H(rot)  DE(clash)    DE(int)     intcor
     18.18     -18.65       0.96        0.00     115.18       1.37       0.04       0.43       ----

> <Gold.Chemscore.Fitness>
18.1842

> <Gold.Chemscore.DG>
-18.6515

> <Gold.Chemscore.ZeroCoef>
-5.4800

> <Gold.Chemscore.Hbond>
0.9623

> <Gold.Chemscore.Metal>
0.0000

> <Gold.Chemscore.Lipo>
115.1794

> <Gold.Chemscore.Internal_Hbond>
0.0000

> <Gold.Chemscore.DEClash>
0.0357

> <Gold.Chemscore.DEInternal>
0.4316

> <Gold.Chemscore.Rot>
1.3744

> <Gold.Chemscore.Internal.Correction>
   9.000000E+99

> <Gold.Chemscore.Hbonds>
donor molecule, donor type, donor heavy atom, donor atom, acceptor molecule, acceptor atom, score
      L1  H     4    45       P1  7948  0.98

> <Gold.Chemscore.Hbond.Weighted>
-3.2140

> <Gold.Chemscore.Metal.Weighted>
-0.0000

> <Gold.Chemscore.Lipo.Weighted>
-13.4760

> <Gold.Chemscore.Internal_Hbond.Weighted>
0.0000

> <Gold.Chemscore.DEClash.Weighted>
0.0357

> <Gold.Chemscore.DEInternal.Weighted>
0.4316

> <Gold.Chemscore.Rot.Weighted>
3.5185

> <Gold.Chemscore.Internal.Correction.Weighted>
   9.000000E+99

> <Gold.Protein.RotatedTorsions>
[ 6907 6896 6895 6894 ] final  -86.36 input  -60.11 | X-H torsion
[ 7974 7965 7964 7962 ] final -176.66 input  175.53 | X-H torsion
[ 8008 7997 7996 7995 ] final  -83.66 input   59.86 | X-H torsion
[ 10167 10162 10161 10158 ] final -150.07 input  -65.29 | X-H torsion
[ 10718 10713 10712 10709 ] final  -20.34 input   66.30 | X-H torsion
[ 10763 10752 10751 10750 ] final  -49.69 input  -60.55 | X-H torsion
[ 11005 11000 10999 10996 ] final  -28.00 input  -57.11 | X-H torsion

> <Gold.Protein.ActiveResidues>
 VAL166  LYS551  ARG553  GLY616  TRP617  ASP618  TYR619  PRO620  LYS621  CYS622 
 ASP623  PHE694  ASN695  SER759  ASP760  ASP761  ALA762  ILE779  LEU786  VAL792 
 PHE793  MET794  SER795  GLU796  ALA797  LYS798  CYS799  TRP800  GLU811  SER814 

> <Gold.Protein.RotatedAtoms>
  150.6867  134.3062  159.4727 H   0  0  0  0  0  0  0  0  0  0  0  0  # atno 6907 bound_to 6896
  152.0953  134.9376  160.0580 H   0  0  0  0  0  0  0  0  0  0  0  0  # atno 6908 bound_to 6896
  152.0676  133.4057  159.4482 H   0  0  0  0  0  0  0  0  0  0  0  0  # atno 6909 bound_to 6896
  144.7127  140.1136  143.6409 H   0  0  0  0  0  0  0  0  0  0  0  0  # atno 7974 bound_to 7965
  154.6214  140.0616  156.9620 H   0  0  0  0  0  0  0  0  0  0  0  0  # atno 8008 bound_to 7997
  155.1811  140.3299  155.4356 H   0  0  0  0  0  0  0  0  0  0  0  0  # atno 8009 bound_to 7997
  156.2434  140.1897  156.6907 H   0  0  0  0  0  0  0  0  0  0  0  0  # atno 8010 bound_to 7997
  139.7387  143.8696  152.2556 H   0  0  0  0  0  0  0  0  0  0  0  0  # atno 10167 bound_to 10162
  156.5332  130.4660  149.6536 H   0  0  0  0  0  0  0  0  0  0  0  0  # atno 10718 bound_to 10713
  154.0983  135.6567  153.4864 H   0  0  0  0  0  0  0  0  0  0  0  0  # atno 10763 bound_to 10752
  153.0297  135.5219  154.7312 H   0  0  0  0  0  0  0  0  0  0  0  0  # atno 10764 bound_to 10752
  154.6456  135.2994  155.0019 H   0  0  0  0  0  0  0  0  0  0  0  0  # atno 10765 bound_to 10752
  140.9170  133.7424  156.0748 H   0  0  0  0  0  0  0  0  0  0  0  0  # atno 11005 bound_to 11000
  145.9433  139.2683  143.1256 LP  0  0  0  0  0  0  0  0  0  0  0  0  # atno 17320 bound_to 7965
  145.9401  140.8986  143.0312 LP  0  0  0  0  0  0  0  0  0  0  0  0  # atno 17321 bound_to 7965
  139.8640  144.7102  150.9065 LP  0  0  0  0  0  0  0  0  0  0  0  0  # atno 17342 bound_to 10162
  140.7782  143.3793  151.1505 LP  0  0  0  0  0  0  0  0  0  0  0  0  # atno 17343 bound_to 10162
  156.3040  130.7192  151.2070 LP  0  0  0  0  0  0  0  0  0  0  0  0  # atno 17370 bound_to 10713
  157.7418  131.0499  150.5070 LP  0  0  0  0  0  0  0  0  0  0  0  0  # atno 17371 bound_to 10713
  140.8037  134.3479  157.5432 LP  0  0  0  0  0  0  0  0  0  0  0  0  # atno 17394 bound_to 11000
  139.8768  134.9213  156.3272 LP  0  0  0  0  0  0  0  0  0  0  0  0  # atno 17395 bound_to 11000

$$$$
