AV-unprocessed.smi:3283|AV-procd|sdf|12570|dock2
  -GOLD-   2272018493D 1   1.00000     0.00000
 Structure written by MMmdl.
 44 45  0  0  0  0  0  0  0  0  2 V2000
  144.3813  135.5361  150.3140 C   0  0  0  0  0  0  0  0  0  0  0  0
  144.9801  134.3699  151.0824 C   0  0  0  0  0  0  0  0  0  0  0  0
  144.4626  133.1356  150.9324 C   0  0  0  0  0  0  0  0  0  0  0  0
  145.0224  131.8922  151.5833 C   0  0  0  0  0  0  0  0  0  0  0  0
  146.4820  132.0977  151.9944 C   0  0  0  0  0  0  0  0  0  0  0  0
  146.6629  133.3996  152.7919 C   0  0  1  0  0  0  0  0  0  0  0  0
  148.1273  133.5132  153.2594 C   0  0  0  0  0  0  0  0  0  0  0  0
  146.1918  134.6549  151.9939 C   0  0  2  0  0  0  0  0  0  0  0  0
  145.9470  135.8408  152.9645 C   0  0  0  0  0  0  0  0  0  0  0  0
  146.1702  137.1558  152.3303 N   0  3  0  0  0  0  0  0  0  0  0  0
  145.9590  138.3077  153.2291 C   0  0  0  0  0  0  0  0  0  0  0  0
  146.3249  139.6345  152.5466 C   0  0  0  0  0  0  0  0  0  0  0  0
  146.8092  140.6864  153.4977 C   0  0  0  0  0  0  0  0  0  0  0  0
  146.2593  141.8998  153.8045 C   0  0  0  0  0  0  0  0  0  0  0  0
  147.1419  142.4473  154.7753 C   0  0  0  0  0  0  0  0  0  0  0  0
  148.1528  141.6422  155.0504 N   0  0  0  0  0  0  0  0  0  0  0  0
  147.9570  140.5626  154.2641 N   0  0  0  0  0  0  0  0  0  0  0  0
  148.9126  139.4719  154.3238 C   0  0  0  0  0  0  0  0  0  0  0  0
  145.1590  136.0759  149.7743 H   0  0  0  0  0  0  0  0  0  0  0  0
  143.8683  136.2249  150.9845 H   0  0  0  0  0  0  0  0  0  0  0  0
  143.6506  135.1936  149.5807 H   0  0  0  0  0  0  0  0  0  0  0  0
  143.5993  132.9850  150.3003 H   0  0  0  0  0  0  0  0  0  0  0  0
  144.4058  131.6417  152.4471 H   0  0  0  0  0  0  0  0  0  0  0  0
  144.9506  131.0584  150.8843 H   0  0  0  0  0  0  0  0  0  0  0  0
  146.8163  131.2407  152.5804 H   0  0  0  0  0  0  0  0  0  0  0  0
  147.1105  132.1253  151.1027 H   0  0  0  0  0  0  0  0  0  0  0  0
  146.0376  133.3115  153.6822 H   0  0  0  0  0  0  0  0  0  0  0  0
  148.8053  133.6138  152.4113 H   0  0  0  0  0  0  0  0  0  0  0  0
  148.4287  132.6245  153.8147 H   0  0  0  0  0  0  0  0  0  0  0  0
  148.2916  134.3656  153.9165 H   0  0  0  0  0  0  0  0  0  0  0  0
  147.0037  134.9284  151.3180 H   0  0  0  0  0  0  0  0  0  0  0  0
  144.9310  135.7906  153.3592 H   0  0  0  0  0  0  0  0  0  0  0  0
  146.6118  135.7884  153.8252 H   0  0  0  0  0  0  0  0  0  0  0  0
  147.1191  137.1878  151.9848 H   0  0  0  0  0  0  0  0  0  0  0  0
  144.9120  138.3306  153.5346 H   0  0  0  0  0  0  0  0  0  0  0  0
  146.5543  138.1773  154.1340 H   0  0  0  0  0  0  0  0  0  0  0  0
  147.0648  139.4538  151.7669 H   0  0  0  0  0  0  0  0  0  0  0  0
  145.4443  140.0135  152.0266 H   0  0  0  0  0  0  0  0  0  0  0  0
  145.3573  142.3320  153.3969 H   0  0  0  0  0  0  0  0  0  0  0  0
  147.0770  143.3969  155.2860 H   0  0  0  0  0  0  0  0  0  0  0  0
  149.1814  139.1529  153.3168 H   0  0  0  0  0  0  0  0  0  0  0  0
  148.4781  138.6326  154.8653 H   0  0  0  0  0  0  0  0  0  0  0  0
  149.8216  139.7870  154.8385 H   0  0  0  0  0  0  0  0  0  0  0  0
  145.5387  137.2417  151.5469 H   0  0  0  0  0  0  0  0  0  0  0  0
  1  2  1  0  0  0  0
  1 19  1  0  0  0  0
  1 20  1  0  0  0  0
  1 21  1  0  0  0  0
  2  8  1  0  0  0  0
  2  3  2  0  0  0  0
  3  4  1  0  0  0  0
  3 22  1  0  0  0  0
  4  5  1  0  0  0  0
  4 23  1  0  0  0  0
  4 24  1  0  0  0  0
  5  6  1  0  0  0  0
  5 25  1  0  0  0  0
  5 26  1  0  0  0  0
  6  7  1  0  0  0  0
  6  8  1  0  0  0  0
  6 27  1  0  0  0  0
  7 28  1  0  0  0  0
  7 29  1  0  0  0  0
  7 30  1  0  0  0  0
  8  9  1  0  0  0  0
  8 31  1  0  0  0  0
  9 10  1  0  0  0  0
  9 32  1  0  0  0  0
  9 33  1  0  0  0  0
 10 11  1  0  0  0  0
 10 34  1  0  0  0  0
 10 44  1  0  0  0  0
 11 12  1  0  0  0  0
 11 35  1  0  0  0  0
 11 36  1  0  0  0  0
 12 13  1  0  0  0  0
 12 37  1  0  0  0  0
 12 38  1  0  0  0  0
 13 17  1  0  0  0  0
 13 14  2  0  0  0  0
 14 15  1  0  0  0  0
 14 39  1  0  0  0  0
 15 16  2  0  0  0  0
 15 40  1  0  0  0  0
 16 17  1  0  0  0  0
 17 18  1  0  0  0  0
 18 41  1  0  0  0  0
 18 42  1  0  0  0  0
 18 43  1  0  0  0  0
M  CHG  1  10   1
M  END
> <s_m_source_file>
AV-unprocessed.smi

> <i_m_source_file_index>
3283

> <i_lp_mmshare_version>
43012

> <i_f3d_flags>
0

> <s_epik_input>
W0NIM11DMT1bQ0hdW0NIMl1bQ0gyXVtDQEBIXShbQ0gzXSlbQ0BIXTFbQ0gyXVtOSF1bQ0gyXVtDSDJdYzJbY0hdW2NIXW5uMltDSDNd

> <s_epik_cmdline>
J2VwaWtfcHl0aG9uJywgJy1waCcsICc3LjAnLCAnLXRuJywgJzgnLCAnLW1hJywgJzIwMCcsICctbWV0YWxfYmluZGluZycsICctaW1hZScsICc8aW5maWxlLm1hZT4nLCAnLW9tYWUnLCAnPG91dGZpbGUubWFlPic=

> <r_lp_tautomer_probability>
1

> <r_epik_Ionization_Penalty>
0.000866911

> <r_epik_Ionization_Penalty_Charging>
0.000836385

> <r_epik_Ionization_Penalty_Neutral>
3.05258e-05

> <r_epik_State_Penalty>
-0

> <r_epik_Charging_Adjusted_Penalty>
0.000836385

> <i_epik_Tot_Q>
1

> <i_epik_Tot_abs_Q>
1

> <r_epik_Metal_State_Penalty>
-0

> <b_epik_Metal_Only>
0

> <s_lp_Force_Field>
OPLS_2005

> <r_lp_Energy>
14.6104

> <b_lp_Chiralities_Consistent>
1

> <s_lp_Variant>
AV-unprocessed.smi:3283-3

> <Gold.Version>
5.8.1

> <Gold.Id.Protein>
6NUR|6NUR_protein|mol2

> <Gold.PLP.Fitness>
44.7682

> <Gold.PLP.PLP>
-36.6868

> <Gold.PLP.part.hbond>
-1.0000

> <Gold.PLP.part.metal>
0.0000

> <Gold.PLP.part.buried>
0.7792

> <Gold.PLP.part.nonpolar>
-34.7080

> <Gold.PLP.part.repulsive>
0.1629

> <Gold.PLP.ligand.clash>
0.0000

> <Gold.PLP.ligand.torsion>
0.4856

> <Gold.PLP.Chemscore.Hbond>
2.0000

> <Gold.PLP.Chemscore.CHOScore>
1.0000

> <Gold.PLP.Chemscore.Metal>
0.0000

> <Gold.Chemscore.Hbonds>
donor molecule, donor type, donor heavy atom, donor atom, acceptor molecule, acceptor atom, score
      L1  H    10    34       P1  7948  1.81
      L1  C    15    40       P1  8028  0.37

> <Gold.PLP.Chemscore.Internal.Correction>
0.0527

> <Gold.Rescore>
     Score         DG    S(hbond)    S(metal)    S(lipo)     H(rot)  DE(clash)    DE(int)     intcor
     15.21     -16.06       0.99        0.00      94.77       1.48       0.26       0.58       ----

> <Gold.Chemscore.Fitness>
15.2149

> <Gold.Chemscore.DG>
-16.0578

> <Gold.Chemscore.ZeroCoef>
-5.4800

> <Gold.Chemscore.Hbond>
0.9852

> <Gold.Chemscore.Metal>
0.0000

> <Gold.Chemscore.Lipo>
94.7694

> <Gold.Chemscore.Internal_Hbond>
0.0000

> <Gold.Chemscore.DEClash>
0.2593

> <Gold.Chemscore.DEInternal>
0.5836

> <Gold.Chemscore.Rot>
1.4847

> <Gold.Chemscore.Internal.Correction>
   9.000000E+99

> <Gold.Chemscore.Hbonds>
donor molecule, donor type, donor heavy atom, donor atom, acceptor molecule, acceptor atom, score
      L1  H    10    34       P1  7948  0.83

> <Gold.Chemscore.Hbond.Weighted>
-3.2906

> <Gold.Chemscore.Metal.Weighted>
-0.0000

> <Gold.Chemscore.Lipo.Weighted>
-11.0880

> <Gold.Chemscore.Internal_Hbond.Weighted>
0.0000

> <Gold.Chemscore.DEClash.Weighted>
0.2593

> <Gold.Chemscore.DEInternal.Weighted>
0.5836

> <Gold.Chemscore.Rot.Weighted>
3.8008

> <Gold.Chemscore.Internal.Correction.Weighted>
   9.000000E+99

> <Gold.Protein.RotatedTorsions>
[ 6907 6896 6895 6894 ] final  148.29 input  -60.11 | X-H torsion
[ 7974 7965 7964 7962 ] final  116.24 input  175.53 | X-H torsion
[ 8008 7997 7996 7995 ] final  126.92 input   59.86 | X-H torsion
[ 10167 10162 10161 10158 ] final -144.04 input  -65.29 | X-H torsion
[ 10718 10713 10712 10709 ] final -107.45 input   66.30 | X-H torsion
[ 10763 10752 10751 10750 ] final  110.86 input  -60.55 | X-H torsion
[ 11005 11000 10999 10996 ] final   -1.61 input  -57.11 | X-H torsion

> <Gold.Protein.ActiveResidues>
 VAL166  LYS551  ARG553  GLY616  TRP617  ASP618  TYR619  PRO620  LYS621  CYS622 
 ASP623  PHE694  ASN695  SER759  ASP760  ASP761  ALA762  ILE779  LEU786  VAL792 
 PHE793  MET794  SER795  GLU796  ALA797  LYS798  CYS799  TRP800  GLU811  SER814 

> <Gold.Protein.RotatedAtoms>
  152.1435  133.4478  159.4778 H   0  0  0  0  0  0  0  0  0  0  0  0  # atno 6907 bound_to 6896
  150.6888  134.2276  159.4431 H   0  0  0  0  0  0  0  0  0  0  0  0  # atno 6908 bound_to 6896
  152.0168  134.9844  160.0620 H   0  0  0  0  0  0  0  0  0  0  0  0  # atno 6909 bound_to 6896
  145.1821  139.3044  143.4413 H   0  0  0  0  0  0  0  0  0  0  0  0  # atno 7974 bound_to 7965
  156.2877  140.2681  156.2190 H   0  0  0  0  0  0  0  0  0  0  0  0  # atno 8008 bound_to 7997
  155.0187  140.0386  157.2447 H   0  0  0  0  0  0  0  0  0  0  0  0  # atno 8009 bound_to 7997
  154.7454  140.2733  155.6342 H   0  0  0  0  0  0  0  0  0  0  0  0  # atno 8010 bound_to 7997
  139.7937  143.7930  152.2652 H   0  0  0  0  0  0  0  0  0  0  0  0  # atno 10167 bound_to 10162
  156.0437  130.5663  150.7822 H   0  0  0  0  0  0  0  0  0  0  0  0  # atno 10718 bound_to 10713
  153.4550  135.3735  155.2306 H   0  0  0  0  0  0  0  0  0  0  0  0  # atno 10763 bound_to 10752
  154.8757  135.3895  154.3993 H   0  0  0  0  0  0  0  0  0  0  0  0  # atno 10764 bound_to 10752
  153.4558  135.7086  153.6145 H   0  0  0  0  0  0  0  0  0  0  0  0  # atno 10765 bound_to 10752
  140.6492  133.9420  155.8370 H   0  0  0  0  0  0  0  0  0  0  0  0  # atno 11005 bound_to 11000
  146.3451  140.2004  142.8589 LP  0  0  0  0  0  0  0  0  0  0  0  0  # atno 17320 bound_to 7965
  145.0126  140.8727  143.5215 LP  0  0  0  0  0  0  0  0  0  0  0  0  # atno 17321 bound_to 7965
  139.8029  144.7367  150.9800 LP  0  0  0  0  0  0  0  0  0  0  0  0  # atno 17342 bound_to 10162
  140.7820  143.4327  151.0671 LP  0  0  0  0  0  0  0  0  0  0  0  0  # atno 17343 bound_to 10162
  157.5287  131.0935  150.9984 LP  0  0  0  0  0  0  0  0  0  0  0  0  # atno 17370 bound_to 10713
  157.0296  130.5706  149.5341 LP  0  0  0  0  0  0  0  0  0  0  0  0  # atno 17371 bound_to 10713
  141.0549  134.0431  157.3735 LP  0  0  0  0  0  0  0  0  0  0  0  0  # atno 17394 bound_to 11000
  139.9052  135.0177  156.7452 LP  0  0  0  0  0  0  0  0  0  0  0  0  # atno 17395 bound_to 11000

$$$$
