AV-unprocessed.smi:1533|AV-procd|sdf|6162|dock1
  -GOLD-   22720 6313D 1   1.00000     0.00000
 Structure written by MMmdl.
 37 39  0  0  0  0  0  0  0  0  1 V2000
  151.6825  130.3809  157.9372 C   0  0  0  0  0  0  0  0  0  0  0  0
  151.2539  131.4359  156.9759 C   0  0  0  0  0  0  0  0  0  0  0  0
  151.6287  132.7005  157.1238 N   0  0  0  0  0  0  0  0  0  0  0  0
  150.9960  133.3523  156.0552 O   0  0  0  0  0  0  0  0  0  0  0  0
  150.3234  132.3890  155.3813 C   0  0  0  0  0  0  0  0  0  0  0  0
  149.4531  132.7852  154.2323 C   0  0  0  0  0  0  0  0  0  0  0  0
  148.5900  131.6349  153.6760 C   0  0  0  0  0  0  0  0  0  0  0  0
  147.8377  132.0261  152.4853 N   0  0  0  0  0  0  0  0  0  0  0  0
  147.1300  133.1590  152.3474 C   0  0  0  0  0  0  0  0  0  0  0  0
  147.0901  134.0339  153.2130 O   0  0  0  0  0  0  0  0  0  0  0  0
  146.3311  133.3028  151.0404 C   0  0  2  0  0  0  0  0  0  0  0  0
  145.2531  134.4158  151.0816 C   0  0  0  0  0  0  0  0  0  0  0  0
  143.9539  133.6602  150.7367 C   0  0  1  0  0  0  0  0  0  0  0  0
  143.9891  133.2340  149.2568 C   0  0  0  0  0  0  0  0  0  0  0  0
  145.0327  132.1002  149.2555 C   0  0  0  0  0  0  0  0  0  0  0  0
  145.4755  132.0489  150.7300 C   0  0  2  0  0  0  0  0  0  0  0  0
  144.1568  132.3290  151.4484 C   0  0  0  0  0  0  0  0  0  0  0  0
  150.4467  131.1743  155.9122 N   0  0  0  0  0  0  0  0  0  0  0  0
  152.5162  130.7268  158.5492 H   0  0  0  0  0  0  0  0  0  0  0  0
  151.9977  129.4857  157.4010 H   0  0  0  0  0  0  0  0  0  0  0  0
  150.8551  130.1179  158.5966 H   0  0  0  0  0  0  0  0  0  0  0  0
  148.8111  133.6070  154.5507 H   0  0  0  0  0  0  0  0  0  0  0  0
  150.0895  133.1824  153.4407 H   0  0  0  0  0  0  0  0  0  0  0  0
  149.2178  130.7679  153.4638 H   0  0  0  0  0  0  0  0  0  0  0  0
  147.8784  131.3132  154.4363 H   0  0  0  0  0  0  0  0  0  0  0  0
  147.8155  131.3629  151.7244 H   0  0  0  0  0  0  0  0  0  0  0  0
  147.0316  133.4919  150.2250 H   0  0  0  0  0  0  0  0  0  0  0  0
  145.1699  134.8832  152.0640 H   0  0  0  0  0  0  0  0  0  0  0  0
  145.4616  135.2111  150.3650 H   0  0  0  0  0  0  0  0  0  0  0  0
  143.0477  134.1987  151.0149 H   0  0  0  0  0  0  0  0  0  0  0  0
  143.0163  132.8589  148.9363 H   0  0  0  0  0  0  0  0  0  0  0  0
  144.2658  134.0560  148.5956 H   0  0  0  0  0  0  0  0  0  0  0  0
  144.5731  131.1573  148.9568 H   0  0  0  0  0  0  0  0  0  0  0  0
  145.8624  132.2960  148.5755 H   0  0  0  0  0  0  0  0  0  0  0  0
  145.9494  131.1057  151.0040 H   0  0  0  0  0  0  0  0  0  0  0  0
  144.2474  132.4240  152.5307 H   0  0  0  0  0  0  0  0  0  0  0  0
  143.3794  131.5962  151.2245 H   0  0  0  0  0  0  0  0  0  0  0  0
  1  2  1  0  0  0  0
  1 19  1  0  0  0  0
  1 20  1  0  0  0  0
  1 21  1  0  0  0  0
  2 18  1  0  0  0  0
  2  3  2  0  0  0  0
  3  4  1  0  0  0  0
  4  5  1  0  0  0  0
  5  6  1  0  0  0  0
  5 18  2  0  0  0  0
  6  7  1  0  0  0  0
  6 22  1  0  0  0  0
  6 23  1  0  0  0  0
  7  8  1  0  0  0  0
  7 24  1  0  0  0  0
  7 25  1  0  0  0  0
  8  9  1  0  0  0  0
  8 26  1  0  0  0  0
  9 10  2  0  0  0  0
  9 11  1  0  0  0  0
 11 16  1  0  0  0  0
 11 12  1  0  0  0  0
 11 27  1  0  0  0  0
 12 13  1  0  0  0  0
 12 28  1  0  0  0  0
 12 29  1  0  0  0  0
 13 17  1  0  0  0  0
 13 14  1  0  0  0  0
 13 30  1  0  0  0  0
 14 15  1  0  0  0  0
 14 31  1  0  0  0  0
 14 32  1  0  0  0  0
 15 16  1  0  0  0  0
 15 33  1  0  0  0  0
 15 34  1  0  0  0  0
 16 17  1  0  0  0  0
 16 35  1  0  0  0  0
 17 36  1  0  0  0  0
 17 37  1  0  0  0  0
M  END
> <s_m_source_file>
AV-unprocessed.smi

> <i_m_source_file_index>
1533

> <i_lp_mmshare_version>
43012

> <i_f3d_flags>
0

> <s_epik_input>
W0NIM11jMW5vYyhuMSlbQ0gyXVtDSDJdW05IXUMoPU8pW0NASF0oW0NIMl1bQ0BASF0yMylbQ0BASF0oW0NIMl0zKVtDSDJdW0NIMl0y

> <s_epik_cmdline>
J2VwaWtfcHl0aG9uJywgJy1waCcsICc3LjAnLCAnLXRuJywgJzgnLCAnLW1hJywgJzIwMCcsICctbWV0YWxfYmluZGluZycsICctaW1hZScsICc8aW5maWxlLm1hZT4nLCAnLW9tYWUnLCAnPG91dGZpbGUubWFlPic=

> <r_lp_tautomer_probability>
1

> <r_epik_Ionization_Penalty>
1.90116e-08

> <r_epik_Ionization_Penalty_Charging>
0

> <r_epik_Ionization_Penalty_Neutral>
1.90116e-08

> <r_epik_State_Penalty>
-0

> <r_epik_Charging_Adjusted_Penalty>
0

> <i_epik_Tot_Q>
0

> <i_epik_Tot_abs_Q>
0

> <r_epik_Metal_State_Penalty>
-0

> <b_epik_Metal_Only>
0

> <s_lp_Force_Field>
OPLS_2005

> <r_lp_Energy>
43.4718

> <b_lp_Chiralities_Consistent>
1

> <s_lp_Variant>
AV-unprocessed.smi:1533-1

> <Gold.Version>
5.8.1

> <Gold.Id.Protein>
6NUR|6NUR_protein|mol2

> <Gold.PLP.Fitness>
40.6999

> <Gold.PLP.PLP>
-36.0412

> <Gold.PLP.part.hbond>
-2.0000

> <Gold.PLP.part.metal>
0.0000

> <Gold.PLP.part.buried>
-4.7206

> <Gold.PLP.part.nonpolar>
-28.7483

> <Gold.PLP.part.repulsive>
0.1000

> <Gold.PLP.ligand.clash>
0.0000

> <Gold.PLP.ligand.torsion>
0.4016

> <Gold.PLP.Chemscore.Hbond>
1.8000

> <Gold.PLP.Chemscore.CHOScore>
0.0000

> <Gold.PLP.Chemscore.Metal>
0.0000

> <Gold.Chemscore.Hbonds>
donor molecule, donor type, donor heavy atom, donor atom, acceptor molecule, acceptor atom, score
      L1  H     8    26       P1 10747  0.72
      P1  H  6896  6908       L1     3  0.59

> <Gold.PLP.Chemscore.Internal.Correction>
0.0620

> <Gold.Rescore>
     Score         DG    S(hbond)    S(metal)    S(lipo)     H(rot)  DE(clash)    DE(int)     intcor
     14.19     -15.71       1.90        0.00      73.64       1.85       0.01       1.52       ----

> <Gold.Chemscore.Fitness>
14.1936

> <Gold.Chemscore.DG>
-15.7147

> <Gold.Chemscore.ZeroCoef>
-5.4800

> <Gold.Chemscore.Hbond>
1.9019

> <Gold.Chemscore.Metal>
0.0000

> <Gold.Chemscore.Lipo>
73.6379

> <Gold.Chemscore.Internal_Hbond>
0.0000

> <Gold.Chemscore.DEClash>
0.0060

> <Gold.Chemscore.DEInternal>
1.5151

> <Gold.Chemscore.Rot>
1.8490

> <Gold.Chemscore.Internal.Correction>
   9.000000E+99

> <Gold.Chemscore.Hbonds>
donor molecule, donor type, donor heavy atom, donor atom, acceptor molecule, acceptor atom, score
      L1  H     8    26       P1 10747  0.72
      P1  H  6896  6908       L1     3  0.44

> <Gold.Chemscore.Hbond.Weighted>
-6.3524

> <Gold.Chemscore.Metal.Weighted>
-0.0000

> <Gold.Chemscore.Lipo.Weighted>
-8.6156

> <Gold.Chemscore.Internal_Hbond.Weighted>
0.0000

> <Gold.Chemscore.DEClash.Weighted>
0.0060

> <Gold.Chemscore.DEInternal.Weighted>
1.5151

> <Gold.Chemscore.Rot.Weighted>
4.7334

> <Gold.Chemscore.Internal.Correction.Weighted>
   9.000000E+99

> <Gold.Protein.RotatedTorsions>
[ 6907 6896 6895 6894 ] final   71.25 input  -60.11 | X-H torsion
[ 7974 7965 7964 7962 ] final -133.46 input  175.53 | X-H torsion
[ 8008 7997 7996 7995 ] final  -42.05 input   59.86 | X-H torsion
[ 10167 10162 10161 10158 ] final -115.25 input  -65.29 | X-H torsion
[ 10718 10713 10712 10709 ] final   46.54 input   66.30 | X-H torsion
[ 10763 10752 10751 10750 ] final  141.30 input  -60.55 | X-H torsion
[ 11005 11000 10999 10996 ] final  -45.39 input  -57.11 | X-H torsion

> <Gold.Protein.ActiveResidues>
 VAL166  LYS551  ARG553  GLY616  TRP617  ASP618  TYR619  PRO620  LYS621  CYS622 
 ASP623  PHE694  ASN695  SER759  ASP760  ASP761  ALA762  ILE779  LEU786  VAL792 
 PHE793  MET794  SER795  GLU796  ALA797  LYS798  CYS799  TRP800  GLU811  SER814 

> <Gold.Protein.RotatedAtoms>
  152.4799  134.4748  159.9646 H   0  0  0  0  0  0  0  0  0  0  0  0  # atno 6907 bound_to 6896
  151.4756  133.3552  159.2838 H   0  0  0  0  0  0  0  0  0  0  0  0  # atno 6908 bound_to 6896
  150.8863  134.8287  159.7322 H   0  0  0  0  0  0  0  0  0  0  0  0  # atno 6909 bound_to 6896
  144.9191  140.6992  143.4976 H   0  0  0  0  0  0  0  0  0  0  0  0  # atno 7974 bound_to 7965
  154.4001  140.1483  156.3291 H   0  0  0  0  0  0  0  0  0  0  0  0  # atno 8008 bound_to 7997
  155.8460  140.3460  155.5641 H   0  0  0  0  0  0  0  0  0  0  0  0  # atno 8009 bound_to 7997
  155.8036  140.0874  157.1934 H   0  0  0  0  0  0  0  0  0  0  0  0  # atno 8010 bound_to 7997
  140.0921  143.4690  152.1864 H   0  0  0  0  0  0  0  0  0  0  0  0  # atno 10167 bound_to 10162
  157.4491  130.8127  149.7770 H   0  0  0  0  0  0  0  0  0  0  0  0  # atno 10718 bound_to 10713
  153.9369  135.2984  155.3444 H   0  0  0  0  0  0  0  0  0  0  0  0  # atno 10763 bound_to 10752
  154.7497  135.4986  153.9270 H   0  0  0  0  0  0  0  0  0  0  0  0  # atno 10764 bound_to 10752
  153.1062  135.6747  153.9688 H   0  0  0  0  0  0  0  0  0  0  0  0  # atno 10765 bound_to 10752
  141.0512  133.6742  156.3006 H   0  0  0  0  0  0  0  0  0  0  0  0  # atno 11005 bound_to 11000
  145.3326  139.1755  143.4529 LP  0  0  0  0  0  0  0  0  0  0  0  0  # atno 17320 bound_to 7965
  146.3196  140.3357  142.8644 LP  0  0  0  0  0  0  0  0  0  0  0  0  # atno 17321 bound_to 7965
  139.5719  144.7467  151.3868 LP  0  0  0  0  0  0  0  0  0  0  0  0  # atno 17342 bound_to 10162
  140.7023  143.7601  150.7423 LP  0  0  0  0  0  0  0  0  0  0  0  0  # atno 17343 bound_to 10162
  155.9980  130.3897  150.2720 LP  0  0  0  0  0  0  0  0  0  0  0  0  # atno 17370 bound_to 10713
  157.0890  131.0164  151.3128 LP  0  0  0  0  0  0  0  0  0  0  0  0  # atno 17371 bound_to 10713
  140.6051  134.5515  157.5524 LP  0  0  0  0  0  0  0  0  0  0  0  0  # atno 17394 bound_to 11000
  139.9352  134.7889  156.0822 LP  0  0  0  0  0  0  0  0  0  0  0  0  # atno 17395 bound_to 11000

$$$$
