AV-unprocessed.smi:2453|AV-procd|sdf|9693|dock1
  -GOLD-   2272013333D 1   1.00000     0.00000
 Structure written by MMmdl.
 41 42  0  0  0  0  0  0  0  0  2 V2000
  152.2048  144.2895  161.3359 C   0  0  0  0  0  0  0  0  0  0  0  0
  151.8986  143.6981  159.9709 C   0  0  0  0  0  0  0  0  0  0  0  0
  151.0643  144.4065  159.0787 C   0  0  0  0  0  0  0  0  0  0  0  0
  150.7859  143.8969  157.8607 N   0  3  0  0  0  0  0  0  0  0  0  0
  151.2805  142.7167  157.4341 C   0  0  0  0  0  0  0  0  0  0  0  0
  152.1204  141.9609  158.2756 C   0  0  0  0  0  0  0  0  0  0  0  0
  152.4300  142.4439  159.5736 C   0  0  0  0  0  0  0  0  0  0  0  0
  153.2800  141.7497  160.4820 N   0  0  0  0  0  0  0  0  0  0  0  0
  154.0606  140.6783  160.2576 C   0  0  0  0  0  0  0  0  0  0  0  0
  154.1798  140.0965  159.1798 O   0  0  0  0  0  0  0  0  0  0  0  0
  154.6944  140.2996  161.3767 N   0  0  0  0  0  0  0  0  0  0  0  0
  155.6282  139.1771  161.4872 C   0  0  2  0  0  0  0  0  0  0  0  0
  155.0524  137.9093  160.8185 C   0  0  0  0  0  0  0  0  0  0  0  0
  153.8660  137.3258  161.6035 C   0  0  0  0  0  0  0  0  0  0  0  0
  154.2513  137.0529  163.0644 C   0  0  0  0  0  0  0  0  0  0  0  0
  154.8060  138.3159  163.7421 C   0  0  0  0  0  0  0  0  0  0  0  0
  156.0064  138.9021  162.9677 C   0  0  2  0  0  0  0  0  0  0  0  0
  156.5895  140.1304  163.6987 C   0  0  0  0  0  0  0  0  0  0  0  0
  155.6485  141.1819  163.7496 O   0  0  0  0  0  0  0  0  0  0  0  0
  151.6989  145.2453  161.4762 H   0  0  0  0  0  0  0  0  0  0  0  0
  153.2767  144.4566  161.4466 H   0  0  0  0  0  0  0  0  0  0  0  0
  151.8758  143.6150  162.1271 H   0  0  0  0  0  0  0  0  0  0  0  0
  150.6135  145.3631  159.3004 H   0  0  0  0  0  0  0  0  0  0  0  0
  150.9971  142.4160  156.4358 H   0  0  0  0  0  0  0  0  0  0  0  0
  152.5191  141.0311  157.9008 H   0  0  0  0  0  0  0  0  0  0  0  0
  153.2339  142.0657  161.4395 H   0  0  0  0  0  0  0  0  0  0  0  0
  154.5274  140.8283  162.2201 H   0  0  0  0  0  0  0  0  0  0  0  0
  156.5417  139.4473  160.9543 H   0  0  0  0  0  0  0  0  0  0  0  0
  154.7530  138.1187  159.7909 H   0  0  0  0  0  0  0  0  0  0  0  0
  155.8379  137.1555  160.7528 H   0  0  0  0  0  0  0  0  0  0  0  0
  153.0227  138.0165  161.5683 H   0  0  0  0  0  0  0  0  0  0  0  0
  153.5270  136.4035  161.1309 H   0  0  0  0  0  0  0  0  0  0  0  0
  153.3848  136.6855  163.6146 H   0  0  0  0  0  0  0  0  0  0  0  0
  154.9998  136.2603  163.1019 H   0  0  0  0  0  0  0  0  0  0  0  0
  154.0153  139.0625  163.8255 H   0  0  0  0  0  0  0  0  0  0  0  0
  155.1048  138.0735  164.7625 H   0  0  0  0  0  0  0  0  0  0  0  0
  156.7833  138.1354  162.9650 H   0  0  0  0  0  0  0  0  0  0  0  0
  156.9086  139.8802  164.7106 H   0  0  0  0  0  0  0  0  0  0  0  0
  157.4714  140.4968  163.1725 H   0  0  0  0  0  0  0  0  0  0  0  0
  155.8558  141.8048  163.0697 H   0  0  0  0  0  0  0  0  0  0  0  0
  150.1808  144.4290  157.2343 H   0  0  0  0  0  0  0  0  0  0  0  0
  1  2  1  0  0  0  0
  1 20  1  0  0  0  0
  1 21  1  0  0  0  0
  1 22  1  0  0  0  0
  2  7  1  0  0  0  0
  2  3  2  0  0  0  0
  3  4  1  0  0  0  0
  3 23  1  0  0  0  0
  4  5  2  0  0  0  0
  4 41  1  0  0  0  0
  5  6  1  0  0  0  0
  5 24  1  0  0  0  0
  6  7  2  0  0  0  0
  6 25  1  0  0  0  0
  7  8  1  0  0  0  0
  8  9  1  0  0  0  0
  8 26  1  0  0  0  0
  9 10  2  0  0  0  0
  9 11  1  0  0  0  0
 11 12  1  0  0  0  0
 11 27  1  0  0  0  0
 12 17  1  0  0  0  0
 12 13  1  0  0  0  0
 12 28  1  0  0  0  0
 13 14  1  0  0  0  0
 13 29  1  0  0  0  0
 13 30  1  0  0  0  0
 14 15  1  0  0  0  0
 14 31  1  0  0  0  0
 14 32  1  0  0  0  0
 15 16  1  0  0  0  0
 15 33  1  0  0  0  0
 15 34  1  0  0  0  0
 16 17  1  0  0  0  0
 16 35  1  0  0  0  0
 16 36  1  0  0  0  0
 17 18  1  0  0  0  0
 17 37  1  0  0  0  0
 18 19  1  0  0  0  0
 18 38  1  0  0  0  0
 18 39  1  0  0  0  0
 19 40  1  0  0  0  0
M  CHG  1   4   1
M  END
> <s_m_source_file>
AV-unprocessed.smi

> <i_m_source_file_index>
2453

> <i_lp_mmshare_version>
43012

> <i_f3d_flags>
0

> <s_epik_input>
W0NIM11jMVtjSF1uW2NIXVtjSF1jMVtOSF1DKD1PKVtOSF1bQ0BASF0yW0NIMl1bQ0gyXVtDSDJdW0NIMl1bQ0BIXTJbQ0gyXVtPSF0=

> <s_epik_cmdline>
J2VwaWtfcHl0aG9uJywgJy1waCcsICc3LjAnLCAnLXRuJywgJzgnLCAnLW1hJywgJzIwMCcsICctbWV0YWxfYmluZGluZycsICctaW1hZScsICc8aW5maWxlLm1hZT4nLCAnLW9tYWUnLCAnPG91dGZpbGUubWFlPic=

> <r_epik_Ionization_Penalty>
0.71493

> <r_epik_Ionization_Penalty_Charging>
0.714909

> <r_epik_Ionization_Penalty_Neutral>
2.10174e-05

> <r_epik_State_Penalty>
0.738815

> <r_epik_Charging_Adjusted_Penalty>
1.45372

> <i_epik_Tot_Q>
1

> <i_epik_Tot_abs_Q>
1

> <r_epik_Metal_State_Penalty>
0.896004

> <b_epik_Metal_Only>
0

> <s_lp_Force_Field>
OPLS_2005

> <r_lp_Energy>
23.4008

> <b_lp_Chiralities_Consistent>
1

> <s_lp_Variant>
AV-unprocessed.smi:2453-7

> <Gold.Version>
5.8.1

> <Gold.Id.Protein>
6NUR|6NUR_protein|mol2

> <Gold.PLP.Fitness>
43.9898

> <Gold.PLP.PLP>
-35.2974

> <Gold.PLP.part.hbond>
-3.0000

> <Gold.PLP.part.metal>
0.0000

> <Gold.PLP.part.buried>
-5.6747

> <Gold.PLP.part.nonpolar>
-25.7622

> <Gold.PLP.part.repulsive>
0.0815

> <Gold.PLP.ligand.clash>
0.0000

> <Gold.PLP.ligand.torsion>
0.1384

> <Gold.PLP.Chemscore.Hbond>
2.9833

> <Gold.PLP.Chemscore.CHOScore>
0.0000

> <Gold.PLP.Chemscore.Metal>
0.0000

> <Gold.Chemscore.Hbonds>
donor molecule, donor type, donor heavy atom, donor atom, acceptor molecule, acceptor atom, score
      L1  H     4    41       P1  8028  2.00
      P1  H  7997  8008       L1    10  0.97

> <Gold.PLP.Chemscore.Internal.Correction>
0.0192

> <Gold.Rescore>
     Score         DG    S(hbond)    S(metal)    S(lipo)     H(rot)  DE(clash)    DE(int)     intcor
     13.64     -18.92       1.81        0.00     102.13       1.77       1.21       4.07       ----

> <Gold.Chemscore.Fitness>
13.6395

> <Gold.Chemscore.DG>
-18.9187

> <Gold.Chemscore.ZeroCoef>
-5.4800

> <Gold.Chemscore.Hbond>
1.8058

> <Gold.Chemscore.Metal>
0.0000

> <Gold.Chemscore.Lipo>
102.1321

> <Gold.Chemscore.Internal_Hbond>
0.0000

> <Gold.Chemscore.DEClash>
1.2137

> <Gold.Chemscore.DEInternal>
4.0656

> <Gold.Chemscore.Rot>
1.7742

> <Gold.Chemscore.Internal.Correction>
   9.000000E+99

> <Gold.Chemscore.Hbonds>
donor molecule, donor type, donor heavy atom, donor atom, acceptor molecule, acceptor atom, score
      L1  H     4    41       P1  8028  0.56
      P1  H  7997  8008       L1    10  0.86

> <Gold.Chemscore.Hbond.Weighted>
-6.0312

> <Gold.Chemscore.Metal.Weighted>
-0.0000

> <Gold.Chemscore.Lipo.Weighted>
-11.9495

> <Gold.Chemscore.Internal_Hbond.Weighted>
0.0000

> <Gold.Chemscore.DEClash.Weighted>
1.2137

> <Gold.Chemscore.DEInternal.Weighted>
4.0656

> <Gold.Chemscore.Rot.Weighted>
4.5419

> <Gold.Chemscore.Internal.Correction.Weighted>
   9.000000E+99

> <Gold.Protein.RotatedTorsions>
[ 6907 6896 6895 6894 ] final -151.83 input  -60.11 | X-H torsion
[ 7974 7965 7964 7962 ] final  164.20 input  175.53 | X-H torsion
[ 8008 7997 7996 7995 ] final -113.03 input   59.86 | X-H torsion
[ 10167 10162 10161 10158 ] final -177.67 input  -65.29 | X-H torsion
[ 10718 10713 10712 10709 ] final   89.95 input   66.30 | X-H torsion
[ 10763 10752 10751 10750 ] final   49.53 input  -60.55 | X-H torsion
[ 11005 11000 10999 10996 ] final   87.76 input  -57.11 | X-H torsion

> <Gold.Protein.ActiveResidues>
 VAL166  LYS551  ARG553  GLY616  TRP617  ASP618  TYR619  PRO620  LYS621  CYS622 
 ASP623  PHE694  ASN695  SER759  ASP760  ASP761  ALA762  ILE779  LEU786  VAL792 
 PHE793  MET794  SER795  GLU796  ALA797  LYS798  CYS799  TRP800  GLU811  SER814 

> <Gold.Protein.RotatedAtoms>
  151.2188  133.4514  159.2599 H   0  0  0  0  0  0  0  0  0  0  0  0  # atno 6907 bound_to 6896
  151.0905  134.9913  159.8410 H   0  0  0  0  0  0  0  0  0  0  0  0  # atno 6908 bound_to 6896
  152.5434  134.2122  159.8807 H   0  0  0  0  0  0  0  0  0  0  0  0  # atno 6909 bound_to 6896
  144.7556  139.8291  143.6351 H   0  0  0  0  0  0  0  0  0  0  0  0  # atno 7974 bound_to 7965
  155.0144  140.0393  157.2412 H   0  0  0  0  0  0  0  0  0  0  0  0  # atno 8008 bound_to 7997
  154.7432  140.2753  155.6332 H   0  0  0  0  0  0  0  0  0  0  0  0  # atno 8009 bound_to 7997
  156.2869  140.2661  156.2165 H   0  0  0  0  0  0  0  0  0  0  0  0  # atno 8010 bound_to 7997
  139.5469  144.2212  152.1004 H   0  0  0  0  0  0  0  0  0  0  0  0  # atno 10167 bound_to 10162
  157.6957  131.0352  150.3504 H   0  0  0  0  0  0  0  0  0  0  0  0  # atno 10718 bound_to 10713
  152.9786  135.5909  154.4104 H   0  0  0  0  0  0  0  0  0  0  0  0  # atno 10763 bound_to 10752
  154.3739  135.2767  155.2252 H   0  0  0  0  0  0  0  0  0  0  0  0  # atno 10764 bound_to 10752
  154.4195  135.6062  153.6056 H   0  0  0  0  0  0  0  0  0  0  0  0  # atno 10765 bound_to 10752
  139.8912  134.8443  156.2905 H   0  0  0  0  0  0  0  0  0  0  0  0  # atno 11005 bound_to 11000
  146.1561  139.4659  143.0018 LP  0  0  0  0  0  0  0  0  0  0  0  0  # atno 17320 bound_to 7965
  145.6792  141.0195  143.1615 LP  0  0  0  0  0  0  0  0  0  0  0  0  # atno 17321 bound_to 7965
  140.1700  144.4944  150.6584 LP  0  0  0  0  0  0  0  0  0  0  0  0  # atno 17342 bound_to 10162
  140.6720  143.2289  151.5602 LP  0  0  0  0  0  0  0  0  0  0  0  0  # atno 17343 bound_to 10162
  156.3953  130.3905  149.6999 LP  0  0  0  0  0  0  0  0  0  0  0  0  # atno 17370 bound_to 10713
  156.4335  130.7826  151.2847 LP  0  0  0  0  0  0  0  0  0  0  0  0  # atno 17371 bound_to 10713
  140.9979  133.7169  156.0914 LP  0  0  0  0  0  0  0  0  0  0  0  0  # atno 17394 bound_to 11000
  140.7537  134.4016  157.5537 LP  0  0  0  0  0  0  0  0  0  0  0  0  # atno 17395 bound_to 11000

$$$$
