AV-unprocessed.smi:3278|AV-procd|sdf|12540|dock5
  -GOLD-   2272018453D 1   1.00000     0.00000
 Structure written by MMmdl.
 39 40  0  0  0  0  0  0  0  0  2 V2000
  145.7309  143.1706  154.4175 C   0  0  0  0  0  0  0  0  0  0  0  0
  146.7955  142.1908  154.3873 N   0  0  0  0  0  0  0  0  0  0  0  0
  147.8467  142.0347  155.2642 C   0  0  0  0  0  0  0  0  0  0  0  0
  148.5941  140.9735  154.8311 C   0  0  0  0  0  0  0  0  0  0  0  0
  149.8472  140.3751  155.4342 C   0  0  1  0  0  0  0  0  0  0  0  0
  149.4672  139.3088  156.4754 C   0  0  0  0  0  0  0  0  0  0  0  0
  150.6348  139.7096  154.4635 O   0  0  0  0  0  0  0  0  0  0  0  0
  150.7341  141.4659  156.0739 C   0  0  0  0  0  0  0  0  0  0  0  0
  150.0870  142.0711  157.2605 N   0  3  0  0  0  0  0  0  0  0  0  0
  151.0078  142.6247  158.2772 C   0  0  2  0  0  0  0  0  0  0  0  0
  150.1842  143.2047  159.4439 C   0  0  0  0  0  0  0  0  0  0  0  0
  151.0609  143.7290  160.5932 C   0  0  0  0  0  0  0  0  0  0  0  0
  151.9904  144.8660  160.1483 C   0  0  0  0  0  0  0  0  0  0  0  0
  153.1439  144.3017  158.8694 S   0  0  0  0  0  0  0  0  0  0  0  0
  151.9354  143.6929  157.6619 C   0  0  0  0  0  0  0  0  0  0  0  0
  147.9050  140.5524  153.6557 C   0  0  0  0  0  0  0  0  0  0  0  0
  146.8287  141.2758  153.3982 N   0  0  0  0  0  0  0  0  0  0  0  0
  145.8532  143.8303  155.2771 H   0  0  0  0  0  0  0  0  0  0  0  0
  144.7668  142.6666  154.4916 H   0  0  0  0  0  0  0  0  0  0  0  0
  145.7538  143.7692  153.5062 H   0  0  0  0  0  0  0  0  0  0  0  0
  147.9742  142.6843  156.1179 H   0  0  0  0  0  0  0  0  0  0  0  0
  148.8786  139.7380  157.2872 H   0  0  0  0  0  0  0  0  0  0  0  0
  150.3511  138.8501  156.9205 H   0  0  0  0  0  0  0  0  0  0  0  0
  148.8730  138.5111  156.0271 H   0  0  0  0  0  0  0  0  0  0  0  0
  150.3807  138.7993  154.4383 H   0  0  0  0  0  0  0  0  0  0  0  0
  151.6857  141.0298  156.3821 H   0  0  0  0  0  0  0  0  0  0  0  0
  150.9675  142.2380  155.3404 H   0  0  0  0  0  0  0  0  0  0  0  0
  149.4507  142.7951  156.9585 H   0  0  0  0  0  0  0  0  0  0  0  0
  151.6131  141.8045  158.6670 H   0  0  0  0  0  0  0  0  0  0  0  0
  149.5405  144.0081  159.0823 H   0  0  0  0  0  0  0  0  0  0  0  0
  149.5178  142.4351  159.8358 H   0  0  0  0  0  0  0  0  0  0  0  0
  150.4199  144.0852  161.4001 H   0  0  0  0  0  0  0  0  0  0  0  0
  151.6512  142.9124  161.0115 H   0  0  0  0  0  0  0  0  0  0  0  0
  151.4101  145.7039  159.7603 H   0  0  0  0  0  0  0  0  0  0  0  0
  152.5641  145.2396  160.9968 H   0  0  0  0  0  0  0  0  0  0  0  0
  152.4926  143.2916  156.8159 H   0  0  0  0  0  0  0  0  0  0  0  0
  151.3539  144.5368  157.2885 H   0  0  0  0  0  0  0  0  0  0  0  0
  148.1523  139.7396  152.9888 H   0  0  0  0  0  0  0  0  0  0  0  0
  149.5472  141.3410  157.7031 H   0  0  0  0  0  0  0  0  0  0  0  0
  1  2  1  0  0  0  0
  1 18  1  0  0  0  0
  1 19  1  0  0  0  0
  1 20  1  0  0  0  0
  2 17  1  0  0  0  0
  2  3  1  0  0  0  0
  3  4  2  0  0  0  0
  3 21  1  0  0  0  0
  4  5  1  0  0  0  0
  4 16  1  0  0  0  0
  5  6  1  0  0  0  0
  5  7  1  0  0  0  0
  5  8  1  0  0  0  0
  6 22  1  0  0  0  0
  6 23  1  0  0  0  0
  6 24  1  0  0  0  0
  7 25  1  0  0  0  0
  8  9  1  0  0  0  0
  8 26  1  0  0  0  0
  8 27  1  0  0  0  0
  9 10  1  0  0  0  0
  9 28  1  0  0  0  0
  9 39  1  0  0  0  0
 10 15  1  0  0  0  0
 10 11  1  0  0  0  0
 10 29  1  0  0  0  0
 11 12  1  0  0  0  0
 11 30  1  0  0  0  0
 11 31  1  0  0  0  0
 12 13  1  0  0  0  0
 12 32  1  0  0  0  0
 12 33  1  0  0  0  0
 13 14  1  0  0  0  0
 13 34  1  0  0  0  0
 13 35  1  0  0  0  0
 14 15  1  0  0  0  0
 15 36  1  0  0  0  0
 15 37  1  0  0  0  0
 16 17  2  0  0  0  0
 16 38  1  0  0  0  0
M  CHG  1   9   1
M  END
> <s_m_source_file>
AV-unprocessed.smi

> <i_m_source_file_index>
3278

> <i_lp_mmshare_version>
43012

> <i_f3d_flags>
0

> <s_epik_input>
W0NIM11uMVtjSF1jKFtjSF1uMSlbQ0BAXShbQ0gzXSkoW09IXSlbQ0gyXVtOSF1bQ0BASF0yW0NIMl1bQ0gyXVtDSDJdU1tDSDJdMg==

> <s_epik_cmdline>
J2VwaWtfcHl0aG9uJywgJy1waCcsICc3LjAnLCAnLXRuJywgJzgnLCAnLW1hJywgJzIwMCcsICctbWV0YWxfYmluZGluZycsICctaW1hZScsICc8aW5maWxlLm1hZT4nLCAnLW9tYWUnLCAnPG91dGZpbGUubWFlPic=

> <r_lp_tautomer_probability>
1

> <r_epik_Ionization_Penalty>
0.0185703

> <r_epik_Ionization_Penalty_Charging>
0.0185619

> <r_epik_Ionization_Penalty_Neutral>
8.47286e-06

> <r_epik_State_Penalty>
0.0147768

> <r_epik_Charging_Adjusted_Penalty>
0.0333386

> <i_epik_Tot_Q>
1

> <i_epik_Tot_abs_Q>
1

> <r_epik_Metal_State_Penalty>
0.0147782

> <b_epik_Metal_Only>
0

> <s_lp_Force_Field>
OPLS_2005

> <r_lp_Energy>
8.27039

> <b_lp_Chiralities_Consistent>
1

> <s_lp_Variant>
AV-unprocessed.smi:3278-1

> <Gold.Version>
5.8.1

> <Gold.Id.Protein>
6NUR|6NUR_protein|mol2

> <Gold.PLP.Fitness>
48.5299

> <Gold.PLP.PLP>
-37.1082

> <Gold.PLP.part.hbond>
-2.0000

> <Gold.PLP.part.metal>
0.0000

> <Gold.PLP.part.buried>
-1.6428

> <Gold.PLP.part.nonpolar>
-32.0304

> <Gold.PLP.part.repulsive>
0.2176

> <Gold.PLP.ligand.clash>
0.0000

> <Gold.PLP.ligand.torsion>
1.2800

> <Gold.PLP.Chemscore.Hbond>
3.0000

> <Gold.PLP.Chemscore.CHOScore>
1.6495

> <Gold.PLP.Chemscore.Metal>
0.0000

> <Gold.Chemscore.Hbonds>
donor molecule, donor type, donor heavy atom, donor atom, acceptor molecule, acceptor atom, score
      L1  H     9    28       P1  8028  0.23
      P1  H  7989  7998       L1     7  1.00
      L1  C     3    21       P1  8028  0.70
      L1  C    16    38       P1  7957  0.84

> <Gold.PLP.Chemscore.Internal.Correction>
0.0334

> <Gold.Rescore>
     Score         DG    S(hbond)    S(metal)    S(lipo)     H(rot)  DE(clash)    DE(int)     intcor
     13.39     -18.12       1.39        0.00     112.14       2.00       2.47       2.27       ----

> <Gold.Chemscore.Fitness>
13.3905

> <Gold.Chemscore.DG>
-18.1232

> <Gold.Chemscore.ZeroCoef>
-5.4800

> <Gold.Chemscore.Hbond>
1.3929

> <Gold.Chemscore.Metal>
0.0000

> <Gold.Chemscore.Lipo>
112.1419

> <Gold.Chemscore.Internal_Hbond>
0.0000

> <Gold.Chemscore.DEClash>
2.4657

> <Gold.Chemscore.DEInternal>
2.2670

> <Gold.Chemscore.Rot>
2.0038

> <Gold.Chemscore.Internal.Correction>
   9.000000E+99

> <Gold.Chemscore.Hbonds>
donor molecule, donor type, donor heavy atom, donor atom, acceptor molecule, acceptor atom, score
      L1  H     9    28       P1  8028  0.14
      P1  H  7989  7998       L1     7  0.82

> <Gold.Chemscore.Hbond.Weighted>
-4.6523

> <Gold.Chemscore.Metal.Weighted>
-0.0000

> <Gold.Chemscore.Lipo.Weighted>
-13.1206

> <Gold.Chemscore.Internal_Hbond.Weighted>
0.0000

> <Gold.Chemscore.DEClash.Weighted>
2.4657

> <Gold.Chemscore.DEInternal.Weighted>
2.2670

> <Gold.Chemscore.Rot.Weighted>
5.1296

> <Gold.Chemscore.Internal.Correction.Weighted>
   9.000000E+99

> <Gold.Protein.RotatedTorsions>
[ 6907 6896 6895 6894 ] final -163.74 input  -60.11 | X-H torsion
[ 7974 7965 7964 7962 ] final   70.15 input  175.53 | X-H torsion
[ 8008 7997 7996 7995 ] final -163.36 input   59.86 | X-H torsion
[ 10167 10162 10161 10158 ] final   -5.38 input  -65.29 | X-H torsion
[ 10718 10713 10712 10709 ] final  -19.14 input   66.30 | X-H torsion
[ 10763 10752 10751 10750 ] final  -88.52 input  -60.55 | X-H torsion
[ 11005 11000 10999 10996 ] final   45.20 input  -57.11 | X-H torsion

> <Gold.Protein.ActiveResidues>
 VAL166  LYS551  ARG553  GLY616  TRP617  ASP618  TYR619  PRO620  LYS621  CYS622 
 ASP623  PHE694  ASN695  SER759  ASP760  ASP761  ALA762  ILE779  LEU786  VAL792 
 PHE793  MET794  SER795  GLU796  ALA797  LYS798  CYS799  TRP800  GLU811  SER814 

> <Gold.Protein.RotatedAtoms>
  151.4007  133.3758  159.2731 H   0  0  0  0  0  0  0  0  0  0  0  0  # atno 6907 bound_to 6896
  150.9435  134.8843  159.7638 H   0  0  0  0  0  0  0  0  0  0  0  0  # atno 6908 bound_to 6896
  152.5082  134.3959  159.9452 H   0  0  0  0  0  0  0  0  0  0  0  0  # atno 6909 bound_to 6896
  145.7816  139.2890  143.1262 H   0  0  0  0  0  0  0  0  0  0  0  0  # atno 7974 bound_to 7965
  155.8201  140.0918  157.1854 H   0  0  0  0  0  0  0  0  0  0  0  0  # atno 8008 bound_to 7997
  154.3979  140.1438  156.3550 H   0  0  0  0  0  0  0  0  0  0  0  0  # atno 8009 bound_to 7997
  155.8275  140.3444  155.5554 H   0  0  0  0  0  0  0  0  0  0  0  0  # atno 8010 bound_to 7997
  140.6961  143.6315  150.8519 H   0  0  0  0  0  0  0  0  0  0  0  0  # atno 10167 bound_to 10162
  156.5497  130.4698  149.6458 H   0  0  0  0  0  0  0  0  0  0  0  0  # atno 10718 bound_to 10713
  154.6455  135.5374  153.7839 H   0  0  0  0  0  0  0  0  0  0  0  0  # atno 10763 bound_to 10752
  153.0357  135.6469  154.1096 H   0  0  0  0  0  0  0  0  0  0  0  0  # atno 10764 bound_to 10752
  154.1017  135.2933  155.3230 H   0  0  0  0  0  0  0  0  0  0  0  0  # atno 10765 bound_to 10752
  140.1482  134.4496  155.8401 H   0  0  0  0  0  0  0  0  0  0  0  0  # atno 11005 bound_to 11000
  146.0068  140.8471  142.9991 LP  0  0  0  0  0  0  0  0  0  0  0  0  # atno 17320 bound_to 7965
  144.6795  140.2432  143.7341 LP  0  0  0  0  0  0  0  0  0  0  0  0  # atno 17321 bound_to 7965
  140.0033  143.5721  152.2867 LP  0  0  0  0  0  0  0  0  0  0  0  0  # atno 17342 bound_to 10162
  139.6418  144.7655  151.2323 LP  0  0  0  0  0  0  0  0  0  0  0  0  # atno 17343 bound_to 10162
  156.2896  130.7116  151.1962 LP  0  0  0  0  0  0  0  0  0  0  0  0  # atno 17370 bound_to 10713
  157.7390  131.0534  150.5261 LP  0  0  0  0  0  0  0  0  0  0  0  0  # atno 17371 bound_to 10713
  141.2195  133.6861  156.7372 LP  0  0  0  0  0  0  0  0  0  0  0  0  # atno 17394 bound_to 11000
  140.2638  134.8446  157.3783 LP  0  0  0  0  0  0  0  0  0  0  0  0  # atno 17395 bound_to 11000

$$$$
