#       Name:                AV-unprocessed.smi:3234
#       Creating user name   scv26
#       Creation time:       Fri Mar 27 18:21:35 2020


#       File generated by GOLD software.
#

@<TRIPOS>MOLECULE
AV-unprocessed.smi:3234
    40    42     1
SMALL
NO_CHARGES


@<TRIPOS>ATOM
      1 ****        -0.4139   1.8475  -0.0293 O.2            1 S1                 0.0000
      2 ****        -1.0074   0.9415   0.5543 C.2            1 S1                 0.0000
      3 ****        -2.3294   0.8978   0.7978 N.am           1 S1                 0.0000
      4 ****        -3.3459   1.8331   0.4534 C.ar           1 S1                 0.0000
      5 ****        -4.6256   1.6268   1.0164 C.ar           1 S1                 0.0000
      6 ****        -5.6769   2.5131   0.7057 C.ar           1 S1                 0.0000
      7 ****        -5.4566   3.5502  -0.1297 N.pl3          1 S1                 1.0000
      8 ****        -4.2550   3.7860  -0.6980 C.ar           1 S1                 0.0000
      9 ****        -3.1659   2.9326  -0.4260 C.ar           1 S1                 0.0000
     10 ****        -0.3892  -0.1444   1.0405 N.am           1 S1                 0.0000
     11 ****         1.0444  -0.4009   0.9415 C.3            1 S1                 0.0000
     12 ****         1.5147  -1.5758   1.7979 C.3            1 S1                 0.0000
     13 ****         2.7550  -2.1128   1.0630 C.3            1 S1                 0.0000
     14 ****         2.7910  -1.4528  -0.2637 N.4            1 S1                 1.0000
     15 ****         3.2099  -2.3371  -1.3716 C.3            1 S1                 0.0000
     16 ****         4.7079  -2.4408  -1.5276 C.3            1 S1                 0.0000
     17 ****         3.9001  -1.6076  -2.4991 C.3            1 S1                 0.0000
     18 ****         1.4730  -0.8248  -0.4631 C.3            1 S1                 0.0000
     19 ****        -2.6486   0.0980   1.3247 H              1 S1                 0.0000
     20 ****        -4.8053   0.7966   1.6844 H              1 S1                 0.0000
     21 ****        -6.6800   2.4229   1.0965 H              1 S1                 0.0000
     22 ****        -4.2010   4.6429  -1.3537 H              1 S1                 0.0000
     23 ****        -2.2237   3.1422  -0.9067 H              1 S1                 0.0000
     24 ****        -0.9461  -0.8399   1.5159 H              1 S1                 0.0000
     25 ****         1.6003   0.4921   1.2358 H              1 S1                 0.0000
     26 ****         1.7314  -1.2812   2.8253 H              1 S1                 0.0000
     27 ****         0.7489  -2.3527   1.8302 H              1 S1                 0.0000
     28 ****         3.6720  -1.8746   1.6027 H              1 S1                 0.0000
     29 ****         2.6989  -3.1988   0.9705 H              1 S1                 0.0000
     30 ****         2.5723  -3.1956  -1.5766 H              1 S1                 0.0000
     31 ****         5.3382  -1.9117  -0.8149 H              1 S1                 0.0000
     32 ****         5.1100  -3.3835  -1.8934 H              1 S1                 0.0000
     33 ****         3.7703  -2.0011  -3.5054 H              1 S1                 0.0000
     34 ****         3.9952  -0.5251  -2.4317 H              1 S1                 0.0000
     35 ****         0.7726  -1.5559  -0.8716 H              1 S1                 0.0000
     36 ****         1.5333   0.0142  -1.1573 H              1 S1                 0.0000
     37 ****         3.4622  -0.7011  -0.1948 H              1 S1                 0.0000
     38 ****        -6.2308   4.1801  -0.3432 H              1 S1                 0.0000
     39 ****        -0.9208   2.6398  -0.3688 LP             1 S1                 0.0000
     40 ****         0.5754   1.7916  -0.1641 LP             1 S1                 0.0000
@<TRIPOS>BOND
    1    1    2 2     
    2    2    3 am    
    3    2   10 am    
    4    3    4 1     
    5    3   19 1     
    6    4    9 ar    
    7    4    5 ar    
    8    5    6 ar    
    9    5   20 1     
   10    6    7 ar    
   11    6   21 1     
   12    7    8 ar    
   13    7   38 1     
   14    8    9 ar    
   15    8   22 1     
   16    9   23 1     
   17   10   11 1     
   18   10   24 1     
   19   11   18 1     
   20   11   12 1     
   21   11   25 1     
   22   12   13 1     
   23   12   26 1     
   24   12   27 1     
   25   13   14 1     
   26   13   28 1     
   27   13   29 1     
   28   14   15 1     
   29   14   18 1     
   30   14   37 1     
   31   15   17 1     
   32   15   16 1     
   33   15   30 1     
   34   16   17 1     
   35   16   31 1     
   36   16   32 1     
   37   17   33 1     
   38   17   34 1     
   39   18   35 1     
   40   18   36 1     
   41    1   39 1     
   42    1   40 1     
@<TRIPOS>SUBSTRUCTURE
      1 S1             1
@<TRIPOS>SET
LONE_PAIRS      STATIC     ATOMS    <user>   **** ""
2 39 40
DONOR_HYDROGENS      STATIC     ATOMS    <user>   **** ""
4 19 38 24 37
ATOM$BLUE        STATIC     ATOMS    COLORGROUP SYSTEM
2 39 40
ATOM$RED        STATIC     ATOMS    COLORGROUP SYSTEM
4 19 38 24 37
