#       Name:                AV-unprocessed.smi:1066
#       Creating user name   scv26
#       Creation time:       Fri Mar 27 03:18:16 2020


#       File generated by GOLD software.
#

@<TRIPOS>MOLECULE
AV-unprocessed.smi:1066
    43    45     1
SMALL
NO_CHARGES


@<TRIPOS>ATOM
      1 ****        -3.1789  -0.0115  -4.1387 C.3            1 S1                 0.0000
      2 ****        -3.5705   0.2534  -2.7131 C.2            1 S1                 0.0000
      3 ****        -4.2365   1.3634  -2.4234 N.2            1 S1                 0.0000
      4 ****        -4.4521   1.3457  -1.0406 O.3            1 S1                 0.0000
      5 ****        -3.8958   0.2072  -0.5683 C.2            1 S1                 0.0000
      6 ****        -3.9146  -0.2019   1.1015 Cl             1 S1                 0.0000
      7 ****        -3.3188  -0.5399  -1.5546 C.2            1 S1                 0.0000
      8 ****        -2.5911  -1.8571  -1.4555 C.3            1 S1                 0.0000
      9 ****        -1.0860  -1.6048  -1.3750 C.2            1 S1                 0.0000
     10 ****        -0.3684  -1.8378  -2.3470 O.2            1 S1                 0.0000
     11 ****        -0.6217  -1.1168  -0.2145 N.am           1 S1                 0.0000
     12 ****         0.7686  -0.7588   0.0396 C.3            1 S1                 0.0000
     13 ****         1.2307   0.5156  -0.6725 C.3            1 S1                 0.0000
     14 ****         2.3046   1.1097   0.2543 C.3            1 S1                 0.0000
     15 ****         2.2786   0.3178   1.5061 N.4            1 S1                 1.0000
     16 ****         2.5202   1.1104   2.7302 C.3            1 S1                 0.0000
     17 ****         3.9846   1.3175   3.0349 C.3            1 S1                 0.0000
     18 ****         3.1754   0.3243   3.8403 C.3            1 S1                 0.0000
     19 ****         1.0058  -0.4247   1.5092 C.3            1 S1                 0.0000
     20 ****        -2.5799  -0.9175  -4.2282 H              1 S1                 0.0000
     21 ****        -2.5895   0.8118  -4.5429 H              1 S1                 0.0000
     22 ****        -4.0591  -0.1332  -4.7703 H              1 S1                 0.0000
     23 ****        -2.9039  -2.4248  -0.5784 H              1 S1                 0.0000
     24 ****        -2.8040  -2.4929  -2.3155 H              1 S1                 0.0000
     25 ****        -1.2835  -0.9598   0.5323 H              1 S1                 0.0000
     26 ****         1.4200  -1.5887  -0.2423 H              1 S1                 0.0000
     27 ****         1.6096   0.3137  -1.6749 H              1 S1                 0.0000
     28 ****         0.4030   1.2204  -0.7684 H              1 S1                 0.0000
     29 ****         3.2983   1.0487  -0.1903 H              1 S1                 0.0000
     30 ****         2.0914   2.1624   0.4471 H              1 S1                 0.0000
     31 ****         1.7941   1.8894   2.9563 H              1 S1                 0.0000
     32 ****         4.7181   0.9191   2.3360 H              1 S1                 0.0000
     33 ****         4.2688   2.2449   3.5281 H              1 S1                 0.0000
     34 ****         2.9272   0.5984   4.8637 H              1 S1                 0.0000
     35 ****         3.3720  -0.7341   3.6768 H              1 S1                 0.0000
     36 ****         0.2069   0.2144   1.8911 H              1 S1                 0.0000
     37 ****         1.0617  -1.3140   2.1382 H              1 S1                 0.0000
     38 ****         3.0141  -0.3702   1.4290 H              1 S1                 0.0000
     39 ****        -4.5270   2.0725  -3.0659 LP             1 S1                 0.0000
     40 ****        -5.4329   1.3552  -0.8458 LP             1 S1                 0.0000
     41 ****        -4.0201   2.1411  -0.6155 LP             1 S1                 0.0000
     42 ****        -0.7699  -2.1928  -3.1913 LP             1 S1                 0.0000
     43 ****         0.6163  -1.6722  -2.2927 LP             1 S1                 0.0000
@<TRIPOS>BOND
    1    1    2 1     
    2    1   20 1     
    3    1   21 1     
    4    1   22 1     
    5    2    7 1     
    6    2    3 2     
    7    3    4 1     
    8    4    5 1     
    9    5    6 1     
   10    5    7 2     
   11    7    8 1     
   12    8    9 1     
   13    8   23 1     
   14    8   24 1     
   15    9   10 2     
   16    9   11 am    
   17   11   12 1     
   18   11   25 1     
   19   12   19 1     
   20   12   13 1     
   21   12   26 1     
   22   13   14 1     
   23   13   27 1     
   24   13   28 1     
   25   14   15 1     
   26   14   29 1     
   27   14   30 1     
   28   15   16 1     
   29   15   19 1     
   30   15   38 1     
   31   16   18 1     
   32   16   17 1     
   33   16   31 1     
   34   17   18 1     
   35   17   32 1     
   36   17   33 1     
   37   18   34 1     
   38   18   35 1     
   39   19   36 1     
   40   19   37 1     
   41    3   39 1     
   42    4   40 1     
   43    4   41 1     
   44   10   42 1     
   45   10   43 1     
@<TRIPOS>SUBSTRUCTURE
      1 S1             1
@<TRIPOS>SET
LONE_PAIRS      STATIC     ATOMS    <user>   **** ""
5 39 40 41 42 43
DONOR_HYDROGENS      STATIC     ATOMS    <user>   **** ""
2 25 38
ATOM$BLUE        STATIC     ATOMS    COLORGROUP SYSTEM
5 39 40 41 42 43
ATOM$RED        STATIC     ATOMS    COLORGROUP SYSTEM
2 25 38
