#       Name:                AV-unprocessed.smi:1433
#       Creating user name   scv26
#       Creation time:       Fri Mar 27 05:50:49 2020


#       File generated by GOLD software.
#

@<TRIPOS>MOLECULE
AV-unprocessed.smi:1433
    50    51     1
SMALL
NO_CHARGES


@<TRIPOS>ATOM
      1 ****        -4.0552  -1.7081   2.2227 C.3            1 S1                 0.0000
      2 ****        -2.5282  -1.6021   2.3064 C.3            1 S1                 0.0000
      3 ****        -1.9305  -0.8992   1.0761 C.3            1 S1                 0.0000
      4 ****        -0.4457  -0.8671   1.1476 N.4            1 S1                 1.0000
      5 ****         0.1615  -0.0517   0.0450 C.3            1 S1                 0.0000
      6 ****         0.0102   1.4551   0.3572 C.3            1 S1                 0.0000
      7 ****         1.6494  -0.3953  -0.2500 C.3            1 S1                 0.0000
      8 ****         2.2175   0.4218  -1.3170 N.am           1 S1                 0.0000
      9 ****         1.9635   0.2683  -2.6259 C.2            1 S1                 0.0000
     10 ****         1.2543  -0.6302  -3.0783 O.2            1 S1                 0.0000
     11 ****         2.5903   1.2986  -3.5653 C.3            1 S1                 0.0000
     12 ****         1.9012   2.5733  -3.4669 N.pl3          1 S1                 0.0000
     13 ****         0.7677   2.9876  -4.1348 C.2            1 S1                 0.0000
     14 ****         0.4847   4.2534  -3.7082 C.2            1 S1                 0.0000
     15 ****         1.5155   4.5320  -2.7677 C.2            1 S1                 0.0000
     16 ****         2.3598   3.5236  -2.6225 N.2            1 S1                 0.0000
     17 ****         0.0709  -2.2561   1.2913 C.3            1 S1                 0.0000
     18 ****        -0.5834  -2.9907   2.4794 C.3            1 S1                 0.0000
     19 ****        -0.0635  -2.5260   3.8520 C.3            1 S1                 0.0000
     20 ****        -2.0044  -2.9224   2.3910 O.3            1 S1                 0.0000
     21 ****        -4.5151  -0.7213   2.1643 H              1 S1                 0.0000
     22 ****        -4.4595  -2.2105   3.1018 H              1 S1                 0.0000
     23 ****        -4.3649  -2.2746   1.3439 H              1 S1                 0.0000
     24 ****        -2.2782  -1.0425   3.2079 H              1 S1                 0.0000
     25 ****        -2.2381  -1.4148   0.1645 H              1 S1                 0.0000
     26 ****        -2.3396   0.1078   1.0184 H              1 S1                 0.0000
     27 ****        -0.4020  -0.2687  -0.8640 H              1 S1                 0.0000
     28 ****         0.3849   2.0778  -0.4554 H              1 S1                 0.0000
     29 ****         0.5613   1.7252   1.2585 H              1 S1                 0.0000
     30 ****        -1.0266   1.7515   0.5057 H              1 S1                 0.0000
     31 ****         2.2545  -0.2440   0.6445 H              1 S1                 0.0000
     32 ****         1.7692  -1.4398  -0.5409 H              1 S1                 0.0000
     33 ****         2.8141   1.1884  -1.0392 H              1 S1                 0.0000
     34 ****         3.6464   1.4333  -3.3261 H              1 S1                 0.0000
     35 ****         2.5355   0.9483  -4.5969 H              1 S1                 0.0000
     36 ****         0.2623   2.3533  -4.8482 H              1 S1                 0.0000
     37 ****        -0.3334   4.8849  -4.0214 H              1 S1                 0.0000
     38 ****         1.6734   5.4304  -2.1895 H              1 S1                 0.0000
     39 ****        -0.1226  -2.8038   0.3675 H              1 S1                 0.0000
     40 ****         1.1486  -2.2631   1.4517 H              1 S1                 0.0000
     41 ****        -0.3295  -4.0476   2.3924 H              1 S1                 0.0000
     42 ****         1.0047  -2.7220   3.9475 H              1 S1                 0.0000
     43 ****        -0.5679  -3.0586   4.6587 H              1 S1                 0.0000
     44 ****        -0.2106  -1.4584   4.0125 H              1 S1                 0.0000
     45 ****        -0.2025  -0.3965   2.0075 H              1 S1                 0.0000
     46 ****         0.8331  -1.2939  -2.4601 LP             1 S1                 0.0000
     47 ****         1.0993  -0.6965  -4.0639 LP             1 S1                 0.0000
     48 ****         3.1583   3.4755  -2.0224 LP             1 S1                 0.0000
     49 ****        -2.2910  -3.4248   1.5753 LP             1 S1                 0.0000
     50 ****        -2.3892  -3.3594   3.2040 LP             1 S1                 0.0000
@<TRIPOS>BOND
    1    1    2 1     
    2    1   21 1     
    3    1   22 1     
    4    1   23 1     
    5    2   20 1     
    6    2    3 1     
    7    2   24 1     
    8    3    4 1     
    9    3   25 1     
   10    3   26 1     
   11    4    5 1     
   12    4   17 1     
   13    4   45 1     
   14    5    6 1     
   15    5    7 1     
   16    5   27 1     
   17    6   28 1     
   18    6   29 1     
   19    6   30 1     
   20    7    8 1     
   21    7   31 1     
   22    7   32 1     
   23    8    9 am    
   24    8   33 1     
   25    9   10 2     
   26    9   11 1     
   27   11   12 1     
   28   11   34 1     
   29   11   35 1     
   30   12   16 1     
   31   12   13 1     
   32   13   14 2     
   33   13   36 1     
   34   14   15 1     
   35   14   37 1     
   36   15   16 2     
   37   15   38 1     
   38   17   18 1     
   39   17   39 1     
   40   17   40 1     
   41   18   19 1     
   42   18   20 1     
   43   18   41 1     
   44   19   42 1     
   45   19   43 1     
   46   19   44 1     
   47   10   46 1     
   48   10   47 1     
   49   16   48 1     
   50   20   49 1     
   51   20   50 1     
@<TRIPOS>SUBSTRUCTURE
      1 S1             1
@<TRIPOS>SET
LONE_PAIRS      STATIC     ATOMS    <user>   **** ""
5 46 47 48 49 50
DONOR_HYDROGENS      STATIC     ATOMS    <user>   **** ""
2 45 33
ATOM$BLUE        STATIC     ATOMS    COLORGROUP SYSTEM
5 46 47 48 49 50
ATOM$RED        STATIC     ATOMS    COLORGROUP SYSTEM
2 45 33
