AV-unprocessed.smi:2454|AV-procd|sdf|9697|dock9
  -GOLD-   2272013333D 1   1.00000     0.00000
 Structure written by MMmdl.
 42 43  0  0  0  0  0  0  0  0  1 V2000
  149.9072  135.3003  155.0212 C   0  0  0  0  0  0  0  0  0  0  0  0
  149.6092  136.6836  154.9522 O   0  0  0  0  0  0  0  0  0  0  0  0
  148.2214  136.9332  154.8065 C   0  0  0  0  0  0  0  0  0  0  0  0
  147.9536  138.3886  154.4838 C   0  0  0  0  0  0  0  0  0  0  0  0
  148.5781  139.4265  155.2071 C   0  0  0  0  0  0  0  0  0  0  0  0
  148.2751  140.7546  154.8304 C   0  0  0  0  0  0  0  0  0  0  0  0
  148.9310  141.7651  155.5935 N   0  0  0  0  0  0  0  0  0  0  0  0
  149.3693  141.7779  156.8708 C   0  0  0  0  0  0  0  0  0  0  0  0
  149.2298  140.7960  157.5983 O   0  0  0  0  0  0  0  0  0  0  0  0
  149.9562  142.9122  157.2866 N   0  0  0  0  0  0  0  0  0  0  0  0
  150.5098  143.1499  158.6156 C   0  0  2  0  0  0  0  0  0  0  0  0
  150.9686  144.6144  158.7590 C   0  0  0  0  0  0  0  0  0  0  0  0
  151.6303  144.8589  160.1233 C   0  0  0  0  0  0  0  0  0  0  0  0
  152.7970  143.8873  160.3607 C   0  0  0  0  0  0  0  0  0  0  0  0
  152.3473  142.4164  160.2334 C   0  0  2  0  0  0  0  0  0  0  0  0
  153.5074  141.4324  160.4893 C   0  0  0  0  0  0  0  0  0  0  0  0
  153.8584  141.4354  161.7757 F   0  0  0  0  0  0  0  0  0  0  0  0
  153.1419  140.1976  160.1454 F   0  0  0  0  0  0  0  0  0  0  0  0
  154.5656  141.7718  159.7530 F   0  0  0  0  0  0  0  0  0  0  0  0
  151.6833  142.1828  158.8597 C   0  0  0  0  0  0  0  0  0  0  0  0
  147.4123  140.9816  153.8067 N   0  0  0  0  0  0  0  0  0  0  0  0
  146.8778  139.9264  153.1873 C   0  0  0  0  0  0  0  0  0  0  0  0
  147.1001  138.6426  153.4692 N   0  0  0  0  0  0  0  0  0  0  0  0
  150.9825  135.1626  155.1329 H   0  0  0  0  0  0  0  0  0  0  0  0
  149.5941  134.7831  154.1130 H   0  0  0  0  0  0  0  0  0  0  0  0
  149.4171  134.8336  155.8767 H   0  0  0  0  0  0  0  0  0  0  0  0
  147.8099  136.3065  154.0132 H   0  0  0  0  0  0  0  0  0  0  0  0
  147.6971  136.6699  155.7267 H   0  0  0  0  0  0  0  0  0  0  0  0
  149.2625  139.2090  156.0145 H   0  0  0  0  0  0  0  0  0  0  0  0
  149.0997  142.6226  155.0882 H   0  0  0  0  0  0  0  0  0  0  0  0
  150.0279  143.6704  156.6221 H   0  0  0  0  0  0  0  0  0  0  0  0
  149.7403  142.9448  159.3624 H   0  0  0  0  0  0  0  0  0  0  0  0
  151.6752  144.8605  157.9651 H   0  0  0  0  0  0  0  0  0  0  0  0
  150.1210  145.2899  158.6386 H   0  0  0  0  0  0  0  0  0  0  0  0
  151.9858  145.8879  160.1836 H   0  0  0  0  0  0  0  0  0  0  0  0
  150.8894  144.7411  160.9151 H   0  0  0  0  0  0  0  0  0  0  0  0
  153.5922  144.0950  159.6437 H   0  0  0  0  0  0  0  0  0  0  0  0
  153.2198  144.0666  161.3496 H   0  0  0  0  0  0  0  0  0  0  0  0
  151.5923  142.2343  160.9997 H   0  0  0  0  0  0  0  0  0  0  0  0
  151.3257  141.1547  158.7918 H   0  0  0  0  0  0  0  0  0  0  0  0
  152.4266  142.3019  158.0698 H   0  0  0  0  0  0  0  0  0  0  0  0
  146.1956  140.1344  152.3764 H   0  0  0  0  0  0  0  0  0  0  0  0
  1  2  1  0  0  0  0
  1 24  1  0  0  0  0
  1 25  1  0  0  0  0
  1 26  1  0  0  0  0
  2  3  1  0  0  0  0
  3  4  1  0  0  0  0
  3 27  1  0  0  0  0
  3 28  1  0  0  0  0
  4 23  1  0  0  0  0
  4  5  2  0  0  0  0
  5  6  1  0  0  0  0
  5 29  1  0  0  0  0
  6  7  1  0  0  0  0
  6 21  2  0  0  0  0
  7  8  1  0  0  0  0
  7 30  1  0  0  0  0
  8  9  2  0  0  0  0
  8 10  1  0  0  0  0
 10 11  1  0  0  0  0
 10 31  1  0  0  0  0
 11 20  1  0  0  0  0
 11 12  1  0  0  0  0
 11 32  1  0  0  0  0
 12 13  1  0  0  0  0
 12 33  1  0  0  0  0
 12 34  1  0  0  0  0
 13 14  1  0  0  0  0
 13 35  1  0  0  0  0
 13 36  1  0  0  0  0
 14 15  1  0  0  0  0
 14 37  1  0  0  0  0
 14 38  1  0  0  0  0
 15 16  1  0  0  0  0
 15 20  1  0  0  0  0
 15 39  1  0  0  0  0
 16 17  1  0  0  0  0
 16 18  1  0  0  0  0
 16 19  1  0  0  0  0
 20 40  1  0  0  0  0
 20 41  1  0  0  0  0
 21 22  1  0  0  0  0
 22 23  2  0  0  0  0
 22 42  1  0  0  0  0
M  END
> <s_m_source_file>
AV-unprocessed.smi

> <i_m_source_file_index>
2454

> <i_lp_mmshare_version>
43012

> <i_f3d_flags>
0

> <s_epik_input>
W0NIM11PW0NIMl1jMVtjSF1jKG5bY0hdbjEpW05IXUMoPU8pW05IXVtDQEBIXTJbQ0gyXVtDSDJdW0NIMl1bQ0BASF0oQyhGKShGKUYpW0NIMl0y

> <s_epik_cmdline>
J2VwaWtfcHl0aG9uJywgJy1waCcsICc3LjAnLCAnLXRuJywgJzgnLCAnLW1hJywgJzIwMCcsICctbWV0YWxfYmluZGluZycsICctaW1hZScsICc8aW5maWxlLm1hZT4nLCAnLW9tYWUnLCAnPG91dGZpbGUubWFlPic=

> <r_lp_tautomer_probability>
1

> <r_epik_Ionization_Penalty>
3.01554e-05

> <r_epik_Ionization_Penalty_Charging>
0

> <r_epik_Ionization_Penalty_Neutral>
3.01554e-05

> <r_epik_State_Penalty>
-0

> <r_epik_Charging_Adjusted_Penalty>
0

> <i_epik_Tot_Q>
0

> <i_epik_Tot_abs_Q>
0

> <r_epik_Metal_State_Penalty>
-0

> <b_epik_Metal_Only>
0

> <s_lp_Force_Field>
OPLS_2005

> <r_lp_Energy>
14.2483

> <b_lp_Chiralities_Consistent>
1

> <s_lp_Variant>
AV-unprocessed.smi:2454-3

> <Gold.Version>
5.8.1

> <Gold.Id.Protein>
6NUR|6NUR_protein|mol2

> <Gold.PLP.Fitness>
41.9844

> <Gold.PLP.PLP>
-36.9921

> <Gold.PLP.part.hbond>
-2.0000

> <Gold.PLP.part.metal>
0.0000

> <Gold.PLP.part.buried>
-6.4469

> <Gold.PLP.part.nonpolar>
-30.4720

> <Gold.PLP.part.repulsive>
0.6726

> <Gold.PLP.ligand.clash>
0.0000

> <Gold.PLP.ligand.torsion>
0.6049

> <Gold.PLP.Chemscore.Hbond>
1.0850

> <Gold.PLP.Chemscore.CHOScore>
0.9629

> <Gold.PLP.Chemscore.Metal>
0.0000

> <Gold.Chemscore.Hbonds>
donor molecule, donor type, donor heavy atom, donor atom, acceptor molecule, acceptor atom, score
      L1  H     7    30       P1  8028  0.42
      L1  H    10    31       P1  8028  0.75
      L1  C    22    42       P1 10175  0.99

> <Gold.PLP.Chemscore.Internal.Correction>
0.0581

> <Gold.Rescore>
     Score         DG    S(hbond)    S(metal)    S(lipo)     H(rot)  DE(clash)    DE(int)     intcor
     14.55     -16.90       1.76        0.00      82.59       1.60       0.10       2.25       ----

> <Gold.Chemscore.Fitness>
14.5517

> <Gold.Chemscore.DG>
-16.9010

> <Gold.Chemscore.ZeroCoef>
-5.4800

> <Gold.Chemscore.Hbond>
1.7554

> <Gold.Chemscore.Metal>
0.0000

> <Gold.Chemscore.Lipo>
82.5895

> <Gold.Chemscore.Internal_Hbond>
0.0000

> <Gold.Chemscore.DEClash>
0.1035

> <Gold.Chemscore.DEInternal>
2.2457

> <Gold.Chemscore.Rot>
1.6035

> <Gold.Chemscore.Internal.Correction>
   9.000000E+99

> <Gold.Chemscore.Hbonds>
donor molecule, donor type, donor heavy atom, donor atom, acceptor molecule, acceptor atom, score
      L1  H     7    30       P1  8028  0.43
      L1  H    10    31       P1  8028  0.76

> <Gold.Chemscore.Hbond.Weighted>
-5.8630

> <Gold.Chemscore.Metal.Weighted>
-0.0000

> <Gold.Chemscore.Lipo.Weighted>
-9.6630

> <Gold.Chemscore.Internal_Hbond.Weighted>
0.0000

> <Gold.Chemscore.DEClash.Weighted>
0.1035

> <Gold.Chemscore.DEInternal.Weighted>
2.2457

> <Gold.Chemscore.Rot.Weighted>
4.1050

> <Gold.Chemscore.Internal.Correction.Weighted>
   9.000000E+99

> <Gold.Protein.RotatedTorsions>
[ 6907 6896 6895 6894 ] final -171.51 input  -60.11 | X-H torsion
[ 7974 7965 7964 7962 ] final   12.34 input  175.53 | X-H torsion
[ 8008 7997 7996 7995 ] final -176.44 input   59.86 | X-H torsion
[ 10167 10162 10161 10158 ] final  -36.76 input  -65.29 | X-H torsion
[ 10718 10713 10712 10709 ] final   57.38 input   66.30 | X-H torsion
[ 10763 10752 10751 10750 ] final  103.80 input  -60.55 | X-H torsion
[ 11005 11000 10999 10996 ] final  -26.87 input  -57.11 | X-H torsion

> <Gold.Protein.ActiveResidues>
 VAL166  LYS551  ARG553  GLY616  TRP617  ASP618  TYR619  PRO620  LYS621  CYS622 
 ASP623  PHE694  ASN695  SER759  ASP760  ASP761  ALA762  ILE779  LEU786  VAL792 
 PHE793  MET794  SER795  GLU796  ALA797  LYS798  CYS799  TRP800  GLU811  SER814 

> <Gold.Protein.RotatedAtoms>
  151.5250  133.3459  159.2907 H   0  0  0  0  0  0  0  0  0  0  0  0  # atno 6907 bound_to 6896
  150.8629  134.7988  159.7107 H   0  0  0  0  0  0  0  0  0  0  0  0  # atno 6908 bound_to 6896
  152.4643  134.5121  159.9809 H   0  0  0  0  0  0  0  0  0  0  0  0  # atno 6909 bound_to 6896
  146.2353  139.9351  142.8491 H   0  0  0  0  0  0  0  0  0  0  0  0  # atno 7974 bound_to 7965
  155.9949  140.1208  157.0603 H   0  0  0  0  0  0  0  0  0  0  0  0  # atno 8008 bound_to 7997
  154.4223  140.1118  156.5684 H   0  0  0  0  0  0  0  0  0  0  0  0  # atno 8009 bound_to 7997
  155.6293  140.3473  155.4679 H   0  0  0  0  0  0  0  0  0  0  0  0  # atno 8010 bound_to 7997
  140.7135  143.3387  151.2405 H   0  0  0  0  0  0  0  0  0  0  0  0  # atno 10167 bound_to 10162
  157.5510  130.8765  149.8963 H   0  0  0  0  0  0  0  0  0  0  0  0  # atno 10718 bound_to 10713
  153.3575  135.3964  155.1693 H   0  0  0  0  0  0  0  0  0  0  0  0  # atno 10763 bound_to 10752
  154.8673  135.3671  154.5142 H   0  0  0  0  0  0  0  0  0  0  0  0  # atno 10764 bound_to 10752
  153.5598  135.7081  153.5612 H   0  0  0  0  0  0  0  0  0  0  0  0  # atno 10765 bound_to 10752
  140.9069  133.7487  156.0617 H   0  0  0  0  0  0  0  0  0  0  0  0  # atno 11005 bound_to 11000
  145.2006  140.9853  143.4158 LP  0  0  0  0  0  0  0  0  0  0  0  0  # atno 17320 bound_to 7965
  144.9776  139.3815  143.6278 LP  0  0  0  0  0  0  0  0  0  0  0  0  # atno 17321 bound_to 7965
  139.6889  143.9726  152.2849 LP  0  0  0  0  0  0  0  0  0  0  0  0  # atno 17342 bound_to 10162
  139.9381  144.6699  150.8294 LP  0  0  0  0  0  0  0  0  0  0  0  0  # atno 17343 bound_to 10162
  156.0577  130.3705  150.1054 LP  0  0  0  0  0  0  0  0  0  0  0  0  # atno 17370 bound_to 10713
  156.9227  130.9688  151.3546 LP  0  0  0  0  0  0  0  0  0  0  0  0  # atno 17371 bound_to 10713
  140.8160  134.3344  157.5397 LP  0  0  0  0  0  0  0  0  0  0  0  0  # atno 17394 bound_to 11000
  139.8751  134.9282  156.3444 LP  0  0  0  0  0  0  0  0  0  0  0  0  # atno 17395 bound_to 11000

$$$$
