AV-unprocessed.smi:128|AV-procd|sdf|1155|dock8
  -GOLD-   2262018293D 1   1.00000     0.00000
 Structure written by MMmdl.
 41 44  0  0  0  0  0  0  0  0  1 V2000
  153.7746  138.0444  158.6024 O   0  0  0  0  0  0  0  0  0  0  0  0
  153.1391  139.0998  158.5762 C   0  0  0  0  0  0  0  0  0  0  0  0
  152.9997  139.9804  159.7309 C   0  0  0  0  0  0  0  0  0  0  0  0
  153.5676  139.6391  160.9000 F   0  0  0  0  0  0  0  0  0  0  0  0
  152.3081  141.1371  159.6455 C   0  0  0  0  0  0  0  0  0  0  0  0
  151.6944  141.5669  158.4822 N   0  0  0  0  0  0  0  0  0  0  0  0
  150.9488  142.8795  158.4533 C   0  0  2  0  0  0  0  0  0  0  0  0
  151.7012  143.9081  157.5984 C   0  0  0  0  0  0  0  0  0  0  0  0
  152.3162  144.8149  158.6451 C   0  0  0  0  0  0  0  0  0  0  0  0
  151.2924  144.7311  159.7700 C   0  0  0  0  0  0  0  0  0  0  0  0
  150.8708  143.3732  159.7583 O   0  0  0  0  0  0  0  0  0  0  0  0
  151.7864  140.7852  157.3097 C   0  0  0  0  0  0  0  0  0  0  0  0
  151.2858  141.1653  156.2487 O   0  0  0  0  0  0  0  0  0  0  0  0
  152.4928  139.5624  157.4028 N   0  0  0  0  0  0  0  0  0  0  0  0
  152.5972  138.7496  156.2008 C   0  0  0  0  0  0  0  0  0  0  0  0
  151.8956  137.4307  156.3455 C   0  0  0  0  0  0  0  0  0  0  0  0
  151.2560  136.9367  157.4098 N   0  0  0  0  0  0  0  0  0  0  0  0
  150.7852  135.7025  157.0258 N   0  0  0  0  0  0  0  0  0  0  0  0
  151.1685  135.5357  155.7555 C   0  0  0  0  0  0  0  0  0  0  0  0
  150.9192  134.3965  154.8729 C   0  0  0  0  0  0  0  0  0  0  0  0
  150.5660  134.5924  153.5177 C   0  0  0  0  0  0  0  0  0  0  0  0
  150.3248  133.4882  152.6771 C   0  0  0  0  0  0  0  0  0  0  0  0
  150.4346  132.1791  153.1829 C   0  0  0  0  0  0  0  0  0  0  0  0
  150.1057  130.6876  152.0478 Br  0  0  0  0  0  0  0  0  0  0  0  0
  150.7876  131.9751  154.5303 C   0  0  0  0  0  0  0  0  0  0  0  0
  151.0288  133.0787  155.3714 C   0  0  0  0  0  0  0  0  0  0  0  0
  151.8736  136.5958  155.2755 O   0  0  0  0  0  0  0  0  0  0  0  0
  152.2386  141.7514  160.5308 H   0  0  0  0  0  0  0  0  0  0  0  0
  149.9399  142.6752  158.0930 H   0  0  0  0  0  0  0  0  0  0  0  0
  152.4307  143.4421  156.9346 H   0  0  0  0  0  0  0  0  0  0  0  0
  150.9754  144.4553  156.9957 H   0  0  0  0  0  0  0  0  0  0  0  0
  153.2754  144.4155  158.9758 H   0  0  0  0  0  0  0  0  0  0  0  0
  152.4756  145.8329  158.2887 H   0  0  0  0  0  0  0  0  0  0  0  0
  151.7034  145.0150  160.7389 H   0  0  0  0  0  0  0  0  0  0  0  0
  150.4369  145.3742  159.5580 H   0  0  0  0  0  0  0  0  0  0  0  0
  152.1907  139.3095  155.3578 H   0  0  0  0  0  0  0  0  0  0  0  0
  153.6558  138.6028  155.9800 H   0  0  0  0  0  0  0  0  0  0  0  0
  150.4749  135.5879  153.1085 H   0  0  0  0  0  0  0  0  0  0  0  0
  150.0541  133.6475  151.6437 H   0  0  0  0  0  0  0  0  0  0  0  0
  150.8725  130.9715  154.9203 H   0  0  0  0  0  0  0  0  0  0  0  0
  151.2979  132.9040  156.4028 H   0  0  0  0  0  0  0  0  0  0  0  0
  1  2  2  0  0  0  0
  2 14  1  0  0  0  0
  2  3  1  0  0  0  0
  3  4  1  0  0  0  0
  3  5  2  0  0  0  0
  5  6  1  0  0  0  0
  5 28  1  0  0  0  0
  6  7  1  0  0  0  0
  6 12  1  0  0  0  0
  7 11  1  0  0  0  0
  7  8  1  0  0  0  0
  7 29  1  0  0  0  0
  8  9  1  0  0  0  0
  8 30  1  0  0  0  0
  8 31  1  0  0  0  0
  9 10  1  0  0  0  0
  9 32  1  0  0  0  0
  9 33  1  0  0  0  0
 10 11  1  0  0  0  0
 10 34  1  0  0  0  0
 10 35  1  0  0  0  0
 12 13  2  0  0  0  0
 12 14  1  0  0  0  0
 14 15  1  0  0  0  0
 15 16  1  0  0  0  0
 15 36  1  0  0  0  0
 15 37  1  0  0  0  0
 16 27  1  0  0  0  0
 16 17  2  0  0  0  0
 17 18  1  0  0  0  0
 18 19  2  0  0  0  0
 19 20  1  0  0  0  0
 19 27  1  0  0  0  0
 20 26  1  0  0  0  0
 20 21  2  0  0  0  0
 21 22  1  0  0  0  0
 21 38  1  0  0  0  0
 22 23  2  0  0  0  0
 22 39  1  0  0  0  0
 23 24  1  0  0  0  0
 23 25  1  0  0  0  0
 25 26  2  0  0  0  0
 25 40  1  0  0  0  0
 26 41  1  0  0  0  0
M  END
> <s_m_source_file>
AV-unprocessed.smi

> <i_m_source_file_index>
128

> <i_lp_mmshare_version>
43012

> <i_f3d_flags>
0

> <s_epik_input>
TzFbQ0gyXVtDSDJdW0NIMl1bQ0BIXTFuKFtjSF1jKEYpYzI9TyljKD1PKW4yW0NIMl1jM25uYyhvMyktYzRbY0hdW2NIXWMoQnIpW2NIXVtjSF00

> <s_epik_cmdline>
J2VwaWtfcHl0aG9uJywgJy1waCcsICc3LjAnLCAnLXRuJywgJzgnLCAnLW1hJywgJzIwMCcsICctbWV0YWxfYmluZGluZycsICctaW1hZScsICc8aW5maWxlLm1hZT4nLCAnLW9tYWUnLCAnPG91dGZpbGUubWFlPic=

> <r_lp_tautomer_probability>
1

> <r_epik_Ionization_Penalty>
2.55537e-09

> <r_epik_Ionization_Penalty_Charging>
2.54231e-09

> <r_epik_Ionization_Penalty_Neutral>
1.30653e-11

> <r_epik_State_Penalty>
-0

> <r_epik_Charging_Adjusted_Penalty>
2.54231e-09

> <i_epik_Tot_Q>
0

> <i_epik_Tot_abs_Q>
0

> <r_epik_Metal_State_Penalty>
-0

> <b_epik_Metal_Only>
0

> <s_epik_Chemistry_Notes>
This compound contains an acetal/aminal-like group ( X-CH(R)-Y where X, Y are N, S, or O) that may be acid/base labile, releasing an aldehyde.

> <s_lp_Force_Field>
OPLS_2005

> <r_lp_Energy>
32.4944

> <b_lp_Chiralities_Consistent>
1

> <s_lp_Variant>
AV-unprocessed.smi:128-1

> <Gold.Version>
5.8.1

> <Gold.Id.Protein>
6NUR|6NUR_protein|mol2

> <Gold.PLP.Fitness>
51.5368

> <Gold.PLP.PLP>
-48.5753

> <Gold.PLP.part.hbond>
-1.9481

> <Gold.PLP.part.metal>
0.0000

> <Gold.PLP.part.buried>
-6.6100

> <Gold.PLP.part.nonpolar>
-39.2799

> <Gold.PLP.part.repulsive>
0.1207

> <Gold.PLP.ligand.clash>
0.0000

> <Gold.PLP.ligand.torsion>
0.8266

> <Gold.PLP.Chemscore.Hbond>
1.5353

> <Gold.PLP.Chemscore.CHOScore>
0.0000

> <Gold.PLP.Chemscore.Metal>
0.0000

> <Gold.Chemscore.Hbonds>
donor molecule, donor type, donor heavy atom, donor atom, acceptor molecule, acceptor atom, score
      P1  H 10752 10764       L1    27  0.35

> <Gold.PLP.Chemscore.Internal.Correction>
0.0089

> <Gold.Rescore>
     Score         DG    S(hbond)    S(metal)    S(lipo)     H(rot)  DE(clash)    DE(int)     intcor
     16.36     -17.33       1.46        0.00      96.77       1.70       0.06       0.91       ----

> <Gold.Chemscore.Fitness>
16.3567

> <Gold.Chemscore.DG>
-17.3337

> <Gold.Chemscore.ZeroCoef>
-5.4800

> <Gold.Chemscore.Hbond>
1.4608

> <Gold.Chemscore.Metal>
0.0000

> <Gold.Chemscore.Lipo>
96.7652

> <Gold.Chemscore.Internal_Hbond>
0.0000

> <Gold.Chemscore.DEClash>
0.0623

> <Gold.Chemscore.DEInternal>
0.9146

> <Gold.Chemscore.Rot>
1.6980

> <Gold.Chemscore.Internal.Correction>
   9.000000E+99

> <Gold.Chemscore.Hbonds>
donor molecule, donor type, donor heavy atom, donor atom, acceptor molecule, acceptor atom, score
      P1  H 10752 10764       L1    27  0.01

> <Gold.Chemscore.Hbond.Weighted>
-4.8791

> <Gold.Chemscore.Metal.Weighted>
-0.0000

> <Gold.Chemscore.Lipo.Weighted>
-11.3215

> <Gold.Chemscore.Internal_Hbond.Weighted>
0.0000

> <Gold.Chemscore.DEClash.Weighted>
0.0623

> <Gold.Chemscore.DEInternal.Weighted>
0.9146

> <Gold.Chemscore.Rot.Weighted>
4.3469

> <Gold.Chemscore.Internal.Correction.Weighted>
   9.000000E+99

> <Gold.Protein.RotatedTorsions>
[ 6907 6896 6895 6894 ] final  172.74 input  -60.11 | X-H torsion
[ 7974 7965 7964 7962 ] final   -5.07 input  175.53 | X-H torsion
[ 8008 7997 7996 7995 ] final  -91.29 input   59.86 | X-H torsion
[ 10167 10162 10161 10158 ] final  -69.59 input  -65.29 | X-H torsion
[ 10718 10713 10712 10709 ] final -118.62 input   66.30 | X-H torsion
[ 10763 10752 10751 10750 ] final  -42.56 input  -60.55 | X-H torsion
[ 11005 11000 10999 10996 ] final -110.09 input  -57.11 | X-H torsion

> <Gold.Protein.ActiveResidues>
 VAL166  LYS551  ARG553  GLY616  TRP617  ASP618  TYR619  PRO620  LYS621  CYS622 
 ASP623  PHE694  ASN695  SER759  ASP760  ASP761  ALA762  ILE779  LEU786  VAL792 
 PHE793  MET794  SER795  GLU796  ALA797  LYS798  CYS799  TRP800  GLU811  SER814 

> <Gold.Protein.RotatedAtoms>
  151.7795  133.3348  159.3467 H   0  0  0  0  0  0  0  0  0  0  0  0  # atno 6907 bound_to 6896
  150.7431  134.5944  159.6013 H   0  0  0  0  0  0  0  0  0  0  0  0  # atno 6908 bound_to 6896
  152.3286  134.7290  160.0347 H   0  0  0  0  0  0  0  0  0  0  0  0  # atno 6909 bound_to 6896
  146.2360  140.1966  142.8333 H   0  0  0  0  0  0  0  0  0  0  0  0  # atno 7974 bound_to 7965
  154.7089  140.0521  157.0531 H   0  0  0  0  0  0  0  0  0  0  0  0  # atno 8008 bound_to 7997
  155.0581  140.3186  155.4650 H   0  0  0  0  0  0  0  0  0  0  0  0  # atno 8009 bound_to 7997
  156.2783  140.2103  156.5708 H   0  0  0  0  0  0  0  0  0  0  0  0  # atno 8010 bound_to 7997
  140.5419  143.2314  151.7073 H   0  0  0  0  0  0  0  0  0  0  0  0  # atno 10167 bound_to 10162
  156.1120  130.6256  150.9314 H   0  0  0  0  0  0  0  0  0  0  0  0  # atno 10718 bound_to 10713
  153.9810  135.6717  153.4750 H   0  0  0  0  0  0  0  0  0  0  0  0  # atno 10763 bound_to 10752
  153.0748  135.4954  154.8378 H   0  0  0  0  0  0  0  0  0  0  0  0  # atno 10764 bound_to 10752
  154.7164  135.3108  154.9078 H   0  0  0  0  0  0  0  0  0  0  0  0  # atno 10765 bound_to 10752
  141.0811  133.9218  157.2286 H   0  0  0  0  0  0  0  0  0  0  0  0  # atno 11005 bound_to 11000
  144.9815  140.8464  143.5394 LP  0  0  0  0  0  0  0  0  0  0  0  0  # atno 17320 bound_to 7965
  145.1960  139.2276  143.5218 LP  0  0  0  0  0  0  0  0  0  0  0  0  # atno 17321 bound_to 7965
  139.4992  144.3955  152.0235 LP  0  0  0  0  0  0  0  0  0  0  0  0  # atno 17342 bound_to 10162
  140.3065  144.3587  150.6045 LP  0  0  0  0  0  0  0  0  0  0  0  0  # atno 17343 bound_to 10162
  157.6301  131.0922  150.8457 LP  0  0  0  0  0  0  0  0  0  0  0  0  # atno 17370 bound_to 10713
  156.8566  130.5099  149.5307 LP  0  0  0  0  0  0  0  0  0  0  0  0  # atno 17371 bound_to 10713
  139.9625  135.0150  156.9300 LP  0  0  0  0  0  0  0  0  0  0  0  0  # atno 17394 bound_to 11000
  140.5466  134.0668  155.7356 LP  0  0  0  0  0  0  0  0  0  0  0  0  # atno 17395 bound_to 11000

$$$$
