AV-unprocessed.smi:1634|AV-procd|sdf|6537|dock8
  -GOLD-   22720 7223D 1   1.00000     0.00000
 Structure written by MMmdl.
 38 38  0  0  0  0  0  0  0  0  1 V2000
  146.6983  138.8568  151.7634 C   0  0  0  0  0  0  0  0  0  0  0  0
  147.3246  139.0032  153.1592 C   0  0  0  0  0  0  0  0  0  0  0  0
  146.3333  138.5699  154.2493 C   0  0  0  0  0  0  0  0  0  0  0  0
  147.8234  140.4362  153.4057 C   0  0  0  0  0  0  0  0  0  0  0  0
  148.8939  140.4054  154.3441 O   0  0  0  0  0  0  0  0  0  0  0  0
  149.0774  141.5959  155.1056 C   0  0  1  0  0  0  0  0  0  0  0  0
  147.7429  141.9172  155.7950 C   0  0  0  0  0  0  0  0  0  0  0  0
  150.2054  141.4032  156.1322 C   0  0  0  0  0  0  0  0  0  0  0  0
  150.7697  140.3124  156.2110 O   0  0  0  0  0  0  0  0  0  0  0  0
  150.5108  142.4947  156.8617 N   0  0  0  0  0  0  0  0  0  0  0  0
  151.4844  142.6697  157.8602 C   0  0  0  0  0  0  0  0  0  0  0  0
  152.2620  141.6831  158.3791 C   0  0  0  0  0  0  0  0  0  0  0  0
  153.2495  141.9421  159.4136 C   0  0  0  0  0  0  0  0  0  0  0  0
  154.0731  140.8194  160.0255 C   0  0  0  0  0  0  0  0  0  0  0  0
  153.7268  139.6339  159.5223 F   0  0  0  0  0  0  0  0  0  0  0  0
  155.3743  141.0048  159.8020 F   0  0  0  0  0  0  0  0  0  0  0  0
  153.8802  140.7835  161.3432 F   0  0  0  0  0  0  0  0  0  0  0  0
  153.3383  143.2101  159.8550 C   0  0  0  0  0  0  0  0  0  0  0  0
  152.5454  144.2305  159.3257 N   0  0  0  0  0  0  0  0  0  0  0  0
  151.6202  144.0492  158.3571 C   0  0  0  0  0  0  0  0  0  0  0  0
  150.9573  145.0010  157.9462 O   0  0  0  0  0  0  0  0  0  0  0  0
  152.6790  145.1580  159.7023 H   0  0  0  0  0  0  0  0  0  0  0  0
  145.8339  139.5112  151.6460 H   0  0  0  0  0  0  0  0  0  0  0  0
  146.3677  137.8330  151.5865 H   0  0  0  0  0  0  0  0  0  0  0  0
  147.4138  139.1083  150.9800 H   0  0  0  0  0  0  0  0  0  0  0  0
  148.1850  138.3350  153.2140 H   0  0  0  0  0  0  0  0  0  0  0  0
  145.4453  139.2028  154.2519 H   0  0  0  0  0  0  0  0  0  0  0  0
  146.7866  138.6282  155.2392 H   0  0  0  0  0  0  0  0  0  0  0  0
  146.0079  137.5403  154.0977 H   0  0  0  0  0  0  0  0  0  0  0  0
  148.1323  140.8853  152.4611 H   0  0  0  0  0  0  0  0  0  0  0  0
  147.0144  141.0487  153.8063 H   0  0  0  0  0  0  0  0  0  0  0  0
  149.3216  142.4209  154.4336 H   0  0  0  0  0  0  0  0  0  0  0  0
  147.8241  142.8084  156.4183 H   0  0  0  0  0  0  0  0  0  0  0  0
  147.4084  141.0940  156.4276 H   0  0  0  0  0  0  0  0  0  0  0  0
  146.9621  142.1022  155.0571 H   0  0  0  0  0  0  0  0  0  0  0  0
  149.9872  143.3300  156.6424 H   0  0  0  0  0  0  0  0  0  0  0  0
  152.1697  140.6637  158.0447 H   0  0  0  0  0  0  0  0  0  0  0  0
  154.0083  143.5373  160.6366 H   0  0  0  0  0  0  0  0  0  0  0  0
  1  2  1  0  0  0  0
  1 23  1  0  0  0  0
  1 24  1  0  0  0  0
  1 25  1  0  0  0  0
  2  3  1  0  0  0  0
  2  4  1  0  0  0  0
  2 26  1  0  0  0  0
  3 27  1  0  0  0  0
  3 28  1  0  0  0  0
  3 29  1  0  0  0  0
  4  5  1  0  0  0  0
  4 30  1  0  0  0  0
  4 31  1  0  0  0  0
  5  6  1  0  0  0  0
  6  7  1  0  0  0  0
  6  8  1  0  0  0  0
  6 32  1  0  0  0  0
  7 33  1  0  0  0  0
  7 34  1  0  0  0  0
  7 35  1  0  0  0  0
  8  9  2  0  0  0  0
  8 10  1  0  0  0  0
 10 11  1  0  0  0  0
 10 36  1  0  0  0  0
 11 20  1  0  0  0  0
 11 12  2  0  0  0  0
 12 13  1  0  0  0  0
 12 37  1  0  0  0  0
 13 14  1  0  0  0  0
 13 18  2  0  0  0  0
 14 15  1  0  0  0  0
 14 16  1  0  0  0  0
 14 17  1  0  0  0  0
 18 19  1  0  0  0  0
 18 38  1  0  0  0  0
 19 22  1  0  0  0  0
 19 20  1  0  0  0  0
 20 21  2  0  0  0  0
M  END
> <s_m_source_file>
AV-unprocessed.smi

> <i_m_source_file_index>
1634

> <i_lp_mmshare_version>
43012

> <i_f3d_flags>
0

> <s_epik_input>
W0NIM11bQ0hdKFtDSDNdKVtDSDJdT1tDQEhdKFtDSDNdKUMoPU8pW05IXWMxW2NIXWMoQyhGKShGKUYpW2NIXVtuSF1jMT1P

> <s_epik_cmdline>
J2VwaWtfcHl0aG9uJywgJy1waCcsICc3LjAnLCAnLXRuJywgJzgnLCAnLW1hJywgJzIwMCcsICctbWV0YWxfYmluZGluZycsICctaW1hZScsICc8aW5maWxlLm1hZT4nLCAnLW9tYWUnLCAnPG91dGZpbGUubWFlPic=

> <r_lp_tautomer_probability>
0.999

> <r_epik_Ionization_Penalty>
0.00884964

> <r_epik_Ionization_Penalty_Charging>
0.00884955

> <r_epik_Ionization_Penalty_Neutral>
9.33956e-08

> <r_epik_State_Penalty>
0.00669049

> <r_epik_Charging_Adjusted_Penalty>
0.01554

> <i_epik_Tot_Q>
0

> <i_epik_Tot_abs_Q>
0

> <r_epik_Metal_State_Penalty>
0.320763

> <b_epik_Metal_Only>
0

> <s_lp_Force_Field>
OPLS_2005

> <r_lp_Energy>
19.8034

> <b_lp_Chiralities_Consistent>
1

> <s_lp_Variant>
AV-unprocessed.smi:1634-2

> <Gold.Version>
5.8.1

> <Gold.Id.Protein>
6NUR|6NUR_protein|mol2

> <Gold.PLP.Fitness>
39.7792

> <Gold.PLP.PLP>
-37.7802

> <Gold.PLP.part.hbond>
-1.0000

> <Gold.PLP.part.metal>
0.0000

> <Gold.PLP.part.buried>
0.4116

> <Gold.PLP.part.nonpolar>
-36.9407

> <Gold.PLP.part.repulsive>
0.8452

> <Gold.PLP.ligand.clash>
0.0000

> <Gold.PLP.ligand.torsion>
0.5236

> <Gold.PLP.Chemscore.Hbond>
1.0000

> <Gold.PLP.Chemscore.CHOScore>
0.0000

> <Gold.PLP.Chemscore.Metal>
0.0000

> <Gold.Chemscore.Hbonds>
donor molecule, donor type, donor heavy atom, donor atom, acceptor molecule, acceptor atom, score
      L1  H    10    36       P1  8028  1.00

> <Gold.PLP.Chemscore.Internal.Correction>
0.0462

> <Gold.Rescore>
     Score         DG    S(hbond)    S(metal)    S(lipo)     H(rot)  DE(clash)    DE(int)     intcor
     12.12     -14.46       0.98        0.00      87.98       1.79       0.77       1.57       ----

> <Gold.Chemscore.Fitness>
12.1185

> <Gold.Chemscore.DG>
-14.4643

> <Gold.Chemscore.ZeroCoef>
-5.4800

> <Gold.Chemscore.Hbond>
0.9777

> <Gold.Chemscore.Metal>
0.0000

> <Gold.Chemscore.Lipo>
87.9842

> <Gold.Chemscore.Internal_Hbond>
0.0000

> <Gold.Chemscore.DEClash>
0.7735

> <Gold.Chemscore.DEInternal>
1.5724

> <Gold.Chemscore.Rot>
1.7873

> <Gold.Chemscore.Internal.Correction>
   9.000000E+99

> <Gold.Chemscore.Hbonds>
donor molecule, donor type, donor heavy atom, donor atom, acceptor molecule, acceptor atom, score
      L1  H    10    36       P1  8028  0.94

> <Gold.Chemscore.Hbond.Weighted>
-3.2656

> <Gold.Chemscore.Metal.Weighted>
-0.0000

> <Gold.Chemscore.Lipo.Weighted>
-10.2941

> <Gold.Chemscore.Internal_Hbond.Weighted>
0.0000

> <Gold.Chemscore.DEClash.Weighted>
0.7735

> <Gold.Chemscore.DEInternal.Weighted>
1.5724

> <Gold.Chemscore.Rot.Weighted>
4.5755

> <Gold.Chemscore.Internal.Correction.Weighted>
   9.000000E+99

> <Gold.Protein.RotatedTorsions>
[ 6907 6896 6895 6894 ] final -168.49 input  -60.11 | X-H torsion
[ 7974 7965 7964 7962 ] final   70.06 input  175.53 | X-H torsion
[ 8008 7997 7996 7995 ] final  -52.80 input   59.86 | X-H torsion
[ 10167 10162 10161 10158 ] final   53.94 input  -65.29 | X-H torsion
[ 10718 10713 10712 10709 ] final   94.77 input   66.30 | X-H torsion
[ 10763 10752 10751 10750 ] final  -35.15 input  -60.55 | X-H torsion
[ 11005 11000 10999 10996 ] final -123.06 input  -57.11 | X-H torsion

> <Gold.Protein.ActiveResidues>
 VAL166  LYS551  ARG553  GLY616  TRP617  ASP618  TYR619  PRO620  LYS621  CYS622 
 ASP623  PHE694  ASN695  SER759  ASP760  ASP761  ALA762  ILE779  LEU786  VAL792 
 PHE793  MET794  SER795  GLU796  ALA797  LYS798  CYS799  TRP800  GLU811  SER814 

> <Gold.Protein.RotatedAtoms>
  151.4765  133.3556  159.2831 H   0  0  0  0  0  0  0  0  0  0  0  0  # atno 6907 bound_to 6896
  150.8926  134.8333  159.7315 H   0  0  0  0  0  0  0  0  0  0  0  0  # atno 6908 bound_to 6896
  152.4832  134.4676  159.9677 H   0  0  0  0  0  0  0  0  0  0  0  0  # atno 6909 bound_to 6896
  145.7828  139.2895  143.1256 H   0  0  0  0  0  0  0  0  0  0  0  0  # atno 7974 bound_to 7965
  154.4116  140.1215  156.5050 H   0  0  0  0  0  0  0  0  0  0  0  0  # atno 8008 bound_to 7997
  155.6856  140.3496  155.4853 H   0  0  0  0  0  0  0  0  0  0  0  0  # atno 8009 bound_to 7997
  155.9513  140.1105  157.0964 H   0  0  0  0  0  0  0  0  0  0  0  0  # atno 8010 bound_to 7997
  140.2354  144.3641  150.6399 H   0  0  0  0  0  0  0  0  0  0  0  0  # atno 10167 bound_to 10162
  157.6945  131.0523  150.4237 H   0  0  0  0  0  0  0  0  0  0  0  0  # atno 10718 bound_to 10713
  153.8585  135.6842  153.4785 H   0  0  0  0  0  0  0  0  0  0  0  0  # atno 10763 bound_to 10752
  153.1355  135.4679  154.9414 H   0  0  0  0  0  0  0  0  0  0  0  0  # atno 10764 bound_to 10752
  154.7769  135.3256  154.8021 H   0  0  0  0  0  0  0  0  0  0  0  0  # atno 10765 bound_to 10752
  140.9948  134.0488  157.3611 H   0  0  0  0  0  0  0  0  0  0  0  0  # atno 11005 bound_to 11000
  146.0057  140.8480  142.9996 LP  0  0  0  0  0  0  0  0  0  0  0  0  # atno 17320 bound_to 7965
  144.6794  140.2417  143.7343 LP  0  0  0  0  0  0  0  0  0  0  0  0  # atno 17321 bound_to 7965
  140.6153  143.2172  151.6803 LP  0  0  0  0  0  0  0  0  0  0  0  0  # atno 17342 bound_to 10162
  139.5095  144.3574  152.0595 LP  0  0  0  0  0  0  0  0  0  0  0  0  # atno 17343 bound_to 10162
  156.4610  130.4032  149.6576 LP  0  0  0  0  0  0  0  0  0  0  0  0  # atno 17370 bound_to 10713
  156.3691  130.7521  151.2502 LP  0  0  0  0  0  0  0  0  0  0  0  0  # atno 17371 bound_to 10713
  139.9009  135.0164  156.7264 LP  0  0  0  0  0  0  0  0  0  0  0  0  # atno 17394 bound_to 11000
  140.6983  133.9329  155.8008 LP  0  0  0  0  0  0  0  0  0  0  0  0  # atno 17395 bound_to 11000

$$$$
