#       Name:                AV-unprocessed.smi:1908
#       Creating user name   scv26
#       Creation time:       Fri Mar 27 09:47:26 2020


#       File generated by GOLD software.
#

@<TRIPOS>MOLECULE
AV-unprocessed.smi:1908
    34    34     1
SMALL
NO_CHARGES


@<TRIPOS>ATOM
      1 ****        -3.1232  -2.0563   1.3250 C.3            1 S1                 0.0000
      2 ****        -2.6091  -1.2244   0.1429 C.3            1 S1                 0.0000
      3 ****        -3.1594  -1.7383  -1.1964 C.3            1 S1                 0.0000
      4 ****        -1.1493  -1.2447   0.1313 N.am           1 S1                 0.0000
      5 ****        -0.3607  -0.2674  -0.3427 C.2            1 S1                 0.0000
      6 ****        -0.7974   0.7713  -0.8404 O.2            1 S1                 0.0000
      7 ****         1.1515  -0.5198  -0.2669 C.3            1 S1                 0.0000
      8 ****         1.9254   0.7189  -0.1036 N.am           1 S1                 0.0000
      9 ****         2.5002   1.3375  -1.2050 C.2            1 S1                 0.0000
     10 ****         3.2150   2.4849  -1.1268 C.2            1 S1                 0.0000
     11 ****         3.4189   3.1419   0.1599 C.2            1 S1                 0.0000
     12 ****         4.0521   4.1807   0.3334 O.2            1 S1                 0.0000
     13 ****         2.8227   2.4907   1.2430 N.am           1 S1                 0.0000
     14 ****         2.0825   1.3099   1.1689 C.2            1 S1                 0.0000
     15 ****         1.5944   0.8212   2.1873 O.2            1 S1                 0.0000
     16 ****         2.9342   2.9106   2.1543 H              1 S1                 0.0000
     17 ****        -4.2123  -2.0343   1.3745 H              1 S1                 0.0000
     18 ****        -2.7437  -1.6700   2.2716 H              1 S1                 0.0000
     19 ****        -2.8155  -3.0992   1.2421 H              1 S1                 0.0000
     20 ****        -2.9519  -0.1983   0.2880 H              1 S1                 0.0000
     21 ****        -4.2497  -1.7268  -1.2015 H              1 S1                 0.0000
     22 ****        -2.8369  -2.7615  -1.3920 H              1 S1                 0.0000
     23 ****        -2.8218  -1.1178  -2.0274 H              1 S1                 0.0000
     24 ****        -0.7038  -2.0648   0.5167 H              1 S1                 0.0000
     25 ****         1.3771  -1.2158   0.5438 H              1 S1                 0.0000
     26 ****         1.4530  -1.0358  -1.1796 H              1 S1                 0.0000
     27 ****         2.3708   0.8884  -2.1797 H              1 S1                 0.0000
     28 ****         3.6373   2.9200  -2.0211 H              1 S1                 0.0000
     29 ****        -1.7844   0.9177  -0.9062 LP             1 S1                 0.0000
     30 ****        -0.1649   1.4681  -1.1787 LP             1 S1                 0.0000
     31 ****         4.4769   4.6432  -0.4448 LP             1 S1                 0.0000
     32 ****         4.1425   4.5635   1.2528 LP             1 S1                 0.0000
     33 ****         1.0641  -0.0248   2.1314 LP             1 S1                 0.0000
     34 ****         1.7280   1.2700   3.0709 LP             1 S1                 0.0000
@<TRIPOS>BOND
    1    1    2 1     
    2    1   17 1     
    3    1   18 1     
    4    1   19 1     
    5    2    3 1     
    6    2    4 1     
    7    2   20 1     
    8    3   21 1     
    9    3   22 1     
   10    3   23 1     
   11    4    5 am    
   12    4   24 1     
   13    5    6 2     
   14    5    7 1     
   15    7    8 1     
   16    7   25 1     
   17    7   26 1     
   18    8   14 1     
   19    8    9 1     
   20    9   10 2     
   21    9   27 1     
   22   10   11 1     
   23   10   28 1     
   24   11   12 2     
   25   11   13 1     
   26   13   16 1     
   27   13   14 1     
   28   14   15 2     
   29    6   29 1     
   30    6   30 1     
   31   12   31 1     
   32   12   32 1     
   33   15   33 1     
   34   15   34 1     
@<TRIPOS>SUBSTRUCTURE
      1 S1             1
@<TRIPOS>SET
LONE_PAIRS      STATIC     ATOMS    <user>   **** ""
6 29 30 31 32 33 34
DONOR_HYDROGENS      STATIC     ATOMS    <user>   **** ""
2 24 16
ATOM$BLUE        STATIC     ATOMS    COLORGROUP SYSTEM
6 29 30 31 32 33 34
ATOM$RED        STATIC     ATOMS    COLORGROUP SYSTEM
2 24 16
