AV-unprocessed.smi:2083|AV-procd|sdf|8499|dock3
  -GOLD-   2272011213D 1   1.00000     0.00000
 Structure written by MMmdl.
 44 45  0  0  0  0  0  0  0  0  3 V2000
  155.5976  137.1023  164.1798 C   0  0  0  0  0  0  0  0  0  0  0  0
  155.1325  137.4799  162.8151 C   0  0  0  0  0  0  0  0  0  0  0  0
  154.0424  137.1212  162.0739 C   0  0  0  0  0  0  0  0  0  0  0  0
  154.2212  137.8440  160.8628 C   0  0  0  0  0  0  0  0  0  0  0  0
  153.3945  137.8309  159.8060 N   0  5  0  0  0  0  0  0  0  0  0  0
  153.5003  138.7790  158.8477 C   0  0  0  0  0  0  0  0  0  0  0  0
  154.4818  139.4928  158.6280 O   0  0  0  0  0  0  0  0  0  0  0  0
  152.4009  138.9043  158.0907 N   0  0  0  0  0  0  0  0  0  0  0  0
  152.2365  139.8298  156.9738 C   0  0  0  0  0  0  0  0  0  0  0  0
  151.2640  140.9990  157.2968 C   0  0  1  0  0  0  0  0  0  0  0  0
  150.0483  140.4775  158.0959 C   0  0  0  0  0  0  0  0  0  0  0  0
  151.8979  142.1463  158.0269 N   0  3  1  0  0  0  0  0  0  0  0  0
  151.2853  143.4871  157.7952 C   0  0  0  0  0  0  0  0  0  0  0  0
  152.0841  144.6035  158.4886 C   0  0  0  0  0  0  0  0  0  0  0  0
  152.2355  144.3335  159.9881 C   0  0  0  0  0  0  0  0  0  0  0  0
  152.8623  142.9492  160.2076 C   0  0  1  0  0  0  0  0  0  0  0  0
  153.0161  142.6354  161.7026 C   0  0  0  0  0  0  0  0  0  0  0  0
  152.0266  141.8729  159.4879 C   0  0  0  0  0  0  0  0  0  0  0  0
  155.3136  138.5893  160.8752 N   0  0  0  0  0  0  0  0  0  0  0  0
  155.9067  138.3573  162.1219 O   0  0  0  0  0  0  0  0  0  0  0  0
  154.9285  137.5060  164.9395 H   0  0  0  0  0  0  0  0  0  0  0  0
  156.5998  137.4852  164.3740 H   0  0  0  0  0  0  0  0  0  0  0  0
  155.6236  136.0184  164.2916 H   0  0  0  0  0  0  0  0  0  0  0  0
  153.2466  136.4465  162.3509 H   0  0  0  0  0  0  0  0  0  0  0  0
  151.6184  138.3046  158.3091 H   0  0  0  0  0  0  0  0  0  0  0  0
  153.2225  140.2192  156.7181 H   0  0  0  0  0  0  0  0  0  0  0  0
  151.8948  139.2475  156.1171 H   0  0  0  0  0  0  0  0  0  0  0  0
  150.9032  141.3850  156.3420 H   0  0  0  0  0  0  0  0  0  0  0  0
  149.5182  139.6918  157.5574 H   0  0  0  0  0  0  0  0  0  0  0  0
  149.3121  141.2538  158.2965 H   0  0  0  0  0  0  0  0  0  0  0  0
  150.3593  140.0647  159.0561 H   0  0  0  0  0  0  0  0  0  0  0  0
  151.2689  143.7287  156.7333 H   0  0  0  0  0  0  0  0  0  0  0  0
  150.2522  143.4843  158.1468 H   0  0  0  0  0  0  0  0  0  0  0  0
  153.0706  144.6854  158.0305 H   0  0  0  0  0  0  0  0  0  0  0  0
  151.5919  145.5640  158.3329 H   0  0  0  0  0  0  0  0  0  0  0  0
  152.8525  145.1082  160.4447 H   0  0  0  0  0  0  0  0  0  0  0  0
  151.2588  144.3841  160.4719 H   0  0  0  0  0  0  0  0  0  0  0  0
  153.8613  142.9530  159.7688 H   0  0  0  0  0  0  0  0  0  0  0  0
  152.0486  142.6123  162.2053 H   0  0  0  0  0  0  0  0  0  0  0  0
  153.6314  143.3856  162.2000 H   0  0  0  0  0  0  0  0  0  0  0  0
  153.4931  141.6668  161.8543 H   0  0  0  0  0  0  0  0  0  0  0  0
  151.0307  141.8150  159.9313 H   0  0  0  0  0  0  0  0  0  0  0  0
  152.4936  140.9040  159.6559 H   0  0  0  0  0  0  0  0  0  0  0  0
  152.8362  142.2157  157.6602 H   0  0  0  0  0  0  0  0  0  0  0  0
  1  2  1  0  0  0  0
  1 21  1  0  0  0  0
  1 22  1  0  0  0  0
  1 23  1  0  0  0  0
  2 20  1  0  0  0  0
  2  3  2  0  0  0  0
  3  4  1  0  0  0  0
  3 24  1  0  0  0  0
  4  5  1  0  0  0  0
  4 19  2  0  0  0  0
  5  6  1  0  0  0  0
  6  7  2  0  0  0  0
  6  8  1  0  0  0  0
  8  9  1  0  0  0  0
  8 25  1  0  0  0  0
  9 10  1  0  0  0  0
  9 26  1  0  0  0  0
  9 27  1  0  0  0  0
 10 11  1  0  0  0  0
 10 12  1  0  0  0  0
 10 28  1  0  0  0  0
 11 29  1  0  0  0  0
 11 30  1  0  0  0  0
 11 31  1  0  0  0  0
 12 18  1  0  0  0  0
 12 13  1  0  0  0  0
 12 44  1  0  0  0  0
 13 14  1  0  0  0  0
 13 32  1  0  0  0  0
 13 33  1  0  0  0  0
 14 15  1  0  0  0  0
 14 34  1  0  0  0  0
 14 35  1  0  0  0  0
 15 16  1  0  0  0  0
 15 36  1  0  0  0  0
 15 37  1  0  0  0  0
 16 17  1  0  0  0  0
 16 18  1  0  0  0  0
 16 38  1  0  0  0  0
 17 39  1  0  0  0  0
 17 40  1  0  0  0  0
 17 41  1  0  0  0  0
 18 42  1  0  0  0  0
 18 43  1  0  0  0  0
 19 20  1  0  0  0  0
M  CHG  1   5  -1
M  CHG  1  12   1
M  END
> <s_m_source_file>
AV-unprocessed.smi

> <i_m_source_file_index>
2083

> <i_lp_mmshare_version>
43012

> <i_f3d_flags>
0

> <s_epik_input>
W0NIM11jMVtjSF1jKG5vMSlbTkhdQyg9TylbTkhdW0NIMl1bQ0BIXShbQ0gzXSlOMltDSDJdW0NIMl1bQ0gyXVtDQEBIXShbQ0gzXSlbQ0gyXTI=

> <s_epik_cmdline>
J2VwaWtfcHl0aG9uJywgJy1waCcsICc3LjAnLCAnLXRuJywgJzgnLCAnLW1hJywgJzIwMCcsICctbWV0YWxfYmluZGluZycsICctaW1hZScsICc8aW5maWxlLm1hZT4nLCAnLW9tYWUnLCAnPG91dGZpbGUubWFlPic=

> <r_epik_Ionization_Penalty>
6.22434

> <r_epik_Ionization_Penalty_Charging>
6.22425

> <r_epik_Ionization_Penalty_Neutral>
9.62407e-05

> <r_epik_State_Penalty>
6.22423

> <r_epik_Charging_Adjusted_Penalty>
12.4485

> <i_epik_Tot_Q>
0

> <i_epik_Tot_abs_Q>
2

> <r_epik_Metal_State_Penalty>
2.16764

> <b_epik_Metal_Only>
1

> <s_lp_Force_Field>
OPLS_2005

> <r_lp_Energy>
9.18004

> <b_lp_Chiralities_Consistent>
1

> <s_lp_Variant>
AV-unprocessed.smi:2083-10

> <Gold.Version>
5.8.1

> <Gold.Id.Protein>
6NUR|6NUR_protein|mol2

> <Gold.PLP.Fitness>
42.1556

> <Gold.PLP.PLP>
-40.7353

> <Gold.PLP.part.hbond>
-1.0000

> <Gold.PLP.part.metal>
0.0000

> <Gold.PLP.part.buried>
-4.3710

> <Gold.PLP.part.nonpolar>
-35.2008

> <Gold.PLP.part.repulsive>
0.1385

> <Gold.PLP.ligand.clash>
0.0000

> <Gold.PLP.ligand.torsion>
0.8650

> <Gold.PLP.Chemscore.Hbond>
1.0000

> <Gold.PLP.Chemscore.CHOScore>
0.0000

> <Gold.PLP.Chemscore.Metal>
0.0000

> <Gold.Chemscore.Hbonds>
donor molecule, donor type, donor heavy atom, donor atom, acceptor molecule, acceptor atom, score
      P1  H  7997  8010       L1     7  0.96

> <Gold.PLP.Chemscore.Internal.Correction>
0.1504

> <Gold.Rescore>
     Score         DG    S(hbond)    S(metal)    S(lipo)     H(rot)  DE(clash)    DE(int)     intcor
     15.55     -17.91       1.00        0.00     111.02       1.52       0.02       2.34       ----

> <Gold.Chemscore.Fitness>
15.5521

> <Gold.Chemscore.DG>
-17.9061

> <Gold.Chemscore.ZeroCoef>
-5.4800

> <Gold.Chemscore.Hbond>
0.9955

> <Gold.Chemscore.Metal>
0.0000

> <Gold.Chemscore.Lipo>
111.0239

> <Gold.Chemscore.Internal_Hbond>
0.0000

> <Gold.Chemscore.DEClash>
0.0162

> <Gold.Chemscore.DEInternal>
2.3378

> <Gold.Chemscore.Rot>
1.5190

> <Gold.Chemscore.Internal.Correction>
   9.000000E+99

> <Gold.Chemscore.Hbonds>
donor molecule, donor type, donor heavy atom, donor atom, acceptor molecule, acceptor atom, score
      P1  H  7997  8010       L1     7  0.91

> <Gold.Chemscore.Hbond.Weighted>
-3.3249

> <Gold.Chemscore.Metal.Weighted>
-0.0000

> <Gold.Chemscore.Lipo.Weighted>
-12.9898

> <Gold.Chemscore.Internal_Hbond.Weighted>
0.0000

> <Gold.Chemscore.DEClash.Weighted>
0.0162

> <Gold.Chemscore.DEInternal.Weighted>
2.3378

> <Gold.Chemscore.Rot.Weighted>
3.8886

> <Gold.Chemscore.Internal.Correction.Weighted>
   9.000000E+99

> <Gold.Protein.RotatedTorsions>
[ 6907 6896 6895 6894 ] final  -82.71 input  -60.11 | X-H torsion
[ 7974 7965 7964 7962 ] final  127.41 input  175.53 | X-H torsion
[ 8008 7997 7996 7995 ] final    7.86 input   59.86 | X-H torsion
[ 10167 10162 10161 10158 ] final -152.61 input  -65.29 | X-H torsion
[ 10718 10713 10712 10709 ] final   73.25 input   66.30 | X-H torsion
[ 10763 10752 10751 10750 ] final   65.64 input  -60.55 | X-H torsion
[ 11005 11000 10999 10996 ] final -163.35 input  -57.11 | X-H torsion

> <Gold.Protein.ActiveResidues>
 VAL166  LYS551  ARG553  GLY616  TRP617  ASP618  TYR619  PRO620  LYS621  CYS622 
 ASP623  PHE694  ASN695  SER759  ASP760  ASP761  ALA762  ILE779  LEU786  VAL792 
 PHE793  MET794  SER795  GLU796  ALA797  LYS798  CYS799  TRP800  GLU811  SER814 

> <Gold.Protein.RotatedAtoms>
  150.6894  134.3623  159.4955 H   0  0  0  0  0  0  0  0  0  0  0  0  # atno 6907 bound_to 6896
  152.1450  134.9030  160.0561 H   0  0  0  0  0  0  0  0  0  0  0  0  # atno 6908 bound_to 6896
  152.0150  133.3841  159.4272 H   0  0  0  0  0  0  0  0  0  0  0  0  # atno 6909 bound_to 6896
  145.0509  139.3883  143.5054 H   0  0  0  0  0  0  0  0  0  0  0  0  # atno 7974 bound_to 7965
  154.7594  140.2781  155.6227 H   0  0  0  0  0  0  0  0  0  0  0  0  # atno 8008 bound_to 7997
  156.2912  140.2663  156.2295 H   0  0  0  0  0  0  0  0  0  0  0  0  # atno 8009 bound_to 7997
  155.0037  140.0372  157.2360 H   0  0  0  0  0  0  0  0  0  0  0  0  # atno 8010 bound_to 7997
  139.7167  143.9022  152.2488 H   0  0  0  0  0  0  0  0  0  0  0  0  # atno 10167 bound_to 10162
  157.6539  130.9619  150.1043 H   0  0  0  0  0  0  0  0  0  0  0  0  # atno 10718 bound_to 10713
  153.0105  135.5349  154.6698 H   0  0  0  0  0  0  0  0  0  0  0  0  # atno 10763 bound_to 10752
  154.5886  135.2856  155.0661 H   0  0  0  0  0  0  0  0  0  0  0  0  # atno 10764 bound_to 10752
  154.1763  135.6523  153.5075 H   0  0  0  0  0  0  0  0  0  0  0  0  # atno 10765 bound_to 10752
  140.5991  134.4966  157.5203 H   0  0  0  0  0  0  0  0  0  0  0  0  # atno 11005 bound_to 11000
  146.3518  140.0159  142.8663 LP  0  0  0  0  0  0  0  0  0  0  0  0  # atno 17320 bound_to 7965
  145.1528  140.9632  143.4423 LP  0  0  0  0  0  0  0  0  0  0  0  0  # atno 17321 bound_to 7965
  139.8906  144.6967  150.8774 LP  0  0  0  0  0  0  0  0  0  0  0  0  # atno 17342 bound_to 10162
  140.7745  143.3589  151.1867 LP  0  0  0  0  0  0  0  0  0  0  0  0  # atno 17343 bound_to 10162
  156.1957  130.3657  149.8852 LP  0  0  0  0  0  0  0  0  0  0  0  0  # atno 17370 bound_to 10713
  156.6769  130.8842  151.3570 LP  0  0  0  0  0  0  0  0  0  0  0  0  # atno 17371 bound_to 10713
  139.9240  134.8092  156.1124 LP  0  0  0  0  0  0  0  0  0  0  0  0  # atno 17394 bound_to 11000
  141.0884  133.6724  156.2487 LP  0  0  0  0  0  0  0  0  0  0  0  0  # atno 17395 bound_to 11000

$$$$
