AV-unprocessed.smi:2009|AV-procd|sdf|8145|dock7
  -GOLD-   2272010383D 1   1.00000     0.00000
 Structure written by MMmdl.
 38 39  0  0  0  0  0  0  0  0  1 V2000
  149.7906  138.3804  156.7007 C   0  0  0  0  0  0  0  0  0  0  0  0
  150.2500  139.7461  156.1676 C   0  0  2  0  0  0  0  0  0  0  0  0
  150.0547  139.9080  154.6428 C   0  0  0  0  0  0  0  0  0  0  0  0
  148.7464  140.4242  154.2736 N   0  0  0  0  0  0  0  0  0  0  0  0
  148.2574  141.7043  154.4315 C   0  0  0  0  0  0  0  0  0  0  0  0
  146.9838  141.7174  153.9400 C   0  0  0  0  0  0  0  0  0  0  0  0
  146.7774  140.3794  153.5024 C   0  0  0  0  0  0  0  0  0  0  0  0
  147.8325  139.6069  153.7056 N   0  0  0  0  0  0  0  0  0  0  0  0
  151.6512  139.9578  156.5432 N   0  0  0  0  0  0  0  0  0  0  0  0
  152.1014  140.0659  158.2051 S   0  0  0  0  0  0  0  0  0  0  0  0
  150.9911  139.5729  159.0344 O   0  0  0  0  0  0  0  0  0  0  0  0
  153.4549  139.5073  158.3445 O   0  0  0  0  0  0  0  0  0  0  0  0
  152.1808  141.7892  158.3629 N   0  0  0  0  0  0  0  0  0  0  0  0
  152.6044  142.3159  159.6758 C   0  0  0  0  0  0  0  0  0  0  0  0
  152.9871  143.8029  159.5923 C   0  0  0  0  0  0  0  0  0  0  0  0
  151.8514  144.6359  158.9924 C   0  0  0  0  0  0  0  0  0  0  0  0
  151.4802  144.0665  157.6206 C   0  0  0  0  0  0  0  0  0  0  0  0
  151.1086  142.5778  157.7174 C   0  0  0  0  0  0  0  0  0  0  0  0
  148.7530  138.1849  156.4294 H   0  0  0  0  0  0  0  0  0  0  0  0
  149.8589  138.3420  157.7883 H   0  0  0  0  0  0  0  0  0  0  0  0
  150.3976  137.5660  156.3042 H   0  0  0  0  0  0  0  0  0  0  0  0
  149.6515  140.5095  156.6661 H   0  0  0  0  0  0  0  0  0  0  0  0
  150.8169  140.5801  154.2455 H   0  0  0  0  0  0  0  0  0  0  0  0
  150.2044  138.9576  154.1308 H   0  0  0  0  0  0  0  0  0  0  0  0
  148.8526  142.4903  154.8731 H   0  0  0  0  0  0  0  0  0  0  0  0
  146.3027  142.5544  153.9003 H   0  0  0  0  0  0  0  0  0  0  0  0
  145.8979  139.9489  153.0470 H   0  0  0  0  0  0  0  0  0  0  0  0
  152.3076  139.4037  155.9937 H   0  0  0  0  0  0  0  0  0  0  0  0
  151.7953  142.1706  160.3928 H   0  0  0  0  0  0  0  0  0  0  0  0
  153.4577  141.7450  160.0421 H   0  0  0  0  0  0  0  0  0  0  0  0
  153.2390  144.1774  160.5849 H   0  0  0  0  0  0  0  0  0  0  0  0
  153.8850  143.9147  158.9832 H   0  0  0  0  0  0  0  0  0  0  0  0
  150.9836  144.6158  159.6527 H   0  0  0  0  0  0  0  0  0  0  0  0
  152.1553  145.6790  158.8999 H   0  0  0  0  0  0  0  0  0  0  0  0
  150.6480  144.6295  157.1971 H   0  0  0  0  0  0  0  0  0  0  0  0
  152.3180  144.1894  156.9330 H   0  0  0  0  0  0  0  0  0  0  0  0
  150.9094  142.1920  156.7180 H   0  0  0  0  0  0  0  0  0  0  0  0
  150.1875  142.4551  158.2887 H   0  0  0  0  0  0  0  0  0  0  0  0
  1  2  1  0  0  0  0
  1 19  1  0  0  0  0
  1 20  1  0  0  0  0
  1 21  1  0  0  0  0
  2  3  1  0  0  0  0
  2  9  1  0  0  0  0
  2 22  1  0  0  0  0
  3  4  1  0  0  0  0
  3 23  1  0  0  0  0
  3 24  1  0  0  0  0
  4  8  1  0  0  0  0
  4  5  1  0  0  0  0
  5  6  2  0  0  0  0
  5 25  1  0  0  0  0
  6  7  1  0  0  0  0
  6 26  1  0  0  0  0
  7  8  2  0  0  0  0
  7 27  1  0  0  0  0
  9 10  1  0  0  0  0
  9 28  1  0  0  0  0
 10 11  2  0  0  0  0
 10 12  2  0  0  0  0
 10 13  1  0  0  0  0
 13 18  1  0  0  0  0
 13 14  1  0  0  0  0
 14 15  1  0  0  0  0
 14 29  1  0  0  0  0
 14 30  1  0  0  0  0
 15 16  1  0  0  0  0
 15 31  1  0  0  0  0
 15 32  1  0  0  0  0
 16 17  1  0  0  0  0
 16 33  1  0  0  0  0
 16 34  1  0  0  0  0
 17 18  1  0  0  0  0
 17 35  1  0  0  0  0
 17 36  1  0  0  0  0
 18 37  1  0  0  0  0
 18 38  1  0  0  0  0
M  END
> <s_m_source_file>
AV-unprocessed.smi

> <i_m_source_file_index>
2009

> <i_lp_mmshare_version>
43012

> <i_f3d_flags>
0

> <s_epik_input>
bjFbY0hdW2NIXVtjSF1uMVtDSDJdW0NAQEhdKFtDSDNdKVtOSF1TKD1PKSg9TylOMltDSDJdW0NIMl1bQ0gyXVtDSDJdW0NIMl0y

> <s_epik_cmdline>
J2VwaWtfcHl0aG9uJywgJy1waCcsICc3LjAnLCAnLXRuJywgJzgnLCAnLW1hJywgJzIwMCcsICctbWV0YWxfYmluZGluZycsICctaW1hZScsICc8aW5maWxlLm1hZT4nLCAnLW9tYWUnLCAnPG91dGZpbGUubWFlPic=

> <r_lp_tautomer_probability>
1

> <r_epik_Ionization_Penalty>
0.0313937

> <r_epik_Ionization_Penalty_Charging>
0

> <r_epik_Ionization_Penalty_Neutral>
0.0313937

> <r_epik_State_Penalty>
0.0259441

> <r_epik_Charging_Adjusted_Penalty>
0.0259441

> <i_epik_Tot_Q>
0

> <i_epik_Tot_abs_Q>
0

> <r_epik_Metal_State_Penalty>
0.365037

> <b_epik_Metal_Only>
0

> <s_lp_Force_Field>
OPLS_2005

> <r_lp_Energy>
7.7354

> <b_lp_Chiralities_Consistent>
1

> <s_lp_Variant>
AV-unprocessed.smi:2009-1

> <Gold.Version>
5.8.1

> <Gold.Id.Protein>
6NUR|6NUR_protein|mol2

> <Gold.PLP.Fitness>
42.9508

> <Gold.PLP.PLP>
-35.9008

> <Gold.PLP.part.hbond>
-1.0473

> <Gold.PLP.part.metal>
0.0000

> <Gold.PLP.part.buried>
-3.2139

> <Gold.PLP.part.nonpolar>
-32.5616

> <Gold.PLP.part.repulsive>
0.3320

> <Gold.PLP.ligand.clash>
0.0000

> <Gold.PLP.ligand.torsion>
1.3658

> <Gold.PLP.Chemscore.Hbond>
1.0000

> <Gold.PLP.Chemscore.CHOScore>
2.0000

> <Gold.PLP.Chemscore.Metal>
0.0000

> <Gold.Chemscore.Hbonds>
donor molecule, donor type, donor heavy atom, donor atom, acceptor molecule, acceptor atom, score
      P1  H  7997  8008       L1    12  0.98
      L1  C     5    25       P1  8028  1.00
      L1  C     7    27       P1 10175  1.00

> <Gold.PLP.Chemscore.Internal.Correction>
0.7818

> <Gold.Rescore>
     Score         DG    S(hbond)    S(metal)    S(lipo)     H(rot)  DE(clash)    DE(int)     intcor
     13.21     -14.83       0.96        0.00      92.42       1.82       0.04       1.58       ----

> <Gold.Chemscore.Fitness>
13.2076

> <Gold.Chemscore.DG>
-14.8305

> <Gold.Chemscore.ZeroCoef>
-5.4800

> <Gold.Chemscore.Hbond>
0.9599

> <Gold.Chemscore.Metal>
0.0000

> <Gold.Chemscore.Lipo>
92.4182

> <Gold.Chemscore.Internal_Hbond>
0.0000

> <Gold.Chemscore.DEClash>
0.0407

> <Gold.Chemscore.DEInternal>
1.5821

> <Gold.Chemscore.Rot>
1.8237

> <Gold.Chemscore.Internal.Correction>
   9.000000E+99

> <Gold.Chemscore.Hbonds>
donor molecule, donor type, donor heavy atom, donor atom, acceptor molecule, acceptor atom, score
      P1  H  7997  8008       L1    12  0.93

> <Gold.Chemscore.Hbond.Weighted>
-3.2061

> <Gold.Chemscore.Metal.Weighted>
-0.0000

> <Gold.Chemscore.Lipo.Weighted>
-10.8129

> <Gold.Chemscore.Internal_Hbond.Weighted>
0.0000

> <Gold.Chemscore.DEClash.Weighted>
0.0407

> <Gold.Chemscore.DEInternal.Weighted>
1.5821

> <Gold.Chemscore.Rot.Weighted>
4.6686

> <Gold.Chemscore.Internal.Correction.Weighted>
   9.000000E+99

> <Gold.Protein.RotatedTorsions>
[ 6907 6896 6895 6894 ] final  -78.78 input  -60.11 | X-H torsion
[ 7974 7965 7964 7962 ] final  -15.76 input  175.53 | X-H torsion
[ 8008 7997 7996 7995 ] final -110.96 input   59.86 | X-H torsion
[ 10167 10162 10161 10158 ] final   88.54 input  -65.29 | X-H torsion
[ 10718 10713 10712 10709 ] final -150.69 input   66.30 | X-H torsion
[ 10763 10752 10751 10750 ] final  135.46 input  -60.55 | X-H torsion
[ 11005 11000 10999 10996 ] final  -40.15 input  -57.11 | X-H torsion

> <Gold.Protein.ActiveResidues>
 VAL166  LYS551  ARG553  GLY616  TRP617  ASP618  TYR619  PRO620  LYS621  CYS622 
 ASP623  PHE694  ASN695  SER759  ASP760  ASP761  ALA762  ILE779  LEU786  VAL792 
 PHE793  MET794  SER795  GLU796  ALA797  LYS798  CYS799  TRP800  GLU811  SER814 

> <Gold.Protein.RotatedAtoms>
  150.6965  134.4220  159.5209 H   0  0  0  0  0  0  0  0  0  0  0  0  # atno 6907 bound_to 6896
  152.1962  134.8626  160.0522 H   0  0  0  0  0  0  0  0  0  0  0  0  # atno 6908 bound_to 6896
  151.9563  133.3646  159.4055 H   0  0  0  0  0  0  0  0  0  0  0  0  # atno 6909 bound_to 6896
  146.2018  140.3539  142.8421 H   0  0  0  0  0  0  0  0  0  0  0  0  # atno 7974 bound_to 7965
  154.9824  140.0396  157.2283 H   0  0  0  0  0  0  0  0  0  0  0  0  # atno 8008 bound_to 7997
  154.7702  140.2800  155.6122 H   0  0  0  0  0  0  0  0  0  0  0  0  # atno 8009 bound_to 7997
  156.2919  140.2611  156.2502 H   0  0  0  0  0  0  0  0  0  0  0  0  # atno 8010 bound_to 7997
  139.8663  144.6517  150.9001 H   0  0  0  0  0  0  0  0  0  0  0  0  # atno 10167 bound_to 10162
  156.4495  130.8161  151.2391 H   0  0  0  0  0  0  0  0  0  0  0  0  # atno 10718 bound_to 10713
  153.8404  135.3092  155.3425 H   0  0  0  0  0  0  0  0  0  0  0  0  # atno 10763 bound_to 10752
  154.7935  135.4769  154.0110 H   0  0  0  0  0  0  0  0  0  0  0  0  # atno 10764 bound_to 10752
  153.1579  135.6855  153.8877 H   0  0  0  0  0  0  0  0  0  0  0  0  # atno 10765 bound_to 10752
  141.0154  133.6888  156.2282 H   0  0  0  0  0  0  0  0  0  0  0  0  # atno 11005 bound_to 11000
  144.8700  140.7259  143.6053 LP  0  0  0  0  0  0  0  0  0  0  0  0  # atno 17320 bound_to 7965
  145.3458  139.1719  143.4461 LP  0  0  0  0  0  0  0  0  0  0  0  0  # atno 17321 bound_to 7965
  140.7767  143.3702  151.1664 LP  0  0  0  0  0  0  0  0  0  0  0  0  # atno 17342 bound_to 10162
  139.7326  143.9048  152.3024 LP  0  0  0  0  0  0  0  0  0  0  0  0  # atno 17343 bound_to 10162
  157.7503  131.0142  150.3456 LP  0  0  0  0  0  0  0  0  0  0  0  0  # atno 17370 bound_to 10713
  156.3831  130.3884  149.7086 LP  0  0  0  0  0  0  0  0  0  0  0  0  # atno 17371 bound_to 10713
  140.6664  134.4914  157.5585 LP  0  0  0  0  0  0  0  0  0  0  0  0  # atno 17394 bound_to 11000
  139.9114  134.8338  156.1517 LP  0  0  0  0  0  0  0  0  0  0  0  0  # atno 17395 bound_to 11000

$$$$
