AV-unprocessed.smi:1188|AV-procd|sdf|4977|dock7
  -GOLD-   22720 3573D 1   1.00000     0.00000
 Structure written by MMmdl.
 48 49  0  0  0  0  0  0  0  0  1 V2000
  142.9798  146.8374  154.4764 C   0  0  0  0  0  0  0  0  0  0  0  0
  143.5776  146.5415  155.4993 C   0  0  0  0  0  0  0  0  0  0  0  0
  144.3120  146.1861  156.7225 C   0  0  0  0  0  0  0  0  0  0  0  0
  145.0020  144.9124  156.5851 N   0  0  0  0  0  0  0  0  0  0  0  0
  144.4313  143.7081  156.7611 C   0  0  0  0  0  0  0  0  0  0  0  0
  143.2430  143.5958  157.0652 O   0  0  0  0  0  0  0  0  0  0  0  0
  145.3401  142.5762  156.5577 C   0  0  0  0  0  0  0  0  0  0  0  0
  145.1324  141.3577  157.3159 C   0  0  0  0  0  0  0  0  0  0  0  0
  145.9395  140.2925  157.1449 C   0  0  0  0  0  0  0  0  0  0  0  0
  147.0568  140.3173  156.1971 C   0  0  0  0  0  0  0  0  0  0  0  0
  147.7946  139.3454  156.0310 O   0  0  0  0  0  0  0  0  0  0  0  0
  147.2281  141.4881  155.5112 N   0  0  0  0  0  0  0  0  0  0  0  0
  148.3215  141.6327  154.5353 C   0  0  0  0  0  0  0  0  0  0  0  0
  149.7138  141.4571  155.1579 C   0  0  0  0  0  0  0  0  0  0  0  0
  150.4076  140.4769  154.8838 O   0  0  0  0  0  0  0  0  0  0  0  0
  150.1160  142.4340  155.9846 N   0  0  0  0  0  0  0  0  0  0  0  0
  151.3971  142.4702  156.6800 C   0  0  0  0  0  0  0  0  0  0  0  0
  151.5975  143.7994  157.4301 C   0  0  0  0  0  0  0  0  0  0  0  0
  152.0259  143.6010  158.8747 C   0  0  0  0  0  0  0  0  0  0  0  0
  152.8882  142.6306  159.2360 C   0  0  0  0  0  0  0  0  0  0  0  0
  153.3381  142.3767  160.6643 C   0  0  0  0  0  0  0  0  0  0  0  0
  152.4573  143.1047  161.6938 C   0  0  0  0  0  0  0  0  0  0  0  0
  152.1553  144.5403  161.2465 C   0  0  0  0  0  0  0  0  0  0  0  0
  151.4234  144.5632  159.8926 C   0  0  0  0  0  0  0  0  0  0  0  0
  146.3755  142.5961  155.6890 C   0  0  0  0  0  0  0  0  0  0  0  0
  142.4586  147.0928  153.5811 H   0  0  0  0  0  0  0  0  0  0  0  0
  145.0285  146.9801  156.9363 H   0  0  0  0  0  0  0  0  0  0  0  0
  143.5990  146.1443  157.5471 H   0  0  0  0  0  0  0  0  0  0  0  0
  145.9793  144.9449  156.3341 H   0  0  0  0  0  0  0  0  0  0  0  0
  144.3224  141.2877  158.0277 H   0  0  0  0  0  0  0  0  0  0  0  0
  145.7602  139.3965  157.7208 H   0  0  0  0  0  0  0  0  0  0  0  0
  148.2166  140.9049  153.7295 H   0  0  0  0  0  0  0  0  0  0  0  0
  148.2606  142.6070  154.0461 H   0  0  0  0  0  0  0  0  0  0  0  0
  149.4864  143.2062  156.1483 H   0  0  0  0  0  0  0  0  0  0  0  0
  151.4703  141.6216  157.3619 H   0  0  0  0  0  0  0  0  0  0  0  0
  152.1852  142.3423  155.9374 H   0  0  0  0  0  0  0  0  0  0  0  0
  152.3468  144.3994  156.9112 H   0  0  0  0  0  0  0  0  0  0  0  0
  150.6769  144.3844  157.4202 H   0  0  0  0  0  0  0  0  0  0  0  0
  153.3111  141.9797  158.4847 H   0  0  0  0  0  0  0  0  0  0  0  0
  153.3280  141.3041  160.8595 H   0  0  0  0  0  0  0  0  0  0  0  0
  154.3735  142.7065  160.7545 H   0  0  0  0  0  0  0  0  0  0  0  0
  151.5183  142.5633  161.8174 H   0  0  0  0  0  0  0  0  0  0  0  0
  152.9447  143.1039  162.6692 H   0  0  0  0  0  0  0  0  0  0  0  0
  151.5590  145.0554  162.0003 H   0  0  0  0  0  0  0  0  0  0  0  0
  153.0917  145.0936  161.1634 H   0  0  0  0  0  0  0  0  0  0  0  0
  151.4356  145.5766  159.4894 H   0  0  0  0  0  0  0  0  0  0  0  0
  150.3769  144.2938  160.0384 H   0  0  0  0  0  0  0  0  0  0  0  0
  146.6264  143.4418  155.0649 H   0  0  0  0  0  0  0  0  0  0  0  0
  1  2  3  0  0  0  0
  1 26  1  0  0  0  0
  2  3  1  0  0  0  0
  3  4  1  0  0  0  0
  3 27  1  0  0  0  0
  3 28  1  0  0  0  0
  4  5  1  0  0  0  0
  4 29  1  0  0  0  0
  5  6  2  0  0  0  0
  5  7  1  0  0  0  0
  7 25  2  0  0  0  0
  7  8  1  0  0  0  0
  8  9  2  0  0  0  0
  8 30  1  0  0  0  0
  9 10  1  0  0  0  0
  9 31  1  0  0  0  0
 10 11  2  0  0  0  0
 10 12  1  0  0  0  0
 12 13  1  0  0  0  0
 12 25  1  0  0  0  0
 13 14  1  0  0  0  0
 13 32  1  0  0  0  0
 13 33  1  0  0  0  0
 14 15  2  0  0  0  0
 14 16  1  0  0  0  0
 16 17  1  0  0  0  0
 16 34  1  0  0  0  0
 17 18  1  0  0  0  0
 17 35  1  0  0  0  0
 17 36  1  0  0  0  0
 18 19  1  0  0  0  0
 18 37  1  0  0  0  0
 18 38  1  0  0  0  0
 19 24  1  0  0  0  0
 19 20  2  0  0  0  0
 20 21  1  0  0  0  0
 20 39  1  0  0  0  0
 21 22  1  0  0  0  0
 21 40  1  0  0  0  0
 21 41  1  0  0  0  0
 22 23  1  0  0  0  0
 22 42  1  0  0  0  0
 22 43  1  0  0  0  0
 23 24  1  0  0  0  0
 23 44  1  0  0  0  0
 23 45  1  0  0  0  0
 24 46  1  0  0  0  0
 24 47  1  0  0  0  0
 25 48  1  0  0  0  0
M  END
> <s_m_source_file>
AV-unprocessed.smi

> <i_m_source_file_index>
1188

> <i_lp_mmshare_version>
43012

> <i_f3d_flags>
0

> <s_epik_input>
W0NIXSNDW0NIMl1bTkhdQyg9TyljMVtjSF1bY0hdYyg9TyluKFtjSF0xKVtDSDJdQyg9TylbTkhdW0NIMl1bQ0gyXUMyPVtDSF1bQ0gyXVtDSDJdW0NIMl1bQ0gyXTI=

> <s_epik_cmdline>
J2VwaWtfcHl0aG9uJywgJy1waCcsICc3LjAnLCAnLXRuJywgJzgnLCAnLW1hJywgJzIwMCcsICctbWV0YWxfYmluZGluZycsICctaW1hZScsICc8aW5maWxlLm1hZT4nLCAnLW9tYWUnLCAnPG91dGZpbGUubWFlPic=

> <r_lp_tautomer_probability>
1

> <r_epik_Ionization_Penalty>
3.04448e-06

> <r_epik_Ionization_Penalty_Charging>
4.20752e-08

> <r_epik_Ionization_Penalty_Neutral>
3.00241e-06

> <r_epik_State_Penalty>
-0

> <r_epik_Charging_Adjusted_Penalty>
4.20752e-08

> <i_epik_Tot_Q>
0

> <i_epik_Tot_abs_Q>
0

> <r_epik_Metal_State_Penalty>
-0

> <b_epik_Metal_Only>
0

> <s_lp_Force_Field>
OPLS_2005

> <r_lp_Energy>
18.5418

> <b_lp_Chiralities_Consistent>
1

> <s_lp_Variant>
AV-unprocessed.smi:1188-1

> <Gold.Version>
5.8.1

> <Gold.Id.Protein>
6NUR|6NUR_protein|mol2

> <Gold.PLP.Fitness>
51.9620

> <Gold.PLP.PLP>
-48.4313

> <Gold.PLP.part.hbond>
-2.7858

> <Gold.PLP.part.metal>
0.0000

> <Gold.PLP.part.buried>
-4.7248

> <Gold.PLP.part.nonpolar>
-39.5087

> <Gold.PLP.part.repulsive>
0.2134

> <Gold.PLP.ligand.clash>
0.0000

> <Gold.PLP.ligand.torsion>
1.3172

> <Gold.PLP.Chemscore.Hbond>
1.9120

> <Gold.PLP.Chemscore.CHOScore>
0.0883

> <Gold.PLP.Chemscore.Metal>
0.0000

> <Gold.Chemscore.Hbonds>
donor molecule, donor type, donor heavy atom, donor atom, acceptor molecule, acceptor atom, score
      L1  H    16    34       P1  8028  0.98
      P1  H  7989  7998       L1    15  1.00
      L1  C    25    48       P1  8028  0.10

> <Gold.PLP.Chemscore.Internal.Correction>
0.1644

> <Gold.Rescore>
     Score         DG    S(hbond)    S(metal)    S(lipo)     H(rot)  DE(clash)    DE(int)     intcor
     18.84     -20.19       1.64        0.00     122.09       1.97       0.17       1.18       ----

> <Gold.Chemscore.Fitness>
18.8431

> <Gold.Chemscore.DG>
-20.1942

> <Gold.Chemscore.ZeroCoef>
-5.4800

> <Gold.Chemscore.Hbond>
1.6382

> <Gold.Chemscore.Metal>
0.0000

> <Gold.Chemscore.Lipo>
122.0881

> <Gold.Chemscore.Internal_Hbond>
0.0000

> <Gold.Chemscore.DEClash>
0.1731

> <Gold.Chemscore.DEInternal>
1.1780

> <Gold.Chemscore.Rot>
1.9694

> <Gold.Chemscore.Internal.Correction>
   9.000000E+99

> <Gold.Chemscore.Hbonds>
donor molecule, donor type, donor heavy atom, donor atom, acceptor molecule, acceptor atom, score
      L1  H    16    34       P1  8028  0.93
      P1  H  7989  7998       L1    15  0.75

> <Gold.Chemscore.Hbond.Weighted>
-5.4715

> <Gold.Chemscore.Metal.Weighted>
-0.0000

> <Gold.Chemscore.Lipo.Weighted>
-14.2843

> <Gold.Chemscore.Internal_Hbond.Weighted>
0.0000

> <Gold.Chemscore.DEClash.Weighted>
0.1731

> <Gold.Chemscore.DEInternal.Weighted>
1.1780

> <Gold.Chemscore.Rot.Weighted>
5.0416

> <Gold.Chemscore.Internal.Correction.Weighted>
   9.000000E+99

> <Gold.Protein.RotatedTorsions>
[ 6907 6896 6895 6894 ] final  -71.75 input  -60.11 | X-H torsion
[ 7974 7965 7964 7962 ] final  -81.47 input  175.53 | X-H torsion
[ 8008 7997 7996 7995 ] final   99.99 input   59.86 | X-H torsion
[ 10167 10162 10161 10158 ] final  -21.69 input  -65.29 | X-H torsion
[ 10718 10713 10712 10709 ] final   60.42 input   66.30 | X-H torsion
[ 10763 10752 10751 10750 ] final   99.03 input  -60.55 | X-H torsion
[ 11005 11000 10999 10996 ] final  -41.59 input  -57.11 | X-H torsion

> <Gold.Protein.ActiveResidues>
 VAL166  LYS551  ARG553  GLY616  TRP617  ASP618  TYR619  PRO620  LYS621  CYS622 
 ASP623  PHE694  ASN695  SER759  ASP760  ASP761  ALA762  ILE779  LEU786  VAL792 
 PHE793  MET794  SER795  GLU796  ALA797  LYS798  CYS799  TRP800  GLU811  SER814 

> <Gold.Protein.RotatedAtoms>
  150.7199  134.5264  159.5678 H   0  0  0  0  0  0  0  0  0  0  0  0  # atno 6907 bound_to 6896
  152.2807  134.7829  160.0406 H   0  0  0  0  0  0  0  0  0  0  0  0  # atno 6908 bound_to 6896
  151.8476  133.3399  159.3700 H   0  0  0  0  0  0  0  0  0  0  0  0  # atno 6909 bound_to 6896
  145.5462  140.9503  143.1524 H   0  0  0  0  0  0  0  0  0  0  0  0  # atno 7974 bound_to 7965
  156.1160  140.3220  155.8139 H   0  0  0  0  0  0  0  0  0  0  0  0  # atno 8008 bound_to 7997
  155.4590  140.0538  157.3010 H   0  0  0  0  0  0  0  0  0  0  0  0  # atno 8009 bound_to 7997
  154.4793  140.2046  155.9816 H   0  0  0  0  0  0  0  0  0  0  0  0  # atno 8010 bound_to 7997
  140.7283  143.4605  151.0387 H   0  0  0  0  0  0  0  0  0  0  0  0  # atno 10167 bound_to 10162
  157.5751  130.8937  149.9333 H   0  0  0  0  0  0  0  0  0  0  0  0  # atno 10718 bound_to 10713
  153.2963  135.4127  155.1213 H   0  0  0  0  0  0  0  0  0  0  0  0  # atno 10763 bound_to 10752
  154.8536  135.3530  154.5912 H   0  0  0  0  0  0  0  0  0  0  0  0  # atno 10764 bound_to 10752
  153.6336  135.7060  153.5325 H   0  0  0  0  0  0  0  0  0  0  0  0  # atno 10765 bound_to 10752
  141.0257  133.6842  156.2478 H   0  0  0  0  0  0  0  0  0  0  0  0  # atno 11005 bound_to 11000
  144.7552  139.7092  143.7257 LP  0  0  0  0  0  0  0  0  0  0  0  0  # atno 17320 bound_to 7965
  146.1948  139.5208  142.9782 LP  0  0  0  0  0  0  0  0  0  0  0  0  # atno 17321 bound_to 7965
  139.8289  143.7718  152.3179 LP  0  0  0  0  0  0  0  0  0  0  0  0  # atno 17342 bound_to 10162
  139.7827  144.7439  151.0065 LP  0  0  0  0  0  0  0  0  0  0  0  0  # atno 17343 bound_to 10162
  156.0796  130.3674  150.0608 LP  0  0  0  0  0  0  0  0  0  0  0  0  # atno 17370 bound_to 10713
  156.8755  130.9539  151.3605 LP  0  0  0  0  0  0  0  0  0  0  0  0  # atno 17371 bound_to 10713
  140.6496  134.5081  157.5576 LP  0  0  0  0  0  0  0  0  0  0  0  0  # atno 17394 bound_to 11000
  139.9174  134.8218  156.1321 LP  0  0  0  0  0  0  0  0  0  0  0  0  # atno 17395 bound_to 11000

$$$$
