#       Name:                AV-unprocessed.smi:474
#       Creating user name   scv26
#       Creation time:       Thu Mar 26 23:08:10 2020


#       File generated by GOLD software.
#

@<TRIPOS>MOLECULE
AV-unprocessed.smi:474
    42    43     1
SMALL
NO_CHARGES


@<TRIPOS>ATOM
      1 ****        -6.6884   3.6791   0.8261 C.3            1 S1                 0.0000
      2 ****        -5.6471   2.9031   0.0947 C.2            1 S1                 0.0000
      3 ****        -4.8499   1.8536   0.4535 C.2            1 S1                 0.0000
      4 ****        -4.0823   1.6123  -0.7187 C.2            1 S1                 0.0000
      5 ****        -3.1506   0.6583  -0.8701 N.pl3          1 S1                -1.0000
      6 ****        -1.8868   0.8653  -0.4325 C.2            1 S1                 0.0000
      7 ****        -1.4625   1.8808   0.1242 O.2            1 S1                 0.0000
      8 ****        -1.0619  -0.1682  -0.6500 N.am           1 S1                 0.0000
      9 ****         0.3449  -0.2097  -0.2732 C.3            1 S1                 0.0000
     10 ****         0.9603  -1.5726  -0.6235 C.3            1 S1                 0.0000
     11 ****         2.4452  -1.6469  -0.3073 C.2            1 S1                 0.0000
     12 ****         3.3733  -1.7962  -1.2726 C.2            1 S1                 0.0000
     13 ****         4.8687  -1.8613  -1.0163 C.3            1 S1                 0.0000
     14 ****         5.2409  -1.3975   0.4019 C.3            1 S1                 0.0000
     15 ****         4.2758  -1.9760   1.4441 C.3            1 S1                 0.0000
     16 ****         2.8256  -1.5423   1.1657 C.3            1 S1                 0.0000
     17 ****        -4.3997   2.4311  -1.7076 N.2            1 S1                 0.0000
     18 ****        -5.3976   3.2667  -1.1918 O.3            1 S1                 0.0000
     19 ****        -7.4098   3.0095   1.2945 H              1 S1                 0.0000
     20 ****        -7.2315   4.3421   0.1521 H              1 S1                 0.0000
     21 ****        -6.2353   4.2889   1.6076 H              1 S1                 0.0000
     22 ****        -4.8153   1.3429   1.4039 H              1 S1                 0.0000
     23 ****        -1.4414  -0.9823  -1.1106 H              1 S1                 0.0000
     24 ****         0.8793   0.5874  -0.7925 H              1 S1                 0.0000
     25 ****         0.4324  -0.0162   0.7968 H              1 S1                 0.0000
     26 ****         0.4480  -2.3673  -0.0797 H              1 S1                 0.0000
     27 ****         0.8060  -1.7777  -1.6840 H              1 S1                 0.0000
     28 ****         3.0657  -1.8865  -2.3043 H              1 S1                 0.0000
     29 ****         5.1925  -2.8905  -1.1734 H              1 S1                 0.0000
     30 ****         5.3866  -1.2487  -1.7545 H              1 S1                 0.0000
     31 ****         6.2673  -1.6847   0.6314 H              1 S1                 0.0000
     32 ****         5.2066  -0.3083   0.4496 H              1 S1                 0.0000
     33 ****         4.3401  -3.0647   1.4258 H              1 S1                 0.0000
     34 ****         4.5703  -1.6664   2.4472 H              1 S1                 0.0000
     35 ****         2.6865  -0.5076   1.4806 H              1 S1                 0.0000
     36 ****         2.1436  -2.1483   1.7630 H              1 S1                 0.0000
     37 ****        -3.3909  -0.2082  -1.3076 LP             1 S1                 0.0000
     38 ****        -2.0755   2.6532   0.2900 LP             1 S1                 0.0000
     39 ****        -0.5055   1.9316   0.4097 LP             1 S1                 0.0000
     40 ****        -4.0097   2.4494  -2.6282 LP             1 S1                 0.0000
     41 ****        -5.0882   4.2172  -1.2191 LP             1 S1                 0.0000
     42 ****        -6.2310   3.1716  -1.7362 LP             1 S1                 0.0000
@<TRIPOS>BOND
    1    1    2 1     
    2    1   19 1     
    3    1   20 1     
    4    1   21 1     
    5    2   18 1     
    6    2    3 2     
    7    3    4 1     
    8    3   22 1     
    9    4    5 1     
   10    4   17 2     
   11    5    6 1     
   12    6    7 2     
   13    6    8 am    
   14    8    9 1     
   15    8   23 1     
   16    9   10 1     
   17    9   24 1     
   18    9   25 1     
   19   10   11 1     
   20   10   26 1     
   21   10   27 1     
   22   11   16 1     
   23   11   12 2     
   24   12   13 1     
   25   12   28 1     
   26   13   14 1     
   27   13   29 1     
   28   13   30 1     
   29   14   15 1     
   30   14   31 1     
   31   14   32 1     
   32   15   16 1     
   33   15   33 1     
   34   15   34 1     
   35   16   35 1     
   36   16   36 1     
   37   17   18 1     
   38    5   37 1     
   39    7   38 1     
   40    7   39 1     
   41   17   40 1     
   42   18   41 1     
   43   18   42 1     
@<TRIPOS>SUBSTRUCTURE
      1 S1             1
@<TRIPOS>SET
LONE_PAIRS      STATIC     ATOMS    <user>   **** ""
6 37 38 39 40 41 42
DONOR_HYDROGENS      STATIC     ATOMS    <user>   **** ""
1 23
ATOM$BLUE        STATIC     ATOMS    COLORGROUP SYSTEM
6 37 38 39 40 41 42
ATOM$RED        STATIC     ATOMS    COLORGROUP SYSTEM
1 23
