AV-unprocessed.smi:3191|AV-procd|sdf|12196|dock4
  -GOLD-   2272018 33D 1   1.00000     0.00000
 Structure written by MMmdl.
 36 37  0  0  0  0  0  0  0  0  2 V2000
  149.6057  139.6583  154.3181 C   0  0  0  0  0  0  0  0  0  0  0  0
  148.2628  140.2280  154.4601 N   0  0  0  0  0  0  0  0  0  0  0  0
  147.3610  140.1748  153.4716 C   0  0  0  0  0  0  0  0  0  0  0  0
  146.2604  140.7848  153.9179 N   0  3  0  0  0  0  0  0  0  0  0  0
  146.4569  141.2307  155.1959 C   0  0  0  0  0  0  0  0  0  0  0  0
  147.7347  140.8775  155.5535 C   0  0  0  0  0  0  0  0  0  0  0  0
  148.4846  141.0947  156.8281 C   0  0  0  0  0  0  0  0  0  0  0  0
  149.8922  141.6565  156.5657 C   0  0  0  0  0  0  0  0  0  0  0  0
  150.5516  142.0422  157.8072 N   0  0  0  0  0  0  0  0  0  0  0  0
  151.6831  141.4931  158.2753 C   0  0  0  0  0  0  0  0  0  0  0  0
  152.2737  140.5857  157.6875 O   0  0  0  0  0  0  0  0  0  0  0  0
  152.1506  142.0854  159.5689 C   0  0  1  0  0  0  0  0  0  0  0  0
  153.5638  142.6274  159.6335 C   0  0  0  0  0  0  0  0  0  0  0  0
  152.3968  143.5883  159.6839 C   0  0  0  0  0  0  0  0  0  0  0  0
  152.1726  144.5546  158.5269 C   0  0  0  0  0  0  0  0  0  0  0  0
  152.0420  144.2686  160.9946 C   0  0  0  0  0  0  0  0  0  0  0  0
  151.7735  141.5973  160.4666 H   0  0  0  0  0  0  0  0  0  0  0  0
  149.7028  139.1562  153.3547 H   0  0  0  0  0  0  0  0  0  0  0  0
  149.7792  138.9382  155.1177 H   0  0  0  0  0  0  0  0  0  0  0  0
  150.3417  140.4602  154.3825 H   0  0  0  0  0  0  0  0  0  0  0  0
  147.4940  139.7284  152.5020 H   0  0  0  0  0  0  0  0  0  0  0  0
  145.6896  141.7538  155.7478 H   0  0  0  0  0  0  0  0  0  0  0  0
  147.9126  141.7659  157.4695 H   0  0  0  0  0  0  0  0  0  0  0  0
  148.5550  140.1454  157.3605 H   0  0  0  0  0  0  0  0  0  0  0  0
  150.5072  140.9050  156.0699 H   0  0  0  0  0  0  0  0  0  0  0  0
  149.8492  142.5134  155.8914 H   0  0  0  0  0  0  0  0  0  0  0  0
  150.1212  142.7794  158.3468 H   0  0  0  0  0  0  0  0  0  0  0  0
  154.1178  142.4436  160.5519 H   0  0  0  0  0  0  0  0  0  0  0  0
  154.1700  142.6156  158.7293 H   0  0  0  0  0  0  0  0  0  0  0  0
  152.6281  145.5212  158.7448 H   0  0  0  0  0  0  0  0  0  0  0  0
  151.1055  144.7053  158.3620 H   0  0  0  0  0  0  0  0  0  0  0  0
  152.6185  144.1878  157.6032 H   0  0  0  0  0  0  0  0  0  0  0  0
  152.6669  145.1486  161.1490 H   0  0  0  0  0  0  0  0  0  0  0  0
  152.1955  143.5927  161.8365 H   0  0  0  0  0  0  0  0  0  0  0  0
  150.9967  144.5789  160.9899 H   0  0  0  0  0  0  0  0  0  0  0  0
  145.4067  140.8987  153.3857 H   0  0  0  0  0  0  0  0  0  0  0  0
  1  2  1  0  0  0  0
  1 18  1  0  0  0  0
  1 19  1  0  0  0  0
  1 20  1  0  0  0  0
  2  6  1  0  0  0  0
  2  3  1  0  0  0  0
  3  4  2  0  0  0  0
  3 21  1  0  0  0  0
  4  5  1  0  0  0  0
  4 36  1  0  0  0  0
  5  6  2  0  0  0  0
  5 22  1  0  0  0  0
  6  7  1  0  0  0  0
  7  8  1  0  0  0  0
  7 23  1  0  0  0  0
  7 24  1  0  0  0  0
  8  9  1  0  0  0  0
  8 25  1  0  0  0  0
  8 26  1  0  0  0  0
  9 10  1  0  0  0  0
  9 27  1  0  0  0  0
 10 11  2  0  0  0  0
 10 12  1  0  0  0  0
 12 17  1  0  0  0  0
 12 14  1  0  0  0  0
 12 13  1  0  0  0  0
 13 14  1  0  0  0  0
 13 28  1  0  0  0  0
 13 29  1  0  0  0  0
 14 15  1  0  0  0  0
 14 16  1  0  0  0  0
 15 30  1  0  0  0  0
 15 31  1  0  0  0  0
 15 32  1  0  0  0  0
 16 33  1  0  0  0  0
 16 34  1  0  0  0  0
 16 35  1  0  0  0  0
M  CHG  1   4   1
M  END
> <s_m_source_file>
AV-unprocessed.smi

> <i_m_source_file_index>
3191

> <i_lp_mmshare_version>
43012

> <i_f3d_flags>
0

> <s_epik_input>
W0NIM11uMVtjSF1uW2NIXWMxW0NIMl1bQ0gyXVtOSF1DKD1PKVtDQEBIXShbQ0gyXTIpQzIoW0NIM10pW0NIM10=

> <s_epik_cmdline>
J2VwaWtfcHl0aG9uJywgJy1waCcsICc3LjAnLCAnLXRuJywgJzgnLCAnLW1hJywgJzIwMCcsICctbWV0YWxfYmluZGluZycsICctaW1hZScsICc8aW5maWxlLm1hZT4nLCAnLW9tYWUnLCAnPG91dGZpbGUubWFlPic=

> <r_lp_tautomer_probability>
1

> <r_epik_Ionization_Penalty>
0.153817

> <r_epik_Ionization_Penalty_Charging>
0

> <r_epik_Ionization_Penalty_Neutral>
0.153817

> <r_epik_State_Penalty>
0.14311

> <r_epik_Charging_Adjusted_Penalty>
0.14311

> <i_epik_Tot_Q>
1

> <i_epik_Tot_abs_Q>
1

> <r_epik_Metal_State_Penalty>
0.464688

> <b_epik_Metal_Only>
0

> <s_lp_Force_Field>
OPLS_2005

> <r_lp_Energy>
13.4151

> <b_lp_Chiralities_Consistent>
1

> <s_lp_Variant>
AV-unprocessed.smi:3191-1

> <Gold.Version>
5.8.1

> <Gold.Id.Protein>
6NUR|6NUR_protein|mol2

> <Gold.PLP.Fitness>
42.2568

> <Gold.PLP.PLP>
-33.9392

> <Gold.PLP.part.hbond>
-1.0000

> <Gold.PLP.part.metal>
0.0000

> <Gold.PLP.part.buried>
-3.6728

> <Gold.PLP.part.nonpolar>
-30.6120

> <Gold.PLP.part.repulsive>
0.0565

> <Gold.PLP.ligand.clash>
0.0000

> <Gold.PLP.ligand.torsion>
0.1925

> <Gold.PLP.Chemscore.Hbond>
2.0000

> <Gold.PLP.Chemscore.CHOScore>
0.8691

> <Gold.PLP.Chemscore.Metal>
0.0000

> <Gold.Chemscore.Hbonds>
donor molecule, donor type, donor heavy atom, donor atom, acceptor molecule, acceptor atom, score
      L1  H     4    36       P1 10175  2.00
      L1  C     3    21       P1  7957  0.86

> <Gold.PLP.Chemscore.Internal.Correction>
0.0954

> <Gold.Rescore>
     Score         DG    S(hbond)    S(metal)    S(lipo)     H(rot)  DE(clash)    DE(int)     intcor
     13.86     -14.06       0.98        0.00      83.92       1.76       0.03       0.17       ----

> <Gold.Chemscore.Fitness>
13.8599

> <Gold.Chemscore.DG>
-14.0619

> <Gold.Chemscore.ZeroCoef>
-5.4800

> <Gold.Chemscore.Hbond>
0.9756

> <Gold.Chemscore.Metal>
0.0000

> <Gold.Chemscore.Lipo>
83.9218

> <Gold.Chemscore.Internal_Hbond>
0.0000

> <Gold.Chemscore.DEClash>
0.0310

> <Gold.Chemscore.DEInternal>
0.1710

> <Gold.Chemscore.Rot>
1.7561

> <Gold.Chemscore.Internal.Correction>
   9.000000E+99

> <Gold.Chemscore.Hbonds>
donor molecule, donor type, donor heavy atom, donor atom, acceptor molecule, acceptor atom, score
      L1  H     4    36       P1 10175  0.68

> <Gold.Chemscore.Hbond.Weighted>
-3.2586

> <Gold.Chemscore.Metal.Weighted>
-0.0000

> <Gold.Chemscore.Lipo.Weighted>
-9.8189

> <Gold.Chemscore.Internal_Hbond.Weighted>
0.0000

> <Gold.Chemscore.DEClash.Weighted>
0.0310

> <Gold.Chemscore.DEInternal.Weighted>
0.1710

> <Gold.Chemscore.Rot.Weighted>
4.4956

> <Gold.Chemscore.Internal.Correction.Weighted>
   9.000000E+99

> <Gold.Protein.RotatedTorsions>
[ 6907 6896 6895 6894 ] final   54.95 input  -60.11 | X-H torsion
[ 7974 7965 7964 7962 ] final  -50.87 input  175.53 | X-H torsion
[ 8008 7997 7996 7995 ] final -115.42 input   59.86 | X-H torsion
[ 10167 10162 10161 10158 ] final  166.34 input  -65.29 | X-H torsion
[ 10718 10713 10712 10709 ] final  -38.48 input   66.30 | X-H torsion
[ 10763 10752 10751 10750 ] final  -90.88 input  -60.55 | X-H torsion
[ 11005 11000 10999 10996 ] final   23.58 input  -57.11 | X-H torsion

> <Gold.Protein.ActiveResidues>
 VAL166  LYS551  ARG553  GLY616  TRP617  ASP618  TYR619  PRO620  LYS621  CYS622 
 ASP623  PHE694  ASN695  SER759  ASP760  ASP761  ALA762  ILE779  LEU786  VAL792 
 PHE793  MET794  SER795  GLU796  ALA797  LYS798  CYS799  TRP800  GLU811  SER814 

> <Gold.Protein.RotatedAtoms>
  152.3490  134.7031  160.0241 H   0  0  0  0  0  0  0  0  0  0  0  0  # atno 6907 bound_to 6896
  151.7392  133.3316  159.3369 H   0  0  0  0  0  0  0  0  0  0  0  0  # atno 6908 bound_to 6896
  150.7528  134.6227  159.6189 H   0  0  0  0  0  0  0  0  0  0  0  0  # atno 6909 bound_to 6896
  145.9251  140.7799  142.9628 H   0  0  0  0  0  0  0  0  0  0  0  0  # atno 7974 bound_to 7965
  155.0518  140.0393  157.2546 H   0  0  0  0  0  0  0  0  0  0  0  0  # atno 8008 bound_to 7997
  154.7131  140.2697  155.6586 H   0  0  0  0  0  0  0  0  0  0  0  0  # atno 8009 bound_to 7997
  156.2795  140.2717  156.1779 H   0  0  0  0  0  0  0  0  0  0  0  0  # atno 8010 bound_to 7997
  139.4923  144.4037  151.9380 H   0  0  0  0  0  0  0  0  0  0  0  0  # atno 10167 bound_to 10162
  156.3032  130.4243  149.8122 H   0  0  0  0  0  0  0  0  0  0  0  0  # atno 10718 bound_to 10713
  154.6703  135.5288  153.8130 H   0  0  0  0  0  0  0  0  0  0  0  0  # atno 10763 bound_to 10752
  153.0497  135.6527  154.0735 H   0  0  0  0  0  0  0  0  0  0  0  0  # atno 10764 bound_to 10752
  154.0634  135.2960  155.3301 H   0  0  0  0  0  0  0  0  0  0  0  0  # atno 10765 bound_to 10752
  140.3681  134.2052  155.7668 H   0  0  0  0  0  0  0  0  0  0  0  0  # atno 11005 bound_to 11000
  144.6757  140.2037  143.7384 LP  0  0  0  0  0  0  0  0  0  0  0  0  # atno 17320 bound_to 7965
  145.8499  139.2170  143.1778 LP  0  0  0  0  0  0  0  0  0  0  0  0  # atno 17321 bound_to 7965
  140.3477  144.3127  150.5955 LP  0  0  0  0  0  0  0  0  0  0  0  0  # atno 17342 bound_to 10162
  140.5512  143.2206  151.7924 LP  0  0  0  0  0  0  0  0  0  0  0  0  # atno 17343 bound_to 10162
  156.5492  130.8334  151.3294 LP  0  0  0  0  0  0  0  0  0  0  0  0  # atno 17370 bound_to 10713
  157.7373  130.9794  150.2186 LP  0  0  0  0  0  0  0  0  0  0  0  0  # atno 17371 bound_to 10713
  141.1963  133.8085  157.0677 LP  0  0  0  0  0  0  0  0  0  0  0  0  # atno 17394 bound_to 11000
  140.0573  134.9773  157.1244 LP  0  0  0  0  0  0  0  0  0  0  0  0  # atno 17395 bound_to 11000

$$$$
