AV-unprocessed.smi:2481|AV-procd|sdf|9772|dock1
  -GOLD-   2272013413D 1   1.00000     0.00000
 Structure written by MMmdl.
 37 38  0  0  0  0  0  0  0  0  1 V2000
  151.1208  138.3826  154.3857 C   0  0  0  0  0  0  0  0  0  0  0  0
  150.0493  139.3590  154.4256 N   0  0  0  0  0  0  0  0  0  0  0  0
  150.2839  140.6350  154.8125 N   0  0  0  0  0  0  0  0  0  0  0  0
  149.0795  141.1980  154.7120 C   0  0  0  0  0  0  0  0  0  0  0  0
  148.0705  140.3819  154.2865 N   0  0  0  0  0  0  0  0  0  0  0  0
  148.7512  139.2513  154.1276 C   0  0  0  0  0  0  0  0  0  0  0  0
  148.2203  138.0088  153.6885 N   0  0  0  0  0  0  0  0  0  0  0  0
  147.0576  137.4382  154.0467 C   0  0  0  0  0  0  0  0  0  0  0  0
  146.2403  137.9229  154.8298 O   0  0  0  0  0  0  0  0  0  0  0  0
  146.8886  136.2581  153.4335 N   0  0  0  0  0  0  0  0  0  0  0  0
  145.7332  135.3733  153.5940 C   0  0  1  0  0  0  0  0  0  0  0  0
  144.4775  135.9899  152.9408 C   0  0  0  0  0  0  0  0  0  0  0  0
  144.5735  136.0115  151.4062 C   0  0  0  0  0  0  0  0  0  0  0  0
  144.8548  134.6084  150.8496 C   0  0  0  0  0  0  0  0  0  0  0  0
  146.1156  133.9975  151.4820 C   0  0  0  0  0  0  0  0  0  0  0  0
  146.0217  133.9591  153.0226 C   0  0  1  0  0  0  0  0  0  0  0  0
  147.2660  133.2846  153.6384 C   0  0  0  0  0  0  0  0  0  0  0  0
  148.3686  134.1670  153.6383 O   0  0  0  0  0  0  0  0  0  0  0  0
  151.2763  138.0526  153.3582 H   0  0  0  0  0  0  0  0  0  0  0  0
  150.8566  137.5223  155.0014 H   0  0  0  0  0  0  0  0  0  0  0  0
  152.0486  138.8151  154.7626 H   0  0  0  0  0  0  0  0  0  0  0  0
  148.9217  142.2384  154.9553 H   0  0  0  0  0  0  0  0  0  0  0  0
  148.7897  137.5000  153.0287 H   0  0  0  0  0  0  0  0  0  0  0  0
  147.6120  135.9428  152.8045 H   0  0  0  0  0  0  0  0  0  0  0  0
  145.5326  135.2662  154.6615 H   0  0  0  0  0  0  0  0  0  0  0  0
  143.6025  135.4084  153.2338 H   0  0  0  0  0  0  0  0  0  0  0  0
  144.3068  136.9988  153.3186 H   0  0  0  0  0  0  0  0  0  0  0  0
  143.6467  136.3994  150.9826 H   0  0  0  0  0  0  0  0  0  0  0  0
  145.3636  136.6956  151.0941 H   0  0  0  0  0  0  0  0  0  0  0  0
  143.9991  133.9605  151.0440 H   0  0  0  0  0  0  0  0  0  0  0  0
  144.9672  134.6544  149.7662 H   0  0  0  0  0  0  0  0  0  0  0  0
  146.2594  132.9888  151.0931 H   0  0  0  0  0  0  0  0  0  0  0  0
  146.9917  134.5702  151.1753 H   0  0  0  0  0  0  0  0  0  0  0  0
  145.1645  133.3298  153.2690 H   0  0  0  0  0  0  0  0  0  0  0  0
  147.0663  132.9989  154.6717 H   0  0  0  0  0  0  0  0  0  0  0  0
  147.5328  132.3720  153.1050 H   0  0  0  0  0  0  0  0  0  0  0  0
  148.3182  134.7129  152.8686 H   0  0  0  0  0  0  0  0  0  0  0  0
  1  2  1  0  0  0  0
  1 19  1  0  0  0  0
  1 20  1  0  0  0  0
  1 21  1  0  0  0  0
  2  6  1  0  0  0  0
  2  3  1  0  0  0  0
  3  4  2  0  0  0  0
  4  5  1  0  0  0  0
  4 22  1  0  0  0  0
  5  6  2  0  0  0  0
  6  7  1  0  0  0  0
  7  8  1  0  0  0  0
  7 23  1  0  0  0  0
  8  9  2  0  0  0  0
  8 10  1  0  0  0  0
 10 11  1  0  0  0  0
 10 24  1  0  0  0  0
 11 16  1  0  0  0  0
 11 12  1  0  0  0  0
 11 25  1  0  0  0  0
 12 13  1  0  0  0  0
 12 26  1  0  0  0  0
 12 27  1  0  0  0  0
 13 14  1  0  0  0  0
 13 28  1  0  0  0  0
 13 29  1  0  0  0  0
 14 15  1  0  0  0  0
 14 30  1  0  0  0  0
 14 31  1  0  0  0  0
 15 16  1  0  0  0  0
 15 32  1  0  0  0  0
 15 33  1  0  0  0  0
 16 17  1  0  0  0  0
 16 34  1  0  0  0  0
 17 18  1  0  0  0  0
 17 35  1  0  0  0  0
 17 36  1  0  0  0  0
 18 37  1  0  0  0  0
M  END
> <s_m_source_file>
AV-unprocessed.smi

> <i_m_source_file_index>
2481

> <i_lp_mmshare_version>
43012

> <i_f3d_flags>
0

> <s_epik_input>
W0NIM11uMW5bY0hdbmMxW05IXUMoPU8pW05IXVtDQEBIXTJbQ0gyXVtDSDJdW0NIMl1bQ0gyXVtDQEhdMltDSDJdW09IXQ==

> <s_epik_cmdline>
J2VwaWtfcHl0aG9uJywgJy1waCcsICc3LjAnLCAnLXRuJywgJzgnLCAnLW1hJywgJzIwMCcsICctbWV0YWxfYmluZGluZycsICctaW1hZScsICc8aW5maWxlLm1hZT4nLCAnLW9tYWUnLCAnPG91dGZpbGUubWFlPic=

> <r_lp_tautomer_probability>
1

> <r_epik_Ionization_Penalty>
2.32704e-05

> <r_epik_Ionization_Penalty_Charging>
0

> <r_epik_Ionization_Penalty_Neutral>
2.32704e-05

> <r_epik_State_Penalty>
-0

> <r_epik_Charging_Adjusted_Penalty>
0

> <i_epik_Tot_Q>
0

> <i_epik_Tot_abs_Q>
0

> <r_epik_Metal_State_Penalty>
-0

> <b_epik_Metal_Only>
0

> <s_lp_Force_Field>
OPLS_2005

> <r_lp_Energy>
12.0368

> <b_lp_Chiralities_Consistent>
1

> <s_lp_Variant>
AV-unprocessed.smi:2481-2

> <Gold.Version>
5.8.1

> <Gold.Id.Protein>
6NUR|6NUR_protein|mol2

> <Gold.PLP.Fitness>
38.7878

> <Gold.PLP.PLP>
-26.2480

> <Gold.PLP.part.hbond>
-4.0000

> <Gold.PLP.part.metal>
0.0000

> <Gold.PLP.part.buried>
-2.5270

> <Gold.PLP.part.nonpolar>
-19.5791

> <Gold.PLP.part.repulsive>
0.3049

> <Gold.PLP.ligand.clash>
0.0000

> <Gold.PLP.ligand.torsion>
0.5697

> <Gold.PLP.Chemscore.Hbond>
3.5616

> <Gold.PLP.Chemscore.CHOScore>
0.9888

> <Gold.PLP.Chemscore.Metal>
0.0000

> <Gold.Chemscore.Hbonds>
donor molecule, donor type, donor heavy atom, donor atom, acceptor molecule, acceptor atom, score
      L1  H     7    23       P1  7948  1.00
      L1  H    10    24       P1  7948  1.00
      L1  H    18    37       P1  7948  0.99
      P1  H  7989  7998       L1     3  0.58
      L1  C     4    22       P1  8028  0.91

> <Gold.PLP.Chemscore.Internal.Correction>
0.0282

> <Gold.Rescore>
     Score         DG    S(hbond)    S(metal)    S(lipo)     H(rot)  DE(clash)    DE(int)     intcor
     11.63     -14.26       2.87        0.00      36.53       1.99       0.12       2.52       ----

> <Gold.Chemscore.Fitness>
11.6254

> <Gold.Chemscore.DG>
-14.2604

> <Gold.Chemscore.ZeroCoef>
-5.4800

> <Gold.Chemscore.Hbond>
2.8727

> <Gold.Chemscore.Metal>
0.0000

> <Gold.Chemscore.Lipo>
36.5309

> <Gold.Chemscore.Internal_Hbond>
0.0000

> <Gold.Chemscore.DEClash>
0.1180

> <Gold.Chemscore.DEInternal>
2.5171

> <Gold.Chemscore.Rot>
1.9877

> <Gold.Chemscore.Internal.Correction>
   9.000000E+99

> <Gold.Chemscore.Hbonds>
donor molecule, donor type, donor heavy atom, donor atom, acceptor molecule, acceptor atom, score
      L1  H     7    23       P1  7948  0.95
      L1  H    10    24       P1  7948  0.96
      L1  H    18    37       P1  7948  0.52
      P1  H  7989  7998       L1     3  0.05

> <Gold.Chemscore.Hbond.Weighted>
-9.5948

> <Gold.Chemscore.Metal.Weighted>
-0.0000

> <Gold.Chemscore.Lipo.Weighted>
-4.2741

> <Gold.Chemscore.Internal_Hbond.Weighted>
0.0000

> <Gold.Chemscore.DEClash.Weighted>
0.1180

> <Gold.Chemscore.DEInternal.Weighted>
2.5171

> <Gold.Chemscore.Rot.Weighted>
5.0885

> <Gold.Chemscore.Internal.Correction.Weighted>
   9.000000E+99

> <Gold.Protein.RotatedTorsions>
[ 6907 6896 6895 6894 ] final  121.12 input  -60.11 | X-H torsion
[ 7974 7965 7964 7962 ] final -154.25 input  175.53 | X-H torsion
[ 8008 7997 7996 7995 ] final  138.68 input   59.86 | X-H torsion
[ 10167 10162 10161 10158 ] final -135.05 input  -65.29 | X-H torsion
[ 10718 10713 10712 10709 ] final   14.16 input   66.30 | X-H torsion
[ 10763 10752 10751 10750 ] final  117.47 input  -60.55 | X-H torsion
[ 11005 11000 10999 10996 ] final -114.80 input  -57.11 | X-H torsion

> <Gold.Protein.ActiveResidues>
 VAL166  LYS551  ARG553  GLY616  TRP617  ASP618  TYR619  PRO620  LYS621  CYS622 
 ASP623  PHE694  ASN695  SER759  ASP760  ASP761  ALA762  ILE779  LEU786  VAL792 
 PHE793  MET794  SER795  GLU796  ALA797  LYS798  CYS799  TRP800  GLU811  SER814 

> <Gold.Protein.RotatedAtoms>
  152.4346  133.7338  159.6601 H   0  0  0  0  0  0  0  0  0  0  0  0  # atno 6907 bound_to 6896
  150.8228  133.8212  159.3137 H   0  0  0  0  0  0  0  0  0  0  0  0  # atno 6908 bound_to 6896
  151.5889  135.1057  160.0086 H   0  0  0  0  0  0  0  0  0  0  0  0  # atno 6909 bound_to 6896
  144.7699  140.4414  143.5915 H   0  0  0  0  0  0  0  0  0  0  0  0  # atno 7974 bound_to 7965
  156.2995  140.2387  156.4113 H   0  0  0  0  0  0  0  0  0  0  0  0  # atno 8008 bound_to 7997
  154.8438  140.0427  157.1579 H   0  0  0  0  0  0  0  0  0  0  0  0  # atno 8009 bound_to 7997
  154.9073  140.2985  155.5288 H   0  0  0  0  0  0  0  0  0  0  0  0  # atno 8010 bound_to 7997
  139.8818  143.6830  152.2626 H   0  0  0  0  0  0  0  0  0  0  0  0  # atno 10167 bound_to 10162
  157.0351  130.6208  149.5741 H   0  0  0  0  0  0  0  0  0  0  0  0  # atno 10718 bound_to 10713
  153.5529  135.3536  155.2767 H   0  0  0  0  0  0  0  0  0  0  0  0  # atno 10763 bound_to 10752
  154.8704  135.4118  154.2916 H   0  0  0  0  0  0  0  0  0  0  0  0  # atno 10764 bound_to 10752
  153.3646  135.7061  153.6754 H   0  0  0  0  0  0  0  0  0  0  0  0  # atno 10765 bound_to 10752
  141.0528  133.9659  157.2806 H   0  0  0  0  0  0  0  0  0  0  0  0  # atno 11005 bound_to 11000
  145.6355  139.1542  143.2945 LP  0  0  0  0  0  0  0  0  0  0  0  0  # atno 17320 bound_to 7965
  146.1837  140.6456  142.9177 LP  0  0  0  0  0  0  0  0  0  0  0  0  # atno 17321 bound_to 7965
  139.7189  144.7606  151.0988 LP  0  0  0  0  0  0  0  0  0  0  0  0  # atno 17342 bound_to 10162
  140.7743  143.5233  150.9510 LP  0  0  0  0  0  0  0  0  0  0  0  0  # atno 17343 bound_to 10162
  156.0056  130.5142  150.7819 LP  0  0  0  0  0  0  0  0  0  0  0  0  # atno 17370 bound_to 10713
  157.5148  131.0928  151.0153 LP  0  0  0  0  0  0  0  0  0  0  0  0  # atno 17371 bound_to 10713
  139.9365  135.0196  156.8572 LP  0  0  0  0  0  0  0  0  0  0  0  0  # atno 17394 bound_to 11000
  140.6021  134.0162  155.7541 LP  0  0  0  0  0  0  0  0  0  0  0  0  # atno 17395 bound_to 11000

$$$$
