AV-unprocessed.smi:1829|AV-procd|sdf|7429|dock2
  -GOLD-   22720 9113D 1   1.00000     0.00000
 Structure written by MMmdl.
 45 47  0  0  0  0  0  0  0  0  1 V2000
  155.7986  137.8728  165.4444 C   0  0  0  0  0  0  0  0  0  0  0  0
  154.9990  136.9618  164.4995 C   0  0  0  0  0  0  0  0  0  0  0  0
  155.6457  135.5738  164.3692 C   0  0  0  0  0  0  0  0  0  0  0  0
  154.7851  137.6101  163.1373 C   0  0  0  0  0  0  0  0  0  0  0  0
  154.1156  136.9035  162.1154 C   0  0  0  0  0  0  0  0  0  0  0  0
  153.9190  137.4943  160.8520 C   0  0  0  0  0  0  0  0  0  0  0  0
  154.3869  138.8001  160.5959 C   0  0  0  0  0  0  0  0  0  0  0  0
  154.1807  139.4274  159.2262 C   0  0  1  0  0  0  0  0  0  0  0  0
  155.0054  138.8381  158.2396 O   0  0  0  0  0  0  0  0  0  0  0  0
  152.7029  139.3517  158.7936 C   0  0  0  0  0  0  0  0  0  0  0  0
  152.1888  140.6325  158.3261 N   0  0  0  0  0  0  0  0  0  0  0  0
  151.6580  140.9391  157.1150 C   0  0  0  0  0  0  0  0  0  0  0  0
  151.5297  139.9058  156.0314 C   0  0  0  0  0  0  0  0  0  0  0  0
  152.5336  139.9839  155.0391 O   0  0  0  0  0  0  0  0  0  0  0  0
  151.2607  142.2054  156.9649 N   0  0  0  0  0  0  0  0  0  0  0  0
  151.5628  142.7694  158.1884 C   0  0  0  0  0  0  0  0  0  0  0  0
  151.3841  144.0891  158.6619 C   0  0  0  0  0  0  0  0  0  0  0  0
  151.7744  144.4363  159.9721 C   0  0  0  0  0  0  0  0  0  0  0  0
  152.3476  143.4714  160.8257 C   0  0  0  0  0  0  0  0  0  0  0  0
  152.5344  142.1509  160.3735 C   0  0  0  0  0  0  0  0  0  0  0  0
  152.1434  141.8102  159.0647 C   0  0  0  0  0  0  0  0  0  0  0  0
  155.0593  139.5070  161.6162 C   0  0  0  0  0  0  0  0  0  0  0  0
  155.2561  138.9159  162.8789 C   0  0  0  0  0  0  0  0  0  0  0  0
  155.3067  138.8382  165.5676 H   0  0  0  0  0  0  0  0  0  0  0  0
  156.8062  138.0570  165.0704 H   0  0  0  0  0  0  0  0  0  0  0  0
  155.8924  137.4233  166.4334 H   0  0  0  0  0  0  0  0  0  0  0  0
  154.0177  136.8152  164.9530 H   0  0  0  0  0  0  0  0  0  0  0  0
  155.0411  134.9178  163.7421 H   0  0  0  0  0  0  0  0  0  0  0  0
  155.7458  135.0960  165.3442 H   0  0  0  0  0  0  0  0  0  0  0  0
  156.6409  135.6325  163.9276 H   0  0  0  0  0  0  0  0  0  0  0  0
  153.7508  135.9025  162.2939 H   0  0  0  0  0  0  0  0  0  0  0  0
  153.4087  136.9379  160.0793 H   0  0  0  0  0  0  0  0  0  0  0  0
  154.4749  140.4761  159.2863 H   0  0  0  0  0  0  0  0  0  0  0  0
  154.8721  137.9028  158.2584 H   0  0  0  0  0  0  0  0  0  0  0  0
  152.5659  138.5951  158.0213 H   0  0  0  0  0  0  0  0  0  0  0  0
  152.0881  139.0343  159.6369 H   0  0  0  0  0  0  0  0  0  0  0  0
  151.5653  138.9108  156.4749 H   0  0  0  0  0  0  0  0  0  0  0  0
  150.5577  140.0158  155.5500 H   0  0  0  0  0  0  0  0  0  0  0  0
  152.5959  139.1453  154.6084 H   0  0  0  0  0  0  0  0  0  0  0  0
  150.9458  144.8351  158.0156 H   0  0  0  0  0  0  0  0  0  0  0  0
  151.6332  145.4478  160.3235 H   0  0  0  0  0  0  0  0  0  0  0  0
  152.6439  143.7456  161.8276 H   0  0  0  0  0  0  0  0  0  0  0  0
  152.9731  141.4089  161.0240 H   0  0  0  0  0  0  0  0  0  0  0  0
  155.4301  140.5047  161.4323 H   0  0  0  0  0  0  0  0  0  0  0  0
  155.7732  139.4706  163.6483 H   0  0  0  0  0  0  0  0  0  0  0  0
  1  2  1  0  0  0  0
  1 24  1  0  0  0  0
  1 25  1  0  0  0  0
  1 26  1  0  0  0  0
  2  3  1  0  0  0  0
  2  4  1  0  0  0  0
  2 27  1  0  0  0  0
  3 28  1  0  0  0  0
  3 29  1  0  0  0  0
  3 30  1  0  0  0  0
  4 23  1  0  0  0  0
  4  5  2  0  0  0  0
  5  6  1  0  0  0  0
  5 31  1  0  0  0  0
  6  7  2  0  0  0  0
  6 32  1  0  0  0  0
  7  8  1  0  0  0  0
  7 22  1  0  0  0  0
  8  9  1  0  0  0  0
  8 10  1  0  0  0  0
  8 33  1  0  0  0  0
  9 34  1  0  0  0  0
 10 11  1  0  0  0  0
 10 35  1  0  0  0  0
 10 36  1  0  0  0  0
 11 21  1  0  0  0  0
 11 12  1  0  0  0  0
 12 13  1  0  0  0  0
 12 15  2  0  0  0  0
 13 14  1  0  0  0  0
 13 37  1  0  0  0  0
 13 38  1  0  0  0  0
 14 39  1  0  0  0  0
 15 16  1  0  0  0  0
 16 21  2  0  0  0  0
 16 17  1  0  0  0  0
 17 18  2  0  0  0  0
 17 40  1  0  0  0  0
 18 19  1  0  0  0  0
 18 41  1  0  0  0  0
 19 20  2  0  0  0  0
 19 42  1  0  0  0  0
 20 21  1  0  0  0  0
 20 43  1  0  0  0  0
 22 23  2  0  0  0  0
 22 44  1  0  0  0  0
 23 45  1  0  0  0  0
M  END
> <s_m_source_file>
AV-unprocessed.smi

> <i_m_source_file_index>
1829

> <i_lp_mmshare_version>
43012

> <i_f3d_flags>
0

> <s_epik_input>
W0NIM11bQ0hdKFtDSDNdKWMxW2NIXVtjSF1jKFtjSF1bY0hdMSlbQ0BIXShbT0hdKVtDSDJdbihjKG4yKVtDSDJdW09IXSljKGMyMylbY0hdW2NIXVtjSF1bY0hdMw==

> <s_epik_cmdline>
J2VwaWtfcHl0aG9uJywgJy1waCcsICc3LjAnLCAnLXRuJywgJzgnLCAnLW1hJywgJzIwMCcsICctbWV0YWxfYmluZGluZycsICctaW1hZScsICc8aW5maWxlLm1hZT4nLCAnLW9tYWUnLCAnPG91dGZpbGUubWFlPic=

> <r_epik_Ionization_Penalty>
0.0634718

> <r_epik_Ionization_Penalty_Charging>
0

> <r_epik_Ionization_Penalty_Neutral>
0.0634718

> <r_epik_State_Penalty>
0.0551572

> <r_epik_Charging_Adjusted_Penalty>
0.0551572

> <i_epik_Tot_Q>
0

> <i_epik_Tot_abs_Q>
0

> <r_epik_Metal_State_Penalty>
5.78034e-05

> <b_epik_Metal_Only>
0

> <s_lp_Force_Field>
OPLS_2005

> <r_lp_Energy>
13.3672

> <b_lp_Chiralities_Consistent>
1

> <s_lp_Variant>
AV-unprocessed.smi:1829-2

> <Gold.Version>
5.8.1

> <Gold.Id.Protein>
6NUR|6NUR_protein|mol2

> <Gold.PLP.Fitness>
52.2372

> <Gold.PLP.PLP>
-47.9048

> <Gold.PLP.part.hbond>
-2.5535

> <Gold.PLP.part.metal>
0.0000

> <Gold.PLP.part.buried>
-3.5357

> <Gold.PLP.part.nonpolar>
-40.9112

> <Gold.PLP.part.repulsive>
0.0674

> <Gold.PLP.ligand.clash>
0.0000

> <Gold.PLP.ligand.torsion>
1.1884

> <Gold.PLP.Chemscore.Hbond>
2.1878

> <Gold.PLP.Chemscore.CHOScore>
0.0000

> <Gold.PLP.Chemscore.Metal>
0.0000

> <Gold.Chemscore.Hbonds>
donor molecule, donor type, donor heavy atom, donor atom, acceptor molecule, acceptor atom, score
      P1  H  7989  7998       L1    14  0.39
      P1  H  7997  8008       L1    14  0.80
      P1  H  7997  8010       L1     9  0.83

> <Gold.PLP.Chemscore.Internal.Correction>
0.1458

> <Gold.Rescore>
     Score         DG    S(hbond)    S(metal)    S(lipo)     H(rot)  DE(clash)    DE(int)     intcor
     17.83     -19.25       1.36        0.00     137.34       2.68       0.15       1.27       ----

> <Gold.Chemscore.Fitness>
17.8300

> <Gold.Chemscore.DG>
-19.2513

> <Gold.Chemscore.ZeroCoef>
-5.4800

> <Gold.Chemscore.Hbond>
1.3632

> <Gold.Chemscore.Metal>
0.0000

> <Gold.Chemscore.Lipo>
137.3402

> <Gold.Chemscore.Internal_Hbond>
0.0000

> <Gold.Chemscore.DEClash>
0.1474

> <Gold.Chemscore.DEInternal>
1.2738

> <Gold.Chemscore.Rot>
2.6761

> <Gold.Chemscore.Internal.Correction>
   9.000000E+99

> <Gold.Chemscore.Hbonds>
donor molecule, donor type, donor heavy atom, donor atom, acceptor molecule, acceptor atom, score
      P1  H  7989  7998       L1    14  0.02
      P1  H  7997  8008       L1    14  0.23
      P1  H  7997  8010       L1     9  0.48

> <Gold.Chemscore.Hbond.Weighted>
-4.5532

> <Gold.Chemscore.Metal.Weighted>
-0.0000

> <Gold.Chemscore.Lipo.Weighted>
-16.0688

> <Gold.Chemscore.Internal_Hbond.Weighted>
0.0000

> <Gold.Chemscore.DEClash.Weighted>
0.1474

> <Gold.Chemscore.DEInternal.Weighted>
1.2738

> <Gold.Chemscore.Rot.Weighted>
6.8507

> <Gold.Chemscore.Internal.Correction.Weighted>
   9.000000E+99

> <Gold.Protein.RotatedTorsions>
[ 6907 6896 6895 6894 ] final   63.03 input  -60.11 | X-H torsion
[ 7974 7965 7964 7962 ] final  -62.89 input  175.53 | X-H torsion
[ 8008 7997 7996 7995 ] final  -24.90 input   59.86 | X-H torsion
[ 10167 10162 10161 10158 ] final   90.63 input  -65.29 | X-H torsion
[ 10718 10713 10712 10709 ] final -158.64 input   66.30 | X-H torsion
[ 10763 10752 10751 10750 ] final  153.35 input  -60.55 | X-H torsion
[ 11005 11000 10999 10996 ] final   20.97 input  -57.11 | X-H torsion

> <Gold.Protein.ActiveResidues>
 VAL166  LYS551  ARG553  GLY616  TRP617  ASP618  TYR619  PRO620  LYS621  CYS622 
 ASP623  PHE694  ASN695  SER759  ASP760  ASP761  ALA762  ILE779  LEU786  VAL792 
 PHE793  MET794  SER795  GLU796  ALA797  LYS798  CYS799  TRP800  GLU811  SER814 

> <Gold.Protein.RotatedAtoms>
  152.4220  134.5937  159.9980 H   0  0  0  0  0  0  0  0  0  0  0  0  # atno 6907 bound_to 6896
  151.6084  133.3344  159.3070 H   0  0  0  0  0  0  0  0  0  0  0  0  # atno 6908 bound_to 6896
  150.8109  134.7300  159.6752 H   0  0  0  0  0  0  0  0  0  0  0  0  # atno 6909 bound_to 6896
  145.7858  140.8737  143.0306 H   0  0  0  0  0  0  0  0  0  0  0  0  # atno 7974 bound_to 7965
  154.4504  140.1941  156.0536 H   0  0  0  0  0  0  0  0  0  0  0  0  # atno 8008 bound_to 7997
  156.0636  140.3293  155.7463 H   0  0  0  0  0  0  0  0  0  0  0  0  # atno 8009 bound_to 7997
  155.5374  140.0583  157.2867 H   0  0  0  0  0  0  0  0  0  0  0  0  # atno 8010 bound_to 7997
  139.8455  144.6620  150.9232 H   0  0  0  0  0  0  0  0  0  0  0  0  # atno 10167 bound_to 10162
  156.5569  130.8630  151.2797 H   0  0  0  0  0  0  0  0  0  0  0  0  # atno 10718 bound_to 10713
  154.1348  135.2824  155.3176 H   0  0  0  0  0  0  0  0  0  0  0  0  # atno 10763 bound_to 10752
  154.6330  135.5429  153.7705 H   0  0  0  0  0  0  0  0  0  0  0  0  # atno 10764 bound_to 10752
  153.0269  135.6467  154.1497 H   0  0  0  0  0  0  0  0  0  0  0  0  # atno 10765 bound_to 10752
  140.3968  134.1761  155.7663 H   0  0  0  0  0  0  0  0  0  0  0  0  # atno 11005 bound_to 11000
  144.6789  140.0053  143.7484 LP  0  0  0  0  0  0  0  0  0  0  0  0  # atno 17320 bound_to 7965
  146.0027  139.3105  143.0918 LP  0  0  0  0  0  0  0  0  0  0  0  0  # atno 17321 bound_to 7965
  140.7793  143.3874  151.1369 LP  0  0  0  0  0  0  0  0  0  0  0  0  # atno 17342 bound_to 10162
  139.7517  143.8769  152.3078 LP  0  0  0  0  0  0  0  0  0  0  0  0  # atno 17343 bound_to 10162
  157.7376  130.9799  150.2205 LP  0  0  0  0  0  0  0  0  0  0  0  0  # atno 17370 bound_to 10713
  156.2834  130.3736  149.7913 LP  0  0  0  0  0  0  0  0  0  0  0  0  # atno 17371 bound_to 10713
  141.1871  133.8288  157.1043 LP  0  0  0  0  0  0  0  0  0  0  0  0  # atno 17394 bound_to 11000
  140.0366  134.9875  157.0882 LP  0  0  0  0  0  0  0  0  0  0  0  0  # atno 17395 bound_to 11000

$$$$
