AV-unprocessed.smi:1454|AV-procd|sdf|5914|dock4
  -GOLD-   22720 6 03D 1   1.00000     0.00000
 Structure written by MMmdl.
 45 46  0  0  0  0  0  0  0  0  2 V2000
  145.0585  137.0382  154.3439 O   0  0  0  0  0  0  0  0  0  0  0  0
  146.0107  137.0682  153.5650 C   0  0  0  0  0  0  0  0  0  0  0  0
  146.4370  138.4015  152.9423 C   0  0  0  0  0  0  0  0  0  0  0  0
  147.5355  139.1414  153.7358 C   0  0  0  0  0  0  0  0  0  0  0  0
  148.8162  138.4423  153.7024 N   0  0  0  0  0  0  0  0  0  0  0  0
  149.9808  138.8992  154.1849 C   0  0  0  0  0  0  0  0  0  0  0  0
  150.0966  139.9901  154.7430 O   0  0  0  0  0  0  0  0  0  0  0  0
  151.1926  137.9678  154.0051 C   0  0  0  0  0  0  0  0  0  0  0  0
  151.0859  136.6661  154.8265 C   0  0  0  0  0  0  0  0  0  0  0  0
  151.9481  136.8547  156.0867 C   0  0  0  0  0  0  0  0  0  0  0  0
  152.5622  138.2550  155.9934 C   0  0  0  0  0  0  0  0  0  0  0  0
  152.4848  138.6229  154.5132 C   0  0  0  0  0  0  0  0  0  0  0  0
  146.7439  135.9876  153.2506 N   0  0  0  0  0  0  0  0  0  0  0  0
  146.6342  134.6729  153.8814 C   0  0  0  0  0  0  0  0  0  0  0  0
  145.2617  134.0008  153.6681 C   0  0  0  0  0  0  0  0  0  0  0  0
  144.8969  133.6722  152.2265 C   0  0  0  0  0  0  0  0  0  0  0  0
  145.7867  132.9204  151.4266 C   0  0  0  0  0  0  0  0  0  0  0  0
  145.4386  132.6137  150.0948 C   0  0  0  0  0  0  0  0  0  0  0  0
  144.2025  133.0624  149.5887 C   0  0  0  0  0  0  0  0  0  0  0  0
  143.3664  133.7622  150.3854 N   0  3  0  0  0  0  0  0  0  0  0  0
  143.6607  134.0686  151.6676 C   0  0  0  0  0  0  0  0  0  0  0  0
  146.8228  138.1679  151.9494 H   0  0  0  0  0  0  0  0  0  0  0  0
  145.5737  139.0488  152.7796 H   0  0  0  0  0  0  0  0  0  0  0  0
  147.6563  140.1721  153.3970 H   0  0  0  0  0  0  0  0  0  0  0  0
  147.2342  139.2062  154.7816 H   0  0  0  0  0  0  0  0  0  0  0  0
  148.8178  137.5304  153.2678 H   0  0  0  0  0  0  0  0  0  0  0  0
  151.2827  137.7296  152.9438 H   0  0  0  0  0  0  0  0  0  0  0  0
  150.0573  136.4087  155.0836 H   0  0  0  0  0  0  0  0  0  0  0  0
  151.4730  135.8312  154.2411 H   0  0  0  0  0  0  0  0  0  0  0  0
  151.3644  136.7390  156.9996 H   0  0  0  0  0  0  0  0  0  0  0  0
  152.7353  136.1003  156.1094 H   0  0  0  0  0  0  0  0  0  0  0  0
  151.9666  138.9616  156.5705 H   0  0  0  0  0  0  0  0  0  0  0  0
  153.5807  138.2913  156.3808 H   0  0  0  0  0  0  0  0  0  0  0  0
  153.3390  138.1998  153.9830 H   0  0  0  0  0  0  0  0  0  0  0  0
  152.5121  139.7028  154.3588 H   0  0  0  0  0  0  0  0  0  0  0  0
  147.4984  136.1098  152.5906 H   0  0  0  0  0  0  0  0  0  0  0  0
  147.4030  134.0426  153.4340 H   0  0  0  0  0  0  0  0  0  0  0  0
  146.8815  134.7193  154.9428 H   0  0  0  0  0  0  0  0  0  0  0  0
  145.2199  133.0861  154.2613 H   0  0  0  0  0  0  0  0  0  0  0  0
  144.4818  134.6520  154.0638 H   0  0  0  0  0  0  0  0  0  0  0  0
  146.7298  132.5790  151.8268 H   0  0  0  0  0  0  0  0  0  0  0  0
  146.1113  132.0456  149.4697 H   0  0  0  0  0  0  0  0  0  0  0  0
  143.8572  132.8785  148.5819 H   0  0  0  0  0  0  0  0  0  0  0  0
  142.9019  134.6257  152.1966 H   0  0  0  0  0  0  0  0  0  0  0  0
  142.4727  134.0724  150.0031 H   0  0  0  0  0  0  0  0  0  0  0  0
  1  2  2  0  0  0  0
  2  3  1  0  0  0  0
  2 13  1  0  0  0  0
  3  4  1  0  0  0  0
  3 22  1  0  0  0  0
  3 23  1  0  0  0  0
  4  5  1  0  0  0  0
  4 24  1  0  0  0  0
  4 25  1  0  0  0  0
  5  6  1  0  0  0  0
  5 26  1  0  0  0  0
  6  7  2  0  0  0  0
  6  8  1  0  0  0  0
  8 12  1  0  0  0  0
  8  9  1  0  0  0  0
  8 27  1  0  0  0  0
  9 10  1  0  0  0  0
  9 28  1  0  0  0  0
  9 29  1  0  0  0  0
 10 11  1  0  0  0  0
 10 30  1  0  0  0  0
 10 31  1  0  0  0  0
 11 12  1  0  0  0  0
 11 32  1  0  0  0  0
 11 33  1  0  0  0  0
 12 34  1  0  0  0  0
 12 35  1  0  0  0  0
 13 14  1  0  0  0  0
 13 36  1  0  0  0  0
 14 15  1  0  0  0  0
 14 37  1  0  0  0  0
 14 38  1  0  0  0  0
 15 16  1  0  0  0  0
 15 39  1  0  0  0  0
 15 40  1  0  0  0  0
 16 21  1  0  0  0  0
 16 17  2  0  0  0  0
 17 18  1  0  0  0  0
 17 41  1  0  0  0  0
 18 19  2  0  0  0  0
 18 42  1  0  0  0  0
 19 20  1  0  0  0  0
 19 43  1  0  0  0  0
 20 21  2  0  0  0  0
 20 45  1  0  0  0  0
 21 44  1  0  0  0  0
M  CHG  1  20   1
M  END
> <s_m_source_file>
AV-unprocessed.smi

> <i_m_source_file_index>
1454

> <i_lp_mmshare_version>
43012

> <i_f3d_flags>
0

> <s_epik_input>
W2NIXTFuW2NIXVtjSF1bY0hdYzFbQ0gyXVtDSDJdW05IXUMoPU8pW0NIMl1bQ0gyXVtOSF1DKD1PKVtDSF0yW0NIMl1bQ0gyXVtDSDJdW0NIMl0y

> <s_epik_cmdline>
J2VwaWtfcHl0aG9uJywgJy1waCcsICc3LjAnLCAnLXRuJywgJzgnLCAnLW1hJywgJzIwMCcsICctbWV0YWxfYmluZGluZycsICctaW1hZScsICc8aW5maWxlLm1hZT4nLCAnLW9tYWUnLCAnPG91dGZpbGUubWFlPic=

> <r_epik_Ionization_Penalty>
2.25878

> <r_epik_Ionization_Penalty_Charging>
2.25878

> <r_epik_Ionization_Penalty_Neutral>
5.05393e-08

> <r_epik_State_Penalty>
2.40647

> <r_epik_Charging_Adjusted_Penalty>
4.66526

> <i_epik_Tot_Q>
1

> <i_epik_Tot_abs_Q>
1

> <r_epik_Metal_State_Penalty>
2.41947

> <b_epik_Metal_Only>
0

> <s_lp_Force_Field>
OPLS_2005

> <r_lp_Energy>
23.282

> <b_lp_Chiralities_Consistent>
1

> <s_lp_Variant>
AV-unprocessed.smi:1454-2

> <Gold.Version>
5.8.1

> <Gold.Id.Protein>
6NUR|6NUR_protein|mol2

> <Gold.PLP.Fitness>
51.6682

> <Gold.PLP.PLP>
-37.7039

> <Gold.PLP.part.hbond>
-5.0000

> <Gold.PLP.part.metal>
0.0000

> <Gold.PLP.part.buried>
-4.3646

> <Gold.PLP.part.nonpolar>
-28.8968

> <Gold.PLP.part.repulsive>
0.3231

> <Gold.PLP.ligand.clash>
0.0000

> <Gold.PLP.ligand.torsion>
0.5290

> <Gold.PLP.Chemscore.Hbond>
4.9600

> <Gold.PLP.Chemscore.CHOScore>
0.0000

> <Gold.PLP.Chemscore.Metal>
0.0000

> <Gold.Chemscore.Hbonds>
donor molecule, donor type, donor heavy atom, donor atom, acceptor molecule, acceptor atom, score
      L1  H     5    26       P1  7948  1.00
      L1  H    13    36       P1  7948  1.00
      L1  H    20    45       P1 10186  2.00
      P1  H  7989  7998       L1     7  0.68

> <Gold.PLP.Chemscore.Internal.Correction>
0.1423

> <Gold.Rescore>
     Score         DG    S(hbond)    S(metal)    S(lipo)     H(rot)  DE(clash)    DE(int)     intcor
     20.97     -21.69       3.40        0.00      90.41       2.23       0.20       0.52       ----

> <Gold.Chemscore.Fitness>
20.9723

> <Gold.Chemscore.DG>
-21.6943

> <Gold.Chemscore.ZeroCoef>
-5.4800

> <Gold.Chemscore.Hbond>
3.4006

> <Gold.Chemscore.Metal>
0.0000

> <Gold.Chemscore.Lipo>
90.4066

> <Gold.Chemscore.Internal_Hbond>
0.0000

> <Gold.Chemscore.DEClash>
0.1994

> <Gold.Chemscore.DEInternal>
0.5226

> <Gold.Chemscore.Rot>
2.2348

> <Gold.Chemscore.Internal.Correction>
   9.000000E+99

> <Gold.Chemscore.Hbonds>
donor molecule, donor type, donor heavy atom, donor atom, acceptor molecule, acceptor atom, score
      L1  H     5    26       P1  7948  0.99
      L1  H    13    36       P1  7948  0.99
      L1  H    20    45       P1 10186  0.96
      P1  H  7989  7998       L1     7  0.17

> <Gold.Chemscore.Hbond.Weighted>
-11.3579

> <Gold.Chemscore.Metal.Weighted>
-0.0000

> <Gold.Chemscore.Lipo.Weighted>
-10.5776

> <Gold.Chemscore.Internal_Hbond.Weighted>
0.0000

> <Gold.Chemscore.DEClash.Weighted>
0.1994

> <Gold.Chemscore.DEInternal.Weighted>
0.5226

> <Gold.Chemscore.Rot.Weighted>
5.7212

> <Gold.Chemscore.Internal.Correction.Weighted>
   9.000000E+99

> <Gold.Protein.RotatedTorsions>
[ 6907 6896 6895 6894 ] final  -54.33 input  -60.11 | X-H torsion
[ 7974 7965 7964 7962 ] final  156.66 input  175.53 | X-H torsion
[ 8008 7997 7996 7995 ] final  -83.77 input   59.86 | X-H torsion
[ 10167 10162 10161 10158 ] final  111.42 input  -65.29 | X-H torsion
[ 10718 10713 10712 10709 ] final  -98.32 input   66.30 | X-H torsion
[ 10763 10752 10751 10750 ] final  -33.68 input  -60.55 | X-H torsion
[ 11005 11000 10999 10996 ] final  158.29 input  -57.11 | X-H torsion

> <Gold.Protein.ActiveResidues>
 VAL166  LYS551  ARG553  GLY616  TRP617  ASP618  TYR619  PRO620  LYS621  CYS622 
 ASP623  PHE694  ASN695  SER759  ASP760  ASP761  ALA762  ILE779  LEU786  VAL792 
 PHE793  MET794  SER795  GLU796  ALA797  LYS798  CYS799  TRP800  GLU811  SER814 

> <Gold.Protein.RotatedAtoms>
  150.8348  134.7616  159.6883 H   0  0  0  0  0  0  0  0  0  0  0  0  # atno 6907 bound_to 6896
  152.4446  134.5517  159.9878 H   0  0  0  0  0  0  0  0  0  0  0  0  # atno 6908 bound_to 6896
  151.5670  133.3357  159.3018 H   0  0  0  0  0  0  0  0  0  0  0  0  # atno 6909 bound_to 6896
  144.7949  139.7235  143.6206 H   0  0  0  0  0  0  0  0  0  0  0  0  # atno 7974 bound_to 7965
  154.6227  140.0614  156.9635 H   0  0  0  0  0  0  0  0  0  0  0  0  # atno 8008 bound_to 7997
  155.1792  140.3297  155.4360 H   0  0  0  0  0  0  0  0  0  0  0  0  # atno 8009 bound_to 7997
  156.2440  140.1900  156.6889 H   0  0  0  0  0  0  0  0  0  0  0  0  # atno 8010 bound_to 7997
  139.6613  144.7128  151.1860 H   0  0  0  0  0  0  0  0  0  0  0  0  # atno 10167 bound_to 10162
  156.0105  130.5233  150.6505 H   0  0  0  0  0  0  0  0  0  0  0  0  # atno 10718 bound_to 10713
  153.8342  135.6863  153.4811 H   0  0  0  0  0  0  0  0  0  0  0  0  # atno 10763 bound_to 10752
  153.1493  135.4625  154.9610 H   0  0  0  0  0  0  0  0  0  0  0  0  # atno 10764 bound_to 10752
  154.7873  135.3289  154.7802 H   0  0  0  0  0  0  0  0  0  0  0  0  # atno 10765 bound_to 10752
  140.1851  134.8447  157.2848 H   0  0  0  0  0  0  0  0  0  0  0  0  # atno 11005 bound_to 11000
  146.2214  139.5643  142.9616 LP  0  0  0  0  0  0  0  0  0  0  0  0  # atno 17320 bound_to 7965
  145.5698  141.0395  143.2180 LP  0  0  0  0  0  0  0  0  0  0  0  0  # atno 17321 bound_to 7965
  140.7581  143.5990  150.8719 LP  0  0  0  0  0  0  0  0  0  0  0  0  # atno 17342 bound_to 10162
  139.9648  143.6123  152.2991 LP  0  0  0  0  0  0  0  0  0  0  0  0  # atno 17343 bound_to 10162
  157.4267  131.0844  151.1078 LP  0  0  0  0  0  0  0  0  0  0  0  0  # atno 17370 bound_to 10713
  157.1663  130.6248  149.5626 LP  0  0  0  0  0  0  0  0  0  0  0  0  # atno 17371 bound_to 10713
  140.2223  134.4009  155.7560 LP  0  0  0  0  0  0  0  0  0  0  0  0  # atno 17394 bound_to 11000
  141.2224  133.7172  156.8509 LP  0  0  0  0  0  0  0  0  0  0  0  0  # atno 17395 bound_to 11000

$$$$
