AV-unprocessed.smi:295|AV-procd|sdf|2256|dock10
  -GOLD-   2262022143D 1   1.00000     0.00000
 Structure written by MMmdl.
 35 36  0  0  0  0  0  0  0  0  1 V2000
  145.6376  136.0016  150.8690 C   0  0  0  0  0  0  0  0  0  0  0  0
  145.5281  134.4668  150.8294 C   0  0  2  0  0  0  0  0  0  0  0  0
  144.2121  133.9840  151.4745 C   0  0  0  0  0  0  0  0  0  0  0  0
  144.0684  132.4563  151.3918 C   0  0  0  0  0  0  0  0  0  0  0  0
  145.2743  131.7462  152.0241 C   0  0  0  0  0  0  0  0  0  0  0  0
  146.5943  132.2179  151.3889 C   0  0  0  0  0  0  0  0  0  0  0  0
  146.7569  133.7502  151.4479 C   0  0  2  0  0  0  0  0  0  0  0  0
  146.9743  134.1743  152.8301 N   0  0  0  0  0  0  0  0  0  0  0  0
  147.9359  133.7381  153.6586 C   0  0  0  0  0  0  0  0  0  0  0  0
  148.7169  132.8273  153.3858 O   0  0  0  0  0  0  0  0  0  0  0  0
  148.0532  134.4755  154.9924 C   0  0  0  0  0  0  0  0  0  0  0  0
  149.2436  135.3072  155.0081 N   0  0  0  0  0  0  0  0  0  0  0  0
  150.5369  134.9701  155.0514 C   0  0  0  0  0  0  0  0  0  0  0  0
  151.3661  136.0054  155.0012 N   0  0  0  0  0  0  0  0  0  0  0  0
  150.4460  137.0103  154.9231 C   0  0  0  0  0  0  0  0  0  0  0  0
  150.8484  138.4027  154.8241 C   0  0  0  0  0  0  0  0  0  0  0  0
  151.1691  139.5118  154.7460 N   0  0  0  0  0  0  0  0  0  0  0  0
  149.1622  136.6586  154.9287 N   0  0  0  0  0  0  0  0  0  0  0  0
  145.5961  136.3848  151.8890 H   0  0  0  0  0  0  0  0  0  0  0  0
  144.8213  136.4640  150.3138 H   0  0  0  0  0  0  0  0  0  0  0  0
  146.5728  136.3405  150.4230 H   0  0  0  0  0  0  0  0  0  0  0  0
  145.4938  134.1833  149.7764 H   0  0  0  0  0  0  0  0  0  0  0  0
  144.1700  134.2989  152.5183 H   0  0  0  0  0  0  0  0  0  0  0  0
  143.3619  134.4548  150.9801 H   0  0  0  0  0  0  0  0  0  0  0  0
  143.1500  132.1426  151.8887 H   0  0  0  0  0  0  0  0  0  0  0  0
  143.9733  132.1552  150.3478 H   0  0  0  0  0  0  0  0  0  0  0  0
  145.2897  131.9371  153.0978 H   0  0  0  0  0  0  0  0  0  0  0  0
  145.1723  130.6670  151.9066 H   0  0  0  0  0  0  0  0  0  0  0  0
  147.4390  131.7301  151.8770 H   0  0  0  0  0  0  0  0  0  0  0  0
  146.6213  131.8969  150.3470 H   0  0  0  0  0  0  0  0  0  0  0  0
  147.6341  134.0059  150.8510 H   0  0  0  0  0  0  0  0  0  0  0  0
  146.3850  134.9248  153.1614 H   0  0  0  0  0  0  0  0  0  0  0  0
  147.1706  135.0951  155.1580 H   0  0  0  0  0  0  0  0  0  0  0  0
  148.1102  133.7616  155.8153 H   0  0  0  0  0  0  0  0  0  0  0  0
  150.8771  133.9463  155.1055 H   0  0  0  0  0  0  0  0  0  0  0  0
  1  2  1  0  0  0  0
  1 19  1  0  0  0  0
  1 20  1  0  0  0  0
  1 21  1  0  0  0  0
  2  7  1  0  0  0  0
  2  3  1  0  0  0  0
  2 22  1  0  0  0  0
  3  4  1  0  0  0  0
  3 23  1  0  0  0  0
  3 24  1  0  0  0  0
  4  5  1  0  0  0  0
  4 25  1  0  0  0  0
  4 26  1  0  0  0  0
  5  6  1  0  0  0  0
  5 27  1  0  0  0  0
  5 28  1  0  0  0  0
  6  7  1  0  0  0  0
  6 29  1  0  0  0  0
  6 30  1  0  0  0  0
  7  8  1  0  0  0  0
  7 31  1  0  0  0  0
  8  9  1  0  0  0  0
  8 32  1  0  0  0  0
  9 10  2  0  0  0  0
  9 11  1  0  0  0  0
 11 12  1  0  0  0  0
 11 33  1  0  0  0  0
 11 34  1  0  0  0  0
 12 18  1  0  0  0  0
 12 13  1  0  0  0  0
 13 14  2  0  0  0  0
 13 35  1  0  0  0  0
 14 15  1  0  0  0  0
 15 16  1  0  0  0  0
 15 18  2  0  0  0  0
 16 17  3  0  0  0  0
M  END
> <s_m_source_file>
AV-unprocessed.smi

> <i_m_source_file_index>
295

> <i_lp_mmshare_version>
43012

> <i_f3d_flags>
0

> <s_epik_input>
W0NIM11bQ0BASF0xW0NIMl1bQ0gyXVtDSDJdW0NIMl1bQ0BIXTFbTkhdQyg9TylbQ0gyXW4yW2NIXW5jKG4yKUMjTg==

> <s_epik_cmdline>
J2VwaWtfcHl0aG9uJywgJy1waCcsICc3LjAnLCAnLXRuJywgJzgnLCAnLW1hJywgJzIwMCcsICctbWV0YWxfYmluZGluZycsICctaW1hZScsICc8aW5maWxlLm1hZT4nLCAnLW9tYWUnLCAnPG91dGZpbGUubWFlPic=

> <r_lp_tautomer_probability>
1

> <r_epik_Ionization_Penalty>
5.31112e-08

> <r_epik_Ionization_Penalty_Charging>
0

> <r_epik_Ionization_Penalty_Neutral>
5.31112e-08

> <r_epik_State_Penalty>
-0

> <r_epik_Charging_Adjusted_Penalty>
0

> <i_epik_Tot_Q>
0

> <i_epik_Tot_abs_Q>
0

> <r_epik_Metal_State_Penalty>
-0

> <b_epik_Metal_Only>
0

> <s_lp_Force_Field>
OPLS_2005

> <r_lp_Energy>
12.1326

> <b_lp_Chiralities_Consistent>
1

> <s_lp_Variant>
AV-unprocessed.smi:295-3

> <Gold.Version>
5.8.1

> <Gold.Id.Protein>
6NUR|6NUR_protein|mol2

> <Gold.PLP.Fitness>
34.7795

> <Gold.PLP.PLP>
-29.2549

> <Gold.PLP.part.hbond>
-3.0000

> <Gold.PLP.part.metal>
0.0000

> <Gold.PLP.part.buried>
-2.2963

> <Gold.PLP.part.nonpolar>
-24.0352

> <Gold.PLP.part.repulsive>
0.9345

> <Gold.PLP.ligand.clash>
0.0000

> <Gold.PLP.ligand.torsion>
0.2444

> <Gold.PLP.Chemscore.Hbond>
2.0000

> <Gold.PLP.Chemscore.CHOScore>
0.0000

> <Gold.PLP.Chemscore.Metal>
0.0000

> <Gold.Chemscore.Hbonds>
donor molecule, donor type, donor heavy atom, donor atom, acceptor molecule, acceptor atom, score
      P1  H  7989  7998       L1    17  1.00
      P1  H 10752 10763       L1    14  1.00

> <Gold.PLP.Chemscore.Internal.Correction>
0.0134

> <Gold.Rescore>
     Score         DG    S(hbond)    S(metal)    S(lipo)     H(rot)  DE(clash)    DE(int)     intcor
     11.29     -12.57       1.98        0.00      46.63       1.95       0.02       1.25       ----

> <Gold.Chemscore.Fitness>
11.2949

> <Gold.Chemscore.DG>
-12.5694

> <Gold.Chemscore.ZeroCoef>
-5.4800

> <Gold.Chemscore.Hbond>
1.9817

> <Gold.Chemscore.Metal>
0.0000

> <Gold.Chemscore.Lipo>
46.6307

> <Gold.Chemscore.Internal_Hbond>
0.0000

> <Gold.Chemscore.DEClash>
0.0199

> <Gold.Chemscore.DEInternal>
1.2546

> <Gold.Chemscore.Rot>
1.9474

> <Gold.Chemscore.Internal.Correction>
   9.000000E+99

> <Gold.Chemscore.Hbonds>
donor molecule, donor type, donor heavy atom, donor atom, acceptor molecule, acceptor atom, score
      P1  H  7989  7998       L1    17  1.00
      P1  H 10752 10763       L1    14  0.79

> <Gold.Chemscore.Hbond.Weighted>
-6.6188

> <Gold.Chemscore.Metal.Weighted>
-0.0000

> <Gold.Chemscore.Lipo.Weighted>
-5.4558

> <Gold.Chemscore.Internal_Hbond.Weighted>
0.0000

> <Gold.Chemscore.DEClash.Weighted>
0.0199

> <Gold.Chemscore.DEInternal.Weighted>
1.2546

> <Gold.Chemscore.Rot.Weighted>
4.9852

> <Gold.Chemscore.Internal.Correction.Weighted>
   9.000000E+99

> <Gold.Protein.RotatedTorsions>
[ 6907 6896 6895 6894 ] final   33.17 input  -60.11 | X-H torsion
[ 7974 7965 7964 7962 ] final  -88.27 input  175.53 | X-H torsion
[ 8008 7997 7996 7995 ] final   36.40 input   59.86 | X-H torsion
[ 10167 10162 10161 10158 ] final -127.16 input  -65.29 | X-H torsion
[ 10718 10713 10712 10709 ] final   87.62 input   66.30 | X-H torsion
[ 10763 10752 10751 10750 ] final   79.58 input  -60.55 | X-H torsion
[ 11005 11000 10999 10996 ] final  -38.62 input  -57.11 | X-H torsion

> <Gold.Protein.ActiveResidues>
 VAL166  LYS551  ARG553  GLY616  TRP617  ASP618  TYR619  PRO620  LYS621  CYS622 
 ASP623  PHE694  ASN695  SER759  ASP760  ASP761  ALA762  ILE779  LEU786  VAL792 
 PHE793  MET794  SER795  GLU796  ALA797  LYS798  CYS799  TRP800  GLU811  SER814 

> <Gold.Protein.RotatedAtoms>
  152.0847  134.9448  160.0572 H   0  0  0  0  0  0  0  0  0  0  0  0  # atno 6907 bound_to 6896
  152.0722  133.4107  159.4472 H   0  0  0  0  0  0  0  0  0  0  0  0  # atno 6908 bound_to 6896
  150.6836  134.2998  159.4745 H   0  0  0  0  0  0  0  0  0  0  0  0  # atno 6909 bound_to 6896
  145.4555  140.9561  143.1999 H   0  0  0  0  0  0  0  0  0  0  0  0  # atno 7974 bound_to 7965
  155.1868  140.3304  155.4365 H   0  0  0  0  0  0  0  0  0  0  0  0  # atno 8008 bound_to 7997
  156.2457  140.1917  156.6913 H   0  0  0  0  0  0  0  0  0  0  0  0  # atno 8009 bound_to 7997
  154.6233  140.0592  156.9628 H   0  0  0  0  0  0  0  0  0  0  0  0  # atno 8010 bound_to 7997
  139.9638  143.5920  152.2436 H   0  0  0  0  0  0  0  0  0  0  0  0  # atno 10167 bound_to 10162
  157.6942  131.0263  150.3151 H   0  0  0  0  0  0  0  0  0  0  0  0  # atno 10718 bound_to 10713
  153.0964  135.4834  154.8786 H   0  0  0  0  0  0  0  0  0  0  0  0  # atno 10763 bound_to 10752
  154.7329  135.3064  154.8863 H   0  0  0  0  0  0  0  0  0  0  0  0  # atno 10764 bound_to 10752
  153.9493  135.6825  153.4797 H   0  0  0  0  0  0  0  0  0  0  0  0  # atno 10765 bound_to 10752
  141.0041  133.6940  156.2077 H   0  0  0  0  0  0  0  0  0  0  0  0  # atno 11005 bound_to 11000
  144.8035  139.6095  143.7061 LP  0  0  0  0  0  0  0  0  0  0  0  0  # atno 17320 bound_to 7965
  146.2481  139.6140  142.9446 LP  0  0  0  0  0  0  0  0  0  0  0  0  # atno 17321 bound_to 7965
  139.6533  144.7661  151.2105 LP  0  0  0  0  0  0  0  0  0  0  0  0  # atno 17342 bound_to 10162
  140.7544  143.6126  150.8591 LP  0  0  0  0  0  0  0  0  0  0  0  0  # atno 17343 bound_to 10162
  156.3647  130.3853  149.7223 LP  0  0  0  0  0  0  0  0  0  0  0  0  # atno 17370 bound_to 10713
  156.4658  130.7973  151.2992 LP  0  0  0  0  0  0  0  0  0  0  0  0  # atno 17371 bound_to 10713
  140.6841  134.4735  157.5589 LP  0  0  0  0  0  0  0  0  0  0  0  0  # atno 17394 bound_to 11000
  139.9054  134.8461  156.1728 LP  0  0  0  0  0  0  0  0  0  0  0  0  # atno 17395 bound_to 11000

$$$$
