AV-unprocessed.smi:3212|AV-procd|sdf|12278|dock1
  -GOLD-   2272018113D 1   1.00000     0.00000
 Structure written by MMmdl.
 40 40  0  0  0  0  0  0  0  0  2 V2000
  146.4393  138.3675  151.3577 C   0  0  0  0  0  0  0  0  0  0  0  0
  146.1988  137.8024  152.7657 C   0  0  2  0  0  0  0  0  0  0  0  0
  144.7476  137.8009  153.0602 N   0  3  0  0  0  0  0  0  0  0  0  0
  143.9531  136.7901  152.3273 C   0  0  0  0  0  0  0  0  0  0  0  0
  144.1951  135.3748  152.8762 C   0  0  0  0  0  0  0  0  0  0  0  0
  144.0842  134.3575  151.8459 N   0  0  0  0  0  0  0  0  0  0  0  0
  143.2669  133.2468  151.8236 C   0  0  0  0  0  0  0  0  0  0  0  0
  143.5149  132.5832  150.6564 C   0  0  0  0  0  0  0  0  0  0  0  0
  144.5113  133.3758  150.0214 C   0  0  0  0  0  0  0  0  0  0  0  0
  144.8507  134.4366  150.7364 N   0  0  0  0  0  0  0  0  0  0  0  0
  146.9956  138.6105  153.7995 C   0  0  0  0  0  0  0  0  0  0  0  0
  146.4052  139.2788  154.6487 O   0  0  0  0  0  0  0  0  0  0  0  0
  148.3350  138.5407  153.6978 N   0  0  0  0  0  0  0  0  0  0  0  0
  149.3495  139.1960  154.5318 C   0  0  0  0  0  0  0  0  0  0  0  0
  149.0721  138.7740  155.9855 C   0  0  0  0  0  0  0  0  0  0  0  0
  149.2357  140.7313  154.4252 C   0  0  0  0  0  0  0  0  0  0  0  0
  150.7653  138.7277  154.1354 C   0  0  0  0  0  0  0  0  0  0  0  0
  147.4990  138.3560  151.0990 H   0  0  0  0  0  0  0  0  0  0  0  0
  146.0879  139.3968  151.2735 H   0  0  0  0  0  0  0  0  0  0  0  0
  145.9152  137.7769  150.6057 H   0  0  0  0  0  0  0  0  0  0  0  0
  146.5486  136.7685  152.7782 H   0  0  0  0  0  0  0  0  0  0  0  0
  144.6200  137.6664  154.0532 H   0  0  0  0  0  0  0  0  0  0  0  0
  142.8920  137.0356  152.3892 H   0  0  0  0  0  0  0  0  0  0  0  0
  144.2247  136.8179  151.2717 H   0  0  0  0  0  0  0  0  0  0  0  0
  145.1963  135.3139  153.3046 H   0  0  0  0  0  0  0  0  0  0  0  0
  143.4976  135.1452  153.6832 H   0  0  0  0  0  0  0  0  0  0  0  0
  142.5849  133.0226  152.6308 H   0  0  0  0  0  0  0  0  0  0  0  0
  143.0541  131.6707  150.3082 H   0  0  0  0  0  0  0  0  0  0  0  0
  144.9955  133.2123  149.0699 H   0  0  0  0  0  0  0  0  0  0  0  0
  148.6999  137.9668  152.9512 H   0  0  0  0  0  0  0  0  0  0  0  0
  149.7888  139.2238  156.6737 H   0  0  0  0  0  0  0  0  0  0  0  0
  149.1385  137.6919  156.1060 H   0  0  0  0  0  0  0  0  0  0  0  0
  148.0755  139.0800  156.3061 H   0  0  0  0  0  0  0  0  0  0  0  0
  148.2273  141.0731  154.6618 H   0  0  0  0  0  0  0  0  0  0  0  0
  149.4812  141.0937  153.4272 H   0  0  0  0  0  0  0  0  0  0  0  0
  149.9186  141.2234  155.1186 H   0  0  0  0  0  0  0  0  0  0  0  0
  151.5167  139.1369  154.8115 H   0  0  0  0  0  0  0  0  0  0  0  0
  151.0366  139.0458  153.1286 H   0  0  0  0  0  0  0  0  0  0  0  0
  150.8495  137.6409  154.1720 H   0  0  0  0  0  0  0  0  0  0  0  0
  144.3798  138.7084  152.8112 H   0  0  0  0  0  0  0  0  0  0  0  0
  1  2  1  0  0  0  0
  1 18  1  0  0  0  0
  1 19  1  0  0  0  0
  1 20  1  0  0  0  0
  2  3  1  0  0  0  0
  2 11  1  0  0  0  0
  2 21  1  0  0  0  0
  3  4  1  0  0  0  0
  3 22  1  0  0  0  0
  3 40  1  0  0  0  0
  4  5  1  0  0  0  0
  4 23  1  0  0  0  0
  4 24  1  0  0  0  0
  5  6  1  0  0  0  0
  5 25  1  0  0  0  0
  5 26  1  0  0  0  0
  6 10  1  0  0  0  0
  6  7  1  0  0  0  0
  7  8  2  0  0  0  0
  7 27  1  0  0  0  0
  8  9  1  0  0  0  0
  8 28  1  0  0  0  0
  9 10  2  0  0  0  0
  9 29  1  0  0  0  0
 11 12  2  0  0  0  0
 11 13  1  0  0  0  0
 13 14  1  0  0  0  0
 13 30  1  0  0  0  0
 14 15  1  0  0  0  0
 14 16  1  0  0  0  0
 14 17  1  0  0  0  0
 15 31  1  0  0  0  0
 15 32  1  0  0  0  0
 15 33  1  0  0  0  0
 16 34  1  0  0  0  0
 16 35  1  0  0  0  0
 16 36  1  0  0  0  0
 17 37  1  0  0  0  0
 17 38  1  0  0  0  0
 17 39  1  0  0  0  0
M  CHG  1   3   1
M  END
> <s_m_source_file>
AV-unprocessed.smi

> <i_m_source_file_index>
3212

> <i_lp_mmshare_version>
43012

> <i_f3d_flags>
0

> <s_epik_input>
W0NIM11DKFtDSDNdKShbQ0gzXSlbTkhdQyg9TylbQ0BIXShbQ0gzXSlbTkhdW0NIMl1bQ0gyXW4xW2NIXVtjSF1bY0hdbjE=

> <s_epik_cmdline>
J2VwaWtfcHl0aG9uJywgJy1waCcsICc3LjAnLCAnLXRuJywgJzgnLCAnLW1hJywgJzIwMCcsICctbWV0YWxfYmluZGluZycsICctaW1hZScsICc8aW5maWxlLm1hZT4nLCAnLW9tYWUnLCAnPG91dGZpbGUubWFlPic=

> <r_lp_tautomer_probability>
1

> <r_epik_Ionization_Penalty>
0.198377

> <r_epik_Ionization_Penalty_Charging>
0.198374

> <r_epik_Ionization_Penalty_Neutral>
3.0924e-06

> <r_epik_State_Penalty>
0.188176

> <r_epik_Charging_Adjusted_Penalty>
0.38655

> <i_epik_Tot_Q>
1

> <i_epik_Tot_abs_Q>
1

> <r_epik_Metal_State_Penalty>
0.188456

> <b_epik_Metal_Only>
0

> <s_lp_Force_Field>
OPLS_2005

> <r_lp_Energy>
6.00749

> <b_lp_Chiralities_Consistent>
1

> <s_lp_Variant>
AV-unprocessed.smi:3212-1

> <Gold.Version>
5.8.1

> <Gold.Id.Protein>
6NUR|6NUR_protein|mol2

> <Gold.PLP.Fitness>
43.1549

> <Gold.PLP.PLP>
-28.8507

> <Gold.PLP.part.hbond>
-2.4799

> <Gold.PLP.part.metal>
0.0000

> <Gold.PLP.part.buried>
-0.3058

> <Gold.PLP.part.nonpolar>
-26.5326

> <Gold.PLP.part.repulsive>
0.3011

> <Gold.PLP.ligand.clash>
0.0000

> <Gold.PLP.ligand.torsion>
0.4629

> <Gold.PLP.Chemscore.Hbond>
3.0000

> <Gold.PLP.Chemscore.CHOScore>
2.0000

> <Gold.PLP.Chemscore.Metal>
0.0000

> <Gold.Chemscore.Hbonds>
donor molecule, donor type, donor heavy atom, donor atom, acceptor molecule, acceptor atom, score
      L1  H     3    40       P1 10175  2.00
      L1  H    13    30       P1  7948  0.98
      L1  C     7    27       P1 10957  1.00
      L1  C     9    29       P1  7921  1.00

> <Gold.PLP.Chemscore.Internal.Correction>
0.2299

> <Gold.Rescore>
     Score         DG    S(hbond)    S(metal)    S(lipo)     H(rot)  DE(clash)    DE(int)     intcor
     14.71     -15.27       1.98        0.00      72.24       2.07       0.12       0.45       ----

> <Gold.Chemscore.Fitness>
14.7067

> <Gold.Chemscore.DG>
-15.2712

> <Gold.Chemscore.ZeroCoef>
-5.4800

> <Gold.Chemscore.Hbond>
1.9843

> <Gold.Chemscore.Metal>
0.0000

> <Gold.Chemscore.Lipo>
72.2407

> <Gold.Chemscore.Internal_Hbond>
0.0000

> <Gold.Chemscore.DEClash>
0.1163

> <Gold.Chemscore.DEInternal>
0.4482

> <Gold.Chemscore.Rot>
2.0659

> <Gold.Chemscore.Internal.Correction>
   9.000000E+99

> <Gold.Chemscore.Hbonds>
donor molecule, donor type, donor heavy atom, donor atom, acceptor molecule, acceptor atom, score
      L1  H     3    40       P1 10175  1.00
      L1  H    13    30       P1  7948  0.90

> <Gold.Chemscore.Hbond.Weighted>
-6.6277

> <Gold.Chemscore.Metal.Weighted>
-0.0000

> <Gold.Chemscore.Lipo.Weighted>
-8.4522

> <Gold.Chemscore.Internal_Hbond.Weighted>
0.0000

> <Gold.Chemscore.DEClash.Weighted>
0.1163

> <Gold.Chemscore.DEInternal.Weighted>
0.4482

> <Gold.Chemscore.Rot.Weighted>
5.2886

> <Gold.Chemscore.Internal.Correction.Weighted>
   9.000000E+99

> <Gold.Protein.RotatedTorsions>
[ 6907 6896 6895 6894 ] final -114.61 input  -60.11 | X-H torsion
[ 7974 7965 7964 7962 ] final -118.24 input  175.53 | X-H torsion
[ 8008 7997 7996 7995 ] final  151.30 input   59.86 | X-H torsion
[ 10167 10162 10161 10158 ] final  -39.16 input  -65.29 | X-H torsion
[ 10718 10713 10712 10709 ] final -143.89 input   66.30 | X-H torsion
[ 10763 10752 10751 10750 ] final  159.74 input  -60.55 | X-H torsion
[ 11005 11000 10999 10996 ] final  -95.34 input  -57.11 | X-H torsion

> <Gold.Protein.ActiveResidues>
 VAL166  LYS551  ARG553  GLY616  TRP617  ASP618  TYR619  PRO620  LYS621  CYS622 
 ASP623  PHE694  ASN695  SER759  ASP760  ASP761  ALA762  ILE779  LEU786  VAL792 
 PHE793  MET794  SER795  GLU796  ALA797  LYS798  CYS799  TRP800  GLU811  SER814 

> <Gold.Protein.RotatedAtoms>
  150.7915  133.8777  159.3276 H   0  0  0  0  0  0  0  0  0  0  0  0  # atno 6907 bound_to 6896
  151.6613  135.0987  160.0189 H   0  0  0  0  0  0  0  0  0  0  0  0  # atno 6908 bound_to 6896
  152.3990  133.6750  159.6335 H   0  0  0  0  0  0  0  0  0  0  0  0  # atno 6909 bound_to 6896
  145.0760  140.8393  143.4067 H   0  0  0  0  0  0  0  0  0  0  0  0  # atno 7974 bound_to 7965
  156.2680  140.2051  156.6153 H   0  0  0  0  0  0  0  0  0  0  0  0  # atno 8008 bound_to 7997
  154.6799  140.0541  157.0279 H   0  0  0  0  0  0  0  0  0  0  0  0  # atno 8009 bound_to 7997
  155.1015  140.3206  155.4548 H   0  0  0  0  0  0  0  0  0  0  0  0  # atno 8010 bound_to 7997
  140.7072  143.3231  151.2744 H   0  0  0  0  0  0  0  0  0  0  0  0  # atno 10167 bound_to 10162
  156.3634  130.7750  151.1921 H   0  0  0  0  0  0  0  0  0  0  0  0  # atno 10718 bound_to 10713
  154.2365  135.2776  155.2870 H   0  0  0  0  0  0  0  0  0  0  0  0  # atno 10763 bound_to 10752
  154.5580  135.5655  153.6985 H   0  0  0  0  0  0  0  0  0  0  0  0  # atno 10764 bound_to 10752
  153.0009  135.6291  154.2508 H   0  0  0  0  0  0  0  0  0  0  0  0  # atno 10765 bound_to 10752
  141.1444  133.8019  157.0422 H   0  0  0  0  0  0  0  0  0  0  0  0  # atno 11005 bound_to 11000
  145.1235  139.2678  143.5576 LP  0  0  0  0  0  0  0  0  0  0  0  0  # atno 17320 bound_to 7965
  146.3530  140.0865  142.8615 LP  0  0  0  0  0  0  0  0  0  0  0  0  # atno 17321 bound_to 7965
  139.6691  144.0051  152.2742 LP  0  0  0  0  0  0  0  0  0  0  0  0  # atno 17342 bound_to 10162
  139.9644  144.6536  150.8048 LP  0  0  0  0  0  0  0  0  0  0  0  0  # atno 17343 bound_to 10162
  157.7476  131.0393  150.4545 LP  0  0  0  0  0  0  0  0  0  0  0  0  # atno 17370 bound_to 10713
  156.4760  130.4063  149.6490 LP  0  0  0  0  0  0  0  0  0  0  0  0  # atno 17371 bound_to 10713
  140.0685  134.9715  157.1427 LP  0  0  0  0  0  0  0  0  0  0  0  0  # atno 17394 bound_to 11000
  140.3744  134.2355  155.7175 LP  0  0  0  0  0  0  0  0  0  0  0  0  # atno 17395 bound_to 11000

$$$$
