AV-unprocessed.smi:3018|AV-procd|sdf|11480|dock6
  -GOLD-   2272016413D 1   1.00000     0.00000
 Structure written by MMmdl.
 45 46  0  0  0  0  0  0  0  0  1 V2000
  152.2151  139.4682  155.9600 C   0  0  0  0  0  0  0  0  0  0  0  0
  152.8143  139.1888  157.3487 C   0  0  0  0  0  0  0  0  0  0  0  0
  151.8036  139.1181  158.5139 C   0  0  1  0  0  0  0  0  0  0  0  0
  151.0311  140.3214  158.5043 O   0  0  0  0  0  0  0  0  0  0  0  0
  151.7272  141.5693  158.5188 C   0  0  0  0  0  0  0  0  0  0  0  0
  152.4429  141.6641  159.8775 C   0  0  0  0  0  0  0  0  0  0  0  0
  153.1768  143.0046  160.0403 C   0  0  0  0  0  0  0  0  0  0  0  0
  152.2204  144.1902  159.8410 C   0  0  0  0  0  0  0  0  0  0  0  0
  151.5012  144.1021  158.4861 C   0  0  0  0  0  0  0  0  0  0  0  0
  150.7662  142.7612  158.3277 C   0  0  0  0  0  0  0  0  0  0  0  0
  150.8923  137.8794  158.4499 C   0  0  0  0  0  0  0  0  0  0  0  0
  151.3702  136.7473  158.5259 O   0  0  0  0  0  0  0  0  0  0  0  0
  149.5877  138.1162  158.2417 N   0  0  0  0  0  0  0  0  0  0  0  0
  148.5669  137.0996  157.9994 C   0  0  0  0  0  0  0  0  0  0  0  0
  148.6916  135.9202  158.9879 C   0  0  0  0  0  0  0  0  0  0  0  0
  147.5950  135.8301  160.0414 C   0  0  0  0  0  0  0  0  0  0  0  0
  147.1093  136.7809  160.7595 N   0  0  0  0  0  0  0  0  0  0  0  0
  146.1719  136.1167  161.4799 N   0  0  0  0  0  0  0  0  0  0  0  0
  146.0861  134.8102  161.2031 C   0  0  0  0  0  0  0  0  0  0  0  0
  145.3171  133.9862  161.6916 O   0  0  0  0  0  0  0  0  0  0  0  0
  147.0131  134.6086  160.2757 N   0  0  0  0  0  0  0  0  0  0  0  0
  145.6091  136.6262  162.1458 H   0  0  0  0  0  0  0  0  0  0  0  0
  147.2350  133.7414  159.8083 H   0  0  0  0  0  0  0  0  0  0  0  0
  153.0065  139.5956  155.2211 H   0  0  0  0  0  0  0  0  0  0  0  0
  151.6164  140.3795  155.9609 H   0  0  0  0  0  0  0  0  0  0  0  0
  151.5840  138.6491  155.6168 H   0  0  0  0  0  0  0  0  0  0  0  0
  153.3842  138.2596  157.3077 H   0  0  0  0  0  0  0  0  0  0  0  0
  153.5414  139.9698  157.5730 H   0  0  0  0  0  0  0  0  0  0  0  0
  152.3839  139.0790  159.4359 H   0  0  0  0  0  0  0  0  0  0  0  0
  152.4906  141.5990  157.7430 H   0  0  0  0  0  0  0  0  0  0  0  0
  151.7174  141.5474  160.6836 H   0  0  0  0  0  0  0  0  0  0  0  0
  153.1525  140.8424  159.9790 H   0  0  0  0  0  0  0  0  0  0  0  0
  153.6358  143.0592  161.0277 H   0  0  0  0  0  0  0  0  0  0  0  0
  153.9917  143.0664  159.3189 H   0  0  0  0  0  0  0  0  0  0  0  0
  151.4838  144.2040  160.6452 H   0  0  0  0  0  0  0  0  0  0  0  0
  152.7719  145.1283  159.9098 H   0  0  0  0  0  0  0  0  0  0  0  0
  150.7949  144.9265  158.3858 H   0  0  0  0  0  0  0  0  0  0  0  0
  152.2265  144.2178  157.6800 H   0  0  0  0  0  0  0  0  0  0  0  0
  150.3038  142.7297  157.3418 H   0  0  0  0  0  0  0  0  0  0  0  0
  149.9557  142.6996  159.0549 H   0  0  0  0  0  0  0  0  0  0  0  0
  149.2890  139.0795  158.1892 H   0  0  0  0  0  0  0  0  0  0  0  0
  147.5594  137.5184  158.0183 H   0  0  0  0  0  0  0  0  0  0  0  0
  148.7129  136.7287  156.9847 H   0  0  0  0  0  0  0  0  0  0  0  0
  148.7064  134.9821  158.4326 H   0  0  0  0  0  0  0  0  0  0  0  0
  149.6551  135.9830  159.4957 H   0  0  0  0  0  0  0  0  0  0  0  0
  1  2  1  0  0  0  0
  1 24  1  0  0  0  0
  1 25  1  0  0  0  0
  1 26  1  0  0  0  0
  2  3  1  0  0  0  0
  2 27  1  0  0  0  0
  2 28  1  0  0  0  0
  3  4  1  0  0  0  0
  3 11  1  0  0  0  0
  3 29  1  0  0  0  0
  4  5  1  0  0  0  0
  5 10  1  0  0  0  0
  5  6  1  0  0  0  0
  5 30  1  0  0  0  0
  6  7  1  0  0  0  0
  6 31  1  0  0  0  0
  6 32  1  0  0  0  0
  7  8  1  0  0  0  0
  7 33  1  0  0  0  0
  7 34  1  0  0  0  0
  8  9  1  0  0  0  0
  8 35  1  0  0  0  0
  8 36  1  0  0  0  0
  9 10  1  0  0  0  0
  9 37  1  0  0  0  0
  9 38  1  0  0  0  0
 10 39  1  0  0  0  0
 10 40  1  0  0  0  0
 11 12  2  0  0  0  0
 11 13  1  0  0  0  0
 13 14  1  0  0  0  0
 13 41  1  0  0  0  0
 14 15  1  0  0  0  0
 14 42  1  0  0  0  0
 14 43  1  0  0  0  0
 15 16  1  0  0  0  0
 15 44  1  0  0  0  0
 15 45  1  0  0  0  0
 16 21  1  0  0  0  0
 16 17  2  0  0  0  0
 17 18  1  0  0  0  0
 18 22  1  0  0  0  0
 18 19  1  0  0  0  0
 19 20  2  0  0  0  0
 19 21  1  0  0  0  0
 21 23  1  0  0  0  0
M  END
> <s_m_source_file>
AV-unprocessed.smi

> <i_m_source_file_index>
3018

> <i_lp_mmshare_version>
43012

> <i_f3d_flags>
0

> <s_epik_input>
W0NIMl0xW0NIMl1bQ0gyXVtDSDJdW0NIMl1bQ0hdMU9bQ0BASF0oW0NIMl1bQ0gzXSlDKD1PKVtOSF1bQ0gyXVtDSDJdYzJuW25IXWMoPU8pW25IXTI=

> <s_epik_cmdline>
J2VwaWtfcHl0aG9uJywgJy1waCcsICc3LjAnLCAnLXRuJywgJzgnLCAnLW1hJywgJzIwMCcsICctbWV0YWxfYmluZGluZycsICctaW1hZScsICc8aW5maWxlLm1hZT4nLCAnLW9tYWUnLCAnPG91dGZpbGUubWFlPic=

> <r_lp_tautomer_probability>
1

> <r_epik_Ionization_Penalty>
0.000773817

> <r_epik_Ionization_Penalty_Charging>
0.000773741

> <r_epik_Ionization_Penalty_Neutral>
7.58514e-08

> <r_epik_State_Penalty>
-0

> <r_epik_Charging_Adjusted_Penalty>
0.000773741

> <i_epik_Tot_Q>
0

> <i_epik_Tot_abs_Q>
0

> <r_epik_Metal_State_Penalty>
0.495152

> <b_epik_Metal_Only>
0

> <s_lp_Force_Field>
OPLS_2005

> <r_lp_Energy>
29.5576

> <b_lp_Chiralities_Consistent>
1

> <s_lp_Variant>
AV-unprocessed.smi:3018-2

> <Gold.Version>
5.8.1

> <Gold.Id.Protein>
6NUR|6NUR_protein|mol2

> <Gold.PLP.Fitness>
47.1339

> <Gold.PLP.PLP>
-40.1471

> <Gold.PLP.part.hbond>
-4.0000

> <Gold.PLP.part.metal>
0.0000

> <Gold.PLP.part.buried>
-5.9616

> <Gold.PLP.part.nonpolar>
-31.9125

> <Gold.PLP.part.repulsive>
0.3978

> <Gold.PLP.ligand.clash>
0.0000

> <Gold.PLP.ligand.torsion>
0.7231

> <Gold.PLP.Chemscore.Hbond>
2.7680

> <Gold.PLP.Chemscore.CHOScore>
0.0000

> <Gold.PLP.Chemscore.Metal>
0.0000

> <Gold.Chemscore.Hbonds>
donor molecule, donor type, donor heavy atom, donor atom, acceptor molecule, acceptor atom, score
      P1  H  6896  6909       L1    12  0.62
      P1  H  6934  6947       L1    17  0.46

> <Gold.PLP.Chemscore.Internal.Correction>
0.1290

> <Gold.Rescore>
     Score         DG    S(hbond)    S(metal)    S(lipo)     H(rot)  DE(clash)    DE(int)     intcor
     14.16     -16.18       2.47        0.00      87.55       3.04       0.06       1.96       ----

> <Gold.Chemscore.Fitness>
14.1623

> <Gold.Chemscore.DG>
-16.1829

> <Gold.Chemscore.ZeroCoef>
-5.4800

> <Gold.Chemscore.Hbond>
2.4651

> <Gold.Chemscore.Metal>
0.0000

> <Gold.Chemscore.Lipo>
87.5504

> <Gold.Chemscore.Internal_Hbond>
0.0000

> <Gold.Chemscore.DEClash>
0.0557

> <Gold.Chemscore.DEInternal>
1.9649

> <Gold.Chemscore.Rot>
3.0367

> <Gold.Chemscore.Internal.Correction>
   9.000000E+99

> <Gold.Chemscore.Hbonds>
donor molecule, donor type, donor heavy atom, donor atom, acceptor molecule, acceptor atom, score
      P1  H  6896  6909       L1    12  0.61
      P1  H  6934  6947       L1    17  0.44

> <Gold.Chemscore.Hbond.Weighted>
-8.2334

> <Gold.Chemscore.Metal.Weighted>
-0.0000

> <Gold.Chemscore.Lipo.Weighted>
-10.2434

> <Gold.Chemscore.Internal_Hbond.Weighted>
0.0000

> <Gold.Chemscore.DEClash.Weighted>
0.0557

> <Gold.Chemscore.DEInternal.Weighted>
1.9649

> <Gold.Chemscore.Rot.Weighted>
7.7739

> <Gold.Chemscore.Internal.Correction.Weighted>
   9.000000E+99

> <Gold.Protein.RotatedTorsions>
[ 6907 6896 6895 6894 ] final  103.67 input  -60.11 | X-H torsion
[ 7974 7965 7964 7962 ] final  -10.54 input  175.53 | X-H torsion
[ 8008 7997 7996 7995 ] final  -17.72 input   59.86 | X-H torsion
[ 10167 10162 10161 10158 ] final  -39.93 input  -65.29 | X-H torsion
[ 10718 10713 10712 10709 ] final  -26.91 input   66.30 | X-H torsion
[ 10763 10752 10751 10750 ] final -140.91 input  -60.55 | X-H torsion
[ 11005 11000 10999 10996 ] final -125.01 input  -57.11 | X-H torsion

> <Gold.Protein.ActiveResidues>
 VAL166  LYS551  ARG553  GLY616  TRP617  ASP618  TYR619  PRO620  LYS621  CYS622 
 ASP623  PHE694  ASN695  SER759  ASP760  ASP761  ALA762  ILE779  LEU786  VAL792 
 PHE793  MET794  SER795  GLU796  ALA797  LYS798  CYS799  TRP800  GLU811  SER814 

> <Gold.Protein.RotatedAtoms>
  152.5288  133.9791  159.7797 H   0  0  0  0  0  0  0  0  0  0  0  0  # atno 6907 bound_to 6896
  151.0048  133.6013  159.2697 H   0  0  0  0  0  0  0  0  0  0  0  0  # atno 6908 bound_to 6896
  151.3109  135.0800  159.9325 H   0  0  0  0  0  0  0  0  0  0  0  0  # atno 6909 bound_to 6896
  146.2217  140.2780  142.8360 H   0  0  0  0  0  0  0  0  0  0  0  0  # atno 7974 bound_to 7965
  154.4958  140.2135  155.9451 H   0  0  0  0  0  0  0  0  0  0  0  0  # atno 8008 bound_to 7997
  156.1368  140.3187  155.8401 H   0  0  0  0  0  0  0  0  0  0  0  0  # atno 8009 bound_to 7997
  155.4195  140.0496  157.3017 H   0  0  0  0  0  0  0  0  0  0  0  0  # atno 8010 bound_to 7997
  140.7049  143.3184  151.2852 H   0  0  0  0  0  0  0  0  0  0  0  0  # atno 10167 bound_to 10162
  156.4451  130.4472  149.7027 H   0  0  0  0  0  0  0  0  0  0  0  0  # atno 10718 bound_to 10713
  154.8563  135.3539  154.5784 H   0  0  0  0  0  0  0  0  0  0  0  0  # atno 10763 bound_to 10752
  153.6395  135.6999  153.5251 H   0  0  0  0  0  0  0  0  0  0  0  0  # atno 10764 bound_to 10752
  153.2983  135.4214  155.1188 H   0  0  0  0  0  0  0  0  0  0  0  0  # atno 10765 bound_to 10752
  140.9796  134.0692  157.3780 H   0  0  0  0  0  0  0  0  0  0  0  0  # atno 11005 bound_to 11000
  144.9218  140.7877  143.5743 LP  0  0  0  0  0  0  0  0  0  0  0  0  # atno 17320 bound_to 7965
  145.2717  139.1952  143.4838 LP  0  0  0  0  0  0  0  0  0  0  0  0  # atno 17321 bound_to 7965
  139.6630  144.0155  152.2705 LP  0  0  0  0  0  0  0  0  0  0  0  0  # atno 17342 bound_to 10162
  139.9729  144.6481  150.7972 LP  0  0  0  0  0  0  0  0  0  0  0  0  # atno 17343 bound_to 10162
  156.3876  130.7611  151.2609 LP  0  0  0  0  0  0  0  0  0  0  0  0  # atno 17370 bound_to 10713
  157.7505  131.0277  150.4018 LP  0  0  0  0  0  0  0  0  0  0  0  0  # atno 17371 bound_to 10713
  139.8945  135.0136  156.6952 LP  0  0  0  0  0  0  0  0  0  0  0  0  # atno 17394 bound_to 11000
  140.7207  133.9143  155.8144 LP  0  0  0  0  0  0  0  0  0  0  0  0  # atno 17395 bound_to 11000

$$$$
