AV-unprocessed.smi:1244|AV-procd|sdf|5225|dock4
  -GOLD-   22720 4323D 1   1.00000     0.00000
 Structure written by MMmdl.
 55 57  0  0  0  0  0  0  0  0  2 V2000
  147.6250  142.1442  155.2576 C   0  0  0  0  0  0  0  0  0  0  0  0
  146.7250  141.0694  154.6384 C   0  0  1  0  0  0  0  0  0  0  0  0
  147.2620  140.5716  153.2834 C   0  0  0  0  0  0  0  0  0  0  0  0
  146.4051  139.4857  152.7518 N   0  3  1  0  0  0  0  0  0  0  0  0
  146.8502  139.0117  151.4181 C   0  0  0  0  0  0  0  0  0  0  0  0
  146.0114  137.8235  150.9128 C   0  0  0  0  0  0  0  0  0  0  0  0
  146.5833  136.5527  151.3416 N   0  0  0  0  0  0  0  0  0  0  0  0
  145.9683  135.3660  151.2422 C   0  0  0  0  0  0  0  0  0  0  0  0
  144.8446  135.2251  150.7598 O   0  0  0  0  0  0  0  0  0  0  0  0
  146.7403  134.3770  151.7228 N   0  0  0  0  0  0  0  0  0  0  0  0
  146.4819  132.9764  151.7394 C   0  0  0  0  0  0  0  0  0  0  0  0
  145.3856  132.4098  151.0429 C   0  0  0  0  0  0  0  0  0  0  0  0
  145.1396  131.0301  151.1464 C   0  0  0  0  0  0  0  0  0  0  0  0
  145.9896  130.2626  151.9592 C   0  0  0  0  0  0  0  0  0  0  0  0
  147.0270  130.7876  152.6404 N   0  0  0  0  0  0  0  0  0  0  0  0
  147.2873  132.1143  152.5389 C   0  0  0  0  0  0  0  0  0  0  0  0
  148.3967  132.6032  153.2673 N   0  0  0  0  0  0  0  0  0  0  0  0
  148.2288  133.6805  154.2368 C   0  0  0  0  0  0  0  0  0  0  0  0
  149.5078  133.6668  155.0688 C   0  0  0  0  0  0  0  0  0  0  0  0
  149.8355  132.1785  155.1383 C   0  0  0  0  0  0  0  0  0  0  0  0
  149.3628  131.6381  153.7842 C   0  0  0  0  0  0  0  0  0  0  0  0
  146.2767  138.3955  153.7501 C   0  0  0  0  0  0  0  0  0  0  0  0
  145.7716  138.9498  155.0957 C   0  0  1  0  0  0  0  0  0  0  0  0
  145.7089  137.8674  156.1787 C   0  0  0  0  0  0  0  0  0  0  0  0
  146.6576  139.9713  155.5412 O   0  0  0  0  0  0  0  0  0  0  0  0
  147.7013  143.0150  154.6062 H   0  0  0  0  0  0  0  0  0  0  0  0
  148.6328  141.7651  155.4296 H   0  0  0  0  0  0  0  0  0  0  0  0
  147.2278  142.4805  156.2156 H   0  0  0  0  0  0  0  0  0  0  0  0
  145.7257  141.4885  154.5076 H   0  0  0  0  0  0  0  0  0  0  0  0
  147.2880  141.3996  152.5740 H   0  0  0  0  0  0  0  0  0  0  0  0
  148.2854  140.2079  153.3913 H   0  0  0  0  0  0  0  0  0  0  0  0
  146.7522  139.8239  150.6959 H   0  0  0  0  0  0  0  0  0  0  0  0
  147.9114  138.7595  151.4533 H   0  0  0  0  0  0  0  0  0  0  0  0
  144.9777  137.8892  151.2542 H   0  0  0  0  0  0  0  0  0  0  0  0
  145.9779  137.8294  149.8230 H   0  0  0  0  0  0  0  0  0  0  0  0
  147.5089  136.5786  151.7445 H   0  0  0  0  0  0  0  0  0  0  0  0
  147.6695  134.6425  152.0152 H   0  0  0  0  0  0  0  0  0  0  0  0
  144.7137  133.0102  150.4496 H   0  0  0  0  0  0  0  0  0  0  0  0
  144.3109  130.5741  150.6253 H   0  0  0  0  0  0  0  0  0  0  0  0
  145.8300  129.2005  152.0711 H   0  0  0  0  0  0  0  0  0  0  0  0
  148.0766  134.6401  153.7424 H   0  0  0  0  0  0  0  0  0  0  0  0
  147.3732  133.4882  154.8853 H   0  0  0  0  0  0  0  0  0  0  0  0
  150.3016  134.1996  154.5433 H   0  0  0  0  0  0  0  0  0  0  0  0
  149.3818  134.1243  156.0503 H   0  0  0  0  0  0  0  0  0  0  0  0
  150.8912  131.9827  155.3280 H   0  0  0  0  0  0  0  0  0  0  0  0
  149.2589  131.7146  155.9398 H   0  0  0  0  0  0  0  0  0  0  0  0
  148.9350  130.6393  153.8812 H   0  0  0  0  0  0  0  0  0  0  0  0
  150.2053  131.5808  153.0950 H   0  0  0  0  0  0  0  0  0  0  0  0
  145.5863  137.6330  153.3905 H   0  0  0  0  0  0  0  0  0  0  0  0
  147.2448  137.9101  153.8848 H   0  0  0  0  0  0  0  0  0  0  0  0
  144.7728  139.3713  154.9686 H   0  0  0  0  0  0  0  0  0  0  0  0
  145.0347  137.0610  155.8898 H   0  0  0  0  0  0  0  0  0  0  0  0
  145.3487  138.2793  157.1215 H   0  0  0  0  0  0  0  0  0  0  0  0
  146.6925  137.4330  156.3601 H   0  0  0  0  0  0  0  0  0  0  0  0
  145.4866  139.8870  152.6266 H   0  0  0  0  0  0  0  0  0  0  0  0
  1  2  1  0  0  0  0
  1 26  1  0  0  0  0
  1 27  1  0  0  0  0
  1 28  1  0  0  0  0
  2 25  1  0  0  0  0
  2  3  1  0  0  0  0
  2 29  1  0  0  0  0
  3  4  1  0  0  0  0
  3 30  1  0  0  0  0
  3 31  1  0  0  0  0
  4  5  1  0  0  0  0
  4 22  1  0  0  0  0
  4 55  1  0  0  0  0
  5  6  1  0  0  0  0
  5 32  1  0  0  0  0
  5 33  1  0  0  0  0
  6  7  1  0  0  0  0
  6 34  1  0  0  0  0
  6 35  1  0  0  0  0
  7  8  1  0  0  0  0
  7 36  1  0  0  0  0
  8  9  2  0  0  0  0
  8 10  1  0  0  0  0
 10 11  1  0  0  0  0
 10 37  1  0  0  0  0
 11 16  1  0  0  0  0
 11 12  2  0  0  0  0
 12 13  1  0  0  0  0
 12 38  1  0  0  0  0
 13 14  2  0  0  0  0
 13 39  1  0  0  0  0
 14 15  1  0  0  0  0
 14 40  1  0  0  0  0
 15 16  2  0  0  0  0
 16 17  1  0  0  0  0
 17 21  1  0  0  0  0
 17 18  1  0  0  0  0
 18 19  1  0  0  0  0
 18 41  1  0  0  0  0
 18 42  1  0  0  0  0
 19 20  1  0  0  0  0
 19 43  1  0  0  0  0
 19 44  1  0  0  0  0
 20 21  1  0  0  0  0
 20 45  1  0  0  0  0
 20 46  1  0  0  0  0
 21 47  1  0  0  0  0
 21 48  1  0  0  0  0
 22 23  1  0  0  0  0
 22 49  1  0  0  0  0
 22 50  1  0  0  0  0
 23 24  1  0  0  0  0
 23 25  1  0  0  0  0
 23 51  1  0  0  0  0
 24 52  1  0  0  0  0
 24 53  1  0  0  0  0
 24 54  1  0  0  0  0
M  CHG  1   4   1
M  END
> <s_m_source_file>
AV-unprocessed.smi

> <i_m_source_file_index>
1244

> <i_lp_mmshare_version>
43012

> <i_f3d_flags>
0

> <s_epik_input>
W0NIM11bQ0BASF0xW0NIMl1OKFtDSDJdW0NASF0oTzEpW0NIM10pW0NIMl1bQ0gyXVtOSF1DKD1PKVtOSF1jMltjSF1bY0hdW2NIXW5jMk4zW0NIMl1bQ0gyXVtDSDJdW0NIMl0z

> <s_epik_cmdline>
J2VwaWtfcHl0aG9uJywgJy1waCcsICc3LjAnLCAnLXRuJywgJzgnLCAnLW1hJywgJzIwMCcsICctbWV0YWxfYmluZGluZycsICctaW1hZScsICc8aW5maWxlLm1hZT4nLCAnLW9tYWUnLCAnPG91dGZpbGUubWFlPic=

> <r_lp_tautomer_probability>
1

> <r_epik_Ionization_Penalty>
0.684913

> <r_epik_Ionization_Penalty_Charging>
0.602531

> <r_epik_Ionization_Penalty_Neutral>
0.0823829

> <r_epik_State_Penalty>
0.678827

> <r_epik_Charging_Adjusted_Penalty>
1.28136

> <i_epik_Tot_Q>
1

> <i_epik_Tot_abs_Q>
1

> <r_epik_Metal_State_Penalty>
0.67806

> <b_epik_Metal_Only>
0

> <s_lp_Force_Field>
OPLS_2005

> <r_lp_Energy>
42.8464

> <b_lp_Chiralities_Consistent>
1

> <s_lp_Variant>
AV-unprocessed.smi:1244-5

> <Gold.Version>
5.8.1

> <Gold.Id.Protein>
6NUR|6NUR_protein|mol2

> <Gold.PLP.Fitness>
48.1805

> <Gold.PLP.PLP>
-37.2806

> <Gold.PLP.part.hbond>
-2.9050

> <Gold.PLP.part.metal>
0.0000

> <Gold.PLP.part.buried>
3.5921

> <Gold.PLP.part.nonpolar>
-37.5318

> <Gold.PLP.part.repulsive>
1.1174

> <Gold.PLP.ligand.clash>
0.0000

> <Gold.PLP.ligand.torsion>
0.4987

> <Gold.PLP.Chemscore.Hbond>
3.8320

> <Gold.PLP.Chemscore.CHOScore>
0.0000

> <Gold.PLP.Chemscore.Metal>
0.0000

> <Gold.Chemscore.Hbonds>
donor molecule, donor type, donor heavy atom, donor atom, acceptor molecule, acceptor atom, score
      L1  H     4    55       P1 10175  2.00
      L1  H     7    36       P1  7948  0.83
      L1  H    10    37       P1  7948  0.78

> <Gold.PLP.Chemscore.Internal.Correction>
0.4012

> <Gold.Rescore>
     Score         DG    S(hbond)    S(metal)    S(lipo)     H(rot)  DE(clash)    DE(int)     intcor
     16.75     -20.92       2.40        0.00      98.55       1.60       2.02       2.16       ----

> <Gold.Chemscore.Fitness>
16.7461

> <Gold.Chemscore.DG>
-20.9197

> <Gold.Chemscore.ZeroCoef>
-5.4800

> <Gold.Chemscore.Hbond>
2.3953

> <Gold.Chemscore.Metal>
0.0000

> <Gold.Chemscore.Lipo>
98.5458

> <Gold.Chemscore.Internal_Hbond>
0.0000

> <Gold.Chemscore.DEClash>
2.0182

> <Gold.Chemscore.DEInternal>
2.1554

> <Gold.Chemscore.Rot>
1.5978

> <Gold.Chemscore.Internal.Correction>
   9.000000E+99

> <Gold.Chemscore.Hbonds>
donor molecule, donor type, donor heavy atom, donor atom, acceptor molecule, acceptor atom, score
      L1  H     4    55       P1 10175  0.99
      L1  H     7    36       P1  7948  0.80
      L1  H    10    37       P1  7948  0.42

> <Gold.Chemscore.Hbond.Weighted>
-8.0003

> <Gold.Chemscore.Metal.Weighted>
-0.0000

> <Gold.Chemscore.Lipo.Weighted>
-11.5299

> <Gold.Chemscore.Internal_Hbond.Weighted>
0.0000

> <Gold.Chemscore.DEClash.Weighted>
2.0182

> <Gold.Chemscore.DEInternal.Weighted>
2.1554

> <Gold.Chemscore.Rot.Weighted>
4.0905

> <Gold.Chemscore.Internal.Correction.Weighted>
   9.000000E+99

> <Gold.Protein.RotatedTorsions>
[ 6907 6896 6895 6894 ] final -176.54 input  -60.11 | X-H torsion
[ 7974 7965 7964 7962 ] final  162.24 input  175.53 | X-H torsion
[ 8008 7997 7996 7995 ] final -156.35 input   59.86 | X-H torsion
[ 10167 10162 10161 10158 ] final -152.28 input  -65.29 | X-H torsion
[ 10718 10713 10712 10709 ] final  155.89 input   66.30 | X-H torsion
[ 10763 10752 10751 10750 ] final  101.11 input  -60.55 | X-H torsion
[ 11005 11000 10999 10996 ] final   85.68 input  -57.11 | X-H torsion

> <Gold.Protein.ActiveResidues>
 VAL166  LYS551  ARG553  GLY616  TRP617  ASP618  TYR619  PRO620  LYS621  CYS622 
 ASP623  PHE694  ASN695  SER759  ASP760  ASP761  ALA762  ILE779  LEU786  VAL792 
 PHE793  MET794  SER795  GLU796  ALA797  LYS798  CYS799  TRP800  GLU811  SER814 

> <Gold.Protein.RotatedAtoms>
  151.6064  133.3351  159.3058 H   0  0  0  0  0  0  0  0  0  0  0  0  # atno 6907 bound_to 6896
  150.8180  134.7375  159.6758 H   0  0  0  0  0  0  0  0  0  0  0  0  # atno 6908 bound_to 6896
  152.4275  134.5847  160.0009 H   0  0  0  0  0  0  0  0  0  0  0  0  # atno 6909 bound_to 6896
  144.7646  139.8011  143.6320 H   0  0  0  0  0  0  0  0  0  0  0  0  # atno 7974 bound_to 7965
  155.7158  140.0784  157.2351 H   0  0  0  0  0  0  0  0  0  0  0  0  # atno 8008 bound_to 7997
  154.4052  140.1621  156.2401 H   0  0  0  0  0  0  0  0  0  0  0  0  # atno 8009 bound_to 7997
  155.9241  140.3396  155.6199 H   0  0  0  0  0  0  0  0  0  0  0  0  # atno 8010 bound_to 7997
  139.7195  143.8980  152.2498 H   0  0  0  0  0  0  0  0  0  0  0  0  # atno 10167 bound_to 10162
  157.2123  131.0700  151.1962 H   0  0  0  0  0  0  0  0  0  0  0  0  # atno 10718 bound_to 10713
  153.3225  135.4056  155.1429 H   0  0  0  0  0  0  0  0  0  0  0  0  # atno 10763 bound_to 10752
  154.8604  135.3591  154.5577 H   0  0  0  0  0  0  0  0  0  0  0  0  # atno 10764 bound_to 10752
  153.6011  135.7071  153.5443 H   0  0  0  0  0  0  0  0  0  0  0  0  # atno 10765 bound_to 10752
  139.8965  134.8303  156.2615 H   0  0  0  0  0  0  0  0  0  0  0  0  # atno 11005 bound_to 11000
  146.1742  139.4905  142.9908 LP  0  0  0  0  0  0  0  0  0  0  0  0  # atno 17320 bound_to 7965
  145.6510  141.0263  143.1760 LP  0  0  0  0  0  0  0  0  0  0  0  0  # atno 17321 bound_to 7965
  139.8872  144.6985  150.8811 LP  0  0  0  0  0  0  0  0  0  0  0  0  # atno 17342 bound_to 10162
  140.7751  143.3615  151.1820 LP  0  0  0  0  0  0  0  0  0  0  0  0  # atno 17343 bound_to 10162
  157.3660  130.7156  149.6533 LP  0  0  0  0  0  0  0  0  0  0  0  0  # atno 17370 bound_to 10713
  155.9689  130.4212  150.4459 LP  0  0  0  0  0  0  0  0  0  0  0  0  # atno 17371 bound_to 10713
  141.0159  133.7069  156.1188 LP  0  0  0  0  0  0  0  0  0  0  0  0  # atno 17394 bound_to 11000
  140.7302  134.4263  157.5566 LP  0  0  0  0  0  0  0  0  0  0  0  0  # atno 17395 bound_to 11000

$$$$
