#       Name:                AV-unprocessed.smi:1903
#       Creating user name   scv26
#       Creation time:       Fri Mar 27 09:46:21 2020


#       File generated by GOLD software.
#

@<TRIPOS>MOLECULE
AV-unprocessed.smi:1903
    50    51     1
SMALL
NO_CHARGES


@<TRIPOS>ATOM
      1 ****        -4.7084   2.3503   0.5650 C.3            1 S1                 0.0000
      2 ****        -4.5109   0.8696   0.7230 C.2            1 S1                 0.0000
      3 ****        -5.4199   0.0378   0.2423 N.2            1 S1                 0.0000
      4 ****        -4.9546  -1.1912   0.5419 N.pl3          1 S1                 0.0000
      5 ****        -5.7210  -2.3575   0.1480 C.3            1 S1                 0.0000
      6 ****        -3.7487  -1.1362   1.2131 C.2            1 S1                 0.0000
      7 ****        -3.0276  -2.3703   1.6508 C.3            1 S1                 0.0000
      8 ****        -3.4263   0.1882   1.3495 C.2            1 S1                 0.0000
      9 ****        -2.2159   0.8063   2.0028 C.3            1 S1                 0.0000
     10 ****        -1.1126   1.0056   0.9634 C.2            1 S1                 0.0000
     11 ****        -0.9224   2.1174   0.4709 O.2            1 S1                 0.0000
     12 ****        -0.3922  -0.0788   0.6368 N.am           1 S1                 0.0000
     13 ****         0.6800  -0.1051  -0.3504 C.3            1 S1                 0.0000
     14 ****         1.9964   0.4505   0.2270 C.3            1 S1                 0.0000
     15 ****         3.0913   0.4731  -0.7758 N.4            1 S1                 1.0000
     16 ****         4.1501   1.4571  -0.4275 C.3            1 S1                 0.0000
     17 ****         5.2038   1.5631  -1.5429 C.3            1 S1                 0.0000
     18 ****         5.8178   0.1920  -1.8516 C.3            1 S1                 0.0000
     19 ****         4.7076  -0.8141  -2.1791 C.3            1 S1                 0.0000
     20 ****         3.6647  -0.8722  -1.0501 C.3            1 S1                 0.0000
     21 ****        -3.8269   2.8161   0.1245 H              1 S1                 0.0000
     22 ****        -4.8860   2.8234   1.5308 H              1 S1                 0.0000
     23 ****        -5.5586   2.5800  -0.0784 H              1 S1                 0.0000
     24 ****        -5.9118  -2.9838   1.0198 H              1 S1                 0.0000
     25 ****        -5.1593  -2.9321  -0.5888 H              1 S1                 0.0000
     26 ****        -6.6764  -2.0620  -0.2877 H              1 S1                 0.0000
     27 ****        -2.0921  -2.1275   2.1543 H              1 S1                 0.0000
     28 ****        -2.7908  -3.0033   0.7955 H              1 S1                 0.0000
     29 ****        -3.6381  -2.9506   2.3429 H              1 S1                 0.0000
     30 ****        -2.4588   1.7710   2.4499 H              1 S1                 0.0000
     31 ****        -1.8366   0.1879   2.8169 H              1 S1                 0.0000
     32 ****        -0.6216  -0.9524   1.0887 H              1 S1                 0.0000
     33 ****         0.7987  -1.1410  -0.6655 H              1 S1                 0.0000
     34 ****         0.3827   0.4572  -1.2374 H              1 S1                 0.0000
     35 ****         1.8145   1.4690   0.5729 H              1 S1                 0.0000
     36 ****         2.3082  -0.1197   1.1035 H              1 S1                 0.0000
     37 ****         3.7029   2.4393  -0.2681 H              1 S1                 0.0000
     38 ****         4.6232   1.1674   0.5123 H              1 S1                 0.0000
     39 ****         4.7437   1.9699  -2.4444 H              1 S1                 0.0000
     40 ****         5.9865   2.2644  -1.2516 H              1 S1                 0.0000
     41 ****         6.5163   0.2693  -2.6853 H              1 S1                 0.0000
     42 ****         6.3923  -0.1581  -0.9930 H              1 S1                 0.0000
     43 ****         4.2209  -0.5321  -3.1135 H              1 S1                 0.0000
     44 ****         5.1368  -1.8031  -2.3409 H              1 S1                 0.0000
     45 ****         4.1199  -1.2669  -0.1405 H              1 S1                 0.0000
     46 ****         2.8790  -1.5700  -1.3367 H              1 S1                 0.0000
     47 ****         2.6801   0.8002  -1.6386 H              1 S1                 0.0000
     48 ****        -6.2660   0.2697  -0.2377 LP             1 S1                 0.0000
     49 ****        -1.4899   2.8919   0.7505 LP             1 S1                 0.0000
     50 ****        -0.2004   2.2463  -0.2088 LP             1 S1                 0.0000
@<TRIPOS>BOND
    1    1    2 1     
    2    1   21 1     
    3    1   22 1     
    4    1   23 1     
    5    2    8 1     
    6    2    3 2     
    7    3    4 1     
    8    4    5 1     
    9    4    6 1     
   10    5   24 1     
   11    5   25 1     
   12    5   26 1     
   13    6    7 1     
   14    6    8 2     
   15    7   27 1     
   16    7   28 1     
   17    7   29 1     
   18    8    9 1     
   19    9   10 1     
   20    9   30 1     
   21    9   31 1     
   22   10   11 2     
   23   10   12 am    
   24   12   13 1     
   25   12   32 1     
   26   13   14 1     
   27   13   33 1     
   28   13   34 1     
   29   14   15 1     
   30   14   35 1     
   31   14   36 1     
   32   15   20 1     
   33   15   16 1     
   34   15   47 1     
   35   16   17 1     
   36   16   37 1     
   37   16   38 1     
   38   17   18 1     
   39   17   39 1     
   40   17   40 1     
   41   18   19 1     
   42   18   41 1     
   43   18   42 1     
   44   19   20 1     
   45   19   43 1     
   46   19   44 1     
   47   20   45 1     
   48   20   46 1     
   49    3   48 1     
   50   11   49 1     
   51   11   50 1     
@<TRIPOS>SUBSTRUCTURE
      1 S1             1
@<TRIPOS>SET
LONE_PAIRS      STATIC     ATOMS    <user>   **** ""
3 48 49 50
DONOR_HYDROGENS      STATIC     ATOMS    <user>   **** ""
2 32 47
ATOM$BLUE        STATIC     ATOMS    COLORGROUP SYSTEM
3 48 49 50
ATOM$RED        STATIC     ATOMS    COLORGROUP SYSTEM
2 32 47
