AV-unprocessed.smi:767|AV-procd|sdf|3671|dock6
  -GOLD-   22720 1 83D 1   1.00000     0.00000
 Structure written by MMmdl.
 48 50  0  0  0  0  0  0  0  0  2 V2000
  151.5634  143.4747  157.9152 C   0  0  0  0  0  0  0  0  0  0  0  0
  151.2091  142.2760  157.0606 C   0  0  0  0  0  0  0  0  0  0  0  0
  151.8042  141.0121  157.2598 C   0  0  0  0  0  0  0  0  0  0  0  0
  151.4334  139.9363  156.4266 C   0  0  0  0  0  0  0  0  0  0  0  0
  150.4777  140.1469  155.4085 C   0  0  0  0  0  0  0  0  0  0  0  0
  150.0653  139.0138  154.4837 C   0  0  0  0  0  0  0  0  0  0  0  0
  149.2975  137.8751  155.1892 C   0  0  0  0  0  0  0  0  0  0  0  0
  148.6091  136.9719  154.2701 N   0  0  0  0  0  0  0  0  0  0  0  0
  147.4339  136.3725  154.5054 C   0  0  0  0  0  0  0  0  0  0  0  0
  146.7777  136.5194  155.5363 O   0  0  0  0  0  0  0  0  0  0  0  0
  147.0468  135.6152  153.4713 N   0  0  0  0  0  0  0  0  0  0  0  0
  145.7763  134.8853  153.4109 C   0  0  2  0  0  0  0  0  0  0  0  0
  145.9628  133.3660  153.4328 C   0  0  2  0  0  0  0  0  0  0  0  0
  147.0524  132.4314  153.8164 C   0  0  0  0  0  0  0  0  0  0  0  0
  146.8879  131.4457  152.6275 C   0  0  0  0  0  0  0  0  0  0  0  0
  145.9757  132.0872  151.6987 O   0  0  0  0  0  0  0  0  0  0  0  0
  146.1649  133.4680  151.9352 C   0  0  1  0  0  0  0  0  0  0  0  0
  145.1905  134.6669  151.9592 C   0  0  0  0  0  0  0  0  0  0  0  0
  143.6873  134.3555  151.8467 C   0  0  0  0  0  0  0  0  0  0  0  0
  145.4701  135.7593  150.9209 C   0  0  0  0  0  0  0  0  0  0  0  0
  149.9143  141.4325  155.2578 C   0  0  0  0  0  0  0  0  0  0  0  0
  150.2961  142.4368  156.0766 N   0  3  0  0  0  0  0  0  0  0  0  0
  151.8171  143.1627  158.9289 H   0  0  0  0  0  0  0  0  0  0  0  0
  150.7286  144.1738  157.9756 H   0  0  0  0  0  0  0  0  0  0  0  0
  152.4214  143.9982  157.4928 H   0  0  0  0  0  0  0  0  0  0  0  0
  152.5367  140.8673  158.0408 H   0  0  0  0  0  0  0  0  0  0  0  0
  151.8816  138.9633  156.5650 H   0  0  0  0  0  0  0  0  0  0  0  0
  149.4556  139.4223  153.6771 H   0  0  0  0  0  0  0  0  0  0  0  0
  150.9573  138.6087  154.0039 H   0  0  0  0  0  0  0  0  0  0  0  0
  150.0016  137.2684  155.7589 H   0  0  0  0  0  0  0  0  0  0  0  0
  148.5906  138.2839  155.9127 H   0  0  0  0  0  0  0  0  0  0  0  0
  149.0673  136.7855  153.3899 H   0  0  0  0  0  0  0  0  0  0  0  0
  147.6534  135.5493  152.6671 H   0  0  0  0  0  0  0  0  0  0  0  0
  145.0322  135.2288  154.1316 H   0  0  0  0  0  0  0  0  0  0  0  0
  145.0065  132.9098  153.7002 H   0  0  0  0  0  0  0  0  0  0  0  0
  148.0309  132.9135  153.8165 H   0  0  0  0  0  0  0  0  0  0  0  0
  146.8855  131.9559  154.7832 H   0  0  0  0  0  0  0  0  0  0  0  0
  147.8484  131.2535  152.1472 H   0  0  0  0  0  0  0  0  0  0  0  0
  146.4713  130.4897  152.9457 H   0  0  0  0  0  0  0  0  0  0  0  0
  147.1761  133.7675  151.6406 H   0  0  0  0  0  0  0  0  0  0  0  0
  143.4405  133.9487  150.8657 H   0  0  0  0  0  0  0  0  0  0  0  0
  143.0869  135.2550  151.9860 H   0  0  0  0  0  0  0  0  0  0  0  0
  143.3361  133.6333  152.5816 H   0  0  0  0  0  0  0  0  0  0  0  0
  145.1060  135.4782  149.9320 H   0  0  0  0  0  0  0  0  0  0  0  0
  146.5367  135.9574  150.8156 H   0  0  0  0  0  0  0  0  0  0  0  0
  144.9906  136.6997  151.1945 H   0  0  0  0  0  0  0  0  0  0  0  0
  149.1813  141.6889  154.5068 H   0  0  0  0  0  0  0  0  0  0  0  0
  149.8768  143.3577  155.9456 H   0  0  0  0  0  0  0  0  0  0  0  0
  1  2  1  0  0  0  0
  1 23  1  0  0  0  0
  1 24  1  0  0  0  0
  1 25  1  0  0  0  0
  2 22  1  0  0  0  0
  2  3  2  0  0  0  0
  3  4  1  0  0  0  0
  3 26  1  0  0  0  0
  4  5  2  0  0  0  0
  4 27  1  0  0  0  0
  5  6  1  0  0  0  0
  5 21  1  0  0  0  0
  6  7  1  0  0  0  0
  6 28  1  0  0  0  0
  6 29  1  0  0  0  0
  7  8  1  0  0  0  0
  7 30  1  0  0  0  0
  7 31  1  0  0  0  0
  8  9  1  0  0  0  0
  8 32  1  0  0  0  0
  9 10  2  0  0  0  0
  9 11  1  0  0  0  0
 11 12  1  0  0  0  0
 11 33  1  0  0  0  0
 12 18  1  0  0  0  0
 12 13  1  0  0  0  0
 12 34  1  0  0  0  0
 13 17  1  0  0  0  0
 13 14  1  0  0  0  0
 13 35  1  0  0  0  0
 14 15  1  0  0  0  0
 14 36  1  0  0  0  0
 14 37  1  0  0  0  0
 15 16  1  0  0  0  0
 15 38  1  0  0  0  0
 15 39  1  0  0  0  0
 16 17  1  0  0  0  0
 17 18  1  0  0  0  0
 17 40  1  0  0  0  0
 18 19  1  0  0  0  0
 18 20  1  0  0  0  0
 19 41  1  0  0  0  0
 19 42  1  0  0  0  0
 19 43  1  0  0  0  0
 20 44  1  0  0  0  0
 20 45  1  0  0  0  0
 20 46  1  0  0  0  0
 21 22  2  0  0  0  0
 21 47  1  0  0  0  0
 22 48  1  0  0  0  0
M  CHG  1  22   1
M  END
> <s_m_source_file>
AV-unprocessed.smi

> <i_m_source_file_index>
767

> <i_lp_mmshare_version>
43012

> <i_f3d_flags>
0

> <s_epik_input>
W0NIM11jMVtjSF1bY0hdYyhbY0hdbjEpW0NIMl1bQ0gyXVtOSF1DKD1PKVtOSF1bQ0BIXTJDKFtDSDNdKShbQ0gzXSlbQ0BIXShbQ0BASF0yMylPW0NIMl1bQ0gyXTM=

> <s_epik_cmdline>
J2VwaWtfcHl0aG9uJywgJy1waCcsICc3LjAnLCAnLXRuJywgJzgnLCAnLW1hJywgJzIwMCcsICctbWV0YWxfYmluZGluZycsICctaW1hZScsICc8aW5maWxlLm1hZT4nLCAnLW9tYWUnLCAnPG91dGZpbGUubWFlPic=

> <r_epik_Ionization_Penalty>
1.41853

> <r_epik_Ionization_Penalty_Charging>
1.41848

> <r_epik_Ionization_Penalty_Neutral>
5.17407e-05

> <r_epik_State_Penalty>
1.50205

> <r_epik_Charging_Adjusted_Penalty>
2.92053

> <i_epik_Tot_Q>
1

> <i_epik_Tot_abs_Q>
1

> <r_epik_Metal_State_Penalty>
1.5544

> <b_epik_Metal_Only>
0

> <s_lp_Force_Field>
OPLS_2005

> <r_lp_Energy>
65.9861

> <b_lp_Chiralities_Consistent>
1

> <s_lp_Variant>
AV-unprocessed.smi:767-15

> <Gold.Version>
5.8.1

> <Gold.Id.Protein>
6NUR|6NUR_protein|mol2

> <Gold.PLP.Fitness>
45.2601

> <Gold.PLP.PLP>
-34.1365

> <Gold.PLP.part.hbond>
-3.0000

> <Gold.PLP.part.metal>
0.0000

> <Gold.PLP.part.buried>
-4.3874

> <Gold.PLP.part.nonpolar>
-27.9032

> <Gold.PLP.part.repulsive>
0.2803

> <Gold.PLP.ligand.clash>
0.0000

> <Gold.PLP.ligand.torsion>
0.4844

> <Gold.PLP.Chemscore.Hbond>
3.9440

> <Gold.PLP.Chemscore.CHOScore>
0.0000

> <Gold.PLP.Chemscore.Metal>
0.0000

> <Gold.Chemscore.Hbonds>
donor molecule, donor type, donor heavy atom, donor atom, acceptor molecule, acceptor atom, score
      L1  H     8    32       P1  7948  0.99
      L1  H    11    33       P1  7948  0.94
      L1  H    22    48       P1  8028  2.00

> <Gold.PLP.Chemscore.Internal.Correction>
0.2603

> <Gold.Rescore>
     Score         DG    S(hbond)    S(metal)    S(lipo)     H(rot)  DE(clash)    DE(int)     intcor
     21.49     -21.97       2.91        0.00      91.38       1.52       0.00       0.49       ----

> <Gold.Chemscore.Fitness>
21.4888

> <Gold.Chemscore.DG>
-21.9749

> <Gold.Chemscore.ZeroCoef>
-5.4800

> <Gold.Chemscore.Hbond>
2.9050

> <Gold.Chemscore.Metal>
0.0000

> <Gold.Chemscore.Lipo>
91.3806

> <Gold.Chemscore.Internal_Hbond>
0.0000

> <Gold.Chemscore.DEClash>
0.0000

> <Gold.Chemscore.DEInternal>
0.4861

> <Gold.Chemscore.Rot>
1.5233

> <Gold.Chemscore.Internal.Correction>
   9.000000E+99

> <Gold.Chemscore.Hbonds>
donor molecule, donor type, donor heavy atom, donor atom, acceptor molecule, acceptor atom, score
      L1  H     8    32       P1  7948  0.93
      L1  H    11    33       P1  7948  0.91
      L1  H    22    48       P1  8028  1.00

> <Gold.Chemscore.Hbond.Weighted>
-9.7029

> <Gold.Chemscore.Metal.Weighted>
-0.0000

> <Gold.Chemscore.Lipo.Weighted>
-10.6915

> <Gold.Chemscore.Internal_Hbond.Weighted>
0.0000

> <Gold.Chemscore.DEClash.Weighted>
0.0000

> <Gold.Chemscore.DEInternal.Weighted>
0.4861

> <Gold.Chemscore.Rot.Weighted>
3.8995

> <Gold.Chemscore.Internal.Correction.Weighted>
   9.000000E+99

> <Gold.Protein.RotatedTorsions>
[ 6907 6896 6895 6894 ] final -138.68 input  -60.11 | X-H torsion
[ 7974 7965 7964 7962 ] final  -93.91 input  175.53 | X-H torsion
[ 8008 7997 7996 7995 ] final  -93.04 input   59.86 | X-H torsion
[ 10167 10162 10161 10158 ] final  -22.83 input  -65.29 | X-H torsion
[ 10718 10713 10712 10709 ] final   79.23 input   66.30 | X-H torsion
[ 10763 10752 10751 10750 ] final -168.78 input  -60.55 | X-H torsion
[ 11005 11000 10999 10996 ] final -154.04 input  -57.11 | X-H torsion

> <Gold.Protein.ActiveResidues>
 VAL166  LYS551  ARG553  GLY616  TRP617  ASP618  TYR619  PRO620  LYS621  CYS622 
 ASP623  PHE694  ASN695  SER759  ASP760  ASP761  ALA762  ILE779  LEU786  VAL792 
 PHE793  MET794  SER795  GLU796  ALA797  LYS798  CYS799  TRP800  GLU811  SER814 

> <Gold.Protein.RotatedAtoms>
  151.0381  133.5730  159.2653 H   0  0  0  0  0  0  0  0  0  0  0  0  # atno 6907 bound_to 6896
  151.2787  135.0706  159.9171 H   0  0  0  0  0  0  0  0  0  0  0  0  # atno 6908 bound_to 6896
  152.5358  134.0099  159.7987 H   0  0  0  0  0  0  0  0  0  0  0  0  # atno 6909 bound_to 6896
  145.3803  140.9516  143.2397 H   0  0  0  0  0  0  0  0  0  0  0  0  # atno 7974 bound_to 7965
  154.7306  140.0503  157.0723 H   0  0  0  0  0  0  0  0  0  0  0  0  # atno 8008 bound_to 7997
  155.0307  140.3157  155.4740 H   0  0  0  0  0  0  0  0  0  0  0  0  # atno 8009 bound_to 7997
  156.2840  140.2150  156.5428 H   0  0  0  0  0  0  0  0  0  0  0  0  # atno 8010 bound_to 7997
  140.7287  143.4498  151.0533 H   0  0  0  0  0  0  0  0  0  0  0  0  # atno 10167 bound_to 10162
  157.6770  130.9905  150.1902 H   0  0  0  0  0  0  0  0  0  0  0  0  # atno 10718 bound_to 10713
  154.6593  135.2922  154.9887 H   0  0  0  0  0  0  0  0  0  0  0  0  # atno 10763 bound_to 10752
  154.0953  135.6585  153.4863 H   0  0  0  0  0  0  0  0  0  0  0  0  # atno 10764 bound_to 10752
  153.0420  135.5229  154.7536 H   0  0  0  0  0  0  0  0  0  0  0  0  # atno 10765 bound_to 10752
  140.7016  134.3931  157.5209 H   0  0  0  0  0  0  0  0  0  0  0  0  # atno 11005 bound_to 11000
  144.8512  139.5318  143.6855 LP  0  0  0  0  0  0  0  0  0  0  0  0  # atno 17320 bound_to 7965
  146.2845  139.6966  142.9205 LP  0  0  0  0  0  0  0  0  0  0  0  0  # atno 17321 bound_to 7965
  139.8173  143.7868  152.3175 LP  0  0  0  0  0  0  0  0  0  0  0  0  # atno 17342 bound_to 10162
  139.7938  144.7400  150.9918 LP  0  0  0  0  0  0  0  0  0  0  0  0  # atno 17343 bound_to 10162
  156.2615  130.3711  149.8125 LP  0  0  0  0  0  0  0  0  0  0  0  0  # atno 17370 bound_to 10713
  156.5869  130.8489  151.3398 LP  0  0  0  0  0  0  0  0  0  0  0  0  # atno 17371 bound_to 10713
  139.8895  134.8828  156.2417 LP  0  0  0  0  0  0  0  0  0  0  0  0  # atno 17394 bound_to 11000
  141.0159  133.7069  156.1187 LP  0  0  0  0  0  0  0  0  0  0  0  0  # atno 17395 bound_to 11000

$$$$
