AV-unprocessed.smi:2802|AV-procd|sdf|10805|dock5
  -GOLD-   2272015243D 1   1.00000     0.00000
 Structure written by MMmdl.
 47 48  0  0  0  0  0  0  0  0  1 V2000
  147.2980  138.4036  157.8746 C   0  0  0  0  0  0  0  0  0  0  0  0
  148.1466  138.8668  156.6811 C   0  0  2  0  0  0  0  0  0  0  0  0
  149.3516  137.9359  156.4637 C   0  0  0  0  0  0  0  0  0  0  0  0
  150.2278  138.3366  155.2558 C   0  0  0  0  0  0  0  0  0  0  0  0
  151.5390  137.5242  155.3164 C   0  0  0  0  0  0  0  0  0  0  0  0
  149.5386  137.9636  153.9242 C   0  0  0  0  0  0  0  0  0  0  0  0
  150.5942  139.8470  155.3258 C   0  0  0  0  0  0  0  0  0  0  0  0
  149.4665  140.8663  155.6875 C   0  0  2  0  0  0  0  0  0  0  0  0
  148.5592  141.2104  154.4696 C   0  0  0  0  0  0  0  0  0  0  0  0
  149.3027  141.3718  153.2764 O   0  0  0  0  0  0  0  0  0  0  0  0
  150.1061  142.0948  156.1893 N   0  0  0  0  0  0  0  0  0  0  0  0
  151.1276  142.2131  157.0565 C   0  0  0  0  0  0  0  0  0  0  0  0
  151.7041  141.2527  157.5690 O   0  0  0  0  0  0  0  0  0  0  0  0
  151.5574  143.6480  157.3828 C   0  0  0  0  0  0  0  0  0  0  0  0
  151.7214  143.8619  158.8785 C   0  0  0  0  0  0  0  0  0  0  0  0
  151.2570  145.0415  159.4963 C   0  0  0  0  0  0  0  0  0  0  0  0
  151.4420  145.1989  160.8833 C   0  0  0  0  0  0  0  0  0  0  0  0
  152.0856  144.1671  161.5954 C   0  0  0  0  0  0  0  0  0  0  0  0
  152.5322  143.0322  161.0153 N   0  0  0  0  0  0  0  0  0  0  0  0
  152.3510  142.8893  159.6847 C   0  0  0  0  0  0  0  0  0  0  0  0
  148.6306  140.3150  156.8716 C   0  0  0  0  0  0  0  0  0  0  0  0
  147.8723  138.4176  158.8013 H   0  0  0  0  0  0  0  0  0  0  0  0
  146.9321  137.3873  157.7248 H   0  0  0  0  0  0  0  0  0  0  0  0
  146.4289  139.0478  158.0115 H   0  0  0  0  0  0  0  0  0  0  0  0
  147.5004  138.8236  155.8057 H   0  0  0  0  0  0  0  0  0  0  0  0
  149.9597  137.9441  157.3697 H   0  0  0  0  0  0  0  0  0  0  0  0
  149.0084  136.9070  156.3451 H   0  0  0  0  0  0  0  0  0  0  0  0
  152.1985  137.7715  154.4836 H   0  0  0  0  0  0  0  0  0  0  0  0
  151.3471  136.4512  155.2757 H   0  0  0  0  0  0  0  0  0  0  0  0
  152.0916  137.7172  156.2367 H   0  0  0  0  0  0  0  0  0  0  0  0
  150.1080  138.3266  153.0680 H   0  0  0  0  0  0  0  0  0  0  0  0
  148.5288  138.3526  153.8361 H   0  0  0  0  0  0  0  0  0  0  0  0
  149.4537  136.8815  153.8185 H   0  0  0  0  0  0  0  0  0  0  0  0
  151.3668  139.9467  156.0906 H   0  0  0  0  0  0  0  0  0  0  0  0
  151.0837  140.1398  154.3963 H   0  0  0  0  0  0  0  0  0  0  0  0
  147.8085  140.4375  154.3058 H   0  0  0  0  0  0  0  0  0  0  0  0
  148.0128  142.1362  154.6203 H   0  0  0  0  0  0  0  0  0  0  0  0
  149.2274  140.5795  152.7669 H   0  0  0  0  0  0  0  0  0  0  0  0
  149.7229  142.9564  155.8286 H   0  0  0  0  0  0  0  0  0  0  0  0
  152.4964  143.8624  156.8713 H   0  0  0  0  0  0  0  0  0  0  0  0
  150.8186  144.3537  157.0000 H   0  0  0  0  0  0  0  0  0  0  0  0
  150.7718  145.8145  158.9186 H   0  0  0  0  0  0  0  0  0  0  0  0
  151.1008  146.0900  161.3888 H   0  0  0  0  0  0  0  0  0  0  0  0
  152.2459  144.2563  162.6597 H   0  0  0  0  0  0  0  0  0  0  0  0
  152.7238  141.9737  159.2493 H   0  0  0  0  0  0  0  0  0  0  0  0
  147.7775  140.9664  157.0663 H   0  0  0  0  0  0  0  0  0  0  0  0
  149.2339  140.3478  157.7809 H   0  0  0  0  0  0  0  0  0  0  0  0
  1  2  1  0  0  0  0
  1 22  1  0  0  0  0
  1 23  1  0  0  0  0
  1 24  1  0  0  0  0
  2 21  1  0  0  0  0
  2  3  1  0  0  0  0
  2 25  1  0  0  0  0
  3  4  1  0  0  0  0
  3 26  1  0  0  0  0
  3 27  1  0  0  0  0
  4  5  1  0  0  0  0
  4  6  1  0  0  0  0
  4  7  1  0  0  0  0
  5 28  1  0  0  0  0
  5 29  1  0  0  0  0
  5 30  1  0  0  0  0
  6 31  1  0  0  0  0
  6 32  1  0  0  0  0
  6 33  1  0  0  0  0
  7  8  1  0  0  0  0
  7 34  1  0  0  0  0
  7 35  1  0  0  0  0
  8  9  1  0  0  0  0
  8 11  1  0  0  0  0
  8 21  1  0  0  0  0
  9 10  1  0  0  0  0
  9 36  1  0  0  0  0
  9 37  1  0  0  0  0
 10 38  1  0  0  0  0
 11 12  1  0  0  0  0
 11 39  1  0  0  0  0
 12 13  2  0  0  0  0
 12 14  1  0  0  0  0
 14 15  1  0  0  0  0
 14 40  1  0  0  0  0
 14 41  1  0  0  0  0
 15 20  1  0  0  0  0
 15 16  2  0  0  0  0
 16 17  1  0  0  0  0
 16 42  1  0  0  0  0
 17 18  2  0  0  0  0
 17 43  1  0  0  0  0
 18 19  1  0  0  0  0
 18 44  1  0  0  0  0
 19 20  2  0  0  0  0
 20 45  1  0  0  0  0
 21 46  1  0  0  0  0
 21 47  1  0  0  0  0
M  END
> <s_m_source_file>
AV-unprocessed.smi

> <i_m_source_file_index>
2802

> <i_lp_mmshare_version>
43012

> <i_f3d_flags>
0

> <s_epik_input>
W0NIM11DMShbQ0gzXSlbQ0gyXVtDQEBIXShbQ0gzXSlbQ0gyXVtDQF0oW0NIMl0xKShbQ0gyXVtPSF0pW05IXUMoPU8pW0NIMl1jMltjSF1bY0hdW2NIXW5bY0hdMg==

> <s_epik_cmdline>
J2VwaWtfcHl0aG9uJywgJy1waCcsICc3LjAnLCAnLXRuJywgJzgnLCAnLW1hJywgJzIwMCcsICctbWV0YWxfYmluZGluZycsICctaW1hZScsICc8aW5maWxlLm1hZT4nLCAnLW9tYWUnLCAnPG91dGZpbGUubWFlPic=

> <r_epik_Ionization_Penalty>
0.004793

> <r_epik_Ionization_Penalty_Charging>
0

> <r_epik_Ionization_Penalty_Neutral>
0.004793

> <r_epik_State_Penalty>
0.00347421

> <r_epik_Charging_Adjusted_Penalty>
0.00347421

> <i_epik_Tot_Q>
0

> <i_epik_Tot_abs_Q>
0

> <r_epik_Metal_State_Penalty>
-0

> <b_epik_Metal_Only>
0

> <s_lp_Force_Field>
OPLS_2005

> <r_lp_Energy>
22.6418

> <b_lp_Chiralities_Consistent>
1

> <s_lp_Variant>
AV-unprocessed.smi:2802-3

> <Gold.Version>
5.8.1

> <Gold.Id.Protein>
6NUR|6NUR_protein|mol2

> <Gold.PLP.Fitness>
44.7936

> <Gold.PLP.PLP>
-38.3679

> <Gold.PLP.part.hbond>
-3.7561

> <Gold.PLP.part.metal>
0.0000

> <Gold.PLP.part.buried>
-0.9444

> <Gold.PLP.part.nonpolar>
-34.7429

> <Gold.PLP.part.repulsive>
0.1437

> <Gold.PLP.ligand.clash>
0.0000

> <Gold.PLP.ligand.torsion>
0.8619

> <Gold.PLP.Chemscore.Hbond>
2.7120

> <Gold.PLP.Chemscore.CHOScore>
0.0000

> <Gold.PLP.Chemscore.Metal>
0.0000

> <Gold.Chemscore.Hbonds>
donor molecule, donor type, donor heavy atom, donor atom, acceptor molecule, acceptor atom, score
      L1  H    10    38       P1  7957  0.74
      L1  H    11    39       P1  8028  1.00
      P1  H  8011  8017       L1    10  0.89

> <Gold.PLP.Chemscore.Internal.Correction>
0.0135

> <Gold.Rescore>
     Score         DG    S(hbond)    S(metal)    S(lipo)     H(rot)  DE(clash)    DE(int)     intcor
     16.39     -21.80       2.40        0.00     114.88       2.00       1.90       3.50       ----

> <Gold.Chemscore.Fitness>
16.3935

> <Gold.Chemscore.DG>
-21.7966

> <Gold.Chemscore.ZeroCoef>
-5.4800

> <Gold.Chemscore.Hbond>
2.3959

> <Gold.Chemscore.Metal>
0.0000

> <Gold.Chemscore.Lipo>
114.8787

> <Gold.Chemscore.Internal_Hbond>
0.0000

> <Gold.Chemscore.DEClash>
1.9013

> <Gold.Chemscore.DEInternal>
3.5018

> <Gold.Chemscore.Rot>
2.0026

> <Gold.Chemscore.Internal.Correction>
   9.000000E+99

> <Gold.Chemscore.Hbonds>
donor molecule, donor type, donor heavy atom, donor atom, acceptor molecule, acceptor atom, score
      L1  H    10    38       P1  7957  0.74
      L1  H    11    39       P1  8028  0.99
      P1  H  8011  8017       L1    10  0.46

> <Gold.Chemscore.Hbond.Weighted>
-8.0024

> <Gold.Chemscore.Metal.Weighted>
-0.0000

> <Gold.Chemscore.Lipo.Weighted>
-13.4408

> <Gold.Chemscore.Internal_Hbond.Weighted>
0.0000

> <Gold.Chemscore.DEClash.Weighted>
1.9013

> <Gold.Chemscore.DEInternal.Weighted>
3.5018

> <Gold.Chemscore.Rot.Weighted>
5.1267

> <Gold.Chemscore.Internal.Correction.Weighted>
   9.000000E+99

> <Gold.Protein.RotatedTorsions>
[ 6907 6896 6895 6894 ] final  -54.96 input  -60.11 | X-H torsion
[ 7974 7965 7964 7962 ] final -138.80 input  175.53 | X-H torsion
[ 8008 7997 7996 7995 ] final -104.11 input   59.86 | X-H torsion
[ 10167 10162 10161 10158 ] final  133.81 input  -65.29 | X-H torsion
[ 10718 10713 10712 10709 ] final -143.63 input   66.30 | X-H torsion
[ 10763 10752 10751 10750 ] final  -59.08 input  -60.55 | X-H torsion
[ 11005 11000 10999 10996 ] final  134.09 input  -57.11 | X-H torsion

> <Gold.Protein.ActiveResidues>
 VAL166  LYS551  ARG553  GLY616  TRP617  ASP618  TYR619  PRO620  LYS621  CYS622 
 ASP623  PHE694  ASN695  SER759  ASP760  ASP761  ALA762  ILE779  LEU786  VAL792 
 PHE793  MET794  SER795  GLU796  ALA797  LYS798  CYS799  TRP800  GLU811  SER814 

> <Gold.Protein.RotatedAtoms>
  150.8293  134.7538  159.6839 H   0  0  0  0  0  0  0  0  0  0  0  0  # atno 6907 bound_to 6896
  152.4400  134.5607  159.9903 H   0  0  0  0  0  0  0  0  0  0  0  0  # atno 6908 bound_to 6896
  151.5772  133.3344  159.3037 H   0  0  0  0  0  0  0  0  0  0  0  0  # atno 6909 bound_to 6896
  144.8729  140.6393  143.5255 H   0  0  0  0  0  0  0  0  0  0  0  0  # atno 7974 bound_to 7965
  154.8805  140.0419  157.1779 H   0  0  0  0  0  0  0  0  0  0  0  0  # atno 8008 bound_to 7997
  154.8644  140.2949  155.5498 H   0  0  0  0  0  0  0  0  0  0  0  0  # atno 8009 bound_to 7997
  156.2999  140.2441  156.3623 H   0  0  0  0  0  0  0  0  0  0  0  0  # atno 8010 bound_to 7997
  139.5281  144.6598  151.5049 H   0  0  0  0  0  0  0  0  0  0  0  0  # atno 10167 bound_to 10162
  156.3603  130.7735  151.1901 H   0  0  0  0  0  0  0  0  0  0  0  0  # atno 10718 bound_to 10713
  154.2482  135.6331  153.5231 H   0  0  0  0  0  0  0  0  0  0  0  0  # atno 10763 bound_to 10752
  152.9917  135.5558  154.5836 H   0  0  0  0  0  0  0  0  0  0  0  0  # atno 10764 bound_to 10752
  154.5358  135.2891  155.1115 H   0  0  0  0  0  0  0  0  0  0  0  0  # atno 10765 bound_to 10752
  139.9893  134.9521  156.9817 H   0  0  0  0  0  0  0  0  0  0  0  0  # atno 11005 bound_to 11000
  145.4097  139.1582  143.4132 LP  0  0  0  0  0  0  0  0  0  0  0  0  # atno 17320 bound_to 7965
  146.2942  140.4200  142.8728 LP  0  0  0  0  0  0  0  0  0  0  0  0  # atno 17321 bound_to 7965
  140.6440  143.8831  150.6719 LP  0  0  0  0  0  0  0  0  0  0  0  0  # atno 17342 bound_to 10162
  140.2175  143.3835  152.1669 LP  0  0  0  0  0  0  0  0  0  0  0  0  # atno 17343 bound_to 10162
  157.7472  131.0402  150.4586 LP  0  0  0  0  0  0  0  0  0  0  0  0  # atno 17370 bound_to 10713
  156.4796  130.4071  149.6469 LP  0  0  0  0  0  0  0  0  0  0  0  0  # atno 17371 bound_to 10713
  140.4940  134.1164  155.7238 LP  0  0  0  0  0  0  0  0  0  0  0  0  # atno 17394 bound_to 11000
  141.1552  133.8896  157.1996 LP  0  0  0  0  0  0  0  0  0  0  0  0  # atno 17395 bound_to 11000

$$$$
