AV-unprocessed.smi:2825|AV-procd|sdf|10889|dock5
  -GOLD-   2272015333D 1   1.00000     0.00000
 Structure written by MMmdl.
 48 49  0  0  0  0  0  0  0  0  1 V2000
  147.0593  135.7440  154.8154 C   0  0  0  0  0  0  0  0  0  0  0  0
  148.4046  136.2198  155.3728 C   0  0  0  0  0  0  0  0  0  0  0  0
  148.9743  137.4122  154.5915 C   0  0  0  0  0  0  0  0  0  0  0  0
  150.5894  137.9769  155.2859 S   0  0  0  0  0  0  0  0  0  0  0  0
  151.4522  136.8046  155.4975 O   0  0  0  0  0  0  0  0  0  0  0  0
  151.0703  139.1109  154.4809 O   0  0  0  0  0  0  0  0  0  0  0  0
  150.1403  138.5798  156.8500 N   0  0  0  0  0  0  0  0  0  0  0  0
  150.5568  137.8334  158.0414 C   0  0  0  0  0  0  0  0  0  0  0  0
  149.9669  140.0277  157.0447 C   0  0  0  0  0  0  0  0  0  0  0  0
  151.2712  140.6831  157.5397 C   0  0  1  0  0  0  0  0  0  0  0  0
  152.3609  140.0774  156.8708 O   0  0  0  0  0  0  0  0  0  0  0  0
  151.2900  142.1972  157.2585 C   0  0  0  0  0  0  0  0  0  0  0  0
  151.2740  142.9874  158.4762 N   0  0  0  0  0  0  0  0  0  0  0  0
  150.5964  144.1318  158.6880 C   0  0  0  0  0  0  0  0  0  0  0  0
  150.7199  144.7001  159.8838 N   0  0  0  0  0  0  0  0  0  0  0  0
  151.5769  143.8206  160.5229 C   0  0  0  0  0  0  0  0  0  0  0  0
  152.1096  143.8476  161.8305 C   0  0  0  0  0  0  0  0  0  0  0  0
  152.9779  142.8275  162.2808 C   0  0  0  0  0  0  0  0  0  0  0  0
  153.5290  142.8969  163.6941 C   0  0  0  0  0  0  0  0  0  0  0  0
  153.3240  141.7568  161.4177 C   0  0  0  0  0  0  0  0  0  0  0  0
  154.2519  140.6473  161.8805 C   0  0  0  0  0  0  0  0  0  0  0  0
  152.8027  141.7158  160.1076 C   0  0  0  0  0  0  0  0  0  0  0  0
  151.9413  142.7376  159.6705 C   0  0  0  0  0  0  0  0  0  0  0  0
  146.6840  134.8926  155.3836 H   0  0  0  0  0  0  0  0  0  0  0  0
  147.1527  135.4337  153.7742 H   0  0  0  0  0  0  0  0  0  0  0  0
  146.3098  136.5344  154.8655 H   0  0  0  0  0  0  0  0  0  0  0  0
  148.2838  136.4867  156.4229 H   0  0  0  0  0  0  0  0  0  0  0  0
  149.1136  135.3924  155.3424 H   0  0  0  0  0  0  0  0  0  0  0  0
  149.1095  137.1704  153.5380 H   0  0  0  0  0  0  0  0  0  0  0  0
  148.2839  138.2543  154.6446 H   0  0  0  0  0  0  0  0  0  0  0  0
  149.9144  138.0764  158.8884 H   0  0  0  0  0  0  0  0  0  0  0  0
  151.5874  138.0796  158.2980 H   0  0  0  0  0  0  0  0  0  0  0  0
  150.4920  136.7603  157.8656 H   0  0  0  0  0  0  0  0  0  0  0  0
  149.6185  140.5083  156.1287 H   0  0  0  0  0  0  0  0  0  0  0  0
  149.1707  140.1716  157.7762 H   0  0  0  0  0  0  0  0  0  0  0  0
  151.3982  140.5293  158.6108 H   0  0  0  0  0  0  0  0  0  0  0  0
  152.0925  139.8641  155.9904 H   0  0  0  0  0  0  0  0  0  0  0  0
  152.1686  142.4699  156.6724 H   0  0  0  0  0  0  0  0  0  0  0  0
  150.4201  142.4784  156.6633 H   0  0  0  0  0  0  0  0  0  0  0  0
  149.9765  144.5713  157.9201 H   0  0  0  0  0  0  0  0  0  0  0  0
  151.8432  144.6624  162.4876 H   0  0  0  0  0  0  0  0  0  0  0  0
  153.1923  142.0394  164.2774 H   0  0  0  0  0  0  0  0  0  0  0  0
  153.1991  143.8010  164.2066 H   0  0  0  0  0  0  0  0  0  0  0  0
  154.6192  142.9002  163.6800 H   0  0  0  0  0  0  0  0  0  0  0  0
  154.3732  139.8833  161.1117 H   0  0  0  0  0  0  0  0  0  0  0  0
  153.8550  140.1626  162.7728 H   0  0  0  0  0  0  0  0  0  0  0  0
  155.2386  141.0485  162.1130 H   0  0  0  0  0  0  0  0  0  0  0  0
  153.0579  140.9061  159.4404 H   0  0  0  0  0  0  0  0  0  0  0  0
  1  2  1  0  0  0  0
  1 24  1  0  0  0  0
  1 25  1  0  0  0  0
  1 26  1  0  0  0  0
  2  3  1  0  0  0  0
  2 27  1  0  0  0  0
  2 28  1  0  0  0  0
  3  4  1  0  0  0  0
  3 29  1  0  0  0  0
  3 30  1  0  0  0  0
  4  5  2  0  0  0  0
  4  6  2  0  0  0  0
  4  7  1  0  0  0  0
  7  8  1  0  0  0  0
  7  9  1  0  0  0  0
  8 31  1  0  0  0  0
  8 32  1  0  0  0  0
  8 33  1  0  0  0  0
  9 10  1  0  0  0  0
  9 34  1  0  0  0  0
  9 35  1  0  0  0  0
 10 11  1  0  0  0  0
 10 12  1  0  0  0  0
 10 36  1  0  0  0  0
 11 37  1  0  0  0  0
 12 13  1  0  0  0  0
 12 38  1  0  0  0  0
 12 39  1  0  0  0  0
 13 23  1  0  0  0  0
 13 14  1  0  0  0  0
 14 15  2  0  0  0  0
 14 40  1  0  0  0  0
 15 16  1  0  0  0  0
 16 23  2  0  0  0  0
 16 17  1  0  0  0  0
 17 18  2  0  0  0  0
 17 41  1  0  0  0  0
 18 19  1  0  0  0  0
 18 20  1  0  0  0  0
 19 42  1  0  0  0  0
 19 43  1  0  0  0  0
 19 44  1  0  0  0  0
 20 21  1  0  0  0  0
 20 22  2  0  0  0  0
 21 45  1  0  0  0  0
 21 46  1  0  0  0  0
 21 47  1  0  0  0  0
 22 23  1  0  0  0  0
 22 48  1  0  0  0  0
M  END
> <s_m_source_file>
AV-unprocessed.smi

> <i_m_source_file_index>
2825

> <i_lp_mmshare_version>
43012

> <i_f3d_flags>
0

> <s_epik_input>
W0NIM11bQ0gyXVtDSDJdUyg9TykoPU8pTihbQ0gzXSlbQ0gyXVtDQEhdKFtPSF0pW0NIMl1uKFtjSF1uMSljKGMxMilbY0hdYyhbQ0gzXSljKFtjSF0yKVtDSDNd

> <s_epik_cmdline>
J2VwaWtfcHl0aG9uJywgJy1waCcsICc3LjAnLCAnLXRuJywgJzgnLCAnLW1hJywgJzIwMCcsICctbWV0YWxfYmluZGluZycsICctaW1hZScsICc8aW5maWxlLm1hZT4nLCAnLW9tYWUnLCAnPG91dGZpbGUubWFlPic=

> <r_epik_Ionization_Penalty>
0.104931

> <r_epik_Ionization_Penalty_Charging>
0

> <r_epik_Ionization_Penalty_Neutral>
0.104931

> <r_epik_State_Penalty>
0.0948201

> <r_epik_Charging_Adjusted_Penalty>
0.0948201

> <i_epik_Tot_Q>
0

> <i_epik_Tot_abs_Q>
0

> <r_epik_Metal_State_Penalty>
0.00010282

> <b_epik_Metal_Only>
0

> <s_lp_Force_Field>
OPLS_2005

> <r_lp_Energy>
7.6372

> <b_lp_Chiralities_Consistent>
1

> <s_lp_Variant>
AV-unprocessed.smi:2825-2

> <Gold.Version>
5.8.1

> <Gold.Id.Protein>
6NUR|6NUR_protein|mol2

> <Gold.PLP.Fitness>
53.7163

> <Gold.PLP.PLP>
-43.6872

> <Gold.PLP.part.hbond>
-3.0000

> <Gold.PLP.part.metal>
0.0000

> <Gold.PLP.part.buried>
-2.6125

> <Gold.PLP.part.nonpolar>
-37.4509

> <Gold.PLP.part.repulsive>
0.3641

> <Gold.PLP.ligand.clash>
0.0000

> <Gold.PLP.ligand.torsion>
2.5296

> <Gold.PLP.Chemscore.Hbond>
3.0000

> <Gold.PLP.Chemscore.CHOScore>
1.1707

> <Gold.PLP.Chemscore.Metal>
0.0000

> <Gold.Chemscore.Hbonds>
donor molecule, donor type, donor heavy atom, donor atom, acceptor molecule, acceptor atom, score
      P1  H  7989  7998       L1     6  0.86
      P1  H  7997  8008       L1    11  0.85
      P1  H 10752 10765       L1     5  0.75
      L1  C    14    40       P1  8028  0.68
      L1  C    14    40       P1  8029  0.45

> <Gold.PLP.Chemscore.Internal.Correction>
2.5763

> <Gold.Rescore>
     Score         DG    S(hbond)    S(metal)    S(lipo)     H(rot)  DE(clash)    DE(int)     intcor
     17.64     -20.95       2.43        0.00     116.02       2.43       0.85       2.46       ----

> <Gold.Chemscore.Fitness>
17.6351

> <Gold.Chemscore.DG>
-20.9466

> <Gold.Chemscore.ZeroCoef>
-5.4800

> <Gold.Chemscore.Hbond>
2.4313

> <Gold.Chemscore.Metal>
0.0000

> <Gold.Chemscore.Lipo>
116.0248

> <Gold.Chemscore.Internal_Hbond>
0.0000

> <Gold.Chemscore.DEClash>
0.8480

> <Gold.Chemscore.DEInternal>
2.4634

> <Gold.Chemscore.Rot>
2.4332

> <Gold.Chemscore.Internal.Correction>
   9.000000E+99

> <Gold.Chemscore.Hbonds>
donor molecule, donor type, donor heavy atom, donor atom, acceptor molecule, acceptor atom, score
      P1  H  7989  7998       L1     6  0.84
      P1  H  7997  8008       L1    11  0.14
      P1  H 10752 10765       L1     5  0.74

> <Gold.Chemscore.Hbond.Weighted>
-8.1206

> <Gold.Chemscore.Metal.Weighted>
-0.0000

> <Gold.Chemscore.Lipo.Weighted>
-13.5749

> <Gold.Chemscore.Internal_Hbond.Weighted>
0.0000

> <Gold.Chemscore.DEClash.Weighted>
0.8480

> <Gold.Chemscore.DEInternal.Weighted>
2.4634

> <Gold.Chemscore.Rot.Weighted>
6.2289

> <Gold.Chemscore.Internal.Correction.Weighted>
   9.000000E+99

> <Gold.Protein.RotatedTorsions>
[ 6907 6896 6895 6894 ] final   88.87 input  -60.11 | X-H torsion
[ 7974 7965 7964 7962 ] final  -57.96 input  175.53 | X-H torsion
[ 8008 7997 7996 7995 ] final  -53.80 input   59.86 | X-H torsion
[ 10167 10162 10161 10158 ] final -117.67 input  -65.29 | X-H torsion
[ 10718 10713 10712 10709 ] final   33.32 input   66.30 | X-H torsion
[ 10763 10752 10751 10750 ] final  175.10 input  -60.55 | X-H torsion
[ 11005 11000 10999 10996 ] final  118.03 input  -57.11 | X-H torsion

> <Gold.Protein.ActiveResidues>
 VAL166  LYS551  ARG553  GLY616  TRP617  ASP618  TYR619  PRO620  LYS621  CYS622 
 ASP623  PHE694  ASN695  SER759  ASP760  ASP761  ALA762  ILE779  LEU786  VAL792 
 PHE793  MET794  SER795  GLU796  ALA797  LYS798  CYS799  TRP800  GLU811  SER814 

> <Gold.Protein.RotatedAtoms>
  152.5430  134.2054  159.8728 H   0  0  0  0  0  0  0  0  0  0  0  0  # atno 6907 bound_to 6896
  151.2040  133.4587  159.2604 H   0  0  0  0  0  0  0  0  0  0  0  0  # atno 6908 bound_to 6896
  151.0962  134.9958  159.8482 H   0  0  0  0  0  0  0  0  0  0  0  0  # atno 6909 bound_to 6896
  145.8449  140.8392  143.0015 H   0  0  0  0  0  0  0  0  0  0  0  0  # atno 7974 bound_to 7965
  154.4144  140.1191  156.5212 H   0  0  0  0  0  0  0  0  0  0  0  0  # atno 8008 bound_to 7997
  155.6700  140.3496  155.4795 H   0  0  0  0  0  0  0  0  0  0  0  0  # atno 8009 bound_to 7997
  155.9641  140.1128  157.0860 H   0  0  0  0  0  0  0  0  0  0  0  0  # atno 8010 bound_to 7997
  140.0659  143.4923  152.2006 H   0  0  0  0  0  0  0  0  0  0  0  0  # atno 10167 bound_to 10162
  157.2964  130.7328  149.6641 H   0  0  0  0  0  0  0  0  0  0  0  0  # atno 10718 bound_to 10713
  154.4630  135.2768  155.1699 H   0  0  0  0  0  0  0  0  0  0  0  0  # atno 10763 bound_to 10752
  154.3479  135.6156  153.5632 H   0  0  0  0  0  0  0  0  0  0  0  0  # atno 10764 bound_to 10752
  152.9856  135.5804  154.4996 H   0  0  0  0  0  0  0  0  0  0  0  0  # atno 10765 bound_to 10752
  139.9095  134.9616  156.7442 H   0  0  0  0  0  0  0  0  0  0  0  0  # atno 11005 bound_to 11000
  144.6731  140.0867  143.7467 LP  0  0  0  0  0  0  0  0  0  0  0  0  # atno 17320 bound_to 7965
  145.9423  139.2677  143.1261 LP  0  0  0  0  0  0  0  0  0  0  0  0  # atno 17321 bound_to 7965
  139.5865  144.7533  151.3506 LP  0  0  0  0  0  0  0  0  0  0  0  0  # atno 17342 bound_to 10162
  140.7149  143.7292  150.7637 LP  0  0  0  0  0  0  0  0  0  0  0  0  # atno 17343 bound_to 10162
  155.9669  130.4293  150.4827 LP  0  0  0  0  0  0  0  0  0  0  0  0  # atno 17370 bound_to 10713
  157.2799  131.0605  151.2204 LP  0  0  0  0  0  0  0  0  0  0  0  0  # atno 17371 bound_to 10713
  140.6825  133.9461  155.7919 LP  0  0  0  0  0  0  0  0  0  0  0  0  # atno 17394 bound_to 11000
  141.0500  134.0499  157.3796 LP  0  0  0  0  0  0  0  0  0  0  0  0  # atno 17395 bound_to 11000

$$$$
