AV-unprocessed.smi:1555|AV-procd|sdf|6265|dock4
  -GOLD-   22720 6453D 1   1.00000     0.00000
 Structure written by MMmdl.
 42 43  0  0  0  0  0  0  0  0  2 V2000
  147.4135  141.9543  156.6390 C   0  0  0  0  0  0  0  0  0  0  0  0
  148.7785  141.4278  156.1730 C   0  0  1  0  0  0  0  0  0  0  0  0
  148.9139  141.4782  154.6395 C   0  0  0  0  0  0  0  0  0  0  0  0
  147.9556  140.5986  153.9623 N   0  0  0  0  0  0  0  0  0  0  0  0
  148.0421  139.2391  153.8020 C   0  0  0  0  0  0  0  0  0  0  0  0
  146.9204  138.8549  153.1136 C   0  0  0  0  0  0  0  0  0  0  0  0
  146.1979  139.9948  152.8824 N   0  3  0  0  0  0  0  0  0  0  0  0
  146.8299  141.0543  153.3978 C   0  0  0  0  0  0  0  0  0  0  0  0
  149.8438  142.2121  156.7934 N   0  0  0  0  0  0  0  0  0  0  0  0
  150.8633  141.7238  157.5203 C   0  0  0  0  0  0  0  0  0  0  0  0
  150.9888  140.5196  157.7464 O   0  0  0  0  0  0  0  0  0  0  0  0
  151.7333  142.6612  157.9748 N   0  0  0  0  0  0  0  0  0  0  0  0
  151.6290  144.1176  157.7830 C   0  0  0  0  0  0  0  0  0  0  0  0
  151.2346  144.7640  159.1226 C   0  0  0  0  0  0  0  0  0  0  0  0
  152.2482  144.4158  160.2355 C   0  0  0  0  0  0  0  0  0  0  0  0
  151.7931  144.9784  161.5943 C   0  0  0  0  0  0  0  0  0  0  0  0
  150.5616  144.4090  161.9859 O   0  0  0  0  0  0  0  0  0  0  0  0
  152.4983  142.8900  160.2862 C   0  0  0  0  0  0  0  0  0  0  0  0
  152.8300  142.3277  158.8916 C   0  0  0  0  0  0  0  0  0  0  0  0
  146.5996  141.3750  156.2023 H   0  0  0  0  0  0  0  0  0  0  0  0
  147.2704  142.9971  156.3533 H   0  0  0  0  0  0  0  0  0  0  0  0
  147.3165  141.8895  157.7232 H   0  0  0  0  0  0  0  0  0  0  0  0
  148.8575  140.3841  156.4826 H   0  0  0  0  0  0  0  0  0  0  0  0
  148.7465  142.4921  154.2732 H   0  0  0  0  0  0  0  0  0  0  0  0
  149.9191  141.1903  154.3272 H   0  0  0  0  0  0  0  0  0  0  0  0
  148.8720  138.6607  154.1816 H   0  0  0  0  0  0  0  0  0  0  0  0
  146.5909  137.8816  152.7801 H   0  0  0  0  0  0  0  0  0  0  0  0
  146.4946  142.0758  153.3678 H   0  0  0  0  0  0  0  0  0  0  0  0
  149.8048  143.2125  156.6625 H   0  0  0  0  0  0  0  0  0  0  0  0
  152.5945  144.5046  157.4542 H   0  0  0  0  0  0  0  0  0  0  0  0
  150.9244  144.4151  157.0064 H   0  0  0  0  0  0  0  0  0  0  0  0
  151.1691  145.8460  159.0035 H   0  0  0  0  0  0  0  0  0  0  0  0
  150.2383  144.4236  159.4090 H   0  0  0  0  0  0  0  0  0  0  0  0
  153.1911  144.8979  159.9715 H   0  0  0  0  0  0  0  0  0  0  0  0
  152.5309  144.7533  162.3650 H   0  0  0  0  0  0  0  0  0  0  0  0
  151.6925  146.0634  161.5525 H   0  0  0  0  0  0  0  0  0  0  0  0
  150.0876  144.1547  161.2088 H   0  0  0  0  0  0  0  0  0  0  0  0
  153.3137  142.6638  160.9737 H   0  0  0  0  0  0  0  0  0  0  0  0
  151.6156  142.3830  160.6788 H   0  0  0  0  0  0  0  0  0  0  0  0
  153.0137  141.2546  158.9598 H   0  0  0  0  0  0  0  0  0  0  0  0
  153.7594  142.7632  158.5221 H   0  0  0  0  0  0  0  0  0  0  0  0
  145.3124  140.0330  152.3932 H   0  0  0  0  0  0  0  0  0  0  0  0
  1  2  1  0  0  0  0
  1 20  1  0  0  0  0
  1 21  1  0  0  0  0
  1 22  1  0  0  0  0
  2  3  1  0  0  0  0
  2  9  1  0  0  0  0
  2 23  1  0  0  0  0
  3  4  1  0  0  0  0
  3 24  1  0  0  0  0
  3 25  1  0  0  0  0
  4  8  1  0  0  0  0
  4  5  1  0  0  0  0
  5  6  2  0  0  0  0
  5 26  1  0  0  0  0
  6  7  1  0  0  0  0
  6 27  1  0  0  0  0
  7  8  2  0  0  0  0
  7 42  1  0  0  0  0
  8 28  1  0  0  0  0
  9 10  1  0  0  0  0
  9 29  1  0  0  0  0
 10 11  2  0  0  0  0
 10 12  1  0  0  0  0
 12 19  1  0  0  0  0
 12 13  1  0  0  0  0
 13 14  1  0  0  0  0
 13 30  1  0  0  0  0
 13 31  1  0  0  0  0
 14 15  1  0  0  0  0
 14 32  1  0  0  0  0
 14 33  1  0  0  0  0
 15 16  1  0  0  0  0
 15 18  1  0  0  0  0
 15 34  1  0  0  0  0
 16 17  1  0  0  0  0
 16 35  1  0  0  0  0
 16 36  1  0  0  0  0
 17 37  1  0  0  0  0
 18 19  1  0  0  0  0
 18 38  1  0  0  0  0
 18 39  1  0  0  0  0
 19 40  1  0  0  0  0
 19 41  1  0  0  0  0
M  CHG  1   7   1
M  END
> <s_m_source_file>
AV-unprocessed.smi

> <i_m_source_file_index>
1555

> <i_lp_mmshare_version>
43012

> <i_f3d_flags>
0

> <s_epik_input>
W2NIXTFuW2NIXVtjSF1uMVtDSDJdW0NAQEhdKFtDSDNdKVtOSF1DKD1PKU4yW0NIMl1bQ0gyXVtDSF0oW0NIMl1bT0hdKVtDSDJdW0NIMl0y

> <s_epik_cmdline>
J2VwaWtfcHl0aG9uJywgJy1waCcsICc3LjAnLCAnLXRuJywgJzgnLCAnLW1hJywgJzIwMCcsICctbWV0YWxfYmluZGluZycsICctaW1hZScsICc8aW5maWxlLm1hZT4nLCAnLW9tYWUnLCAnPG91dGZpbGUubWFlPic=

> <r_lp_tautomer_probability>
1

> <r_epik_Ionization_Penalty>
0.253261

> <r_epik_Ionization_Penalty_Charging>
0

> <r_epik_Ionization_Penalty_Neutral>
0.253261

> <r_epik_State_Penalty>
0.244619

> <r_epik_Charging_Adjusted_Penalty>
0.244619

> <i_epik_Tot_Q>
1

> <i_epik_Tot_abs_Q>
1

> <r_epik_Metal_State_Penalty>
0.535039

> <b_epik_Metal_Only>
0

> <s_lp_Force_Field>
OPLS_2005

> <r_lp_Energy>
35.1674

> <b_lp_Chiralities_Consistent>
1

> <s_lp_Variant>
AV-unprocessed.smi:1555-2

> <Gold.Version>
5.8.1

> <Gold.Id.Protein>
6NUR|6NUR_protein|mol2

> <Gold.PLP.Fitness>
48.8707

> <Gold.PLP.PLP>
-41.1038

> <Gold.PLP.part.hbond>
-4.4794

> <Gold.PLP.part.metal>
0.0000

> <Gold.PLP.part.buried>
-2.1763

> <Gold.PLP.part.nonpolar>
-36.1760

> <Gold.PLP.part.repulsive>
0.0277

> <Gold.PLP.ligand.clash>
0.0000

> <Gold.PLP.ligand.torsion>
0.3320

> <Gold.PLP.Chemscore.Hbond>
2.8000

> <Gold.PLP.Chemscore.CHOScore>
0.0000

> <Gold.PLP.Chemscore.Metal>
0.0000

> <Gold.Chemscore.Hbonds>
donor molecule, donor type, donor heavy atom, donor atom, acceptor molecule, acceptor atom, score
      L1  H     7    42       P1 10175  1.89
      L1  H     9    29       P1  8028  0.91

> <Gold.PLP.Chemscore.Internal.Correction>
0.0309

> <Gold.Rescore>
     Score         DG    S(hbond)    S(metal)    S(lipo)     H(rot)  DE(clash)    DE(int)     intcor
     12.81     -16.46       1.87        0.00      96.70       2.56       3.38       0.27       ----

> <Gold.Chemscore.Fitness>
12.8111

> <Gold.Chemscore.DG>
-16.4649

> <Gold.Chemscore.ZeroCoef>
-5.4800

> <Gold.Chemscore.Hbond>
1.8658

> <Gold.Chemscore.Metal>
0.0000

> <Gold.Chemscore.Lipo>
96.7036

> <Gold.Chemscore.Internal_Hbond>
0.0000

> <Gold.Chemscore.DEClash>
3.3809

> <Gold.Chemscore.DEInternal>
0.2729

> <Gold.Chemscore.Rot>
2.5630

> <Gold.Chemscore.Internal.Correction>
   9.000000E+99

> <Gold.Chemscore.Hbonds>
donor molecule, donor type, donor heavy atom, donor atom, acceptor molecule, acceptor atom, score
      L1  H     7    42       P1 10175  0.82
      L1  H     9    29       P1  8028  0.82

> <Gold.Chemscore.Hbond.Weighted>
-6.2318

> <Gold.Chemscore.Metal.Weighted>
-0.0000

> <Gold.Chemscore.Lipo.Weighted>
-11.3143

> <Gold.Chemscore.Internal_Hbond.Weighted>
0.0000

> <Gold.Chemscore.DEClash.Weighted>
3.3809

> <Gold.Chemscore.DEInternal.Weighted>
0.2729

> <Gold.Chemscore.Rot.Weighted>
6.5612

> <Gold.Chemscore.Internal.Correction.Weighted>
   9.000000E+99

> <Gold.Protein.RotatedTorsions>
[ 6907 6896 6895 6894 ] final   73.43 input  -60.11 | X-H torsion
[ 7974 7965 7964 7962 ] final -116.72 input  175.53 | X-H torsion
[ 8008 7997 7996 7995 ] final  -16.96 input   59.86 | X-H torsion
[ 10167 10162 10161 10158 ] final -152.85 input  -65.29 | X-H torsion
[ 10718 10713 10712 10709 ] final   20.11 input   66.30 | X-H torsion
[ 10763 10752 10751 10750 ] final   35.84 input  -60.55 | X-H torsion
[ 11005 11000 10999 10996 ] final  -95.82 input  -57.11 | X-H torsion

> <Gold.Protein.ActiveResidues>
 VAL166  LYS551  ARG553  GLY616  TRP617  ASP618  TYR619  PRO620  LYS621  CYS622 
 ASP623  PHE694  ASN695  SER759  ASP760  ASP761  ALA762  ILE779  LEU786  VAL792 
 PHE793  MET794  SER795  GLU796  ALA797  LYS798  CYS799  TRP800  GLU811  SER814 

> <Gold.Protein.RotatedAtoms>
  152.4923  134.4422  159.9547 H   0  0  0  0  0  0  0  0  0  0  0  0  # atno 6907 bound_to 6896
  151.4407  133.3638  159.2789 H   0  0  0  0  0  0  0  0  0  0  0  0  # atno 6908 bound_to 6896
  150.9089  134.8529  159.7472 H   0  0  0  0  0  0  0  0  0  0  0  0  # atno 6909 bound_to 6896
  145.0935  140.8505  143.3968 H   0  0  0  0  0  0  0  0  0  0  0  0  # atno 7974 bound_to 7965
  154.5014  140.2155  155.9339 H   0  0  0  0  0  0  0  0  0  0  0  0  # atno 8008 bound_to 7997
  156.1438  140.3174  155.8505 H   0  0  0  0  0  0  0  0  0  0  0  0  # atno 8009 bound_to 7997
  155.4069  140.0488  157.3024 H   0  0  0  0  0  0  0  0  0  0  0  0  # atno 8010 bound_to 7997
  139.7146  143.9053  152.2481 H   0  0  0  0  0  0  0  0  0  0  0  0  # atno 10167 bound_to 10162
  157.1200  130.6545  149.5921 H   0  0  0  0  0  0  0  0  0  0  0  0  # atno 10718 bound_to 10713
  153.0102  135.6322  154.1890 H   0  0  0  0  0  0  0  0  0  0  0  0  # atno 10763 bound_to 10752
  154.1632  135.2822  155.3104 H   0  0  0  0  0  0  0  0  0  0  0  0  # atno 10764 bound_to 10752
  154.5965  135.5601  153.7391 H   0  0  0  0  0  0  0  0  0  0  0  0  # atno 10765 bound_to 10752
  141.1430  133.8053  157.0487 H   0  0  0  0  0  0  0  0  0  0  0  0  # atno 11005 bound_to 11000
  145.1038  139.2804  143.5672 LP  0  0  0  0  0  0  0  0  0  0  0  0  # atno 17320 bound_to 7965
  146.3531  140.0613  142.8629 LP  0  0  0  0  0  0  0  0  0  0  0  0  # atno 17321 bound_to 7965
  139.8932  144.6954  150.8747 LP  0  0  0  0  0  0  0  0  0  0  0  0  # atno 17342 bound_to 10162
  140.7741  143.3570  151.1901 LP  0  0  0  0  0  0  0  0  0  0  0  0  # atno 17343 bound_to 10162
  155.9831  130.4848  150.6914 LP  0  0  0  0  0  0  0  0  0  0  0  0  # atno 17370 bound_to 10713
  157.4485  131.0870  151.0870 LP  0  0  0  0  0  0  0  0  0  0  0  0  # atno 17371 bound_to 10713
  140.0646  134.9736  157.1363 LP  0  0  0  0  0  0  0  0  0  0  0  0  # atno 17394 bound_to 11000
  140.3799  134.2298  155.7171 LP  0  0  0  0  0  0  0  0  0  0  0  0  # atno 17395 bound_to 11000

$$$$
