AV-unprocessed.smi:2849|AV-procd|sdf|10959|dock3
  -GOLD-   2272015413D 1   1.00000     0.00000
 Structure written by MMmdl.
 55 58  0  0  0  0  0  0  0  0  2 V2000
  146.0117  133.6894  151.2794 C   0  0  0  0  0  0  0  0  0  0  0  0
  146.2732  134.9635  151.9902 N   0  3  2  0  0  0  0  0  0  0  0  0
  146.1798  134.8844  153.4685 C   0  0  2  0  0  0  0  0  0  0  0  0
  144.7141  134.6829  153.9297 C   0  0  0  0  0  0  0  0  0  0  0  0
  143.7266  135.7075  153.3402 C   0  0  0  0  0  0  0  0  0  0  0  0
  143.9949  135.9960  151.8505 C   0  0  0  0  0  0  0  0  0  0  0  0
  145.4977  136.1256  151.4919 C   0  0  1  0  0  0  0  0  0  0  0  0
  146.1741  137.4253  151.9868 C   0  0  0  0  0  0  0  0  0  0  0  0
  146.4174  137.4786  153.5139 C   0  0  2  0  0  0  0  0  0  0  0  0
  147.4081  138.5130  153.8059 N   0  0  0  0  0  0  0  0  0  0  0  0
  148.0374  138.6731  154.9796 C   0  0  0  0  0  0  0  0  0  0  0  0
  147.8491  137.9417  155.9506 O   0  0  0  0  0  0  0  0  0  0  0  0
  148.8754  139.7236  154.9383 N   0  0  0  0  0  0  0  0  0  0  0  0
  149.6982  140.2657  155.9648 C   0  0  0  0  0  0  0  0  0  0  0  0
  150.3069  139.5172  157.0003 C   0  0  0  0  0  0  0  0  0  0  0  0
  151.0982  140.1873  157.9532 C   0  0  0  0  0  0  0  0  0  0  0  0
  151.2705  141.5875  157.8473 C   0  0  0  0  0  0  0  0  0  0  0  0
  152.0433  142.2980  158.7867 N   0  0  0  0  0  0  0  0  0  0  0  0
  152.3772  141.7471  160.0905 C   0  0  0  0  0  0  0  0  0  0  0  0
  153.1472  142.8636  160.7937 C   0  0  0  0  0  0  0  0  0  0  0  0
  152.5127  144.1343  160.2268 C   0  0  0  0  0  0  0  0  0  0  0  0
  152.1190  143.7519  158.7951 C   0  0  0  0  0  0  0  0  0  0  0  0
  150.6920  142.3014  156.8533 N   0  0  0  0  0  0  0  0  0  0  0  0
  149.9346  141.6550  155.9432 C   0  0  0  0  0  0  0  0  0  0  0  0
  146.8881  136.1148  154.0819 C   0  0  0  0  0  0  0  0  0  0  0  0
  144.9867  133.3439  151.4103 H   0  0  0  0  0  0  0  0  0  0  0  0
  146.6798  132.9077  151.6421 H   0  0  0  0  0  0  0  0  0  0  0  0
  146.1934  133.8071  150.2109 H   0  0  0  0  0  0  0  0  0  0  0  0
  146.7444  134.0084  153.7919 H   0  0  0  0  0  0  0  0  0  0  0  0
  144.3882  133.6840  153.6393 H   0  0  0  0  0  0  0  0  0  0  0  0
  144.6571  134.6994  155.0185 H   0  0  0  0  0  0  0  0  0  0  0  0
  142.7073  135.3393  153.4606 H   0  0  0  0  0  0  0  0  0  0  0  0
  143.7498  136.6291  153.9155 H   0  0  0  0  0  0  0  0  0  0  0  0
  143.5622  135.1870  151.2612 H   0  0  0  0  0  0  0  0  0  0  0  0
  143.4566  136.8943  151.5461 H   0  0  0  0  0  0  0  0  0  0  0  0
  145.5717  136.1335  150.4033 H   0  0  0  0  0  0  0  0  0  0  0  0
  147.1363  137.5063  151.4779 H   0  0  0  0  0  0  0  0  0  0  0  0
  145.5985  138.2958  151.6692 H   0  0  0  0  0  0  0  0  0  0  0  0
  145.4901  137.7737  153.9991 H   0  0  0  0  0  0  0  0  0  0  0  0
  147.6222  139.1618  153.0627 H   0  0  0  0  0  0  0  0  0  0  0  0
  148.8965  140.2322  154.0663 H   0  0  0  0  0  0  0  0  0  0  0  0
  150.1936  138.4490  157.0901 H   0  0  0  0  0  0  0  0  0  0  0  0
  151.5539  139.6200  158.7510 H   0  0  0  0  0  0  0  0  0  0  0  0
  151.4594  141.5111  160.6308 H   0  0  0  0  0  0  0  0  0  0  0  0
  152.9734  140.8379  160.0055 H   0  0  0  0  0  0  0  0  0  0  0  0
  153.0858  142.8016  161.8805 H   0  0  0  0  0  0  0  0  0  0  0  0
  154.2001  142.8209  160.5113 H   0  0  0  0  0  0  0  0  0  0  0  0
  151.6165  144.3782  160.7989 H   0  0  0  0  0  0  0  0  0  0  0  0
  153.1788  144.9966  160.2659 H   0  0  0  0  0  0  0  0  0  0  0  0
  152.8838  144.0687  158.0853 H   0  0  0  0  0  0  0  0  0  0  0  0
  151.1734  144.2161  158.5132 H   0  0  0  0  0  0  0  0  0  0  0  0
  149.4981  142.2731  155.1721 H   0  0  0  0  0  0  0  0  0  0  0  0
  146.7863  136.1051  155.1677 H   0  0  0  0  0  0  0  0  0  0  0  0
  147.9566  136.0084  153.8862 H   0  0  0  0  0  0  0  0  0  0  0  0
  147.2404  135.1733  151.7889 H   0  0  0  0  0  0  0  0  0  0  0  0
  1  2  1  0  0  0  0
  1 26  1  0  0  0  0
  1 27  1  0  0  0  0
  1 28  1  0  0  0  0
  2  7  1  0  0  0  0
  2  3  1  0  0  0  0
  2 55  1  0  0  0  0
  3 25  1  0  0  0  0
  3  4  1  0  0  0  0
  3 29  1  0  0  0  0
  4  5  1  0  0  0  0
  4 30  1  0  0  0  0
  4 31  1  0  0  0  0
  5  6  1  0  0  0  0
  5 32  1  0  0  0  0
  5 33  1  0  0  0  0
  6  7  1  0  0  0  0
  6 34  1  0  0  0  0
  6 35  1  0  0  0  0
  7  8  1  0  0  0  0
  7 36  1  0  0  0  0
  8  9  1  0  0  0  0
  8 37  1  0  0  0  0
  8 38  1  0  0  0  0
  9 10  1  0  0  0  0
  9 25  1  0  0  0  0
  9 39  1  0  0  0  0
 10 11  1  0  0  0  0
 10 40  1  0  0  0  0
 11 12  2  0  0  0  0
 11 13  1  0  0  0  0
 13 14  1  0  0  0  0
 13 41  1  0  0  0  0
 14 24  1  0  0  0  0
 14 15  2  0  0  0  0
 15 16  1  0  0  0  0
 15 42  1  0  0  0  0
 16 17  2  0  0  0  0
 16 43  1  0  0  0  0
 17 18  1  0  0  0  0
 17 23  1  0  0  0  0
 18 22  1  0  0  0  0
 18 19  1  0  0  0  0
 19 20  1  0  0  0  0
 19 44  1  0  0  0  0
 19 45  1  0  0  0  0
 20 21  1  0  0  0  0
 20 46  1  0  0  0  0
 20 47  1  0  0  0  0
 21 22  1  0  0  0  0
 21 48  1  0  0  0  0
 21 49  1  0  0  0  0
 22 50  1  0  0  0  0
 22 51  1  0  0  0  0
 23 24  2  0  0  0  0
 24 52  1  0  0  0  0
 25 53  1  0  0  0  0
 25 54  1  0  0  0  0
M  CHG  1   2   1
M  END
> <s_m_source_file>
AV-unprocessed.smi

> <i_m_source_file_index>
2849

> <i_lp_mmshare_version>
43012

> <i_f3d_flags>
0

> <s_epik_input>
W0NIMl0xW0NIMl1bQ0gyXVtDQEhdKE4oW0NIM10pW0NIXTEyKVtDSDJdW0NASF0oW0NIMl0yKVtOSF1DKD1PKVtOSF1jM1tjSF1bY0hdYyhuW2NIXTMpTjRbQ0gyXVtDSDJdW0NIMl1bQ0gyXTQ=

> <s_epik_cmdline>
J2VwaWtfcHl0aG9uJywgJy1waCcsICc3LjAnLCAnLXRuJywgJzgnLCAnLW1hJywgJzIwMCcsICctbWV0YWxfYmluZGluZycsICctaW1hZScsICc8aW5maWxlLm1hZT4nLCAnLW9tYWUnLCAnPG91dGZpbGUubWFlPic=

> <r_lp_tautomer_probability>
1

> <r_epik_Ionization_Penalty>
0.07954

> <r_epik_Ionization_Penalty_Charging>
0.00089841

> <r_epik_Ionization_Penalty_Neutral>
0.0786416

> <r_epik_State_Penalty>
0.0689917

> <r_epik_Charging_Adjusted_Penalty>
0.0698901

> <i_epik_Tot_Q>
1

> <i_epik_Tot_abs_Q>
1

> <r_epik_Metal_State_Penalty>
0.060891

> <b_epik_Metal_Only>
0

> <s_lp_Force_Field>
OPLS_2005

> <r_lp_Energy>
61.678

> <b_lp_Chiralities_Consistent>
1

> <s_lp_Variant>
AV-unprocessed.smi:2849-3

> <Gold.Version>
5.8.1

> <Gold.Id.Protein>
6NUR|6NUR_protein|mol2

> <Gold.PLP.Fitness>
43.7669

> <Gold.PLP.PLP>
-36.0605

> <Gold.PLP.part.hbond>
-1.0000

> <Gold.PLP.part.metal>
0.0000

> <Gold.PLP.part.buried>
-3.1296

> <Gold.PLP.part.nonpolar>
-32.4891

> <Gold.PLP.part.repulsive>
0.2152

> <Gold.PLP.ligand.clash>
0.0000

> <Gold.PLP.ligand.torsion>
0.4800

> <Gold.PLP.Chemscore.Hbond>
2.0000

> <Gold.PLP.Chemscore.CHOScore>
0.8389

> <Gold.PLP.Chemscore.Metal>
0.0000

> <Gold.Chemscore.Hbonds>
donor molecule, donor type, donor heavy atom, donor atom, acceptor molecule, acceptor atom, score
      L1  H     2    55       P1  7948  2.00
      L1  C    24    52       P1  8028  0.75

> <Gold.PLP.Chemscore.Internal.Correction>
0.1494

> <Gold.Rescore>
     Score         DG    S(hbond)    S(metal)    S(lipo)     H(rot)  DE(clash)    DE(int)     intcor
     16.13     -18.14       0.98        0.00     102.23       1.00       0.08       1.93       ----

> <Gold.Chemscore.Fitness>
16.1259

> <Gold.Chemscore.DG>
-18.1448

> <Gold.Chemscore.ZeroCoef>
-5.4800

> <Gold.Chemscore.Hbond>
0.9771

> <Gold.Chemscore.Metal>
0.0000

> <Gold.Chemscore.Lipo>
102.2337

> <Gold.Chemscore.Internal_Hbond>
0.0000

> <Gold.Chemscore.DEClash>
0.0841

> <Gold.Chemscore.DEInternal>
1.9349

> <Gold.Chemscore.Rot>
1.0000

> <Gold.Chemscore.Internal.Correction>
   9.000000E+99

> <Gold.Chemscore.Hbonds>
donor molecule, donor type, donor heavy atom, donor atom, acceptor molecule, acceptor atom, score
      L1  H     2    55       P1  7948  0.93

> <Gold.Chemscore.Hbond.Weighted>
-3.2635

> <Gold.Chemscore.Metal.Weighted>
-0.0000

> <Gold.Chemscore.Lipo.Weighted>
-11.9613

> <Gold.Chemscore.Internal_Hbond.Weighted>
0.0000

> <Gold.Chemscore.DEClash.Weighted>
0.0841

> <Gold.Chemscore.DEInternal.Weighted>
1.9349

> <Gold.Chemscore.Rot.Weighted>
2.5600

> <Gold.Chemscore.Internal.Correction.Weighted>
   9.000000E+99

> <Gold.Protein.RotatedTorsions>
[ 6907 6896 6895 6894 ] final -129.92 input  -60.11 | X-H torsion
[ 7974 7965 7964 7962 ] final -134.31 input  175.53 | X-H torsion
[ 8008 7997 7996 7995 ] final   53.40 input   59.86 | X-H torsion
[ 10167 10162 10161 10158 ] final  168.84 input  -65.29 | X-H torsion
[ 10718 10713 10712 10709 ] final  140.19 input   66.30 | X-H torsion
[ 10763 10752 10751 10750 ] final   87.92 input  -60.55 | X-H torsion
[ 11005 11000 10999 10996 ] final  120.91 input  -57.11 | X-H torsion

> <Gold.Protein.ActiveResidues>
 VAL166  LYS551  ARG553  GLY616  TRP617  ASP618  TYR619  PRO620  LYS621  CYS622 
 ASP623  PHE694  ASN695  SER759  ASP760  ASP761  ALA762  ILE779  LEU786  VAL792 
 PHE793  MET794  SER795  GLU796  ALA797  LYS798  CYS799  TRP800  GLU811  SER814 

> <Gold.Protein.RotatedAtoms>
  150.9340  133.6733  159.2804 H   0  0  0  0  0  0  0  0  0  0  0  0  # atno 6907 bound_to 6896
  151.4145  135.0988  159.9605 H   0  0  0  0  0  0  0  0  0  0  0  0  # atno 6908 bound_to 6896
  152.5039  133.8806  159.7399 H   0  0  0  0  0  0  0  0  0  0  0  0  # atno 6909 bound_to 6896
  144.9114  140.6900  143.5022 H   0  0  0  0  0  0  0  0  0  0  0  0  # atno 7974 bound_to 7965
  155.4676  140.3464  155.4321 H   0  0  0  0  0  0  0  0  0  0  0  0  # atno 8008 bound_to 7997
  156.1121  140.1464  156.9353 H   0  0  0  0  0  0  0  0  0  0  0  0  # atno 8009 bound_to 7997
  154.4763  140.0884  156.7249 H   0  0  0  0  0  0  0  0  0  0  0  0  # atno 8010 bound_to 7997
  139.4977  144.3771  151.9662 H   0  0  0  0  0  0  0  0  0  0  0  0  # atno 10167 bound_to 10162
  157.4060  131.1022  151.0503 H   0  0  0  0  0  0  0  0  0  0  0  0  # atno 10718 bound_to 10713
  153.1716  135.4526  154.9910 H   0  0  0  0  0  0  0  0  0  0  0  0  # atno 10763 bound_to 10752
  154.7970  135.3241  154.7646 H   0  0  0  0  0  0  0  0  0  0  0  0  # atno 10764 bound_to 10752
  153.8121  135.6954  153.4894 H   0  0  0  0  0  0  0  0  0  0  0  0  # atno 10765 bound_to 10752
  139.9204  134.9637  156.7878 H   0  0  0  0  0  0  0  0  0  0  0  0  # atno 11005 bound_to 11000
  145.3448  139.1722  143.4466 LP  0  0  0  0  0  0  0  0  0  0  0  0  # atno 17320 bound_to 7965
  146.3160  140.3493  142.8655 LP  0  0  0  0  0  0  0  0  0  0  0  0  # atno 17321 bound_to 7965
  140.3207  144.3431  150.6010 LP  0  0  0  0  0  0  0  0  0  0  0  0  # atno 17342 bound_to 10162
  140.5725  143.2179  151.7574 LP  0  0  0  0  0  0  0  0  0  0  0  0  # atno 17343 bound_to 10162
  157.1485  130.6174  149.5575 LP  0  0  0  0  0  0  0  0  0  0  0  0  # atno 17370 bound_to 10713
  155.9836  130.4857  150.6944 LP  0  0  0  0  0  0  0  0  0  0  0  0  # atno 17371 bound_to 10713
  140.6491  133.9747  155.7746 LP  0  0  0  0  0  0  0  0  0  0  0  0  # atno 17394 bound_to 11000
  141.0720  134.0192  157.3513 LP  0  0  0  0  0  0  0  0  0  0  0  0  # atno 17395 bound_to 11000

$$$$
