AV-unprocessed.smi:1161|AV-procd|sdf|4917|dock4
  -GOLD-   22720 3493D 1   1.00000     0.00000
 Structure written by MMmdl.
 46 47  0  0  0  0  0  0  0  0  1 V2000
  144.8346  134.6805  150.9694 C   0  0  0  0  0  0  0  0  0  0  0  0
  145.5955  136.0029  150.7783 C   0  0  0  0  0  0  0  0  0  0  0  0
  145.7004  136.9022  152.0389 C   0  0  1  0  0  0  0  0  0  0  0  0
  144.3223  137.1702  152.6747 C   0  0  0  0  0  0  0  0  0  0  0  0
  146.4726  136.2357  153.0204 O   0  0  0  0  0  0  0  0  0  0  0  0
  146.3963  138.2589  151.7600 C   0  0  0  0  0  0  0  0  0  0  0  0
  147.6718  138.4105  152.4590 N   0  0  0  0  0  0  0  0  0  0  0  0
  147.9527  139.3418  153.3818 C   0  0  0  0  0  0  0  0  0  0  0  0
  147.1427  140.1851  153.7653 O   0  0  0  0  0  0  0  0  0  0  0  0
  149.2157  139.2179  153.8243 N   0  0  0  0  0  0  0  0  0  0  0  0
  149.8951  139.9964  154.8005 C   0  0  0  0  0  0  0  0  0  0  0  0
  151.0576  139.4539  155.3839 C   0  0  0  0  0  0  0  0  0  0  0  0
  151.7575  140.2025  156.3488 C   0  0  0  0  0  0  0  0  0  0  0  0
  151.2716  141.4837  156.6953 C   0  0  0  0  0  0  0  0  0  0  0  0
  151.9116  142.2777  157.6560 N   0  0  0  0  0  0  0  0  0  0  0  0
  151.4153  143.6469  157.7036 C   0  0  0  0  0  0  0  0  0  0  0  0
  152.2602  144.4769  158.6852 C   0  0  0  0  0  0  0  0  0  0  0  0
  152.2529  143.8521  159.9660 O   0  0  0  0  0  0  0  0  0  0  0  0
  152.8088  142.5405  159.9244 C   0  0  0  0  0  0  0  0  0  0  0  0
  151.9814  141.6583  158.9732 C   0  0  0  0  0  0  0  0  0  0  0  0
  150.1701  142.0198  156.1280 N   0  0  0  0  0  0  0  0  0  0  0  0
  149.5029  141.2965  155.2034 C   0  0  0  0  0  0  0  0  0  0  0  0
  144.8748  134.0825  150.0589 H   0  0  0  0  0  0  0  0  0  0  0  0
  143.7824  134.8482  151.1976 H   0  0  0  0  0  0  0  0  0  0  0  0
  145.2651  134.0829  151.7730 H   0  0  0  0  0  0  0  0  0  0  0  0
  146.5940  135.7562  150.4160 H   0  0  0  0  0  0  0  0  0  0  0  0
  145.1181  136.5662  149.9753 H   0  0  0  0  0  0  0  0  0  0  0  0
  143.6443  137.6376  151.9598 H   0  0  0  0  0  0  0  0  0  0  0  0
  144.4049  137.8387  153.5325 H   0  0  0  0  0  0  0  0  0  0  0  0
  143.8486  136.2551  153.0303 H   0  0  0  0  0  0  0  0  0  0  0  0
  147.3693  136.2027  152.7246 H   0  0  0  0  0  0  0  0  0  0  0  0
  146.5451  138.3747  150.6849 H   0  0  0  0  0  0  0  0  0  0  0  0
  145.7482  139.0861  152.0529 H   0  0  0  0  0  0  0  0  0  0  0  0
  148.4022  137.7618  152.2044 H   0  0  0  0  0  0  0  0  0  0  0  0
  149.7364  138.4343  153.4586 H   0  0  0  0  0  0  0  0  0  0  0  0
  151.4081  138.4716  155.1022 H   0  0  0  0  0  0  0  0  0  0  0  0
  152.6453  139.7970  156.8116 H   0  0  0  0  0  0  0  0  0  0  0  0
  151.4548  144.0892  156.7075 H   0  0  0  0  0  0  0  0  0  0  0  0
  150.3713  143.6528  158.0197 H   0  0  0  0  0  0  0  0  0  0  0  0
  153.2848  144.5809  158.3246 H   0  0  0  0  0  0  0  0  0  0  0  0
  151.8505  145.4827  158.7771 H   0  0  0  0  0  0  0  0  0  0  0  0
  153.8511  142.5863  159.6044 H   0  0  0  0  0  0  0  0  0  0  0  0
  152.8023  142.1196  160.9297 H   0  0  0  0  0  0  0  0  0  0  0  0
  150.9760  141.5243  159.3738 H   0  0  0  0  0  0  0  0  0  0  0  0
  152.4327  140.6685  158.8925 H   0  0  0  0  0  0  0  0  0  0  0  0
  148.6483  141.7971  154.7768 H   0  0  0  0  0  0  0  0  0  0  0  0
  1  2  1  0  0  0  0
  1 23  1  0  0  0  0
  1 24  1  0  0  0  0
  1 25  1  0  0  0  0
  2  3  1  0  0  0  0
  2 26  1  0  0  0  0
  2 27  1  0  0  0  0
  3  4  1  0  0  0  0
  3  5  1  0  0  0  0
  3  6  1  0  0  0  0
  4 28  1  0  0  0  0
  4 29  1  0  0  0  0
  4 30  1  0  0  0  0
  5 31  1  0  0  0  0
  6  7  1  0  0  0  0
  6 32  1  0  0  0  0
  6 33  1  0  0  0  0
  7  8  1  0  0  0  0
  7 34  1  0  0  0  0
  8  9  2  0  0  0  0
  8 10  1  0  0  0  0
 10 11  1  0  0  0  0
 10 35  1  0  0  0  0
 11 22  1  0  0  0  0
 11 12  2  0  0  0  0
 12 13  1  0  0  0  0
 12 36  1  0  0  0  0
 13 14  2  0  0  0  0
 13 37  1  0  0  0  0
 14 15  1  0  0  0  0
 14 21  1  0  0  0  0
 15 20  1  0  0  0  0
 15 16  1  0  0  0  0
 16 17  1  0  0  0  0
 16 38  1  0  0  0  0
 16 39  1  0  0  0  0
 17 18  1  0  0  0  0
 17 40  1  0  0  0  0
 17 41  1  0  0  0  0
 18 19  1  0  0  0  0
 19 20  1  0  0  0  0
 19 42  1  0  0  0  0
 19 43  1  0  0  0  0
 20 44  1  0  0  0  0
 20 45  1  0  0  0  0
 21 22  2  0  0  0  0
 22 46  1  0  0  0  0
M  END
> <s_m_source_file>
AV-unprocessed.smi

> <i_m_source_file_index>
1161

> <i_lp_mmshare_version>
43012

> <i_f3d_flags>
0

> <s_epik_input>
W0NIM11bQ0gyXVtDQEBdKFtDSDNdKShbT0hdKVtDSDJdW05IXUMoPU8pW05IXWMxW2NIXVtjSF1jKG5bY0hdMSlOMltDSDJdW0NIMl1PW0NIMl1bQ0gyXTI=

> <s_epik_cmdline>
J2VwaWtfcHl0aG9uJywgJy1waCcsICc3LjAnLCAnLXRuJywgJzgnLCAnLW1hJywgJzIwMCcsICctbWV0YWxfYmluZGluZycsICctaW1hZScsICc8aW5maWxlLm1hZT4nLCAnLW9tYWUnLCAnPG91dGZpbGUubWFlPic=

> <r_lp_tautomer_probability>
1

> <r_epik_Ionization_Penalty>
0.00208949

> <r_epik_Ionization_Penalty_Charging>
0

> <r_epik_Ionization_Penalty_Neutral>
0.00208949

> <r_epik_State_Penalty>
0.00140033

> <r_epik_Charging_Adjusted_Penalty>
0.00140033

> <i_epik_Tot_Q>
0

> <i_epik_Tot_abs_Q>
0

> <r_epik_Metal_State_Penalty>
-0

> <b_epik_Metal_Only>
0

> <s_lp_Force_Field>
OPLS_2005

> <r_lp_Energy>
26.851

> <b_lp_Chiralities_Consistent>
1

> <s_lp_Variant>
AV-unprocessed.smi:1161-1

> <Gold.Version>
5.8.1

> <Gold.Id.Protein>
6NUR|6NUR_protein|mol2

> <Gold.PLP.Fitness>
48.1288

> <Gold.PLP.PLP>
-44.6160

> <Gold.PLP.part.hbond>
-4.0000

> <Gold.PLP.part.metal>
0.0000

> <Gold.PLP.part.buried>
-1.2161

> <Gold.PLP.part.nonpolar>
-40.6494

> <Gold.PLP.part.repulsive>
1.1059

> <Gold.PLP.ligand.clash>
0.0000

> <Gold.PLP.ligand.torsion>
1.3224

> <Gold.PLP.Chemscore.Hbond>
2.0000

> <Gold.PLP.Chemscore.CHOScore>
0.0000

> <Gold.PLP.Chemscore.Metal>
0.0000

> <Gold.Chemscore.Hbonds>
donor molecule, donor type, donor heavy atom, donor atom, acceptor molecule, acceptor atom, score
      L1  H     5    31       P1  7948  1.00
      L1  H     7    34       P1  7948  1.00

> <Gold.PLP.Chemscore.Internal.Correction>
0.1576

> <Gold.Rescore>
     Score         DG    S(hbond)    S(metal)    S(lipo)     H(rot)  DE(clash)    DE(int)     intcor
     15.65     -18.16       1.99        0.00      99.07       2.16       0.06       2.45       ----

> <Gold.Chemscore.Fitness>
15.6546

> <Gold.Chemscore.DG>
-18.1630

> <Gold.Chemscore.ZeroCoef>
-5.4800

> <Gold.Chemscore.Hbond>
1.9850

> <Gold.Chemscore.Metal>
0.0000

> <Gold.Chemscore.Lipo>
99.0675

> <Gold.Chemscore.Internal_Hbond>
0.0000

> <Gold.Chemscore.DEClash>
0.0611

> <Gold.Chemscore.DEInternal>
2.4473

> <Gold.Chemscore.Rot>
2.1633

> <Gold.Chemscore.Internal.Correction>
   9.000000E+99

> <Gold.Chemscore.Hbonds>
donor molecule, donor type, donor heavy atom, donor atom, acceptor molecule, acceptor atom, score
      L1  H     5    31       P1  7948  1.00
      L1  H     7    34       P1  7948  0.96

> <Gold.Chemscore.Hbond.Weighted>
-6.6301

> <Gold.Chemscore.Metal.Weighted>
-0.0000

> <Gold.Chemscore.Lipo.Weighted>
-11.5909

> <Gold.Chemscore.Internal_Hbond.Weighted>
0.0000

> <Gold.Chemscore.DEClash.Weighted>
0.0611

> <Gold.Chemscore.DEInternal.Weighted>
2.4473

> <Gold.Chemscore.Rot.Weighted>
5.5379

> <Gold.Chemscore.Internal.Correction.Weighted>
   9.000000E+99

> <Gold.Protein.RotatedTorsions>
[ 6907 6896 6895 6894 ] final  156.37 input  -60.11 | X-H torsion
[ 7974 7965 7964 7962 ] final  178.70 input  175.53 | X-H torsion
[ 8008 7997 7996 7995 ] final   53.73 input   59.86 | X-H torsion
[ 10167 10162 10161 10158 ] final   51.06 input  -65.29 | X-H torsion
[ 10718 10713 10712 10709 ] final  101.09 input   66.30 | X-H torsion
[ 10763 10752 10751 10750 ] final  140.92 input  -60.55 | X-H torsion
[ 11005 11000 10999 10996 ] final   16.61 input  -57.11 | X-H torsion

> <Gold.Protein.ActiveResidues>
 VAL166  LYS551  ARG553  GLY616  TRP617  ASP618  TYR619  PRO620  LYS621  CYS622 
 ASP623  PHE694  ASN695  SER759  ASP760  ASP761  ALA762  ILE779  LEU786  VAL792 
 PHE793  MET794  SER795  GLU796  ALA797  LYS798  CYS799  TRP800  GLU811  SER814 

> <Gold.Protein.RotatedAtoms>
  152.0307  133.3936  159.4295 H   0  0  0  0  0  0  0  0  0  0  0  0  # atno 6907 bound_to 6896
  150.6882  134.3524  159.4924 H   0  0  0  0  0  0  0  0  0  0  0  0  # atno 6908 bound_to 6896
  152.1310  134.9134  160.0609 H   0  0  0  0  0  0  0  0  0  0  0  0  # atno 6909 bound_to 6896
  144.7153  140.0437  143.6437 H   0  0  0  0  0  0  0  0  0  0  0  0  # atno 7974 bound_to 7965
  155.4730  140.3466  155.4328 H   0  0  0  0  0  0  0  0  0  0  0  0  # atno 8008 bound_to 7997
  156.1088  140.1455  156.9396 H   0  0  0  0  0  0  0  0  0  0  0  0  # atno 8009 bound_to 7997
  154.4742  140.0890  156.7200 H   0  0  0  0  0  0  0  0  0  0  0  0  # atno 8010 bound_to 7997
  140.2659  144.3320  150.6304 H   0  0  0  0  0  0  0  0  0  0  0  0  # atno 10167 bound_to 10162
  157.6838  131.0716  150.5200 H   0  0  0  0  0  0  0  0  0  0  0  0  # atno 10718 bound_to 10713
  153.9306  135.2990  155.3446 H   0  0  0  0  0  0  0  0  0  0  0  0  # atno 10763 bound_to 10752
  154.7529  135.4972  153.9324 H   0  0  0  0  0  0  0  0  0  0  0  0  # atno 10764 bound_to 10752
  153.1093  135.6755  153.9633 H   0  0  0  0  0  0  0  0  0  0  0  0  # atno 10765 bound_to 10752
  140.4452  134.1280  155.7695 H   0  0  0  0  0  0  0  0  0  0  0  0  # atno 11005 bound_to 11000
  146.0002  139.3085  143.0932 LP  0  0  0  0  0  0  0  0  0  0  0  0  # atno 17320 bound_to 7965
  145.8802  140.9367  143.0605 LP  0  0  0  0  0  0  0  0  0  0  0  0  # atno 17321 bound_to 7965
  140.5929  143.2167  151.7219 LP  0  0  0  0  0  0  0  0  0  0  0  0  # atno 17342 bound_to 10162
  139.5003  144.3912  152.0278 LP  0  0  0  0  0  0  0  0  0  0  0  0  # atno 17343 bound_to 10162
  156.5513  130.4232  149.6106 LP  0  0  0  0  0  0  0  0  0  0  0  0  # atno 17370 bound_to 10713
  156.2900  130.7119  151.1965 LP  0  0  0  0  0  0  0  0  0  0  0  0  # atno 17371 bound_to 10713
  141.1688  133.8650  157.1634 LP  0  0  0  0  0  0  0  0  0  0  0  0  # atno 17394 bound_to 11000
  140.0043  135.0015  157.0258 LP  0  0  0  0  0  0  0  0  0  0  0  0  # atno 17395 bound_to 11000

$$$$
