AV-unprocessed.smi:101|AV-procd|sdf|930|dock7
  -GOLD-   2262017443D 1   1.00000     0.00000
 Structure written by MMmdl.
 43 45  0  0  0  0  0  0  0  0  2 V2000
  143.7016  144.4766  154.7483 C   0  0  0  0  0  0  0  0  0  0  0  0
  144.7335  143.4719  155.2300 C   0  0  0  0  0  0  0  0  0  0  0  0
  145.7010  142.9875  154.4204 C   0  0  0  0  0  0  0  0  0  0  0  0
  146.6415  142.0748  154.8640 N   0  0  0  0  0  0  0  0  0  0  0  0
  147.7131  141.5639  153.9233 C   0  0  1  0  0  0  0  0  0  0  0  0
  148.9256  141.5183  154.6149 O   0  0  0  0  0  0  0  0  0  0  0  0
  149.6114  140.3132  154.2973 C   0  0  1  0  0  0  0  0  0  0  0  0
  150.6302  139.9540  155.3882 C   0  0  0  0  0  0  0  0  0  0  0  0
  150.9210  141.1122  156.1527 O   0  0  0  0  0  0  0  0  0  0  0  0
  151.9922  141.1298  156.9686 C   0  0  0  0  0  0  0  0  0  0  0  0
  152.8107  140.2105  157.0394 O   0  0  0  0  0  0  0  0  0  0  0  0
  152.0856  142.3801  157.7766 C   0  0  0  0  0  0  0  0  0  0  0  0
  151.3206  143.5082  157.3987 C   0  0  0  0  0  0  0  0  0  0  0  0
  151.3890  144.7029  158.1417 C   0  0  0  0  0  0  0  0  0  0  0  0
  152.2237  144.7843  159.2714 C   0  0  0  0  0  0  0  0  0  0  0  0
  152.9903  143.6694  159.6575 C   0  0  0  0  0  0  0  0  0  0  0  0
  152.9231  142.4738  158.9158 C   0  0  0  0  0  0  0  0  0  0  0  0
  148.4846  139.2962  154.0793 C   0  0  1  0  0  0  0  0  0  0  0  0
  148.0403  138.7604  155.3157 O   0  0  0  0  0  0  0  0  0  0  0  0
  147.4210  140.1444  153.3891 C   0  0  1  0  0  0  0  0  0  0  0  0
  146.1044  139.6612  153.5934 O   0  0  0  0  0  0  0  0  0  0  0  0
  146.6102  141.6333  156.2129 C   0  0  0  0  0  0  0  0  0  0  0  0
  147.4750  140.8410  156.5874 O   0  0  0  0  0  0  0  0  0  0  0  0
  145.6332  142.1116  157.0353 N   0  5  0  0  0  0  0  0  0  0  0  0
  144.6910  143.0073  156.6216 C   0  0  0  0  0  0  0  0  0  0  0  0
  143.8164  143.4317  157.3762 O   0  0  0  0  0  0  0  0  0  0  0  0
  143.8319  144.7016  153.6894 H   0  0  0  0  0  0  0  0  0  0  0  0
  143.7906  145.4090  155.3064 H   0  0  0  0  0  0  0  0  0  0  0  0
  142.6934  144.0854  154.8885 H   0  0  0  0  0  0  0  0  0  0  0  0
  145.7401  143.3276  153.3963 H   0  0  0  0  0  0  0  0  0  0  0  0
  147.8131  142.3018  153.1266 H   0  0  0  0  0  0  0  0  0  0  0  0
  150.1278  140.4601  153.3467 H   0  0  0  0  0  0  0  0  0  0  0  0
  150.2447  139.1590  156.0284 H   0  0  0  0  0  0  0  0  0  0  0  0
  151.5523  139.5938  154.9301 H   0  0  0  0  0  0  0  0  0  0  0  0
  150.6725  143.4694  156.5348 H   0  0  0  0  0  0  0  0  0  0  0  0
  150.7996  145.5575  157.8438 H   0  0  0  0  0  0  0  0  0  0  0  0
  152.2758  145.7003  159.8411 H   0  0  0  0  0  0  0  0  0  0  0  0
  153.6320  143.7307  160.5242 H   0  0  0  0  0  0  0  0  0  0  0  0
  153.5259  141.6376  159.2386 H   0  0  0  0  0  0  0  0  0  0  0  0
  148.8072  138.4671  153.4488 H   0  0  0  0  0  0  0  0  0  0  0  0
  147.2168  138.3193  155.1745 H   0  0  0  0  0  0  0  0  0  0  0  0
  147.6194  140.1596  152.3166 H   0  0  0  0  0  0  0  0  0  0  0  0
  145.5046  140.2494  153.1602 H   0  0  0  0  0  0  0  0  0  0  0  0
  1  2  1  0  0  0  0
  1 27  1  0  0  0  0
  1 28  1  0  0  0  0
  1 29  1  0  0  0  0
  2 25  1  0  0  0  0
  2  3  2  0  0  0  0
  3  4  1  0  0  0  0
  3 30  1  0  0  0  0
  4  5  1  0  0  0  0
  4 22  1  0  0  0  0
  5 20  1  0  0  0  0
  5  6  1  0  0  0  0
  5 31  1  0  0  0  0
  6  7  1  0  0  0  0
  7  8  1  0  0  0  0
  7 18  1  0  0  0  0
  7 32  1  0  0  0  0
  8  9  1  0  0  0  0
  8 33  1  0  0  0  0
  8 34  1  0  0  0  0
  9 10  1  0  0  0  0
 10 11  2  0  0  0  0
 10 12  1  0  0  0  0
 12 17  1  0  0  0  0
 12 13  2  0  0  0  0
 13 14  1  0  0  0  0
 13 35  1  0  0  0  0
 14 15  2  0  0  0  0
 14 36  1  0  0  0  0
 15 16  1  0  0  0  0
 15 37  1  0  0  0  0
 16 17  2  0  0  0  0
 16 38  1  0  0  0  0
 17 39  1  0  0  0  0
 18 19  1  0  0  0  0
 18 20  1  0  0  0  0
 18 40  1  0  0  0  0
 19 41  1  0  0  0  0
 20 21  1  0  0  0  0
 20 42  1  0  0  0  0
 21 43  1  0  0  0  0
 22 23  2  0  0  0  0
 22 24  1  0  0  0  0
 24 25  1  0  0  0  0
 25 26  2  0  0  0  0
M  CHG  1  24  -1
M  END
> <s_m_source_file>
AV-unprocessed.smi

> <i_m_source_file_index>
101

> <i_lp_mmshare_version>
43012

> <i_f3d_flags>
0

> <s_epik_input>
Tz1jMVtuSF1jKD1PKW4oW2NIXWMxW0NIM10pW0NAQEhdMk9bQ0BIXShbQ0BASF0oW09IXSlbQ0BIXTJbT0hdKVtDSDJdT0MoPU8pYzNbY0hdW2NIXVtjSF1bY0hdW2NIXTM=

> <s_epik_cmdline>
J2VwaWtfcHl0aG9uJywgJy1waCcsICc3LjAnLCAnLXRuJywgJzgnLCAnLW1hJywgJzIwMCcsICctbWV0YWxfYmluZGluZycsICctaW1hZScsICc8aW5maWxlLm1hZT4nLCAnLW9tYWUnLCAnPG91dGZpbGUubWFlPic=

> <r_lp_tautomer_probability>
0.999537

> <r_epik_Ionization_Penalty>
3.21006

> <r_epik_Ionization_Penalty_Charging>
5.75142e-08

> <r_epik_Ionization_Penalty_Neutral>
3.21006

> <r_epik_State_Penalty>
3.20925

> <r_epik_Charging_Adjusted_Penalty>
3.20925

> <i_epik_Tot_Q>
-1

> <i_epik_Tot_abs_Q>
1

> <r_epik_Metal_State_Penalty>
0.119957

> <b_epik_Metal_Only>
1

> <s_epik_Chemistry_Notes>
This compound has an ester and may undergo hydrolysis at high or low pH. This compound contains an acetal/aminal-like group ( X-CH(R)-Y where X, Y are N, S, or O) that may be acid/base labile, releasing an aldehyde.

> <s_lp_Force_Field>
OPLS_2005

> <r_lp_Energy>
50.5402

> <b_lp_Chiralities_Consistent>
1

> <s_lp_Variant>
AV-unprocessed.smi:101-18

> <Gold.Version>
5.8.1

> <Gold.Id.Protein>
6NUR|6NUR_protein|mol2

> <Gold.PLP.Fitness>
52.6529

> <Gold.PLP.PLP>
-50.3693

> <Gold.PLP.part.hbond>
-2.1696

> <Gold.PLP.part.metal>
0.0000

> <Gold.PLP.part.buried>
-5.1542

> <Gold.PLP.part.nonpolar>
-42.7412

> <Gold.PLP.part.repulsive>
0.3620

> <Gold.PLP.ligand.clash>
0.0000

> <Gold.PLP.ligand.torsion>
1.2824

> <Gold.PLP.Chemscore.Hbond>
1.6080

> <Gold.PLP.Chemscore.CHOScore>
0.0000

> <Gold.PLP.Chemscore.Metal>
0.0000

> <Gold.Chemscore.Hbonds>
donor molecule, donor type, donor heavy atom, donor atom, acceptor molecule, acceptor atom, score
      L1  H    21    43       P1 10175  0.91
      P1  H  7997  8010       L1    11  1.00

> <Gold.PLP.Chemscore.Internal.Correction>
0.0243

> <Gold.Rescore>
     Score         DG    S(hbond)    S(metal)    S(lipo)     H(rot)  DE(clash)    DE(int)     intcor
     10.54     -15.57       1.60        0.00     112.02       3.27       0.26       4.78       ----

> <Gold.Chemscore.Fitness>
10.5362

> <Gold.Chemscore.DG>
-15.5746

> <Gold.Chemscore.ZeroCoef>
-5.4800

> <Gold.Chemscore.Hbond>
1.6013

> <Gold.Chemscore.Metal>
0.0000

> <Gold.Chemscore.Lipo>
112.0173

> <Gold.Chemscore.Internal_Hbond>
0.0000

> <Gold.Chemscore.DEClash>
0.2564

> <Gold.Chemscore.DEInternal>
4.7820

> <Gold.Chemscore.Rot>
3.2656

> <Gold.Chemscore.Internal.Correction>
   9.000000E+99

> <Gold.Chemscore.Hbonds>
donor molecule, donor type, donor heavy atom, donor atom, acceptor molecule, acceptor atom, score
      L1  H    21    43       P1 10175  0.87
      P1  H  7997  8010       L1    11  0.94

> <Gold.Chemscore.Hbond.Weighted>
-5.3484

> <Gold.Chemscore.Metal.Weighted>
-0.0000

> <Gold.Chemscore.Lipo.Weighted>
-13.1060

> <Gold.Chemscore.Internal_Hbond.Weighted>
0.0000

> <Gold.Chemscore.DEClash.Weighted>
0.2564

> <Gold.Chemscore.DEInternal.Weighted>
4.7820

> <Gold.Chemscore.Rot.Weighted>
8.3598

> <Gold.Chemscore.Internal.Correction.Weighted>
   9.000000E+99

> <Gold.Protein.RotatedTorsions>
[ 6907 6896 6895 6894 ] final -149.25 input  -60.11 | X-H torsion
[ 7974 7965 7964 7962 ] final  -91.29 input  175.53 | X-H torsion
[ 8008 7997 7996 7995 ] final   55.45 input   59.86 | X-H torsion
[ 10167 10162 10161 10158 ] final -102.25 input  -65.29 | X-H torsion
[ 10718 10713 10712 10709 ] final -114.92 input   66.30 | X-H torsion
[ 10763 10752 10751 10750 ] final    4.34 input  -60.55 | X-H torsion
[ 11005 11000 10999 10996 ] final  173.03 input  -57.11 | X-H torsion

> <Gold.Protein.ActiveResidues>
 VAL166  LYS551  ARG553  GLY616  TRP617  ASP618  TYR619  PRO620  LYS621  CYS622 
 ASP623  PHE694  ASN695  SER759  ASP760  ASP761  ALA762  ILE779  LEU786  VAL792 
 PHE793  MET794  SER795  GLU796  ALA797  LYS798  CYS799  TRP800  GLU811  SER814 

> <Gold.Protein.RotatedAtoms>
  151.1814  133.4723  159.2593 H   0  0  0  0  0  0  0  0  0  0  0  0  # atno 6907 bound_to 6896
  151.1255  135.0102  159.8568 H   0  0  0  0  0  0  0  0  0  0  0  0  # atno 6908 bound_to 6896
  152.5458  134.1721  159.8654 H   0  0  0  0  0  0  0  0  0  0  0  0  # atno 6909 bound_to 6896
  145.4152  140.9547  143.2212 H   0  0  0  0  0  0  0  0  0  0  0  0  # atno 7974 bound_to 7965
  155.5013  140.3474  155.4371 H   0  0  0  0  0  0  0  0  0  0  0  0  # atno 8008 bound_to 7997
  156.0912  140.1411  156.9617 H   0  0  0  0  0  0  0  0  0  0  0  0  # atno 8009 bound_to 7997
  154.4636  140.0926  156.6937 H   0  0  0  0  0  0  0  0  0  0  0  0  # atno 8010 bound_to 7997
  140.2327  143.3595  152.0873 H   0  0  0  0  0  0  0  0  0  0  0  0  # atno 10167 bound_to 10162
  156.0861  130.6053  150.8838 H   0  0  0  0  0  0  0  0  0  0  0  0  # atno 10718 bound_to 10713
  153.2724  135.6933  153.7467 H   0  0  0  0  0  0  0  0  0  0  0  0  # atno 10763 bound_to 10752
  153.6485  135.3381  155.3094 H   0  0  0  0  0  0  0  0  0  0  0  0  # atno 10764 bound_to 10752
  154.8468  135.4449  154.1751 H   0  0  0  0  0  0  0  0  0  0  0  0  # atno 10765 bound_to 10752
  140.3361  134.7316  157.4169 H   0  0  0  0  0  0  0  0  0  0  0  0  # atno 11005 bound_to 11000
  144.8282  139.5673  143.6956 LP  0  0  0  0  0  0  0  0  0  0  0  0  # atno 17320 bound_to 7965
  146.2685  139.6577  142.9313 LP  0  0  0  0  0  0  0  0  0  0  0  0  # atno 17321 bound_to 7965
  139.5104  144.6884  151.5825 LP  0  0  0  0  0  0  0  0  0  0  0  0  # atno 17342 bound_to 10162
  140.6173  143.9324  150.6499 LP  0  0  0  0  0  0  0  0  0  0  0  0  # atno 17343 bound_to 10162
  157.5996  131.0942  150.8982 LP  0  0  0  0  0  0  0  0  0  0  0  0  # atno 17370 bound_to 10713
  156.9142  130.5292  149.5280 LP  0  0  0  0  0  0  0  0  0  0  0  0  # atno 17371 bound_to 10713
  140.0820  134.5718  155.8531 LP  0  0  0  0  0  0  0  0  0  0  0  0  # atno 17394 bound_to 11000
  141.2051  133.6644  156.6159 LP  0  0  0  0  0  0  0  0  0  0  0  0  # atno 17395 bound_to 11000

$$$$
