AV-unprocessed.smi:1021|AV-procd|sdf|4454|dock3
  -GOLD-   22720 2423D 1   1.00000     0.00000
 Structure written by MMmdl.
 42 44  0  0  0  0  0  0  0  0  1 V2000
  149.8780  139.8733  153.5179 O   0  0  0  0  0  0  0  0  0  0  0  0
  150.7825  139.0606  154.2364 C   0  0  0  0  0  0  0  0  0  0  0  0
  151.4831  139.8742  155.3333 C   0  0  0  0  0  0  0  0  0  0  0  0
  150.7440  139.8493  156.6802 C   0  0  0  0  0  0  0  0  0  0  0  0
  151.1089  141.0096  157.5607 C   0  0  0  0  0  0  0  0  0  0  0  0
  150.8419  142.2580  157.1741 N   0  0  0  0  0  0  0  0  0  0  0  0
  151.3279  143.0162  158.2185 C   0  0  0  0  0  0  0  0  0  0  0  0
  151.3478  144.4172  158.4032 C   0  0  0  0  0  0  0  0  0  0  0  0
  151.9168  144.9759  159.5660 C   0  0  0  0  0  0  0  0  0  0  0  0
  152.4747  144.1431  160.5570 C   0  0  0  0  0  0  0  0  0  0  0  0
  152.4626  142.7447  160.3929 C   0  0  0  0  0  0  0  0  0  0  0  0
  151.8880  142.1905  159.2324 C   0  0  0  0  0  0  0  0  0  0  0  0
  151.7108  140.8857  158.7762 N   0  0  0  0  0  0  0  0  0  0  0  0
  152.1372  139.6853  159.4920 C   0  0  0  0  0  0  0  0  0  0  0  0
  153.6364  139.6990  159.8562 C   0  0  2  0  0  0  0  0  0  0  0  0
  154.3643  139.2310  158.7387 O   0  0  0  0  0  0  0  0  0  0  0  0
  153.9455  138.9047  161.1169 C   0  0  0  0  0  0  0  0  0  0  0  0
  153.5059  137.5682  161.2305 C   0  0  0  0  0  0  0  0  0  0  0  0
  153.7847  136.8254  162.3943 C   0  0  0  0  0  0  0  0  0  0  0  0
  154.5049  137.4147  163.4513 C   0  0  0  0  0  0  0  0  0  0  0  0
  154.7747  136.6997  164.5690 F   0  0  0  0  0  0  0  0  0  0  0  0
  154.9480  138.7469  163.3432 C   0  0  0  0  0  0  0  0  0  0  0  0
  154.6713  139.4895  162.1786 C   0  0  0  0  0  0  0  0  0  0  0  0
  150.0261  139.7430  152.5936 H   0  0  0  0  0  0  0  0  0  0  0  0
  150.2512  138.2092  154.6624 H   0  0  0  0  0  0  0  0  0  0  0  0
  151.5192  138.6652  153.5366 H   0  0  0  0  0  0  0  0  0  0  0  0
  152.4900  139.4802  155.4760 H   0  0  0  0  0  0  0  0  0  0  0  0
  151.6101  140.9005  154.9972 H   0  0  0  0  0  0  0  0  0  0  0  0
  149.6693  139.7955  156.5292 H   0  0  0  0  0  0  0  0  0  0  0  0
  151.0007  138.9311  157.2099 H   0  0  0  0  0  0  0  0  0  0  0  0
  150.9270  145.0630  157.6466 H   0  0  0  0  0  0  0  0  0  0  0  0
  151.9281  146.0481  159.6965 H   0  0  0  0  0  0  0  0  0  0  0  0
  152.9123  144.5788  161.4433 H   0  0  0  0  0  0  0  0  0  0  0  0
  152.8922  142.1071  161.1509 H   0  0  0  0  0  0  0  0  0  0  0  0
  151.5355  139.5191  160.3820 H   0  0  0  0  0  0  0  0  0  0  0  0
  151.9316  138.8380  158.8362 H   0  0  0  0  0  0  0  0  0  0  0  0
  153.9636  140.7268  160.0129 H   0  0  0  0  0  0  0  0  0  0  0  0
  154.7462  138.3951  158.9598 H   0  0  0  0  0  0  0  0  0  0  0  0
  152.9561  137.1066  160.4232 H   0  0  0  0  0  0  0  0  0  0  0  0
  153.4471  135.8028  162.4749 H   0  0  0  0  0  0  0  0  0  0  0  0
  155.5051  139.1982  164.1507 H   0  0  0  0  0  0  0  0  0  0  0  0
  155.0224  140.5081  162.1026 H   0  0  0  0  0  0  0  0  0  0  0  0
  1  2  1  0  0  0  0
  1 24  1  0  0  0  0
  2  3  1  0  0  0  0
  2 25  1  0  0  0  0
  2 26  1  0  0  0  0
  3  4  1  0  0  0  0
  3 27  1  0  0  0  0
  3 28  1  0  0  0  0
  4  5  1  0  0  0  0
  4 29  1  0  0  0  0
  4 30  1  0  0  0  0
  5 13  1  0  0  0  0
  5  6  2  0  0  0  0
  6  7  1  0  0  0  0
  7 12  2  0  0  0  0
  7  8  1  0  0  0  0
  8  9  2  0  0  0  0
  8 31  1  0  0  0  0
  9 10  1  0  0  0  0
  9 32  1  0  0  0  0
 10 11  2  0  0  0  0
 10 33  1  0  0  0  0
 11 12  1  0  0  0  0
 11 34  1  0  0  0  0
 12 13  1  0  0  0  0
 13 14  1  0  0  0  0
 14 15  1  0  0  0  0
 14 35  1  0  0  0  0
 14 36  1  0  0  0  0
 15 16  1  0  0  0  0
 15 17  1  0  0  0  0
 15 37  1  0  0  0  0
 16 38  1  0  0  0  0
 17 23  1  0  0  0  0
 17 18  2  0  0  0  0
 18 19  1  0  0  0  0
 18 39  1  0  0  0  0
 19 20  2  0  0  0  0
 19 40  1  0  0  0  0
 20 21  1  0  0  0  0
 20 22  1  0  0  0  0
 22 23  2  0  0  0  0
 22 41  1  0  0  0  0
 23 42  1  0  0  0  0
M  END
> <s_m_source_file>
AV-unprocessed.smi

> <i_m_source_file_index>
1021

> <i_lp_mmshare_version>
43012

> <i_f3d_flags>
0

> <s_epik_input>
W09IXVtDSDJdW0NIMl1bQ0gyXWMobjEpbihjKGMxMilbY0hdW2NIXVtjSF1bY0hdMilbQ0gyXVtDQEhdKFtPSF0pYzNbY0hdW2NIXWMoRilbY0hdW2NIXTM=

> <s_epik_cmdline>
J2VwaWtfcHl0aG9uJywgJy1waCcsICc3LjAnLCAnLXRuJywgJzgnLCAnLW1hJywgJzIwMCcsICctbWV0YWxfYmluZGluZycsICctaW1hZScsICc8aW5maWxlLm1hZT4nLCAnLW9tYWUnLCAnPG91dGZpbGUubWFlPic=

> <r_epik_Ionization_Penalty>
0.182562

> <r_epik_Ionization_Penalty_Charging>
0

> <r_epik_Ionization_Penalty_Neutral>
0.182562

> <r_epik_State_Penalty>
0.172086

> <r_epik_Charging_Adjusted_Penalty>
0.172086

> <i_epik_Tot_Q>
0

> <i_epik_Tot_abs_Q>
0

> <r_epik_Metal_State_Penalty>
0.000199649

> <b_epik_Metal_Only>
0

> <s_lp_Force_Field>
OPLS_2005

> <r_lp_Energy>
12.4475

> <b_lp_Chiralities_Consistent>
1

> <s_lp_Variant>
AV-unprocessed.smi:1021-1

> <Gold.Version>
5.8.1

> <Gold.Id.Protein>
6NUR|6NUR_protein|mol2

> <Gold.PLP.Fitness>
55.1137

> <Gold.PLP.PLP>
-50.5587

> <Gold.PLP.part.hbond>
-2.8031

> <Gold.PLP.part.metal>
0.0000

> <Gold.PLP.part.buried>
-5.0264

> <Gold.PLP.part.nonpolar>
-42.5069

> <Gold.PLP.part.repulsive>
0.0892

> <Gold.PLP.ligand.clash>
0.0000

> <Gold.PLP.ligand.torsion>
0.7836

> <Gold.PLP.Chemscore.Hbond>
2.0000

> <Gold.PLP.Chemscore.CHOScore>
0.0000

> <Gold.PLP.Chemscore.Metal>
0.0000

> <Gold.Chemscore.Hbonds>
donor molecule, donor type, donor heavy atom, donor atom, acceptor molecule, acceptor atom, score
      L1  H     1    24       P1  7957  0.95
      P1  H  7997  8008       L1    16  1.00

> <Gold.PLP.Chemscore.Internal.Correction>
0.1221

> <Gold.Rescore>
     Score         DG    S(hbond)    S(metal)    S(lipo)     H(rot)  DE(clash)    DE(int)     intcor
     19.54     -20.55       1.98        0.00     139.43       3.07       0.01       1.00       ----

> <Gold.Chemscore.Fitness>
19.5366

> <Gold.Chemscore.DG>
-20.5519

> <Gold.Chemscore.ZeroCoef>
-5.4800

> <Gold.Chemscore.Hbond>
1.9845

> <Gold.Chemscore.Metal>
0.0000

> <Gold.Chemscore.Lipo>
139.4305

> <Gold.Chemscore.Internal_Hbond>
0.0000

> <Gold.Chemscore.DEClash>
0.0149

> <Gold.Chemscore.DEInternal>
1.0004

> <Gold.Chemscore.Rot>
3.0741

> <Gold.Chemscore.Internal.Correction>
   9.000000E+99

> <Gold.Chemscore.Hbonds>
donor molecule, donor type, donor heavy atom, donor atom, acceptor molecule, acceptor atom, score
      L1  H     1    24       P1  7957  0.85
      P1  H  7997  8008       L1    16  0.85

> <Gold.Chemscore.Hbond.Weighted>
-6.6283

> <Gold.Chemscore.Metal.Weighted>
-0.0000

> <Gold.Chemscore.Lipo.Weighted>
-16.3134

> <Gold.Chemscore.Internal_Hbond.Weighted>
0.0000

> <Gold.Chemscore.DEClash.Weighted>
0.0149

> <Gold.Chemscore.DEInternal.Weighted>
1.0004

> <Gold.Chemscore.Rot.Weighted>
7.8698

> <Gold.Chemscore.Internal.Correction.Weighted>
   9.000000E+99

> <Gold.Protein.RotatedTorsions>
[ 6907 6896 6895 6894 ] final  162.20 input  -60.11 | X-H torsion
[ 7974 7965 7964 7962 ] final  145.62 input  175.53 | X-H torsion
[ 8008 7997 7996 7995 ] final -123.73 input   59.86 | X-H torsion
[ 10167 10162 10161 10158 ] final   42.52 input  -65.29 | X-H torsion
[ 10718 10713 10712 10709 ] final  -58.74 input   66.30 | X-H torsion
[ 10763 10752 10751 10750 ] final  170.77 input  -60.55 | X-H torsion
[ 11005 11000 10999 10996 ] final   42.42 input  -57.11 | X-H torsion

> <Gold.Protein.ActiveResidues>
 VAL166  LYS551  ARG553  GLY616  TRP617  ASP618  TYR619  PRO620  LYS621  CYS622 
 ASP623  PHE694  ASN695  SER759  ASP760  ASP761  ALA762  ILE779  LEU786  VAL792 
 PHE793  MET794  SER795  GLU796  ALA797  LYS798  CYS799  TRP800  GLU811  SER814 

> <Gold.Protein.RotatedAtoms>
  151.9441  133.3646  159.3975 H   0  0  0  0  0  0  0  0  0  0  0  0  # atno 6907 bound_to 6896
  150.6993  134.4408  159.5301 H   0  0  0  0  0  0  0  0  0  0  0  0  # atno 6908 bound_to 6896
  152.2070  134.8536  160.0552 H   0  0  0  0  0  0  0  0  0  0  0  0  # atno 6909 bound_to 6896
  144.8737  139.5805  143.5875 H   0  0  0  0  0  0  0  0  0  0  0  0  # atno 7974 bound_to 7965
  155.1853  140.0411  157.2890 H   0  0  0  0  0  0  0  0  0  0  0  0  # atno 8008 bound_to 7997
  154.6175  140.2492  155.7563 H   0  0  0  0  0  0  0  0  0  0  0  0  # atno 8009 bound_to 7997
  156.2415  140.2902  156.0467 H   0  0  0  0  0  0  0  0  0  0  0  0  # atno 8010 bound_to 7997
  140.3536  144.2318  150.6143 H   0  0  0  0  0  0  0  0  0  0  0  0  # atno 10167 bound_to 10162
  156.1113  130.4175  150.0619 H   0  0  0  0  0  0  0  0  0  0  0  0  # atno 10718 bound_to 10713
  154.4023  135.2755  155.2089 H   0  0  0  0  0  0  0  0  0  0  0  0  # atno 10763 bound_to 10752
  154.4109  135.6022  153.5956 H   0  0  0  0  0  0  0  0  0  0  0  0  # atno 10764 bound_to 10752
  152.9831  135.5949  154.4293 H   0  0  0  0  0  0  0  0  0  0  0  0  # atno 10765 bound_to 10752
  140.1740  134.4186  155.8239 H   0  0  0  0  0  0  0  0  0  0  0  0  # atno 11005 bound_to 11000
  146.2948  139.7245  142.9134 LP  0  0  0  0  0  0  0  0  0  0  0  0  # atno 17320 bound_to 7965
  145.4082  141.0393  143.3032 LP  0  0  0  0  0  0  0  0  0  0  0  0  # atno 17321 bound_to 7965
  140.5195  143.2269  151.8411 LP  0  0  0  0  0  0  0  0  0  0  0  0  # atno 17342 bound_to 10162
  139.4823  144.4854  151.9254 LP  0  0  0  0  0  0  0  0  0  0  0  0  # atno 17343 bound_to 10162
  156.8581  130.9482  151.3620 LP  0  0  0  0  0  0  0  0  0  0  0  0  # atno 17370 bound_to 10713
  157.6294  130.8717  149.9247 LP  0  0  0  0  0  0  0  0  0  0  0  0  # atno 17371 bound_to 10713
  141.2219  133.6969  156.7814 LP  0  0  0  0  0  0  0  0  0  0  0  0  # atno 17394 bound_to 11000
  140.2344  134.8661  157.3509 LP  0  0  0  0  0  0  0  0  0  0  0  0  # atno 17395 bound_to 11000

$$$$
