AV-unprocessed.smi:932|AV-procd|sdf|4200|dock3
  -GOLD-   22720 2103D 1   1.00000     0.00000
 Structure written by MMmdl.
 43 44  0  0  0  0  0  0  0  0  1 V2000
  146.4343  138.6391  154.4123 O   0  0  0  0  0  0  0  0  0  0  0  0
  147.1731  137.9292  153.7323 C   0  0  0  0  0  0  0  0  0  0  0  0
  146.7202  136.9811  152.8949 N   0  0  0  0  0  0  0  0  0  0  0  0
  145.3162  136.6655  152.6644 C   0  0  0  0  0  0  0  0  0  0  0  0
  145.0807  136.1628  151.2305 C   0  0  0  0  0  0  0  0  0  0  0  0
  145.2441  134.7263  151.1354 N   0  0  0  0  0  0  0  0  0  0  0  0
  144.2819  133.7931  150.7723 C   0  0  0  0  0  0  0  0  0  0  0  0
  144.8912  132.5595  150.8272 C   0  0  0  0  0  0  0  0  0  0  0  0
  146.2196  132.7095  151.2193 N   0  0  0  0  0  0  0  0  0  0  0  0
  146.3547  134.0190  151.3849 C   0  0  0  0  0  0  0  0  0  0  0  0
  148.5123  138.0611  153.7673 N   0  0  0  0  0  0  0  0  0  0  0  0
  149.3229  138.9886  154.5631 C   0  0  0  0  0  0  0  0  0  0  0  0
  148.8901  140.4233  154.1884 C   0  0  0  0  0  0  0  0  0  0  0  0
  149.4951  141.5855  155.0011 C   0  0  0  0  0  0  0  0  0  0  0  0
  149.5585  141.3727  156.5271 C   0  0  0  0  0  0  0  0  0  0  0  0
  150.9530  140.9948  157.0652 C   0  0  0  0  0  0  0  0  0  0  0  0
  151.4907  139.6004  156.6854 C   0  0  0  0  0  0  0  0  0  0  0  0
  151.8490  139.4352  155.1949 C   0  0  0  0  0  0  0  0  0  0  0  0
  150.8210  138.6651  154.3427 C   0  0  0  0  0  0  0  0  0  0  0  0
  147.3998  136.4469  152.3735 H   0  0  0  0  0  0  0  0  0  0  0  0
  145.0206  135.8987  153.3808 H   0  0  0  0  0  0  0  0  0  0  0  0
  144.6987  137.5410  152.8726 H   0  0  0  0  0  0  0  0  0  0  0  0
  144.0748  136.4154  150.8924 H   0  0  0  0  0  0  0  0  0  0  0  0
  145.7775  136.6399  150.5396 H   0  0  0  0  0  0  0  0  0  0  0  0
  143.2720  134.0749  150.5127 H   0  0  0  0  0  0  0  0  0  0  0  0
  144.4793  131.5836  150.6167 H   0  0  0  0  0  0  0  0  0  0  0  0
  147.2837  134.4758  151.6935 H   0  0  0  0  0  0  0  0  0  0  0  0
  149.0326  137.4540  153.1505 H   0  0  0  0  0  0  0  0  0  0  0  0
  149.0649  138.8273  155.6082 H   0  0  0  0  0  0  0  0  0  0  0  0
  149.0812  140.5997  153.1289 H   0  0  0  0  0  0  0  0  0  0  0  0
  147.8064  140.4825  154.3018 H   0  0  0  0  0  0  0  0  0  0  0  0
  150.4731  141.8625  154.6118 H   0  0  0  0  0  0  0  0  0  0  0  0
  148.8760  142.4626  154.8074 H   0  0  0  0  0  0  0  0  0  0  0  0
  149.2847  142.3164  157.0002 H   0  0  0  0  0  0  0  0  0  0  0  0
  148.8016  140.6641  156.8636 H   0  0  0  0  0  0  0  0  0  0  0  0
  151.6753  141.7556  156.7661 H   0  0  0  0  0  0  0  0  0  0  0  0
  150.9130  141.0489  158.1535 H   0  0  0  0  0  0  0  0  0  0  0  0
  152.4054  139.4496  157.2595 H   0  0  0  0  0  0  0  0  0  0  0  0
  150.8174  138.8129  157.0239 H   0  0  0  0  0  0  0  0  0  0  0  0
  152.0798  140.3994  154.7455 H   0  0  0  0  0  0  0  0  0  0  0  0
  152.7880  138.8836  155.1322 H   0  0  0  0  0  0  0  0  0  0  0  0
  150.9738  137.6046  154.5462 H   0  0  0  0  0  0  0  0  0  0  0  0
  151.0711  138.7941  153.2890 H   0  0  0  0  0  0  0  0  0  0  0  0
  1  2  2  0  0  0  0
  2  3  1  0  0  0  0
  2 11  1  0  0  0  0
  3  4  1  0  0  0  0
  3 20  1  0  0  0  0
  4  5  1  0  0  0  0
  4 21  1  0  0  0  0
  4 22  1  0  0  0  0
  5  6  1  0  0  0  0
  5 23  1  0  0  0  0
  5 24  1  0  0  0  0
  6 10  1  0  0  0  0
  6  7  1  0  0  0  0
  7  8  2  0  0  0  0
  7 25  1  0  0  0  0
  8  9  1  0  0  0  0
  8 26  1  0  0  0  0
  9 10  2  0  0  0  0
 10 27  1  0  0  0  0
 11 12  1  0  0  0  0
 11 28  1  0  0  0  0
 12 19  1  0  0  0  0
 12 13  1  0  0  0  0
 12 29  1  0  0  0  0
 13 14  1  0  0  0  0
 13 30  1  0  0  0  0
 13 31  1  0  0  0  0
 14 15  1  0  0  0  0
 14 32  1  0  0  0  0
 14 33  1  0  0  0  0
 15 16  1  0  0  0  0
 15 34  1  0  0  0  0
 15 35  1  0  0  0  0
 16 17  1  0  0  0  0
 16 36  1  0  0  0  0
 16 37  1  0  0  0  0
 17 18  1  0  0  0  0
 17 38  1  0  0  0  0
 17 39  1  0  0  0  0
 18 19  1  0  0  0  0
 18 40  1  0  0  0  0
 18 41  1  0  0  0  0
 19 42  1  0  0  0  0
 19 43  1  0  0  0  0
M  END
> <s_m_source_file>
AV-unprocessed.smi

> <i_m_source_file_index>
932

> <i_lp_mmshare_version>
43012

> <i_f3d_flags>
0

> <s_epik_input>
W2NIXTFuW2NIXVtjSF1uMVtDSDJdW0NIMl1bTkhdQyg9TylbTkhdW0NIXTJbQ0gyXVtDSDJdW0NIMl1bQ0gyXVtDSDJdW0NIMl1bQ0gyXTI=

> <s_epik_cmdline>
J2VwaWtfcHl0aG9uJywgJy1waCcsICc3LjAnLCAnLXRuJywgJzgnLCAnLW1hJywgJzIwMCcsICctbWV0YWxfYmluZGluZycsICctaW1hZScsICc8aW5maWxlLm1hZT4nLCAnLW9tYWUnLCAnPG91dGZpbGUubWFlPic=

> <r_lp_tautomer_probability>
1

> <r_epik_Ionization_Penalty>
0.623246

> <r_epik_Ionization_Penalty_Charging>
0.623187

> <r_epik_Ionization_Penalty_Neutral>
5.92239e-05

> <r_epik_State_Penalty>
0.639392

> <r_epik_Charging_Adjusted_Penalty>
1.26258

> <i_epik_Tot_Q>
0

> <i_epik_Tot_abs_Q>
0

> <r_epik_Metal_State_Penalty>
0.307266

> <b_epik_Metal_Only>
0

> <s_lp_Force_Field>
OPLS_2005

> <r_lp_Energy>
28.9425

> <b_lp_Chiralities_Consistent>
1

> <s_lp_Variant>
AV-unprocessed.smi:932-2

> <Gold.Version>
5.8.1

> <Gold.Id.Protein>
6NUR|6NUR_protein|mol2

> <Gold.PLP.Fitness>
44.6165

> <Gold.PLP.PLP>
-33.4023

> <Gold.PLP.part.hbond>
-2.0000

> <Gold.PLP.part.metal>
0.0000

> <Gold.PLP.part.buried>
-2.0858

> <Gold.PLP.part.nonpolar>
-29.7056

> <Gold.PLP.part.repulsive>
0.2693

> <Gold.PLP.ligand.clash>
0.0000

> <Gold.PLP.ligand.torsion>
0.3788

> <Gold.PLP.Chemscore.Hbond>
1.9840

> <Gold.PLP.Chemscore.CHOScore>
2.0000

> <Gold.PLP.Chemscore.Metal>
0.0000

> <Gold.Chemscore.Hbonds>
donor molecule, donor type, donor heavy atom, donor atom, acceptor molecule, acceptor atom, score
      L1  H     3    20       P1  7948  1.00
      L1  H    11    28       P1  7948  0.96
      L1  C     7    25       P1 10186  1.00
      L1  C    10    27       P1  7948  1.00

> <Gold.PLP.Chemscore.Internal.Correction>
0.0199

> <Gold.Rescore>
     Score         DG    S(hbond)    S(metal)    S(lipo)     H(rot)  DE(clash)    DE(int)     intcor
     15.15     -16.48       1.88        0.00      80.56       1.83       0.42       0.92       ----

> <Gold.Chemscore.Fitness>
15.1488

> <Gold.Chemscore.DG>
-16.4842

> <Gold.Chemscore.ZeroCoef>
-5.4800

> <Gold.Chemscore.Hbond>
1.8758

> <Gold.Chemscore.Metal>
0.0000

> <Gold.Chemscore.Lipo>
80.5594

> <Gold.Chemscore.Internal_Hbond>
0.0000

> <Gold.Chemscore.DEClash>
0.4155

> <Gold.Chemscore.DEInternal>
0.9199

> <Gold.Chemscore.Rot>
1.8307

> <Gold.Chemscore.Internal.Correction>
   9.000000E+99

> <Gold.Chemscore.Hbonds>
donor molecule, donor type, donor heavy atom, donor atom, acceptor molecule, acceptor atom, score
      L1  H     3    20       P1  7948  0.95
      L1  H    11    28       P1  7948  0.92

> <Gold.Chemscore.Hbond.Weighted>
-6.2653

> <Gold.Chemscore.Metal.Weighted>
-0.0000

> <Gold.Chemscore.Lipo.Weighted>
-9.4255

> <Gold.Chemscore.Internal_Hbond.Weighted>
0.0000

> <Gold.Chemscore.DEClash.Weighted>
0.4155

> <Gold.Chemscore.DEInternal.Weighted>
0.9199

> <Gold.Chemscore.Rot.Weighted>
4.6866

> <Gold.Chemscore.Internal.Correction.Weighted>
   9.000000E+99

> <Gold.Protein.RotatedTorsions>
[ 6907 6896 6895 6894 ] final -130.72 input  -60.11 | X-H torsion
[ 7974 7965 7964 7962 ] final  -11.05 input  175.53 | X-H torsion
[ 8008 7997 7996 7995 ] final -173.45 input   59.86 | X-H torsion
[ 10167 10162 10161 10158 ] final -167.55 input  -65.29 | X-H torsion
[ 10718 10713 10712 10709 ] final   25.64 input   66.30 | X-H torsion
[ 10763 10752 10751 10750 ] final   53.08 input  -60.55 | X-H torsion
[ 11005 11000 10999 10996 ] final  -39.30 input  -57.11 | X-H torsion

> <Gold.Protein.ActiveResidues>
 VAL166  LYS551  ARG553  GLY616  TRP617  ASP618  TYR619  PRO620  LYS621  CYS622 
 ASP623  PHE694  ASN695  SER759  ASP760  ASP761  ALA762  ILE779  LEU786  VAL792 
 PHE793  MET794  SER795  GLU796  ALA797  LYS798  CYS799  TRP800  GLU811  SER814 

> <Gold.Protein.RotatedAtoms>
  150.9429  133.6636  159.2786 H   0  0  0  0  0  0  0  0  0  0  0  0  # atno 6907 bound_to 6896
  151.4019  135.0971  159.9568 H   0  0  0  0  0  0  0  0  0  0  0  0  # atno 6908 bound_to 6896
  152.5077  133.8921  159.7453 H   0  0  0  0  0  0  0  0  0  0  0  0  # atno 6909 bound_to 6896
  146.2200  140.2854  142.8365 H   0  0  0  0  0  0  0  0  0  0  0  0  # atno 7974 bound_to 7965
  155.9576  140.1138  157.0923 H   0  0  0  0  0  0  0  0  0  0  0  0  # atno 8008 bound_to 7997
  154.4124  140.1188  156.5203 H   0  0  0  0  0  0  0  0  0  0  0  0  # atno 8009 bound_to 7997
  155.6761  140.3473  155.4839 H   0  0  0  0  0  0  0  0  0  0  0  0  # atno 8010 bound_to 7997
  139.6042  144.0947  152.1775 H   0  0  0  0  0  0  0  0  0  0  0  0  # atno 10167 bound_to 10162
  157.1961  130.6868  149.6169 H   0  0  0  0  0  0  0  0  0  0  0  0  # atno 10718 bound_to 10713
  152.9793  135.5791  154.4684 H   0  0  0  0  0  0  0  0  0  0  0  0  # atno 10763 bound_to 10752
  154.4250  135.2772  155.1952 H   0  0  0  0  0  0  0  0  0  0  0  0  # atno 10764 bound_to 10752
  154.3685  135.6173  153.5781 H   0  0  0  0  0  0  0  0  0  0  0  0  # atno 10765 bound_to 10752
  141.0092  133.6916  156.2168 H   0  0  0  0  0  0  0  0  0  0  0  0  # atno 11005 bound_to 11000
  144.9166  140.7819  143.5774 LP  0  0  0  0  0  0  0  0  0  0  0  0  # atno 17320 bound_to 7965
  145.2788  139.1926  143.4802 LP  0  0  0  0  0  0  0  0  0  0  0  0  # atno 17321 bound_to 7965
  140.0551  144.5902  150.7306 LP  0  0  0  0  0  0  0  0  0  0  0  0  # atno 17342 bound_to 10162
  140.7272  143.2649  151.4078 LP  0  0  0  0  0  0  0  0  0  0  0  0  # atno 17343 bound_to 10162
  155.9706  130.4598  150.6051 LP  0  0  0  0  0  0  0  0  0  0  0  0  # atno 17370 bound_to 10713
  157.3813  131.0781  151.1474 LP  0  0  0  0  0  0  0  0  0  0  0  0  # atno 17371 bound_to 10713
  140.6762  134.4815  157.5588 LP  0  0  0  0  0  0  0  0  0  0  0  0  # atno 17394 bound_to 11000
  139.9080  134.8406  156.1633 LP  0  0  0  0  0  0  0  0  0  0  0  0  # atno 17395 bound_to 11000

$$$$
