AV-unprocessed.smi:536|AV-procd|sdf|2862|dock7
  -GOLD-   2262023353D 1   1.00000     0.00000
 Structure written by MMmdl.
 46 48  0  0  0  0  0  0  0  0  1 V2000
  153.9404  137.6335  158.5982 C   0  0  0  0  0  0  0  0  0  0  0  0
  153.8579  138.5208  157.4976 O   0  0  0  0  0  0  0  0  0  0  0  0
  152.5249  138.7309  157.0633 C   0  0  0  0  0  0  0  0  0  0  0  0
  152.4660  139.8926  156.0583 C   0  0  0  0  0  0  0  0  0  0  0  0
  151.1149  140.4239  155.9137 N   0  0  0  0  0  0  0  0  0  0  0  0
  150.5643  141.4851  156.5570 C   0  0  0  0  0  0  0  0  0  0  0  0
  151.3098  142.2597  157.4413 N   0  0  0  0  0  0  0  0  0  0  0  0
  152.1475  141.6487  158.4696 C   0  0  0  0  0  0  0  0  0  0  0  0
  152.0504  142.3009  159.8616 C   0  0  0  0  0  0  0  0  0  0  0  0
  152.8278  143.6225  159.9572 C   0  0  0  0  0  0  0  0  0  0  0  0
  152.0743  144.8577  159.4359 C   0  0  0  0  0  0  0  0  0  0  0  0
  151.1176  144.6111  158.2575 C   0  0  0  0  0  0  0  0  0  0  0  0
  151.6491  143.6553  157.1761 C   0  0  0  0  0  0  0  0  0  0  0  0
  149.2877  141.7300  156.2512 N   0  0  0  0  0  0  0  0  0  0  0  0
  149.0042  140.7445  155.3170 C   0  0  0  0  0  0  0  0  0  0  0  0
  150.0879  139.9593  155.0912 C   0  0  0  0  0  0  0  0  0  0  0  0
  150.0673  138.8476  154.1317 C   0  0  0  0  0  0  0  0  0  0  0  0
  151.0401  138.1343  153.8965 O   0  0  0  0  0  0  0  0  0  0  0  0
  148.8649  138.6927  153.5258 N   0  0  0  0  0  0  0  0  0  0  0  0
  147.7355  139.4427  153.7112 C   0  0  0  0  0  0  0  0  0  0  0  0
  146.7147  139.1730  153.0789 O   0  0  0  0  0  0  0  0  0  0  0  0
  147.7995  140.4798  154.6088 N   0  0  0  0  0  0  0  0  0  0  0  0
  146.6509  141.3483  154.8741 C   0  0  0  0  0  0  0  0  0  0  0  0
  148.7957  137.9394  152.8572 H   0  0  0  0  0  0  0  0  0  0  0  0
  154.9827  137.5142  158.8934 H   0  0  0  0  0  0  0  0  0  0  0  0
  153.5483  136.6486  158.3413 H   0  0  0  0  0  0  0  0  0  0  0  0
  153.3889  138.0178  159.4572 H   0  0  0  0  0  0  0  0  0  0  0  0
  152.1492  137.8174  156.6021 H   0  0  0  0  0  0  0  0  0  0  0  0
  151.8852  138.9523  157.9188 H   0  0  0  0  0  0  0  0  0  0  0  0
  153.1327  140.6925  156.3783 H   0  0  0  0  0  0  0  0  0  0  0  0
  152.8360  139.5766  155.0838 H   0  0  0  0  0  0  0  0  0  0  0  0
  151.8482  140.6036  158.5610 H   0  0  0  0  0  0  0  0  0  0  0  0
  153.1829  141.6314  158.1271 H   0  0  0  0  0  0  0  0  0  0  0  0
  151.0133  142.4244  160.1757 H   0  0  0  0  0  0  0  0  0  0  0  0
  152.4940  141.6063  160.5758 H   0  0  0  0  0  0  0  0  0  0  0  0
  153.1041  143.8043  160.9964 H   0  0  0  0  0  0  0  0  0  0  0  0
  153.7721  143.5195  159.4211 H   0  0  0  0  0  0  0  0  0  0  0  0
  151.4984  145.2950  160.2522 H   0  0  0  0  0  0  0  0  0  0  0  0
  152.8074  145.6151  159.1560 H   0  0  0  0  0  0  0  0  0  0  0  0
  150.1631  144.2473  158.6371 H   0  0  0  0  0  0  0  0  0  0  0  0
  150.8968  145.5750  157.7979 H   0  0  0  0  0  0  0  0  0  0  0  0
  152.7255  143.7715  157.0449 H   0  0  0  0  0  0  0  0  0  0  0  0
  151.1992  143.9276  156.2204 H   0  0  0  0  0  0  0  0  0  0  0  0
  145.7548  141.0849  154.3115 H   0  0  0  0  0  0  0  0  0  0  0  0
  146.9010  142.3805  154.6266 H   0  0  0  0  0  0  0  0  0  0  0  0
  146.3927  141.3106  155.9329 H   0  0  0  0  0  0  0  0  0  0  0  0
  1  2  1  0  0  0  0
  1 25  1  0  0  0  0
  1 26  1  0  0  0  0
  1 27  1  0  0  0  0
  2  3  1  0  0  0  0
  3  4  1  0  0  0  0
  3 28  1  0  0  0  0
  3 29  1  0  0  0  0
  4  5  1  0  0  0  0
  4 30  1  0  0  0  0
  4 31  1  0  0  0  0
  5 16  1  0  0  0  0
  5  6  1  0  0  0  0
  6  7  1  0  0  0  0
  6 14  2  0  0  0  0
  7 13  1  0  0  0  0
  7  8  1  0  0  0  0
  8  9  1  0  0  0  0
  8 32  1  0  0  0  0
  8 33  1  0  0  0  0
  9 10  1  0  0  0  0
  9 34  1  0  0  0  0
  9 35  1  0  0  0  0
 10 11  1  0  0  0  0
 10 36  1  0  0  0  0
 10 37  1  0  0  0  0
 11 12  1  0  0  0  0
 11 38  1  0  0  0  0
 11 39  1  0  0  0  0
 12 13  1  0  0  0  0
 12 40  1  0  0  0  0
 12 41  1  0  0  0  0
 13 42  1  0  0  0  0
 13 43  1  0  0  0  0
 14 15  1  0  0  0  0
 15 22  1  0  0  0  0
 15 16  2  0  0  0  0
 16 17  1  0  0  0  0
 17 18  2  0  0  0  0
 17 19  1  0  0  0  0
 19 24  1  0  0  0  0
 19 20  1  0  0  0  0
 20 21  2  0  0  0  0
 20 22  1  0  0  0  0
 22 23  1  0  0  0  0
 23 44  1  0  0  0  0
 23 45  1  0  0  0  0
 23 46  1  0  0  0  0
M  END
> <s_m_source_file>
AV-unprocessed.smi

> <i_m_source_file_index>
536

> <i_lp_mmshare_version>
43012

> <i_f3d_flags>
0

> <s_epik_input>
W0NIM11uMWMoPU8pW25IXWMoPU8pYyhjMTIpbihbQ0gyXVtDSDJdT1tDSDNdKWMobjIpTjNbQ0gyXVtDSDJdW0NIMl1bQ0gyXVtDSDJdW0NIMl0z

> <s_epik_cmdline>
J2VwaWtfcHl0aG9uJywgJy1waCcsICc3LjAnLCAnLXRuJywgJzgnLCAnLW1hJywgJzIwMCcsICctbWV0YWxfYmluZGluZycsICctaW1hZScsICc8aW5maWxlLm1hZT4nLCAnLW9tYWUnLCAnPG91dGZpbGUubWFlPic=

> <r_lp_tautomer_probability>
1

> <r_epik_Ionization_Penalty>
0.000219348

> <r_epik_Ionization_Penalty_Charging>
2.05342e-05

> <r_epik_Ionization_Penalty_Neutral>
0.000198814

> <r_epik_State_Penalty>
-0

> <r_epik_Charging_Adjusted_Penalty>
2.05342e-05

> <i_epik_Tot_Q>
0

> <i_epik_Tot_abs_Q>
0

> <r_epik_Metal_State_Penalty>
0.0195159

> <b_epik_Metal_Only>
0

> <s_lp_Force_Field>
OPLS_2005

> <r_lp_Energy>
45.5568

> <b_lp_Chiralities_Consistent>
1

> <s_lp_Variant>
AV-unprocessed.smi:536-1

> <Gold.Version>
5.8.1

> <Gold.Id.Protein>
6NUR|6NUR_protein|mol2

> <Gold.PLP.Fitness>
46.9066

> <Gold.PLP.PLP>
-42.8349

> <Gold.PLP.part.hbond>
-3.0000

> <Gold.PLP.part.metal>
0.0000

> <Gold.PLP.part.buried>
-2.8433

> <Gold.PLP.part.nonpolar>
-38.4995

> <Gold.PLP.part.repulsive>
1.8670

> <Gold.PLP.ligand.clash>
0.0008

> <Gold.PLP.ligand.torsion>
1.4735

> <Gold.PLP.Chemscore.Hbond>
2.0000

> <Gold.PLP.Chemscore.CHOScore>
0.0000

> <Gold.PLP.Chemscore.Metal>
0.0000

> <Gold.Chemscore.Hbonds>
donor molecule, donor type, donor heavy atom, donor atom, acceptor molecule, acceptor atom, score
      L1  H    19    24       P1  7948  1.00
      P1  H  7997  8010       L1     2  0.93

> <Gold.PLP.Chemscore.Internal.Correction>
1.0195

> <Gold.Rescore>
     Score         DG    S(hbond)    S(metal)    S(lipo)     H(rot)  DE(clash)    DE(int)     intcor
     13.85     -17.96       1.54        0.00      94.61       1.46       1.65       2.46       ----

> <Gold.Chemscore.Fitness>
13.8503

> <Gold.Chemscore.DG>
-17.9618

> <Gold.Chemscore.ZeroCoef>
-5.4800

> <Gold.Chemscore.Hbond>
1.5385

> <Gold.Chemscore.Metal>
0.0000

> <Gold.Chemscore.Lipo>
94.6147

> <Gold.Chemscore.Internal_Hbond>
0.0000

> <Gold.Chemscore.DEClash>
1.6480

> <Gold.Chemscore.DEInternal>
2.4635

> <Gold.Chemscore.Rot>
1.4557

> <Gold.Chemscore.Internal.Correction>
   9.000000E+99

> <Gold.Chemscore.Hbonds>
donor molecule, donor type, donor heavy atom, donor atom, acceptor molecule, acceptor atom, score
      L1  H    19    24       P1  7948  0.99
      P1  H  7997  8010       L1     2  0.49

> <Gold.Chemscore.Hbond.Weighted>
-5.1386

> <Gold.Chemscore.Metal.Weighted>
-0.0000

> <Gold.Chemscore.Lipo.Weighted>
-11.0699

> <Gold.Chemscore.Internal_Hbond.Weighted>
0.0000

> <Gold.Chemscore.DEClash.Weighted>
1.6480

> <Gold.Chemscore.DEInternal.Weighted>
2.4635

> <Gold.Chemscore.Rot.Weighted>
3.7267

> <Gold.Chemscore.Internal.Correction.Weighted>
   9.000000E+99

> <Gold.Protein.RotatedTorsions>
[ 6907 6896 6895 6894 ] final -127.71 input  -60.11 | X-H torsion
[ 7974 7965 7964 7962 ] final -110.22 input  175.53 | X-H torsion
[ 8008 7997 7996 7995 ] final   25.68 input   59.86 | X-H torsion
[ 10167 10162 10161 10158 ] final  165.79 input  -65.29 | X-H torsion
[ 10718 10713 10712 10709 ] final  -20.96 input   66.30 | X-H torsion
[ 10763 10752 10751 10750 ] final   -7.93 input  -60.55 | X-H torsion
[ 11005 11000 10999 10996 ] final  -83.12 input  -57.11 | X-H torsion

> <Gold.Protein.ActiveResidues>
 VAL166  LYS551  ARG553  GLY616  TRP617  ASP618  TYR619  PRO620  LYS621  CYS622 
 ASP623  PHE694  ASN695  SER759  ASP760  ASP761  ALA762  ILE779  LEU786  VAL792 
 PHE793  MET794  SER795  GLU796  ALA797  LYS798  CYS799  TRP800  GLU811  SER814 

> <Gold.Protein.RotatedAtoms>
  150.9102  133.7007  159.2856 H   0  0  0  0  0  0  0  0  0  0  0  0  # atno 6907 bound_to 6896
  151.4497  135.1027  159.9703 H   0  0  0  0  0  0  0  0  0  0  0  0  # atno 6908 bound_to 6896
  152.4925  133.8491  159.7247 H   0  0  0  0  0  0  0  0  0  0  0  0  # atno 6909 bound_to 6896
  145.1709  140.8925  143.3536 H   0  0  0  0  0  0  0  0  0  0  0  0  # atno 7974 bound_to 7965
  155.0155  140.3141  155.4813 H   0  0  0  0  0  0  0  0  0  0  0  0  # atno 8008 bound_to 7997
  156.2901  140.2207  156.5212 H   0  0  0  0  0  0  0  0  0  0  0  0  # atno 8009 bound_to 7997
  154.7497  140.0467  157.0871 H   0  0  0  0  0  0  0  0  0  0  0  0  # atno 8010 bound_to 7997
  139.4912  144.4096  151.9315 H   0  0  0  0  0  0  0  0  0  0  0  0  # atno 10167 bound_to 10162
  156.5247  130.4641  149.6578 H   0  0  0  0  0  0  0  0  0  0  0  0  # atno 10718 bound_to 10713
  153.4332  135.7012  153.6217 H   0  0  0  0  0  0  0  0  0  0  0  0  # atno 10763 bound_to 10752
  153.4622  135.3733  155.2345 H   0  0  0  0  0  0  0  0  0  0  0  0  # atno 10764 bound_to 10752
  154.8726  135.4023  154.3719 H   0  0  0  0  0  0  0  0  0  0  0  0  # atno 10765 bound_to 10752
  141.1659  133.7278  156.8672 H   0  0  0  0  0  0  0  0  0  0  0  0  # atno 11005 bound_to 11000
  145.0234  139.3404  143.6061 LP  0  0  0  0  0  0  0  0  0  0  0  0  # atno 17320 bound_to 7965
  146.3468  139.9543  142.8725 LP  0  0  0  0  0  0  0  0  0  0  0  0  # atno 17321 bound_to 7965
  140.3537  144.3058  150.5945 LP  0  0  0  0  0  0  0  0  0  0  0  0  # atno 17342 bound_to 10162
  140.5463  143.2214  151.8001 LP  0  0  0  0  0  0  0  0  0  0  0  0  # atno 17343 bound_to 10162
  156.3116  130.7232  151.2125 LP  0  0  0  0  0  0  0  0  0  0  0  0  # atno 17370 bound_to 10713
  157.7431  131.0480  150.4971 LP  0  0  0  0  0  0  0  0  0  0  0  0  # atno 17371 bound_to 10713
  140.1807  134.9035  157.2944 LP  0  0  0  0  0  0  0  0  0  0  0  0  # atno 17394 bound_to 11000
  140.2399  134.3808  155.7485 LP  0  0  0  0  0  0  0  0  0  0  0  0  # atno 17395 bound_to 11000

$$$$
