AV-unprocessed.smi:1779|AV-procd|sdf|7181|dock2
  -GOLD-   22720 8423D 1   1.00000     0.00000
 Structure written by MMmdl.
 47 48  0  0  0  0  0  0  0  0  2 V2000
  153.6454  141.6213  160.5401 C   0  0  0  0  0  0  0  0  0  0  0  0
  152.7224  142.2380  159.5308 C   0  0  0  0  0  0  0  0  0  0  0  0
  151.9951  141.5868  158.4922 C   0  0  0  0  0  0  0  0  0  0  0  0
  151.3311  142.6232  157.8947 C   0  0  0  0  0  0  0  0  0  0  0  0
  150.4702  142.5933  156.8430 N   0  0  0  0  0  0  0  0  0  0  0  0
  150.3887  141.6890  155.8517 C   0  0  0  0  0  0  0  0  0  0  0  0
  151.1160  140.7045  155.7203 O   0  0  0  0  0  0  0  0  0  0  0  0
  149.4097  142.0015  154.9908 N   0  0  0  0  0  0  0  0  0  0  0  0
  149.0503  141.2325  153.8033 C   0  0  0  0  0  0  0  0  0  0  0  0
  148.1214  140.0491  154.1395 C   0  0  2  0  0  0  0  0  0  0  0  0
  148.7473  138.8673  153.6818 O   0  0  0  0  0  0  0  0  0  0  0  0
  146.7251  140.1533  153.4879 C   0  0  0  0  0  0  0  0  0  0  0  0
  145.8922  141.2207  154.0990 N   0  3  0  0  0  0  0  0  0  0  0  0
  146.3487  142.5825  153.7166 C   0  0  0  0  0  0  0  0  0  0  0  0
  145.3870  143.6610  154.2445 C   0  0  0  0  0  0  0  0  0  0  0  0
  145.2160  143.5498  155.7651 C   0  0  0  0  0  0  0  0  0  0  0  0
  144.7767  142.1284  156.1390 C   0  0  0  0  0  0  0  0  0  0  0  0
  145.7539  141.0840  155.5742 C   0  0  0  0  0  0  0  0  0  0  0  0
  151.6510  143.7925  158.5477 N   0  0  0  0  0  0  0  0  0  0  0  0
  151.1978  145.1455  158.2905 C   0  0  0  0  0  0  0  0  0  0  0  0
  152.5142  143.5496  159.5573 N   0  0  0  0  0  0  0  0  0  0  0  0
  153.6663  140.5356  160.4439 H   0  0  0  0  0  0  0  0  0  0  0  0
  153.3303  141.8575  161.5569 H   0  0  0  0  0  0  0  0  0  0  0  0
  154.6652  141.9853  160.4128 H   0  0  0  0  0  0  0  0  0  0  0  0
  151.9750  140.5354  158.2478 H   0  0  0  0  0  0  0  0  0  0  0  0
  149.8194  143.3637  156.7989 H   0  0  0  0  0  0  0  0  0  0  0  0
  148.8597  142.8275  155.1778 H   0  0  0  0  0  0  0  0  0  0  0  0
  148.6106  141.8685  153.0328 H   0  0  0  0  0  0  0  0  0  0  0  0
  149.9845  140.8550  153.3853 H   0  0  0  0  0  0  0  0  0  0  0  0
  148.0368  139.9738  155.2232 H   0  0  0  0  0  0  0  0  0  0  0  0
  149.1981  139.0560  152.8725 H   0  0  0  0  0  0  0  0  0  0  0  0
  146.8031  140.3457  152.4178 H   0  0  0  0  0  0  0  0  0  0  0  0
  146.2268  139.1874  153.5850 H   0  0  0  0  0  0  0  0  0  0  0  0
  147.3554  142.7525  154.1024 H   0  0  0  0  0  0  0  0  0  0  0  0
  146.4073  142.6604  152.6301 H   0  0  0  0  0  0  0  0  0  0  0  0
  145.7586  144.6523  153.9829 H   0  0  0  0  0  0  0  0  0  0  0  0
  144.4161  143.5560  153.7582 H   0  0  0  0  0  0  0  0  0  0  0  0
  146.1578  143.7885  156.2610 H   0  0  0  0  0  0  0  0  0  0  0  0
  144.4837  144.2768  156.1175 H   0  0  0  0  0  0  0  0  0  0  0  0
  144.7124  142.0314  157.2232 H   0  0  0  0  0  0  0  0  0  0  0  0
  143.7747  141.9394  155.7512 H   0  0  0  0  0  0  0  0  0  0  0  0
  145.3938  140.0890  155.8327 H   0  0  0  0  0  0  0  0  0  0  0  0
  146.7324  141.1951  156.0445 H   0  0  0  0  0  0  0  0  0  0  0  0
  151.3465  145.3897  157.2382 H   0  0  0  0  0  0  0  0  0  0  0  0
  151.7546  145.8594  158.8994 H   0  0  0  0  0  0  0  0  0  0  0  0
  150.1372  145.2261  158.5301 H   0  0  0  0  0  0  0  0  0  0  0  0
  144.9680  141.1144  153.7046 H   0  0  0  0  0  0  0  0  0  0  0  0
  1  2  1  0  0  0  0
  1 22  1  0  0  0  0
  1 23  1  0  0  0  0
  1 24  1  0  0  0  0
  2 21  2  0  0  0  0
  2  3  1  0  0  0  0
  3  4  2  0  0  0  0
  3 25  1  0  0  0  0
  4  5  1  0  0  0  0
  4 19  1  0  0  0  0
  5  6  1  0  0  0  0
  5 26  1  0  0  0  0
  6  7  2  0  0  0  0
  6  8  1  0  0  0  0
  8  9  1  0  0  0  0
  8 27  1  0  0  0  0
  9 10  1  0  0  0  0
  9 28  1  0  0  0  0
  9 29  1  0  0  0  0
 10 11  1  0  0  0  0
 10 12  1  0  0  0  0
 10 30  1  0  0  0  0
 11 31  1  0  0  0  0
 12 13  1  0  0  0  0
 12 32  1  0  0  0  0
 12 33  1  0  0  0  0
 13 18  1  0  0  0  0
 13 14  1  0  0  0  0
 13 47  1  0  0  0  0
 14 15  1  0  0  0  0
 14 34  1  0  0  0  0
 14 35  1  0  0  0  0
 15 16  1  0  0  0  0
 15 36  1  0  0  0  0
 15 37  1  0  0  0  0
 16 17  1  0  0  0  0
 16 38  1  0  0  0  0
 16 39  1  0  0  0  0
 17 18  1  0  0  0  0
 17 40  1  0  0  0  0
 17 41  1  0  0  0  0
 18 42  1  0  0  0  0
 18 43  1  0  0  0  0
 19 20  1  0  0  0  0
 19 21  1  0  0  0  0
 20 44  1  0  0  0  0
 20 45  1  0  0  0  0
 20 46  1  0  0  0  0
M  CHG  1  13   1
M  END
> <s_m_source_file>
AV-unprocessed.smi

> <i_m_source_file_index>
1779

> <i_lp_mmshare_version>
43012

> <i_f3d_flags>
0

> <s_epik_input>
W0NIM11jMVtjSF1jKG4objEpW0NIM10pW05IXUMoPU8pW05IXVtDSDJdW0NASF0oW09IXSlbQ0gyXU4yW0NIMl1bQ0gyXVtDSDJdW0NIMl1bQ0gyXTI=

> <s_epik_cmdline>
J2VwaWtfcHl0aG9uJywgJy1waCcsICc3LjAnLCAnLXRuJywgJzgnLCAnLW1hJywgJzIwMCcsICctbWV0YWxfYmluZGluZycsICctaW1hZScsICc8aW5maWxlLm1hZT4nLCAnLW9tYWUnLCAnPG91dGZpbGUubWFlPic=

> <r_lp_tautomer_probability>
1

> <r_epik_Ionization_Penalty>
0.00528203

> <r_epik_Ionization_Penalty_Charging>
0.00519125

> <r_epik_Ionization_Penalty_Neutral>
9.07781e-05

> <r_epik_State_Penalty>
0.0037836

> <r_epik_Charging_Adjusted_Penalty>
0.00897485

> <i_epik_Tot_Q>
1

> <i_epik_Tot_abs_Q>
1

> <r_epik_Metal_State_Penalty>
-0

> <b_epik_Metal_Only>
0

> <s_lp_Force_Field>
OPLS_2005

> <r_lp_Energy>
18.32

> <b_lp_Chiralities_Consistent>
1

> <s_lp_Variant>
AV-unprocessed.smi:1779-1

> <Gold.Version>
5.8.1

> <Gold.Id.Protein>
6NUR|6NUR_protein|mol2

> <Gold.PLP.Fitness>
55.1402

> <Gold.PLP.PLP>
-41.2278

> <Gold.PLP.part.hbond>
-5.5839

> <Gold.PLP.part.metal>
0.0000

> <Gold.PLP.part.buried>
-1.7594

> <Gold.PLP.part.nonpolar>
-32.1266

> <Gold.PLP.part.repulsive>
0.2891

> <Gold.PLP.ligand.clash>
0.0000

> <Gold.PLP.ligand.torsion>
1.1441

> <Gold.PLP.Chemscore.Hbond>
5.3796

> <Gold.PLP.Chemscore.CHOScore>
0.0000

> <Gold.PLP.Chemscore.Metal>
0.0000

> <Gold.Chemscore.Hbonds>
donor molecule, donor type, donor heavy atom, donor atom, acceptor molecule, acceptor atom, score
      L1  H     5    26       P1  8028  0.96
      L1  H     8    27       P1  8028  0.94
      L1  H    11    31       P1  7957  1.00
      L1  H    13    47       P1 10175  2.00
      P1  H  7989  7998       L1     7  0.31

> <Gold.PLP.Chemscore.Internal.Correction>
0.0619

> <Gold.Rescore>
     Score         DG    S(hbond)    S(metal)    S(lipo)     H(rot)  DE(clash)    DE(int)     intcor
     17.47     -22.05       3.80        0.00      84.61       2.36       2.97       1.61       ----

> <Gold.Chemscore.Fitness>
17.4747

> <Gold.Chemscore.DG>
-22.0510

> <Gold.Chemscore.ZeroCoef>
-5.4800

> <Gold.Chemscore.Hbond>
3.8038

> <Gold.Chemscore.Metal>
0.0000

> <Gold.Chemscore.Lipo>
84.6147

> <Gold.Chemscore.Internal_Hbond>
0.0000

> <Gold.Chemscore.DEClash>
2.9672

> <Gold.Chemscore.DEInternal>
1.6090

> <Gold.Chemscore.Rot>
2.3569

> <Gold.Chemscore.Internal.Correction>
   9.000000E+99

> <Gold.Chemscore.Hbonds>
donor molecule, donor type, donor heavy atom, donor atom, acceptor molecule, acceptor atom, score
      L1  H     5    26       P1  8028  0.89
      L1  H     8    27       P1  8028  0.90
      L1  H    11    31       P1  7957  0.94
      L1  H    13    47       P1 10175  0.60
      P1  H  7989  7998       L1     7  0.08

> <Gold.Chemscore.Hbond.Weighted>
-12.7047

> <Gold.Chemscore.Metal.Weighted>
-0.0000

> <Gold.Chemscore.Lipo.Weighted>
-9.8999

> <Gold.Chemscore.Internal_Hbond.Weighted>
0.0000

> <Gold.Chemscore.DEClash.Weighted>
2.9672

> <Gold.Chemscore.DEInternal.Weighted>
1.6090

> <Gold.Chemscore.Rot.Weighted>
6.0337

> <Gold.Chemscore.Internal.Correction.Weighted>
   9.000000E+99

> <Gold.Protein.RotatedTorsions>
[ 6907 6896 6895 6894 ] final -140.25 input  -60.11 | X-H torsion
[ 7974 7965 7964 7962 ] final  135.07 input  175.53 | X-H torsion
[ 8008 7997 7996 7995 ] final -153.86 input   59.86 | X-H torsion
[ 10167 10162 10161 10158 ] final -131.11 input  -65.29 | X-H torsion
[ 10718 10713 10712 10709 ] final  -10.00 input   66.30 | X-H torsion
[ 10763 10752 10751 10750 ] final   -3.40 input  -60.55 | X-H torsion
[ 11005 11000 10999 10996 ] final    4.16 input  -57.11 | X-H torsion

> <Gold.Protein.ActiveResidues>
 VAL166  LYS551  ARG553  GLY616  TRP617  ASP618  TYR619  PRO620  LYS621  CYS622 
 ASP623  PHE694  ASN695  SER759  ASP760  ASP761  ALA762  ILE779  LEU786  VAL792 
 PHE793  MET794  SER795  GLU796  ALA797  LYS798  CYS799  TRP800  GLU811  SER814 

> <Gold.Protein.RotatedAtoms>
  151.0583  133.5566  159.2636 H   0  0  0  0  0  0  0  0  0  0  0  0  # atno 6907 bound_to 6896
  151.2551  135.0634  159.9086 H   0  0  0  0  0  0  0  0  0  0  0  0  # atno 6908 bound_to 6896
  152.5393  134.0337  159.8090 H   0  0  0  0  0  0  0  0  0  0  0  0  # atno 6909 bound_to 6896
  144.9700  139.4616  143.5437 H   0  0  0  0  0  0  0  0  0  0  0  0  # atno 7974 bound_to 7965
  155.6774  140.0740  157.2497 H   0  0  0  0  0  0  0  0  0  0  0  0  # atno 8008 bound_to 7997
  154.4112  140.1688  156.1996 H   0  0  0  0  0  0  0  0  0  0  0  0  # atno 8009 bound_to 7997
  155.9564  140.3373  155.6456 H   0  0  0  0  0  0  0  0  0  0  0  0  # atno 8010 bound_to 7997
  139.9223  143.6368  152.2550 H   0  0  0  0  0  0  0  0  0  0  0  0  # atno 10167 bound_to 10162
  156.6799  130.5034  149.5974 H   0  0  0  0  0  0  0  0  0  0  0  0  # atno 10718 bound_to 10713
  153.3709  135.6994  153.6638 H   0  0  0  0  0  0  0  0  0  0  0  0  # atno 10763 bound_to 10752
  153.5289  135.3596  155.2667 H   0  0  0  0  0  0  0  0  0  0  0  0  # atno 10764 bound_to 10752
  154.8681  135.4176  154.2987 H   0  0  0  0  0  0  0  0  0  0  0  0  # atno 10765 bound_to 10752
  140.5850  133.9977  155.8064 H   0  0  0  0  0  0  0  0  0  0  0  0  # atno 11005 bound_to 11000
  146.3379  139.8906  142.8809 LP  0  0  0  0  0  0  0  0  0  0  0  0  # atno 17320 bound_to 7965
  145.2573  141.0065  143.3847 LP  0  0  0  0  0  0  0  0  0  0  0  0  # atno 17321 bound_to 7965
  139.6851  144.7652  151.1538 LP  0  0  0  0  0  0  0  0  0  0  0  0  # atno 17342 bound_to 10162
  140.7659  143.5668  150.9038 LP  0  0  0  0  0  0  0  0  0  0  0  0  # atno 17343 bound_to 10162
  156.1876  130.6539  151.1024 LP  0  0  0  0  0  0  0  0  0  0  0  0  # atno 17370 bound_to 10713
  157.7047  131.0761  150.6705 LP  0  0  0  0  0  0  0  0  0  0  0  0  # atno 17371 bound_to 10713
  141.0971  133.9826  157.3141 LP  0  0  0  0  0  0  0  0  0  0  0  0  # atno 17394 bound_to 11000
  139.9300  135.0200  156.8366 LP  0  0  0  0  0  0  0  0  0  0  0  0  # atno 17395 bound_to 11000

$$$$
