AV-unprocessed.smi:2625|AV-procd|sdf|10235|dock5
  -GOLD-   2272014243D 1   1.00000     0.00000
 Structure written by MMmdl.
 24 24  0  0  0  0  0  0  0  0  1 V2000
  146.2369  142.5660  153.9791 C   0  0  0  0  0  0  0  0  0  0  0  0
  146.7351  142.4343  155.2984 O   0  0  0  0  0  0  0  0  0  0  0  0
  147.5288  141.2718  155.4682 C   0  0  0  0  0  0  0  0  0  0  0  0
  148.6044  141.2054  154.3714 C   0  0  0  0  0  0  0  0  0  0  0  0
  149.7826  140.4649  154.7764 N   0  0  0  0  0  0  0  0  0  0  0  0
  150.1423  139.2326  154.2247 C   0  0  0  0  0  0  0  0  0  0  0  0
  149.3457  138.6739  153.2407 N   0  0  0  0  0  0  0  0  0  0  0  0
  151.2603  138.5740  154.6224 C   0  0  0  0  0  0  0  0  0  0  0  0
  152.1453  139.1239  155.6429 C   0  0  0  0  0  0  0  0  0  0  0  0
  153.1697  138.5863  156.0577 O   0  0  0  0  0  0  0  0  0  0  0  0
  151.7471  140.3613  156.1482 N   0  0  0  0  0  0  0  0  0  0  0  0
  150.6096  141.0658  155.7589 C   0  0  0  0  0  0  0  0  0  0  0  0
  150.3741  142.1605  156.2714 O   0  0  0  0  0  0  0  0  0  0  0  0
  152.3350  140.7850  156.8511 H   0  0  0  0  0  0  0  0  0  0  0  0
  145.6327  143.4702  153.9048 H   0  0  0  0  0  0  0  0  0  0  0  0
  145.6075  141.7173  153.7083 H   0  0  0  0  0  0  0  0  0  0  0  0
  147.0504  142.6449  153.2570 H   0  0  0  0  0  0  0  0  0  0  0  0
  148.0128  141.3057  156.4451 H   0  0  0  0  0  0  0  0  0  0  0  0
  146.9055  140.3764  155.4467 H   0  0  0  0  0  0  0  0  0  0  0  0
  148.2212  140.7838  153.4409 H   0  0  0  0  0  0  0  0  0  0  0  0
  148.9520  142.2041  154.1074 H   0  0  0  0  0  0  0  0  0  0  0  0
  148.5091  139.1318  152.9080 H   0  0  0  0  0  0  0  0  0  0  0  0
  149.5655  137.7827  152.8196 H   0  0  0  0  0  0  0  0  0  0  0  0
  151.5141  137.6209  154.1791 H   0  0  0  0  0  0  0  0  0  0  0  0
  1  2  1  0  0  0  0
  1 15  1  0  0  0  0
  1 16  1  0  0  0  0
  1 17  1  0  0  0  0
  2  3  1  0  0  0  0
  3  4  1  0  0  0  0
  3 18  1  0  0  0  0
  3 19  1  0  0  0  0
  4  5  1  0  0  0  0
  4 20  1  0  0  0  0
  4 21  1  0  0  0  0
  5 12  1  0  0  0  0
  5  6  1  0  0  0  0
  6  7  1  0  0  0  0
  6  8  2  0  0  0  0
  7 22  1  0  0  0  0
  7 23  1  0  0  0  0
  8  9  1  0  0  0  0
  8 24  1  0  0  0  0
  9 10  2  0  0  0  0
  9 11  1  0  0  0  0
 11 14  1  0  0  0  0
 11 12  1  0  0  0  0
 12 13  2  0  0  0  0
M  END
> <s_m_source_file>
AV-unprocessed.smi

> <i_m_source_file_index>
2625

> <i_lp_mmshare_version>
43012

> <i_f3d_flags>
0

> <s_epik_input>
W0NIM11PW0NIMl1bQ0gyXW4xYyhbTkgyXSlbY0hdYyg9TylbbkhdYzE9Tw==

> <s_epik_cmdline>
J2VwaWtfcHl0aG9uJywgJy1waCcsICc3LjAnLCAnLXRuJywgJzgnLCAnLW1hJywgJzIwMCcsICctbWV0YWxfYmluZGluZycsICctaW1hZScsICc8aW5maWxlLm1hZT4nLCAnLW9tYWUnLCAnPG91dGZpbGUubWFlPic=

> <r_lp_tautomer_probability>
1

> <r_epik_Ionization_Penalty>
6.81436e-06

> <r_epik_Ionization_Penalty_Charging>
1.95411e-06

> <r_epik_Ionization_Penalty_Neutral>
4.86025e-06

> <r_epik_State_Penalty>
-0

> <r_epik_Charging_Adjusted_Penalty>
1.95411e-06

> <i_epik_Tot_Q>
0

> <i_epik_Tot_abs_Q>
0

> <r_epik_Metal_State_Penalty>
-0

> <b_epik_Metal_Only>
0

> <s_epik_Chemistry_Notes>
This compound has an imine and may undergo hydrolysis.

> <s_lp_Force_Field>
OPLS_2005

> <r_lp_Energy>
12.62

> <b_lp_Chiralities_Consistent>
1

> <s_lp_Variant>
AV-unprocessed.smi:2625-1

> <Gold.Version>
5.8.1

> <Gold.Id.Protein>
6NUR|6NUR_protein|mol2

> <Gold.PLP.Fitness>
31.6455

> <Gold.PLP.PLP>
-26.1460

> <Gold.PLP.part.hbond>
-2.8629

> <Gold.PLP.part.metal>
0.0000

> <Gold.PLP.part.buried>
-3.2535

> <Gold.PLP.part.nonpolar>
-21.2079

> <Gold.PLP.part.repulsive>
1.6258

> <Gold.PLP.ligand.clash>
0.0000

> <Gold.PLP.ligand.torsion>
0.2510

> <Gold.PLP.Chemscore.Hbond>
2.0000

> <Gold.PLP.Chemscore.CHOScore>
0.0000

> <Gold.PLP.Chemscore.Metal>
0.0000

> <Gold.Chemscore.Hbonds>
donor molecule, donor type, donor heavy atom, donor atom, acceptor molecule, acceptor atom, score
      L1  H     7    23       P1  7948  0.99
      P1  H  7997  8009       L1    10  1.00

> <Gold.PLP.Chemscore.Internal.Correction>
0.0015

> <Gold.Rescore>
     Score         DG    S(hbond)    S(metal)    S(lipo)     H(rot)  DE(clash)    DE(int)     intcor
      8.32      -9.83       1.88        0.00      23.72       1.84       1.19       0.32       ----

> <Gold.Chemscore.Fitness>
8.3227

> <Gold.Chemscore.DG>
-9.8296

> <Gold.Chemscore.ZeroCoef>
-5.4800

> <Gold.Chemscore.Hbond>
1.8837

> <Gold.Chemscore.Metal>
0.0000

> <Gold.Chemscore.Lipo>
23.7244

> <Gold.Chemscore.Internal_Hbond>
0.0000

> <Gold.Chemscore.DEClash>
1.1861

> <Gold.Chemscore.DEInternal>
0.3208

> <Gold.Chemscore.Rot>
1.8428

> <Gold.Chemscore.Internal.Correction>
   9.000000E+99

> <Gold.Chemscore.Hbonds>
donor molecule, donor type, donor heavy atom, donor atom, acceptor molecule, acceptor atom, score
      L1  H     7    23       P1  7948  0.70
      P1  H  7997  8009       L1    10  0.33

> <Gold.Chemscore.Hbond.Weighted>
-6.2915

> <Gold.Chemscore.Metal.Weighted>
-0.0000

> <Gold.Chemscore.Lipo.Weighted>
-2.7758

> <Gold.Chemscore.Internal_Hbond.Weighted>
0.0000

> <Gold.Chemscore.DEClash.Weighted>
1.1861

> <Gold.Chemscore.DEInternal.Weighted>
0.3208

> <Gold.Chemscore.Rot.Weighted>
4.7177

> <Gold.Chemscore.Internal.Correction.Weighted>
   9.000000E+99

> <Gold.Protein.RotatedTorsions>
[ 6907 6896 6895 6894 ] final   38.05 input  -60.11 | X-H torsion
[ 7974 7965 7964 7962 ] final  -14.36 input  175.53 | X-H torsion
[ 8008 7997 7996 7995 ] final -161.76 input   59.86 | X-H torsion
[ 10167 10162 10161 10158 ] final  -25.16 input  -65.29 | X-H torsion
[ 10718 10713 10712 10709 ] final -153.83 input   66.30 | X-H torsion
[ 10763 10752 10751 10750 ] final  118.87 input  -60.55 | X-H torsion
[ 11005 11000 10999 10996 ] final  -48.53 input  -57.11 | X-H torsion

> <Gold.Protein.ActiveResidues>
 VAL166  LYS551  ARG553  GLY616  TRP617  ASP618  TYR619  PRO620  LYS621  CYS622 
 ASP623  PHE694  ASN695  SER759  ASP760  ASP761  ALA762  ILE779  LEU786  VAL792 
 PHE793  MET794  SER795  GLU796  ALA797  LYS798  CYS799  TRP800  GLU811  SER814 

> <Gold.Protein.RotatedAtoms>
  152.1513  134.8986  160.0547 H   0  0  0  0  0  0  0  0  0  0  0  0  # atno 6907 bound_to 6896
  152.0016  133.3823  159.4192 H   0  0  0  0  0  0  0  0  0  0  0  0  # atno 6908 bound_to 6896
  150.6876  134.3749  159.5052 H   0  0  0  0  0  0  0  0  0  0  0  0  # atno 6909 bound_to 6896
  146.2077  140.3337  142.8401 H   0  0  0  0  0  0  0  0  0  0  0  0  # atno 7974 bound_to 7965
  155.7969  140.0886  157.1978 H   0  0  0  0  0  0  0  0  0  0  0  0  # atno 8008 bound_to 7997
  154.3983  140.1479  156.3287 H   0  0  0  0  0  0  0  0  0  0  0  0  # atno 8009 bound_to 7997
  155.8502  140.3435  155.5691 H   0  0  0  0  0  0  0  0  0  0  0  0  # atno 8010 bound_to 7997
  140.7287  143.4289  151.0832 H   0  0  0  0  0  0  0  0  0  0  0  0  # atno 10167 bound_to 10162
  156.4910  130.8347  151.2570 H   0  0  0  0  0  0  0  0  0  0  0  0  # atno 10718 bound_to 10713
  153.5742  135.3496  155.2850 H   0  0  0  0  0  0  0  0  0  0  0  0  # atno 10763 bound_to 10752
  154.8677  135.4166  154.2691 H   0  0  0  0  0  0  0  0  0  0  0  0  # atno 10764 bound_to 10752
  153.3463  135.7052  153.6895 H   0  0  0  0  0  0  0  0  0  0  0  0  # atno 10765 bound_to 10752
  141.0706  133.6680  156.3454 H   0  0  0  0  0  0  0  0  0  0  0  0  # atno 11005 bound_to 11000
  144.8834  140.7430  143.5972 LP  0  0  0  0  0  0  0  0  0  0  0  0  # atno 17320 bound_to 7965
  145.3258  139.1774  143.4563 LP  0  0  0  0  0  0  0  0  0  0  0  0  # atno 17321 bound_to 7965
  139.7944  143.8173  152.3156 LP  0  0  0  0  0  0  0  0  0  0  0  0  # atno 17342 bound_to 10162
  139.8168  144.7313  150.9625 LP  0  0  0  0  0  0  0  0  0  0  0  0  # atno 17343 bound_to 10162
  157.7473  131.0013  150.2959 LP  0  0  0  0  0  0  0  0  0  0  0  0  # atno 17370 bound_to 10713
  156.3426  130.3818  149.7396 LP  0  0  0  0  0  0  0  0  0  0  0  0  # atno 17371 bound_to 10713
  140.5681  134.5867  157.5451 LP  0  0  0  0  0  0  0  0  0  0  0  0  # atno 17394 bound_to 11000
  139.9520  134.7601  156.0428 LP  0  0  0  0  0  0  0  0  0  0  0  0  # atno 17395 bound_to 11000

$$$$
