AV-unprocessed.smi:33|AV-procd|sdf|214|dock10
  -GOLD-   2262015523D 1   1.00000     0.00000
 Structure written by MMmdl.
 67 72  0  0  0  0  0  0  0  0  1 V2000
  152.4854  139.9118  157.9317 O   0  0  0  0  0  0  0  0  0  0  0  0
  151.8608  140.9372  157.6525 C   0  0  0  0  0  0  0  0  0  0  0  0
  151.0782  141.0613  156.5671 O   0  0  0  0  0  0  0  0  0  0  0  0
  150.9813  140.0105  155.6205 C   0  0  0  0  0  0  0  0  0  0  0  0
  150.0977  138.9225  156.2362 C   0  0  1  0  0  0  0  0  0  0  0  0
  148.7512  139.0640  155.7966 O   0  0  0  0  0  0  0  0  0  0  0  0
  148.0801  137.8508  155.9542 C   0  0  2  0  0  0  0  0  0  0  0  0
  147.0903  137.9542  157.0811 N   0  0  0  0  0  0  0  0  0  0  0  0
  146.8830  139.0534  157.8856 C   0  0  0  0  0  0  0  0  0  0  0  0
  145.9730  138.9135  158.8104 N   0  0  0  0  0  0  0  0  0  0  0  0
  145.5195  137.6140  158.6359 C   0  0  0  0  0  0  0  0  0  0  0  0
  144.5458  136.8169  159.2935 C   0  0  0  0  0  0  0  0  0  0  0  0
  143.8206  137.2694  160.3400 N   0  0  0  0  0  0  0  0  0  0  0  0
  142.5486  137.9341  160.0256 C   0  0  0  0  0  0  0  0  0  0  0  0
  142.3962  138.4689  158.9256 O   0  0  0  0  0  0  0  0  0  0  0  0
  141.4507  137.9997  161.0485 C   0  0  0  0  0  0  0  0  0  0  0  0
  141.3963  137.0482  162.0905 C   0  0  0  0  0  0  0  0  0  0  0  0
  140.3776  137.1164  163.0606 C   0  0  0  0  0  0  0  0  0  0  0  0
  139.4199  138.1472  163.0064 C   0  0  0  0  0  0  0  0  0  0  0  0
  139.4856  139.1153  161.9864 C   0  0  0  0  0  0  0  0  0  0  0  0
  140.5023  139.0467  161.0148 C   0  0  0  0  0  0  0  0  0  0  0  0
  144.3698  137.0415  161.6843 C   0  0  0  0  0  0  0  0  0  0  0  0
  144.0079  137.7598  162.6182 O   0  0  0  0  0  0  0  0  0  0  0  0
  145.4047  135.9777  161.9179 C   0  0  0  0  0  0  0  0  0  0  0  0
  146.6198  136.3048  162.5591 C   0  0  0  0  0  0  0  0  0  0  0  0
  147.5904  135.3111  162.7915 C   0  0  0  0  0  0  0  0  0  0  0  0
  147.3443  133.9807  162.4022 C   0  0  0  0  0  0  0  0  0  0  0  0
  146.1229  133.6420  161.7893 C   0  0  0  0  0  0  0  0  0  0  0  0
  145.1522  134.6353  161.5551 C   0  0  0  0  0  0  0  0  0  0  0  0
  144.3430  135.5510  158.8495 N   0  0  0  0  0  0  0  0  0  0  0  0
  145.0637  135.0903  157.8241 C   0  0  0  0  0  0  0  0  0  0  0  0
  146.0091  135.7179  157.1213 N   0  0  0  0  0  0  0  0  0  0  0  0
  146.2102  136.9965  157.5565 C   0  0  0  0  0  0  0  0  0  0  0  0
  149.1489  136.7572  156.1861 C   0  0  2  0  0  0  0  0  0  0  0  0
  149.2031  136.2602  157.5125 O   0  0  0  0  0  0  0  0  0  0  0  0
  150.4363  137.4888  155.8388 C   0  0  1  0  0  0  0  0  0  0  0  0
  150.6616  137.4052  154.5260 F   0  0  0  0  0  0  0  0  0  0  0  0
  151.8901  142.1763  158.4823 C   0  0  0  0  0  0  0  0  0  0  0  0
  151.3234  143.3679  157.9733 C   0  0  0  0  0  0  0  0  0  0  0  0
  151.3361  144.5510  158.7377 C   0  0  0  0  0  0  0  0  0  0  0  0
  151.9142  144.5566  160.0207 C   0  0  0  0  0  0  0  0  0  0  0  0
  152.4792  143.3771  160.5394 C   0  0  0  0  0  0  0  0  0  0  0  0
  152.4678  142.1935  159.7763 C   0  0  0  0  0  0  0  0  0  0  0  0
  150.5572  140.3690  154.6816 H   0  0  0  0  0  0  0  0  0  0  0  0
  151.9776  139.6186  155.4127 H   0  0  0  0  0  0  0  0  0  0  0  0
  150.1426  138.9916  157.3236 H   0  0  0  0  0  0  0  0  0  0  0  0
  147.4642  137.6662  155.0734 H   0  0  0  0  0  0  0  0  0  0  0  0
  147.4345  139.9740  157.7614 H   0  0  0  0  0  0  0  0  0  0  0  0
  142.1264  136.2533  162.1417 H   0  0  0  0  0  0  0  0  0  0  0  0
  140.3316  136.3783  163.8476 H   0  0  0  0  0  0  0  0  0  0  0  0
  138.6393  138.1992  163.7508 H   0  0  0  0  0  0  0  0  0  0  0  0
  138.7573  139.9118  161.9493 H   0  0  0  0  0  0  0  0  0  0  0  0
  140.5467  139.7980  160.2391 H   0  0  0  0  0  0  0  0  0  0  0  0
  146.8195  137.3227  162.8617 H   0  0  0  0  0  0  0  0  0  0  0  0
  148.5235  135.5701  163.2694 H   0  0  0  0  0  0  0  0  0  0  0  0
  148.0895  133.2194  162.5796 H   0  0  0  0  0  0  0  0  0  0  0  0
  145.9302  132.6198  161.4986 H   0  0  0  0  0  0  0  0  0  0  0  0
  144.2171  134.3631  161.0870 H   0  0  0  0  0  0  0  0  0  0  0  0
  144.8537  134.0744  157.5234 H   0  0  0  0  0  0  0  0  0  0  0  0
  148.9653  135.9183  155.5137 H   0  0  0  0  0  0  0  0  0  0  0  0
  149.0283  135.3317  157.4927 H   0  0  0  0  0  0  0  0  0  0  0  0
  151.3184  137.0950  156.3459 H   0  0  0  0  0  0  0  0  0  0  0  0
  150.8736  143.3875  156.9911 H   0  0  0  0  0  0  0  0  0  0  0  0
  150.9012  145.4554  158.3386 H   0  0  0  0  0  0  0  0  0  0  0  0
  151.9225  145.4638  160.6066 H   0  0  0  0  0  0  0  0  0  0  0  0
  152.9209  143.3778  161.5252 H   0  0  0  0  0  0  0  0  0  0  0  0
  152.9058  141.3048  160.2060 H   0  0  0  0  0  0  0  0  0  0  0  0
  1  2  2  0  0  0  0
  2  3  1  0  0  0  0
  2 38  1  0  0  0  0
  3  4  1  0  0  0  0
  4  5  1  0  0  0  0
  4 44  1  0  0  0  0
  4 45  1  0  0  0  0
  5 36  1  0  0  0  0
  5  6  1  0  0  0  0
  5 46  1  0  0  0  0
  6  7  1  0  0  0  0
  7  8  1  0  0  0  0
  7 34  1  0  0  0  0
  7 47  1  0  0  0  0
  8 33  1  0  0  0  0
  8  9  1  0  0  0  0
  9 10  2  0  0  0  0
  9 48  1  0  0  0  0
 10 11  1  0  0  0  0
 11 33  2  0  0  0  0
 11 12  1  0  0  0  0
 12 13  1  0  0  0  0
 12 30  2  0  0  0  0
 13 14  1  0  0  0  0
 13 22  1  0  0  0  0
 14 15  2  0  0  0  0
 14 16  1  0  0  0  0
 16 21  1  0  0  0  0
 16 17  2  0  0  0  0
 17 18  1  0  0  0  0
 17 49  1  0  0  0  0
 18 19  2  0  0  0  0
 18 50  1  0  0  0  0
 19 20  1  0  0  0  0
 19 51  1  0  0  0  0
 20 21  2  0  0  0  0
 20 52  1  0  0  0  0
 21 53  1  0  0  0  0
 22 23  2  0  0  0  0
 22 24  1  0  0  0  0
 24 29  1  0  0  0  0
 24 25  2  0  0  0  0
 25 26  1  0  0  0  0
 25 54  1  0  0  0  0
 26 27  2  0  0  0  0
 26 55  1  0  0  0  0
 27 28  1  0  0  0  0
 27 56  1  0  0  0  0
 28 29  2  0  0  0  0
 28 57  1  0  0  0  0
 29 58  1  0  0  0  0
 30 31  1  0  0  0  0
 31 32  2  0  0  0  0
 31 59  1  0  0  0  0
 32 33  1  0  0  0  0
 34 35  1  0  0  0  0
 34 36  1  0  0  0  0
 34 60  1  0  0  0  0
 35 61  1  0  0  0  0
 36 37  1  0  0  0  0
 36 62  1  0  0  0  0
 38 43  1  0  0  0  0
 38 39  2  0  0  0  0
 39 40  1  0  0  0  0
 39 63  1  0  0  0  0
 40 41  2  0  0  0  0
 40 64  1  0  0  0  0
 41 42  1  0  0  0  0
 41 65  1  0  0  0  0
 42 43  2  0  0  0  0
 42 66  1  0  0  0  0
 43 67  1  0  0  0  0
M  END
> <s_m_source_file>
AV-unprocessed.smi

> <i_m_source_file_index>
33

> <i_lp_mmshare_version>
43012

> <i_f3d_flags>
0

> <s_epik_input>
W2NIXTFbY0hdW2NIXVtjSF1bY0hdYzFDKD1PKU9bQ0gyXVtDQEBIXTJPW0NASF0oW0NAQEhdKFtPSF0pW0NAQEhdMkYpbihbY0hdbjMpYyhjMzQpbltjSF1uYzROKEMoPU8pYzVbY0hdW2NIXVtjSF1bY0hdW2NIXTUpQyg9TyljNltjSF1bY0hdW2NIXVtjSF1bY0hdNg==

> <s_epik_cmdline>
J2VwaWtfcHl0aG9uJywgJy1waCcsICc3LjAnLCAnLXRuJywgJzgnLCAnLW1hJywgJzIwMCcsICctbWV0YWxfYmluZGluZycsICctaW1hZScsICc8aW5maWxlLm1hZT4nLCAnLW9tYWUnLCAnPG91dGZpbGUubWFlPic=

> <r_lp_tautomer_probability>
1

> <r_epik_Ionization_Penalty>
0.00067664

> <r_epik_Ionization_Penalty_Charging>
0

> <r_epik_Ionization_Penalty_Neutral>
0.00067664

> <r_epik_State_Penalty>
0.000428095

> <r_epik_Charging_Adjusted_Penalty>
0.000428095

> <i_epik_Tot_Q>
0

> <i_epik_Tot_abs_Q>
0

> <r_epik_Metal_State_Penalty>
-0

> <b_epik_Metal_Only>
0

> <s_epik_Chemistry_Notes>
This compound has an ester and may undergo hydrolysis at high or low pH. This compound contains an acetal/aminal-like group ( X-CH(R)-Y where X, Y are N, S, or O) that may be acid/base labile, releasing an aldehyde.

> <s_lp_Force_Field>
OPLS_2005

> <r_lp_Energy>
71.2242

> <b_lp_Chiralities_Consistent>
1

> <s_lp_Variant>
AV-unprocessed.smi:33-16

> <Gold.Version>
5.8.1

> <Gold.Id.Protein>
6NUR|6NUR_protein|mol2

> <Gold.PLP.Fitness>
52.8043

> <Gold.PLP.PLP>
-53.0853

> <Gold.PLP.part.hbond>
-3.0507

> <Gold.PLP.part.metal>
0.0000

> <Gold.PLP.part.buried>
-5.8024

> <Gold.PLP.part.nonpolar>
-43.5065

> <Gold.PLP.part.repulsive>
0.0684

> <Gold.PLP.ligand.clash>
0.0000

> <Gold.PLP.ligand.torsion>
3.7620

> <Gold.PLP.Chemscore.Hbond>
1.0000

> <Gold.PLP.Chemscore.CHOScore>
0.0000

> <Gold.PLP.Chemscore.Metal>
0.0000

> <Gold.Chemscore.Hbonds>
donor molecule, donor type, donor heavy atom, donor atom, acceptor molecule, acceptor atom, score
      P1  H  6934  6947       L1    10  0.03
      P1  H  7997  8010       L1     1  0.44

> <Gold.PLP.Chemscore.Internal.Correction>
4.2431

> <Gold.Rescore>
     Score         DG    S(hbond)    S(metal)    S(lipo)     H(rot)  DE(clash)    DE(int)     intcor
     10.77     -18.30       0.95        0.00     137.66       2.52       0.07       7.46       ----

> <Gold.Chemscore.Fitness>
10.7667

> <Gold.Chemscore.DG>
-18.2973

> <Gold.Chemscore.ZeroCoef>
-5.4800

> <Gold.Chemscore.Hbond>
0.9505

> <Gold.Chemscore.Metal>
0.0000

> <Gold.Chemscore.Lipo>
137.6560

> <Gold.Chemscore.Internal_Hbond>
0.0000

> <Gold.Chemscore.DEClash>
0.0689

> <Gold.Chemscore.DEInternal>
7.4616

> <Gold.Chemscore.Rot>
2.5247

> <Gold.Chemscore.Internal.Correction>
   9.000000E+99

> <Gold.Chemscore.Hbonds>
donor molecule, donor type, donor heavy atom, donor atom, acceptor molecule, acceptor atom, score
      P1  H  6934  6947       L1    10  0.01
      P1  H  7997  8010       L1     1  0.24

> <Gold.Chemscore.Hbond.Weighted>
-3.1748

> <Gold.Chemscore.Metal.Weighted>
-0.0000

> <Gold.Chemscore.Lipo.Weighted>
-16.1058

> <Gold.Chemscore.Internal_Hbond.Weighted>
0.0000

> <Gold.Chemscore.DEClash.Weighted>
0.0689

> <Gold.Chemscore.DEInternal.Weighted>
7.4616

> <Gold.Chemscore.Rot.Weighted>
6.4633

> <Gold.Chemscore.Internal.Correction.Weighted>
   9.000000E+99

> <Gold.Protein.RotatedTorsions>
[ 6907 6896 6895 6894 ] final  -10.77 input  -60.11 | X-H torsion
[ 7974 7965 7964 7962 ] final -156.01 input  175.53 | X-H torsion
[ 8008 7997 7996 7995 ] final   46.62 input   59.86 | X-H torsion
[ 10167 10162 10161 10158 ] final  125.41 input  -65.29 | X-H torsion
[ 10718 10713 10712 10709 ] final -144.72 input   66.30 | X-H torsion
[ 10763 10752 10751 10750 ] final -120.77 input  -60.55 | X-H torsion
[ 11005 11000 10999 10996 ] final  143.80 input  -57.11 | X-H torsion

> <Gold.Protein.ActiveResidues>
 VAL166  LYS551  ARG553  GLY616  TRP617  ASP618  TYR619  PRO620  LYS621  CYS622 
 ASP623  PHE694  ASN695  SER759  ASP760  ASP761  ALA762  ILE779  LEU786  VAL792 
 PHE793  MET794  SER795  GLU796  ALA797  LYS798  CYS799  TRP800  GLU811  SER814 

> <Gold.Protein.RotatedAtoms>
  151.3967  135.0964  159.9542 H   0  0  0  0  0  0  0  0  0  0  0  0  # atno 6907 bound_to 6896
  152.5063  133.8927  159.7412 H   0  0  0  0  0  0  0  0  0  0  0  0  # atno 6908 bound_to 6896
  150.9393  133.6619  159.2822 H   0  0  0  0  0  0  0  0  0  0  0  0  # atno 6909 bound_to 6896
  144.7613  140.4170  143.5974 H   0  0  0  0  0  0  0  0  0  0  0  0  # atno 7974 bound_to 7965
  155.3556  140.3416  155.4240 H   0  0  0  0  0  0  0  0  0  0  0  0  # atno 8008 bound_to 7997
  156.1741  140.1641  156.8429 H   0  0  0  0  0  0  0  0  0  0  0  0  # atno 8009 bound_to 7997
  154.5263  140.0755  156.8248 H   0  0  0  0  0  0  0  0  0  0  0  0  # atno 8010 bound_to 7997
  139.5687  144.6926  151.3838 H   0  0  0  0  0  0  0  0  0  0  0  0  # atno 10167 bound_to 10162
  156.3736  130.7801  151.1984 H   0  0  0  0  0  0  0  0  0  0  0  0  # atno 10718 bound_to 10713
  154.8652  135.4191  154.2513 H   0  0  0  0  0  0  0  0  0  0  0  0  # atno 10763 bound_to 10752
  153.3459  135.6996  153.6834 H   0  0  0  0  0  0  0  0  0  0  0  0  # atno 10764 bound_to 10752
  153.5793  135.3576  155.2841 H   0  0  0  0  0  0  0  0  0  0  0  0  # atno 10765 bound_to 10752
  140.0582  134.9219  157.1138 H   0  0  0  0  0  0  0  0  0  0  0  0  # atno 11005 bound_to 11000
  145.6610  139.1581  143.2808 LP  0  0  0  0  0  0  0  0  0  0  0  0  # atno 17320 bound_to 7965
  146.1678  140.6691  142.9247 LP  0  0  0  0  0  0  0  0  0  0  0  0  # atno 17321 bound_to 7965
  140.6971  143.7722  150.7344 LP  0  0  0  0  0  0  0  0  0  0  0  0  # atno 17342 bound_to 10162
  140.1222  143.4602  152.2306 LP  0  0  0  0  0  0  0  0  0  0  0  0  # atno 17343 bound_to 10162
  157.7486  131.0365  150.4412 LP  0  0  0  0  0  0  0  0  0  0  0  0  # atno 17370 bound_to 10713
  156.4643  130.4039  149.6557 LP  0  0  0  0  0  0  0  0  0  0  0  0  # atno 17371 bound_to 10713
  140.3811  134.2286  155.7171 LP  0  0  0  0  0  0  0  0  0  0  0  0  # atno 17394 bound_to 11000
  141.1961  133.8089  157.0684 LP  0  0  0  0  0  0  0  0  0  0  0  0  # atno 17395 bound_to 11000

$$$$
