AV-unprocessed.smi:1463|AV-procd|sdf|5934|dock7
  -GOLD-   22720 6 13D 1   1.00000     0.00000
 Structure written by MMmdl.
 46 47  0  0  0  0  0  0  0  0  1 V2000
  152.5818  143.2797  161.8140 C   0  0  0  0  0  0  0  0  0  0  0  0
  153.1167  142.4784  160.7759 O   0  0  0  0  0  0  0  0  0  0  0  0
  152.2474  142.3804  159.6597 C   0  0  0  0  0  0  0  0  0  0  0  0
  152.7164  141.2246  158.7724 C   0  0  0  0  0  0  0  0  0  0  0  0
  151.7977  141.1031  157.6933 O   0  0  0  0  0  0  0  0  0  0  0  0
  151.9517  140.0654  156.7954 C   0  0  0  0  0  0  0  0  0  0  0  0
  152.8915  139.1226  157.0591 N   0  0  0  0  0  0  0  0  0  0  0  0
  153.0307  138.0944  156.1965 C   0  0  0  0  0  0  0  0  0  0  0  0
  152.2442  137.9468  155.0388 C   0  0  0  0  0  0  0  0  0  0  0  0
  151.2705  138.9247  154.7631 C   0  0  0  0  0  0  0  0  0  0  0  0
  151.1267  140.0183  155.6430 C   0  0  0  0  0  0  0  0  0  0  0  0
  150.0732  141.0578  155.3769 C   0  0  0  0  0  0  0  0  0  0  0  0
  150.4284  142.2295  155.2444 O   0  0  0  0  0  0  0  0  0  0  0  0
  148.7786  140.6624  155.2758 N   0  0  0  0  0  0  0  0  0  0  0  0
  147.6846  141.4388  154.6727 C   0  0  0  0  0  0  0  0  0  0  0  0
  147.2914  140.7959  153.3305 C   0  0  0  0  0  0  0  0  0  0  0  0
  146.9029  139.3112  153.4991 C   0  0  0  0  0  0  0  0  0  0  0  0
  146.5890  138.6646  152.1308 C   0  0  0  0  0  0  0  0  0  0  0  0
  145.5790  137.5126  152.1977 C   0  0  0  0  0  0  0  0  0  0  0  0
  144.3617  137.8014  152.6640 N   0  0  0  0  0  0  0  0  0  0  0  0
  145.8904  136.3778  151.8412 O   0  0  0  0  0  0  0  0  0  0  0  0
  148.0004  138.5564  154.2864 C   0  0  0  0  0  0  0  0  0  0  0  0
  148.3560  139.2925  155.5896 C   0  0  0  0  0  0  0  0  0  0  0  0
  153.2867  143.3206  162.6444 H   0  0  0  0  0  0  0  0  0  0  0  0
  151.6437  142.8673  162.1872 H   0  0  0  0  0  0  0  0  0  0  0  0
  152.4055  144.3004  161.4725 H   0  0  0  0  0  0  0  0  0  0  0  0
  151.2315  142.1890  160.0081 H   0  0  0  0  0  0  0  0  0  0  0  0
  152.2319  143.3125  159.0925 H   0  0  0  0  0  0  0  0  0  0  0  0
  153.7303  141.4157  158.4165 H   0  0  0  0  0  0  0  0  0  0  0  0
  152.7273  140.2980  159.3482 H   0  0  0  0  0  0  0  0  0  0  0  0
  153.7883  137.3643  156.4398 H   0  0  0  0  0  0  0  0  0  0  0  0
  152.3835  137.1031  154.3792 H   0  0  0  0  0  0  0  0  0  0  0  0
  150.6497  138.8367  153.8832 H   0  0  0  0  0  0  0  0  0  0  0  0
  146.8317  141.4471  155.3531 H   0  0  0  0  0  0  0  0  0  0  0  0
  147.9323  142.4832  154.4939 H   0  0  0  0  0  0  0  0  0  0  0  0
  146.4627  141.3501  152.8885 H   0  0  0  0  0  0  0  0  0  0  0  0
  148.1262  140.8819  152.6331 H   0  0  0  0  0  0  0  0  0  0  0  0
  145.9936  139.2913  154.1024 H   0  0  0  0  0  0  0  0  0  0  0  0
  146.1770  139.4172  151.4576 H   0  0  0  0  0  0  0  0  0  0  0  0
  147.5143  138.3156  151.6694 H   0  0  0  0  0  0  0  0  0  0  0  0
  143.6599  137.0782  152.7274 H   0  0  0  0  0  0  0  0  0  0  0  0
  144.1472  138.7452  152.9515 H   0  0  0  0  0  0  0  0  0  0  0  0
  147.6737  137.5440  154.5243 H   0  0  0  0  0  0  0  0  0  0  0  0
  148.8956  138.4559  153.6710 H   0  0  0  0  0  0  0  0  0  0  0  0
  149.1162  138.7342  156.1378 H   0  0  0  0  0  0  0  0  0  0  0  0
  147.4867  139.3286  156.2480 H   0  0  0  0  0  0  0  0  0  0  0  0
  1  2  1  0  0  0  0
  1 24  1  0  0  0  0
  1 25  1  0  0  0  0
  1 26  1  0  0  0  0
  2  3  1  0  0  0  0
  3  4  1  0  0  0  0
  3 27  1  0  0  0  0
  3 28  1  0  0  0  0
  4  5  1  0  0  0  0
  4 29  1  0  0  0  0
  4 30  1  0  0  0  0
  5  6  1  0  0  0  0
  6 11  1  0  0  0  0
  6  7  2  0  0  0  0
  7  8  1  0  0  0  0
  8  9  2  0  0  0  0
  8 31  1  0  0  0  0
  9 10  1  0  0  0  0
  9 32  1  0  0  0  0
 10 11  2  0  0  0  0
 10 33  1  0  0  0  0
 11 12  1  0  0  0  0
 12 13  2  0  0  0  0
 12 14  1  0  0  0  0
 14 23  1  0  0  0  0
 14 15  1  0  0  0  0
 15 16  1  0  0  0  0
 15 34  1  0  0  0  0
 15 35  1  0  0  0  0
 16 17  1  0  0  0  0
 16 36  1  0  0  0  0
 16 37  1  0  0  0  0
 17 18  1  0  0  0  0
 17 22  1  0  0  0  0
 17 38  1  0  0  0  0
 18 19  1  0  0  0  0
 18 39  1  0  0  0  0
 18 40  1  0  0  0  0
 19 20  1  0  0  0  0
 19 21  2  0  0  0  0
 20 41  1  0  0  0  0
 20 42  1  0  0  0  0
 22 23  1  0  0  0  0
 22 43  1  0  0  0  0
 22 44  1  0  0  0  0
 23 45  1  0  0  0  0
 23 46  1  0  0  0  0
M  END
> <s_m_source_file>
AV-unprocessed.smi

> <i_m_source_file_index>
1463

> <i_lp_mmshare_version>
43012

> <i_f3d_flags>
0

> <s_epik_input>
W0NIM11PW0NIMl1bQ0gyXU9jMW5bY0hdW2NIXVtjSF1jMUMoPU8pTjJbQ0gyXVtDSDJdW0NIXShbQ0gyXVtDSDJdMilbQ0gyXUMoPU8pW05IMl0=

> <s_epik_cmdline>
J2VwaWtfcHl0aG9uJywgJy1waCcsICc3LjAnLCAnLXRuJywgJzgnLCAnLW1hJywgJzIwMCcsICctbWV0YWxfYmluZGluZycsICctaW1hZScsICc8aW5maWxlLm1hZT4nLCAnLW9tYWUnLCAnPG91dGZpbGUubWFlPic=

> <r_lp_tautomer_probability>
1

> <r_epik_Ionization_Penalty>
2.54873e-06

> <r_epik_Ionization_Penalty_Charging>
0

> <r_epik_Ionization_Penalty_Neutral>
2.54873e-06

> <r_epik_State_Penalty>
-0

> <r_epik_Charging_Adjusted_Penalty>
0

> <i_epik_Tot_Q>
0

> <i_epik_Tot_abs_Q>
0

> <r_epik_Metal_State_Penalty>
-0

> <b_epik_Metal_Only>
0

> <s_lp_Force_Field>
OPLS_2005

> <r_lp_Energy>
26.7295

> <b_lp_Chiralities_Consistent>
1

> <s_lp_Variant>
AV-unprocessed.smi:1463-1

> <Gold.Version>
5.8.1

> <Gold.Id.Protein>
6NUR|6NUR_protein|mol2

> <Gold.PLP.Fitness>
44.4051

> <Gold.PLP.PLP>
-39.9086

> <Gold.PLP.part.hbond>
-4.0000

> <Gold.PLP.part.metal>
0.0000

> <Gold.PLP.part.buried>
-0.3961

> <Gold.PLP.part.nonpolar>
-37.8708

> <Gold.PLP.part.repulsive>
2.4462

> <Gold.PLP.ligand.clash>
0.0000

> <Gold.PLP.ligand.torsion>
1.5973

> <Gold.PLP.Chemscore.Hbond>
1.9920

> <Gold.PLP.Chemscore.CHOScore>
0.0000

> <Gold.PLP.Chemscore.Metal>
0.0000

> <Gold.Chemscore.Hbonds>
donor molecule, donor type, donor heavy atom, donor atom, acceptor molecule, acceptor atom, score
      L1  H    20    42       P1 10175  0.96
      P1  H  7997  8009       L1     7  1.00

> <Gold.PLP.Chemscore.Internal.Correction>
1.7151

> <Gold.Rescore>
     Score         DG    S(hbond)    S(metal)    S(lipo)     H(rot)  DE(clash)    DE(int)     intcor
      9.04     -13.26       1.09        0.00      91.25       2.55       2.38       1.84       ----

> <Gold.Chemscore.Fitness>
9.0371

> <Gold.Chemscore.DG>
-13.2558

> <Gold.Chemscore.ZeroCoef>
-5.4800

> <Gold.Chemscore.Hbond>
1.0888

> <Gold.Chemscore.Metal>
0.0000

> <Gold.Chemscore.Lipo>
91.2512

> <Gold.Chemscore.Internal_Hbond>
0.0000

> <Gold.Chemscore.DEClash>
2.3832

> <Gold.Chemscore.DEInternal>
1.8355

> <Gold.Chemscore.Rot>
2.5536

> <Gold.Chemscore.Internal.Correction>
   9.000000E+99

> <Gold.Chemscore.Hbonds>
donor molecule, donor type, donor heavy atom, donor atom, acceptor molecule, acceptor atom, score
      L1  H    20    42       P1 10175  0.92
      P1  H  7997  8009       L1     7  0.12

> <Gold.Chemscore.Hbond.Weighted>
-3.6367

> <Gold.Chemscore.Metal.Weighted>
-0.0000

> <Gold.Chemscore.Lipo.Weighted>
-10.6764

> <Gold.Chemscore.Internal_Hbond.Weighted>
0.0000

> <Gold.Chemscore.DEClash.Weighted>
2.3832

> <Gold.Chemscore.DEInternal.Weighted>
1.8355

> <Gold.Chemscore.Rot.Weighted>
6.5373

> <Gold.Chemscore.Internal.Correction.Weighted>
   9.000000E+99

> <Gold.Protein.RotatedTorsions>
[ 6907 6896 6895 6894 ] final  -18.78 input  -60.11 | X-H torsion
[ 7974 7965 7964 7962 ] final -102.57 input  175.53 | X-H torsion
[ 8008 7997 7996 7995 ] final  167.88 input   59.86 | X-H torsion
[ 10167 10162 10161 10158 ] final -157.41 input  -65.29 | X-H torsion
[ 10718 10713 10712 10709 ] final   16.37 input   66.30 | X-H torsion
[ 10763 10752 10751 10750 ] final -168.93 input  -60.55 | X-H torsion
[ 11005 11000 10999 10996 ] final   -9.28 input  -57.11 | X-H torsion

> <Gold.Protein.ActiveResidues>
 VAL166  LYS551  ARG553  GLY616  TRP617  ASP618  TYR619  PRO620  LYS621  CYS622 
 ASP623  PHE694  ASN695  SER759  ASP760  ASP761  ALA762  ILE779  LEU786  VAL792 
 PHE793  MET794  SER795  GLU796  ALA797  LYS798  CYS799  TRP800  GLU811  SER814 

> <Gold.Protein.RotatedAtoms>
  151.2730  135.0690  159.9140 H   0  0  0  0  0  0  0  0  0  0  0  0  # atno 6907 bound_to 6896
  152.5347  134.0111  159.7949 H   0  0  0  0  0  0  0  0  0  0  0  0  # atno 6908 bound_to 6896
  151.0352  133.5705  159.2687 H   0  0  0  0  0  0  0  0  0  0  0  0  # atno 6909 bound_to 6896
  145.2670  140.9287  143.3008 H   0  0  0  0  0  0  0  0  0  0  0  0  # atno 7974 bound_to 7965
  156.1595  140.1605  156.8635 H   0  0  0  0  0  0  0  0  0  0  0  0  # atno 8008 bound_to 7997
  154.5147  140.0792  156.8094 H   0  0  0  0  0  0  0  0  0  0  0  0  # atno 8009 bound_to 7997
  155.3735  140.3401  155.4246 H   0  0  0  0  0  0  0  0  0  0  0  0  # atno 8010 bound_to 7997
  139.6773  143.9642  152.2317 H   0  0  0  0  0  0  0  0  0  0  0  0  # atno 10167 bound_to 10162
  157.0668  130.6332  149.5797 H   0  0  0  0  0  0  0  0  0  0  0  0  # atno 10718 bound_to 10713
  154.6577  135.2920  154.9907 H   0  0  0  0  0  0  0  0  0  0  0  0  # atno 10763 bound_to 10752
  154.0978  135.6581  153.4867 H   0  0  0  0  0  0  0  0  0  0  0  0  # atno 10764 bound_to 10752
  153.0411  135.5235  154.7513 H   0  0  0  0  0  0  0  0  0  0  0  0  # atno 10765 bound_to 10752
  140.7324  133.8738  155.8903 H   0  0  0  0  0  0  0  0  0  0  0  0  # atno 11005 bound_to 11000
  144.9368  139.4235  143.6468 LP  0  0  0  0  0  0  0  0  0  0  0  0  # atno 17320 bound_to 7965
  146.3258  139.8307  142.8909 LP  0  0  0  0  0  0  0  0  0  0  0  0  # atno 17321 bound_to 7965
  139.9423  144.6674  150.8254 LP  0  0  0  0  0  0  0  0  0  0  0  0  # atno 17342 bound_to 10162
  140.7640  143.3237  151.2565 LP  0  0  0  0  0  0  0  0  0  0  0  0  # atno 17343 bound_to 10162
  155.9962  130.5030  150.7487 LP  0  0  0  0  0  0  0  0  0  0  0  0  # atno 17370 bound_to 10713
  157.4910  131.0911  151.0427 LP  0  0  0  0  0  0  0  0  0  0  0  0  # atno 17371 bound_to 10713
  140.9909  134.1280  157.4409 LP  0  0  0  0  0  0  0  0  0  0  0  0  # atno 17394 bound_to 11000
  139.8823  135.0040  156.6222 LP  0  0  0  0  0  0  0  0  0  0  0  0  # atno 17395 bound_to 11000

$$$$
