AV-unprocessed.smi:3025|AV-procd|sdf|11510|dock9
  -GOLD-   2272016443D 1   1.00000     0.00000
 Structure written by MMmdl.
 42 43  0  0  0  0  0  0  0  0  2 V2000
  153.7190  142.1747  162.4315 C   0  0  0  0  0  0  0  0  0  0  0  0
  154.0328  141.4655  161.1097 C   0  0  0  0  0  0  0  0  0  0  0  0
  153.6673  142.3195  159.8838 C   0  0  0  0  0  0  0  0  0  0  0  0
  152.1630  142.3236  159.5409 C   0  0  2  0  0  0  0  0  0  0  0  0
  151.7416  141.0990  158.7005 C   0  0  0  0  0  0  0  0  0  0  0  0
  150.2435  141.1330  158.3517 C   0  0  0  0  0  0  0  0  0  0  0  0
  149.8361  142.4360  157.6314 C   0  0  2  0  0  0  0  0  0  0  0  0
  150.3794  142.5162  156.2551 N   0  3  0  0  0  0  0  0  0  0  0  0
  149.8842  141.4885  155.3154 C   0  0  0  0  0  0  0  0  0  0  0  0
  148.4638  141.8182  154.8378 C   0  0  0  0  0  0  0  0  0  0  0  0
  147.7368  140.6112  154.3421 C   0  0  0  0  0  0  0  0  0  0  0  0
  146.6897  140.0499  154.9581 N   0  0  0  0  0  0  0  0  0  0  0  0
  146.3167  138.9811  154.1585 N   0  0  0  0  0  0  0  0  0  0  0  0
  147.1738  139.0028  153.1368 C   0  0  0  0  0  0  0  0  0  0  0  0
  148.0723  139.9928  153.1995 N   0  0  0  0  0  0  0  0  0  0  0  0
  150.2772  143.6604  158.4545 C   0  0  0  0  0  0  0  0  0  0  0  0
  151.7751  143.6219  158.8054 C   0  0  0  0  0  0  0  0  0  0  0  0
  148.8134  140.2132  152.5501 H   0  0  0  0  0  0  0  0  0  0  0  0
  153.9919  141.5495  163.2820 H   0  0  0  0  0  0  0  0  0  0  0  0
  152.6560  142.4029  162.5147 H   0  0  0  0  0  0  0  0  0  0  0  0
  154.2708  143.1113  162.5168 H   0  0  0  0  0  0  0  0  0  0  0  0
  155.0930  141.2145  161.0926 H   0  0  0  0  0  0  0  0  0  0  0  0
  153.4895  140.5206  161.0739 H   0  0  0  0  0  0  0  0  0  0  0  0
  153.9851  143.3448  160.0786 H   0  0  0  0  0  0  0  0  0  0  0  0
  154.2422  141.9867  159.0188 H   0  0  0  0  0  0  0  0  0  0  0  0
  151.6066  142.2996  160.4794 H   0  0  0  0  0  0  0  0  0  0  0  0
  152.3321  141.0564  157.7845 H   0  0  0  0  0  0  0  0  0  0  0  0
  151.9506  140.1768  159.2418 H   0  0  0  0  0  0  0  0  0  0  0  0
  149.9764  140.2558  157.7631 H   0  0  0  0  0  0  0  0  0  0  0  0
  149.6697  141.0496  159.2758 H   0  0  0  0  0  0  0  0  0  0  0  0
  148.7484  142.4674  157.5528 H   0  0  0  0  0  0  0  0  0  0  0  0
  150.1192  143.4167  155.8791 H   0  0  0  0  0  0  0  0  0  0  0  0
  150.5523  141.4220  154.4566 H   0  0  0  0  0  0  0  0  0  0  0  0
  149.8898  140.5146  155.8063 H   0  0  0  0  0  0  0  0  0  0  0  0
  147.8893  142.2701  155.6478 H   0  0  0  0  0  0  0  0  0  0  0  0
  148.4992  142.5536  154.0328 H   0  0  0  0  0  0  0  0  0  0  0  0
  147.1430  138.2858  152.3295 H   0  0  0  0  0  0  0  0  0  0  0  0
  150.0422  144.5811  157.9190 H   0  0  0  0  0  0  0  0  0  0  0  0
  149.7002  143.6945  159.3795 H   0  0  0  0  0  0  0  0  0  0  0  0
  152.0195  144.4862  159.4241 H   0  0  0  0  0  0  0  0  0  0  0  0
  152.3691  143.7225  157.8959 H   0  0  0  0  0  0  0  0  0  0  0  0
  151.3875  142.4683  156.3000 H   0  0  0  0  0  0  0  0  0  0  0  0
  1  2  1  0  0  0  0
  1 19  1  0  0  0  0
  1 20  1  0  0  0  0
  1 21  1  0  0  0  0
  2  3  1  0  0  0  0
  2 22  1  0  0  0  0
  2 23  1  0  0  0  0
  3  4  1  0  0  0  0
  3 24  1  0  0  0  0
  3 25  1  0  0  0  0
  4 17  1  0  0  0  0
  4  5  1  0  0  0  0
  4 26  1  0  0  0  0
  5  6  1  0  0  0  0
  5 27  1  0  0  0  0
  5 28  1  0  0  0  0
  6  7  1  0  0  0  0
  6 29  1  0  0  0  0
  6 30  1  0  0  0  0
  7  8  1  0  0  0  0
  7 16  1  0  0  0  0
  7 31  1  0  0  0  0
  8  9  1  0  0  0  0
  8 32  1  0  0  0  0
  8 42  1  0  0  0  0
  9 10  1  0  0  0  0
  9 33  1  0  0  0  0
  9 34  1  0  0  0  0
 10 11  1  0  0  0  0
 10 35  1  0  0  0  0
 10 36  1  0  0  0  0
 11 15  1  0  0  0  0
 11 12  2  0  0  0  0
 12 13  1  0  0  0  0
 13 14  2  0  0  0  0
 14 15  1  0  0  0  0
 14 37  1  0  0  0  0
 15 18  1  0  0  0  0
 16 17  1  0  0  0  0
 16 38  1  0  0  0  0
 16 39  1  0  0  0  0
 17 40  1  0  0  0  0
 17 41  1  0  0  0  0
M  CHG  1   8   1
M  END
> <s_m_source_file>
AV-unprocessed.smi

> <i_m_source_file_index>
3025

> <i_lp_mmshare_version>
43012

> <i_f3d_flags>
0

> <s_epik_input>
W0NIM11bQ0gyXVtDSDJdW0NAQEhdMVtDSDJdW0NIMl1bQ0BIXShbQ0gyXVtDSDJdMSlbTkhdW0NIMl1bQ0gyXWMybm5bY0hdW25IXTI=

> <s_epik_cmdline>
J2VwaWtfcHl0aG9uJywgJy1waCcsICc3LjAnLCAnLXRuJywgJzgnLCAnLW1hJywgJzIwMCcsICctbWV0YWxfYmluZGluZycsICctaW1hZScsICc8aW5maWxlLm1hZT4nLCAnLW9tYWUnLCAnPG91dGZpbGUubWFlPic=

> <r_lp_tautomer_probability>
0.0517155

> <r_epik_Ionization_Penalty>
0.0349397

> <r_epik_Ionization_Penalty_Charging>
0.000546397

> <r_epik_Ionization_Penalty_Neutral>
0.0343933

> <r_epik_State_Penalty>
2.24019

> <r_epik_Charging_Adjusted_Penalty>
2.24074

> <i_epik_Tot_Q>
1

> <i_epik_Tot_abs_Q>
1

> <r_epik_Metal_State_Penalty>
2.47389

> <b_epik_Metal_Only>
0

> <s_lp_Force_Field>
OPLS_2005

> <r_lp_Energy>
17.8014

> <b_lp_Chiralities_Consistent>
1

> <s_lp_Variant>
AV-unprocessed.smi:3025-6

> <Gold.Version>
5.8.1

> <Gold.Id.Protein>
6NUR|6NUR_protein|mol2

> <Gold.PLP.Fitness>
44.7932

> <Gold.PLP.PLP>
-34.0494

> <Gold.PLP.part.hbond>
-1.8255

> <Gold.PLP.part.metal>
0.0000

> <Gold.PLP.part.buried>
-1.5154

> <Gold.PLP.part.nonpolar>
-29.7572

> <Gold.PLP.part.repulsive>
0.4054

> <Gold.PLP.ligand.clash>
0.0000

> <Gold.PLP.ligand.torsion>
0.6399

> <Gold.PLP.Chemscore.Hbond>
3.0000

> <Gold.PLP.Chemscore.CHOScore>
1.0000

> <Gold.PLP.Chemscore.Metal>
0.0000

> <Gold.Chemscore.Hbonds>
donor molecule, donor type, donor heavy atom, donor atom, acceptor molecule, acceptor atom, score
      L1  H     8    32       P1  8028  2.00
      L1  H    15    18       P1  7957  1.00
      L1  C    14    37       P1  7948  0.41

> <Gold.PLP.Chemscore.Internal.Correction>
0.0237

> <Gold.Rescore>
     Score         DG    S(hbond)    S(metal)    S(lipo)     H(rot)  DE(clash)    DE(int)     intcor
     16.04     -16.66       1.96        0.00      95.65       2.56       0.12       0.51       ----

> <Gold.Chemscore.Fitness>
16.0356

> <Gold.Chemscore.DG>
-16.6630

> <Gold.Chemscore.ZeroCoef>
-5.4800

> <Gold.Chemscore.Hbond>
1.9600

> <Gold.Chemscore.Metal>
0.0000

> <Gold.Chemscore.Lipo>
95.6489

> <Gold.Chemscore.Internal_Hbond>
0.0000

> <Gold.Chemscore.DEClash>
0.1191

> <Gold.Chemscore.DEInternal>
0.5084

> <Gold.Chemscore.Rot>
2.5602

> <Gold.Chemscore.Internal.Correction>
   9.000000E+99

> <Gold.Chemscore.Hbonds>
donor molecule, donor type, donor heavy atom, donor atom, acceptor molecule, acceptor atom, score
      L1  H     8    32       P1  8028  0.95
      L1  H    15    18       P1  7957  0.96

> <Gold.Chemscore.Hbond.Weighted>
-6.5463

> <Gold.Chemscore.Metal.Weighted>
-0.0000

> <Gold.Chemscore.Lipo.Weighted>
-11.1909

> <Gold.Chemscore.Internal_Hbond.Weighted>
0.0000

> <Gold.Chemscore.DEClash.Weighted>
0.1191

> <Gold.Chemscore.DEInternal.Weighted>
0.5084

> <Gold.Chemscore.Rot.Weighted>
6.5542

> <Gold.Chemscore.Internal.Correction.Weighted>
   9.000000E+99

> <Gold.Protein.RotatedTorsions>
[ 6907 6896 6895 6894 ] final   58.11 input  -60.11 | X-H torsion
[ 7974 7965 7964 7962 ] final  -91.91 input  175.53 | X-H torsion
[ 8008 7997 7996 7995 ] final -148.01 input   59.86 | X-H torsion
[ 10167 10162 10161 10158 ] final  129.24 input  -65.29 | X-H torsion
[ 10718 10713 10712 10709 ] final   60.54 input   66.30 | X-H torsion
[ 10763 10752 10751 10750 ] final   56.53 input  -60.55 | X-H torsion
[ 11005 11000 10999 10996 ] final  -63.68 input  -57.11 | X-H torsion

> <Gold.Protein.ActiveResidues>
 VAL166  LYS551  ARG553  GLY616  TRP617  ASP618  TYR619  PRO620  LYS621  CYS622 
 ASP623  PHE694  ASN695  SER759  ASP760  ASP761  ALA762  ILE779  LEU786  VAL792 
 PHE793  MET794  SER795  GLU796  ALA797  LYS798  CYS799  TRP800  GLU811  SER814 

> <Gold.Protein.RotatedAtoms>
  152.3794  134.6614  160.0148 H   0  0  0  0  0  0  0  0  0  0  0  0  # atno 6907 bound_to 6896
  151.6882  133.3306  159.3244 H   0  0  0  0  0  0  0  0  0  0  0  0  # atno 6908 bound_to 6896
  150.7735  134.6657  159.6409 H   0  0  0  0  0  0  0  0  0  0  0  0  # atno 6909 bound_to 6896
  145.4068  140.9542  143.2256 H   0  0  0  0  0  0  0  0  0  0  0  0  # atno 7974 bound_to 7965
  155.5847  140.0647  157.2774 H   0  0  0  0  0  0  0  0  0  0  0  0  # atno 8008 bound_to 7997
  154.4322  140.1846  156.1059 H   0  0  0  0  0  0  0  0  0  0  0  0  # atno 8009 bound_to 7997
  156.0278  140.3310  155.7111 H   0  0  0  0  0  0  0  0  0  0  0  0  # atno 8010 bound_to 7997
  139.5487  144.6795  151.4390 H   0  0  0  0  0  0  0  0  0  0  0  0  # atno 10167 bound_to 10162
  157.5761  130.8944  149.9349 H   0  0  0  0  0  0  0  0  0  0  0  0  # atno 10718 bound_to 10713
  152.9833  135.5673  154.5243 H   0  0  0  0  0  0  0  0  0  0  0  0  # atno 10763 bound_to 10752
  154.4726  135.2785  155.1633 H   0  0  0  0  0  0  0  0  0  0  0  0  # atno 10764 bound_to 10752
  154.3175  135.6276  153.5546 H   0  0  0  0  0  0  0  0  0  0  0  0  # atno 10765 bound_to 10752
  141.1401  133.6655  156.5717 H   0  0  0  0  0  0  0  0  0  0  0  0  # atno 11005 bound_to 11000
  144.8336  139.5587  143.6932 LP  0  0  0  0  0  0  0  0  0  0  0  0  # atno 17320 bound_to 7965
  146.2724  139.6669  142.9286 LP  0  0  0  0  0  0  0  0  0  0  0  0  # atno 17321 bound_to 7965
  140.6744  143.8223  150.7039 LP  0  0  0  0  0  0  0  0  0  0  0  0  # atno 17342 bound_to 10162
  140.1657  143.4237  152.2036 LP  0  0  0  0  0  0  0  0  0  0  0  0  # atno 17343 bound_to 10162
  156.0805  130.3673  150.0589 LP  0  0  0  0  0  0  0  0  0  0  0  0  # atno 17370 bound_to 10713
  156.8736  130.9532  151.3607 LP  0  0  0  0  0  0  0  0  0  0  0  0  # atno 17371 bound_to 10713
  140.3908  134.7442  157.4720 LP  0  0  0  0  0  0  0  0  0  0  0  0  # atno 17394 bound_to 11000
  140.0568  134.6052  155.8796 LP  0  0  0  0  0  0  0  0  0  0  0  0  # atno 17395 bound_to 11000

$$$$
