#       Name:                AV-unprocessed.smi:1427
#       Creating user name   scv26
#       Creation time:       Fri Mar 27 05:46:36 2020


#       File generated by GOLD software.
#

@<TRIPOS>MOLECULE
AV-unprocessed.smi:1427
    38    39     1
SMALL
NO_CHARGES


@<TRIPOS>ATOM
      1 ****        -0.5257  -2.6117   1.6106 C.3            1 S1                 0.0000
      2 ****         0.1877  -1.8290   0.5001 C.3            1 S1                 0.0000
      3 ****         1.7196  -1.8679   0.6796 C.3            1 S1                 0.0000
      4 ****         2.4283  -1.2760  -0.4418 N.pl3          1 S1                 0.0000
      5 ****         2.6351  -1.8053  -1.6983 C.2            1 S1                 0.0000
      6 ****         3.3417  -0.8835  -2.4160 C.2            1 S1                 0.0000
      7 ****         3.5246   0.1899  -1.5000 C.2            1 S1                 0.0000
      8 ****         2.9792  -0.0487  -0.3182 N.2            1 S1                 0.0000
      9 ****        -0.2993  -0.4505   0.5040 N.am           1 S1                 0.0000
     10 ****        -0.6193   0.2789  -0.5798 C.2            1 S1                 0.0000
     11 ****        -0.5409  -0.1597  -1.7271 O.2            1 S1                 0.0000
     12 ****        -1.0809   1.7320  -0.3656 C.3            1 S1                 0.0000
     13 ****        -2.5687   1.9209  -0.7405 C.3            1 S1                 0.0000
     14 ****        -3.2206   2.6775   0.4253 C.3            1 S1                 0.0000
     15 ****        -2.1414   2.6825   1.4921 C.2            1 S1                 0.0000
     16 ****        -2.3151   3.1129   2.6297 O.2            1 S1                 0.0000
     17 ****        -1.0074   2.1670   1.0222 N.am           1 S1                 0.0000
     18 ****        -0.2011  -3.6525   1.6271 H              1 S1                 0.0000
     19 ****        -1.6061  -2.6074   1.4625 H              1 S1                 0.0000
     20 ****        -0.3219  -2.1840   2.5931 H              1 S1                 0.0000
     21 ****        -0.0650  -2.3118  -0.4457 H              1 S1                 0.0000
     22 ****         2.0119  -1.3599   1.6004 H              1 S1                 0.0000
     23 ****         2.0577  -2.9002   0.7753 H              1 S1                 0.0000
     24 ****         2.2613  -2.7803  -1.9746 H              1 S1                 0.0000
     25 ****         3.6756  -0.9633  -3.4400 H              1 S1                 0.0000
     26 ****         4.0348   1.1288  -1.6573 H              1 S1                 0.0000
     27 ****        -0.3925  -0.0079   1.4069 H              1 S1                 0.0000
     28 ****        -0.4530   2.3952  -0.9621 H              1 S1                 0.0000
     29 ****        -2.6671   2.4773  -1.6733 H              1 S1                 0.0000
     30 ****        -3.0796   0.9670  -0.8851 H              1 S1                 0.0000
     31 ****        -3.4691   3.7027   0.1488 H              1 S1                 0.0000
     32 ****        -4.1233   2.1809   0.7827 H              1 S1                 0.0000
     33 ****        -0.1608   2.0849   1.5666 H              1 S1                 0.0000
     34 ****         2.9757   0.5460   0.4858 LP             1 S1                 0.0000
     35 ****        -0.2280  -1.0964  -1.8840 LP             1 S1                 0.0000
     36 ****        -0.7900   0.4207  -2.5024 LP             1 S1                 0.0000
     37 ****        -3.2050   3.4853   2.8929 LP             1 S1                 0.0000
     38 ****        -1.5665   3.0909   3.2923 LP             1 S1                 0.0000
@<TRIPOS>BOND
    1    1    2 1     
    2    1   18 1     
    3    1   19 1     
    4    1   20 1     
    5    2    3 1     
    6    2    9 1     
    7    2   21 1     
    8    3    4 1     
    9    3   22 1     
   10    3   23 1     
   11    4    8 1     
   12    4    5 1     
   13    5    6 2     
   14    5   24 1     
   15    6    7 1     
   16    6   25 1     
   17    7    8 2     
   18    7   26 1     
   19    9   10 am    
   20    9   27 1     
   21   10   11 2     
   22   10   12 1     
   23   12   17 1     
   24   12   13 1     
   25   12   28 1     
   26   13   14 1     
   27   13   29 1     
   28   13   30 1     
   29   14   15 1     
   30   14   31 1     
   31   14   32 1     
   32   15   16 2     
   33   15   17 am    
   34   17   33 1     
   35    8   34 1     
   36   11   35 1     
   37   11   36 1     
   38   16   37 1     
   39   16   38 1     
@<TRIPOS>SUBSTRUCTURE
      1 S1             1
@<TRIPOS>SET
LONE_PAIRS      STATIC     ATOMS    <user>   **** ""
5 34 35 36 37 38
DONOR_HYDROGENS      STATIC     ATOMS    <user>   **** ""
2 27 33
ATOM$BLUE        STATIC     ATOMS    COLORGROUP SYSTEM
5 34 35 36 37 38
ATOM$RED        STATIC     ATOMS    COLORGROUP SYSTEM
2 27 33
