AV-unprocessed.smi:447|AV-procd|sdf|2602|dock1
  -GOLD-   2262022593D 1   1.00000     0.00000
 Structure written by MMmdl.
 46 48  0  0  0  0  0  0  0  0  2 V2000
  150.0204  133.8121  153.8637 C   0  0  0  0  0  0  0  0  0  0  0  0
  150.2930  135.0872  154.6533 C   0  0  0  0  0  0  0  0  0  0  0  0
  149.9067  135.1870  155.8160 O   0  0  0  0  0  0  0  0  0  0  0  0
  150.9568  136.0577  154.0067 N   0  0  0  0  0  0  0  0  0  0  0  0
  151.3798  137.3320  154.5860 C   0  0  1  0  0  0  0  0  0  0  0  0
  152.6788  137.7855  153.9049 C   0  0  0  0  0  0  0  0  0  0  0  0
  150.3361  138.4104  154.4918 C   0  0  0  0  0  0  0  0  0  0  0  0
  149.1728  138.3476  153.7806 N   0  3  0  0  0  0  0  0  0  0  0  0
  148.4696  139.5443  153.9099 C   0  0  0  0  0  0  0  0  0  0  0  0
  147.2465  139.9446  153.3811 C   0  0  0  0  0  0  0  0  0  0  0  0
  146.8146  141.2483  153.7023 C   0  0  0  0  0  0  0  0  0  0  0  0
  147.5905  142.0988  154.5164 C   0  0  0  0  0  0  0  0  0  0  0  0
  148.8294  141.6813  155.0456 C   0  0  0  0  0  0  0  0  0  0  0  0
  149.2457  140.3883  154.7289 C   0  0  0  0  0  0  0  0  0  0  0  0
  150.3834  139.6478  155.0693 N   0  0  0  0  0  0  0  0  0  0  0  0
  151.4100  140.2718  155.9205 C   0  0  0  0  0  0  0  0  0  0  0  0
  151.1685  140.0574  157.4292 C   0  0  2  0  0  0  0  0  0  0  0  0
  149.7932  140.2555  157.6798 O   0  0  0  0  0  0  0  0  0  0  0  0
  152.0387  140.9492  158.3023 C   0  0  0  0  0  0  0  0  0  0  0  0
  151.9846  142.3518  158.1529 C   0  0  0  0  0  0  0  0  0  0  0  0
  152.8006  143.1820  158.9455 C   0  0  0  0  0  0  0  0  0  0  0  0
  153.6674  142.6153  159.8995 C   0  0  0  0  0  0  0  0  0  0  0  0
  153.7191  141.2174  160.0593 C   0  0  0  0  0  0  0  0  0  0  0  0
  152.9102  140.3865  159.2605 C   0  0  0  0  0  0  0  0  0  0  0  0
  149.5331  134.0436  152.9162 H   0  0  0  0  0  0  0  0  0  0  0  0
  149.3711  133.1397  154.4256 H   0  0  0  0  0  0  0  0  0  0  0  0
  150.9541  133.2894  153.6554 H   0  0  0  0  0  0  0  0  0  0  0  0
  151.2281  135.8839  153.0498 H   0  0  0  0  0  0  0  0  0  0  0  0
  151.5925  137.1559  155.6407 H   0  0  0  0  0  0  0  0  0  0  0  0
  153.0640  138.7013  154.3533 H   0  0  0  0  0  0  0  0  0  0  0  0
  152.5239  137.9778  152.8427 H   0  0  0  0  0  0  0  0  0  0  0  0
  153.4562  137.0262  153.9962 H   0  0  0  0  0  0  0  0  0  0  0  0
  146.6525  139.2959  152.7540 H   0  0  0  0  0  0  0  0  0  0  0  0
  145.8709  141.6039  153.3145 H   0  0  0  0  0  0  0  0  0  0  0  0
  147.2284  143.0921  154.7393 H   0  0  0  0  0  0  0  0  0  0  0  0
  149.4171  142.3413  155.6663 H   0  0  0  0  0  0  0  0  0  0  0  0
  152.3836  139.8773  155.6298 H   0  0  0  0  0  0  0  0  0  0  0  0
  151.4317  141.3363  155.6823 H   0  0  0  0  0  0  0  0  0  0  0  0
  151.3749  139.0186  157.6859 H   0  0  0  0  0  0  0  0  0  0  0  0
  149.5847  139.8783  158.5211 H   0  0  0  0  0  0  0  0  0  0  0  0
  151.3197  142.7970  157.4274 H   0  0  0  0  0  0  0  0  0  0  0  0
  152.7569  144.2543  158.8264 H   0  0  0  0  0  0  0  0  0  0  0  0
  154.2880  143.2529  160.5114 H   0  0  0  0  0  0  0  0  0  0  0  0
  154.3813  140.7819  160.7928 H   0  0  0  0  0  0  0  0  0  0  0  0
  152.9588  139.3149  159.3873 H   0  0  0  0  0  0  0  0  0  0  0  0
  148.8830  137.5364  153.2498 H   0  0  0  0  0  0  0  0  0  0  0  0
  1  2  1  0  0  0  0
  1 25  1  0  0  0  0
  1 26  1  0  0  0  0
  1 27  1  0  0  0  0
  2  3  2  0  0  0  0
  2  4  1  0  0  0  0
  4  5  1  0  0  0  0
  4 28  1  0  0  0  0
  5  6  1  0  0  0  0
  5  7  1  0  0  0  0
  5 29  1  0  0  0  0
  6 30  1  0  0  0  0
  6 31  1  0  0  0  0
  6 32  1  0  0  0  0
  7 15  1  0  0  0  0
  7  8  2  0  0  0  0
  8  9  1  0  0  0  0
  8 46  1  0  0  0  0
  9 14  2  0  0  0  0
  9 10  1  0  0  0  0
 10 11  2  0  0  0  0
 10 33  1  0  0  0  0
 11 12  1  0  0  0  0
 11 34  1  0  0  0  0
 12 13  2  0  0  0  0
 12 35  1  0  0  0  0
 13 14  1  0  0  0  0
 13 36  1  0  0  0  0
 14 15  1  0  0  0  0
 15 16  1  0  0  0  0
 16 17  1  0  0  0  0
 16 37  1  0  0  0  0
 16 38  1  0  0  0  0
 17 18  1  0  0  0  0
 17 19  1  0  0  0  0
 17 39  1  0  0  0  0
 18 40  1  0  0  0  0
 19 24  1  0  0  0  0
 19 20  2  0  0  0  0
 20 21  1  0  0  0  0
 20 41  1  0  0  0  0
 21 22  2  0  0  0  0
 21 42  1  0  0  0  0
 22 23  1  0  0  0  0
 22 43  1  0  0  0  0
 23 24  2  0  0  0  0
 23 44  1  0  0  0  0
 24 45  1  0  0  0  0
M  CHG  1   8   1
M  END
> <s_m_source_file>
AV-unprocessed.smi

> <i_m_source_file_index>
447

> <i_lp_mmshare_version>
43012

> <i_f3d_flags>
0

> <s_epik_input>
W0NIM11DKD1PKVtOSF1bQ0BIXShbQ0gzXSljKG4xKW4oYyhjMTIpW2NIXVtjSF1bY0hdW2NIXTIpW0NIMl1bQ0BIXShbT0hdKWMzW2NIXVtjSF1bY0hdW2NIXVtjSF0z

> <s_epik_cmdline>
J2VwaWtfcHl0aG9uJywgJy1waCcsICc3LjAnLCAnLXRuJywgJzgnLCAnLW1hJywgJzIwMCcsICctbWV0YWxfYmluZGluZycsICctaW1hZScsICc8aW5maWxlLm1hZT4nLCAnLW9tYWUnLCAnPG91dGZpbGUubWFlPic=

> <r_epik_Ionization_Penalty>
0.950381

> <r_epik_Ionization_Penalty_Charging>
0.950379

> <r_epik_Ionization_Penalty_Neutral>
1.42115e-06

> <r_epik_State_Penalty>
0.994584

> <r_epik_Charging_Adjusted_Penalty>
1.94496

> <i_epik_Tot_Q>
1

> <i_epik_Tot_abs_Q>
1

> <r_epik_Metal_State_Penalty>
1.10485

> <b_epik_Metal_Only>
0

> <s_lp_Force_Field>
OPLS_2005

> <r_lp_Energy>
11.3805

> <b_lp_Chiralities_Consistent>
1

> <s_lp_Variant>
AV-unprocessed.smi:447-6

> <Gold.Version>
5.8.1

> <Gold.Id.Protein>
6NUR|6NUR_protein|mol2

> <Gold.PLP.Fitness>
58.5244

> <Gold.PLP.PLP>
-51.4502

> <Gold.PLP.part.hbond>
-3.4631

> <Gold.PLP.part.metal>
0.0000

> <Gold.PLP.part.buried>
-0.4093

> <Gold.PLP.part.nonpolar>
-48.1152

> <Gold.PLP.part.repulsive>
0.1668

> <Gold.PLP.ligand.clash>
0.0000

> <Gold.PLP.ligand.torsion>
0.9882

> <Gold.PLP.Chemscore.Hbond>
2.9825

> <Gold.PLP.Chemscore.CHOScore>
0.0000

> <Gold.PLP.Chemscore.Metal>
0.0000

> <Gold.Chemscore.Hbonds>
donor molecule, donor type, donor heavy atom, donor atom, acceptor molecule, acceptor atom, score
      L1  H     4    28       P1  7949  1.00
      L1  H     8    46       P1  7948  2.00

> <Gold.PLP.Chemscore.Internal.Correction>
0.1032

> <Gold.Rescore>
     Score         DG    S(hbond)    S(metal)    S(lipo)     H(rot)  DE(clash)    DE(int)     intcor
     15.71     -17.50       0.81        0.00     132.44       2.41       0.97       0.81       ----

> <Gold.Chemscore.Fitness>
15.7101

> <Gold.Chemscore.DG>
-17.4981

> <Gold.Chemscore.ZeroCoef>
-5.4800

> <Gold.Chemscore.Hbond>
0.8071

> <Gold.Chemscore.Metal>
0.0000

> <Gold.Chemscore.Lipo>
132.4367

> <Gold.Chemscore.Internal_Hbond>
0.0000

> <Gold.Chemscore.DEClash>
0.9731

> <Gold.Chemscore.DEInternal>
0.8149

> <Gold.Chemscore.Rot>
2.4112

> <Gold.Chemscore.Internal.Correction>
   9.000000E+99

> <Gold.Chemscore.Hbonds>
donor molecule, donor type, donor heavy atom, donor atom, acceptor molecule, acceptor atom, score
      L1  H     4    28       P1  7949  0.42
      L1  H     8    46       P1  7948  0.98

> <Gold.Chemscore.Hbond.Weighted>
-2.6957

> <Gold.Chemscore.Metal.Weighted>
-0.0000

> <Gold.Chemscore.Lipo.Weighted>
-15.4951

> <Gold.Chemscore.Internal_Hbond.Weighted>
0.0000

> <Gold.Chemscore.DEClash.Weighted>
0.9731

> <Gold.Chemscore.DEInternal.Weighted>
0.8149

> <Gold.Chemscore.Rot.Weighted>
6.1727

> <Gold.Chemscore.Internal.Correction.Weighted>
   9.000000E+99

> <Gold.Protein.RotatedTorsions>
[ 6907 6896 6895 6894 ] final  -42.12 input  -60.11 | X-H torsion
[ 7974 7965 7964 7962 ] final  126.61 input  175.53 | X-H torsion
[ 8008 7997 7996 7995 ] final -171.97 input   59.86 | X-H torsion
[ 10167 10162 10161 10158 ] final -125.51 input  -65.29 | X-H torsion
[ 10718 10713 10712 10709 ] final -139.30 input   66.30 | X-H torsion
[ 10763 10752 10751 10750 ] final -128.71 input  -60.55 | X-H torsion
[ 11005 11000 10999 10996 ] final   79.09 input  -57.11 | X-H torsion

> <Gold.Protein.ActiveResidues>
 VAL166  LYS551  ARG553  GLY616  TRP617  ASP618  TYR619  PRO620  LYS621  CYS622 
 ASP623  PHE694  ASN695  SER759  ASP760  ASP761  ALA762  ILE779  LEU786  VAL792 
 PHE793  MET794  SER795  GLU796  ALA797  LYS798  CYS799  TRP800  GLU811  SER814 

> <Gold.Protein.RotatedAtoms>
  150.9589  134.8979  159.7717 H   0  0  0  0  0  0  0  0  0  0  0  0  # atno 6907 bound_to 6896
  152.5148  134.3701  159.9325 H   0  0  0  0  0  0  0  0  0  0  0  0  # atno 6908 bound_to 6896
  151.3714  133.3813  159.2735 H   0  0  0  0  0  0  0  0  0  0  0  0  # atno 6909 bound_to 6896
  145.0598  139.3814  143.5011 H   0  0  0  0  0  0  0  0  0  0  0  0  # atno 7974 bound_to 7965
  155.9384  140.1104  157.1075 H   0  0  0  0  0  0  0  0  0  0  0  0  # atno 8008 bound_to 7997
  154.4084  140.1224  156.4961 H   0  0  0  0  0  0  0  0  0  0  0  0  # atno 8009 bound_to 7997
  155.6992  140.3472  155.4928 H   0  0  0  0  0  0  0  0  0  0  0  0  # atno 8010 bound_to 7997
  139.9813  143.5740  152.2377 H   0  0  0  0  0  0  0  0  0  0  0  0  # atno 10167 bound_to 10162
  156.3091  130.7472  151.1543 H   0  0  0  0  0  0  0  0  0  0  0  0  # atno 10718 bound_to 10713
  154.8757  135.3919  154.3801 H   0  0  0  0  0  0  0  0  0  0  0  0  # atno 10763 bound_to 10752
  153.4549  135.7028  153.6091 H   0  0  0  0  0  0  0  0  0  0  0  0  # atno 10764 bound_to 10752
  153.4614  135.3811  155.2309 H   0  0  0  0  0  0  0  0  0  0  0  0  # atno 10765 bound_to 10752
  139.9186  134.7815  156.1733 H   0  0  0  0  0  0  0  0  0  0  0  0  # atno 11005 bound_to 11000
  146.3523  140.0291  142.8652 LP  0  0  0  0  0  0  0  0  0  0  0  0  # atno 17320 bound_to 7965
  145.1423  140.9578  143.4481 LP  0  0  0  0  0  0  0  0  0  0  0  0  # atno 17321 bound_to 7965
  139.6408  144.7654  151.2343 LP  0  0  0  0  0  0  0  0  0  0  0  0  # atno 17342 bound_to 10162
  140.7488  143.6321  150.8413 LP  0  0  0  0  0  0  0  0  0  0  0  0  # atno 17343 bound_to 10162
  157.7387  131.0538  150.5280 LP  0  0  0  0  0  0  0  0  0  0  0  0  # atno 17370 bound_to 10713
  156.5417  130.4210  149.6150 LP  0  0  0  0  0  0  0  0  0  0  0  0  # atno 17371 bound_to 10713
  141.0687  133.6807  156.2096 LP  0  0  0  0  0  0  0  0  0  0  0  0  # atno 17394 bound_to 11000
  140.6543  134.5034  157.5579 LP  0  0  0  0  0  0  0  0  0  0  0  0  # atno 17395 bound_to 11000

$$$$
