#       Name:                AV-unprocessed.smi:343
#       Creating user name   scv26
#       Creation time:       Thu Mar 26 22:31:42 2020


#       File generated by GOLD software.
#

@<TRIPOS>MOLECULE
AV-unprocessed.smi:343
    45    47     1
SMALL
NO_CHARGES


@<TRIPOS>ATOM
      1 ****        -1.2484   2.7611   1.7203 C.3            1 S1                 0.0000
      2 ****        -1.7003   1.3401   1.9019 C.2            1 S1                 0.0000
      3 ****        -2.9900   1.0553   1.8293 N.2            1 S1                 0.0000
      4 ****        -3.0602  -0.2766   2.0257 N.pl3          1 S1                 0.0000
      5 ****        -4.3534  -0.9321   2.0052 C.3            1 S1                 0.0000
      6 ****        -1.8127  -0.8339   2.2268 C.2            1 S1                 0.0000
      7 ****        -1.6209  -2.2976   2.4613 C.3            1 S1                 0.0000
      8 ****        -0.9015   0.1857   2.1528 C.2            1 S1                 0.0000
      9 ****         0.5990   0.1191   2.2909 C.3            1 S1                 0.0000
     10 ****         1.2126  -0.4018   0.9914 C.2            1 S1                 0.0000
     11 ****         1.7062  -1.5285   0.9533 O.2            1 S1                 0.0000
     12 ****         1.1617   0.4252  -0.0650 N.am           1 S1                 0.0000
     13 ****         1.6154   0.1130  -1.4149 C.3            1 S1                 0.0000
     14 ****         2.1389   1.3471  -2.1257 C.3            1 S1                 0.0000
     15 ****         3.1643   1.2449  -3.2300 C.3            1 S1                 0.0000
     16 ****         3.5465   1.8411  -1.8939 C.3            1 S1                 0.0000
     17 ****         0.5314  -0.5542  -2.2455 C.3            1 S1                 0.0000
     18 ****         0.2847  -2.0421  -2.1695 C.3            1 S1                 0.0000
     19 ****         0.8729  -1.4359  -3.4236 C.3            1 S1                 0.0000
     20 ****        -0.3909   2.8164   1.0496 H              1 S1                 0.0000
     21 ****        -0.9533   3.1989   2.6739 H              1 S1                 0.0000
     22 ****        -2.0363   3.3855   1.2972 H              1 S1                 0.0000
     23 ****        -4.3385  -1.7505   1.2847 H              1 S1                 0.0000
     24 ****        -5.1381  -0.2289   1.7227 H              1 S1                 0.0000
     25 ****        -4.5762  -1.3319   2.9949 H              1 S1                 0.0000
     26 ****        -0.5921  -2.5210   2.7435 H              1 S1                 0.0000
     27 ****        -1.8503  -2.8653   1.5595 H              1 S1                 0.0000
     28 ****        -2.2702  -2.6532   3.2616 H              1 S1                 0.0000
     29 ****         1.0265   1.0967   2.5164 H              1 S1                 0.0000
     30 ****         0.8920  -0.5342   3.1135 H              1 S1                 0.0000
     31 ****         0.7376   1.3314   0.0699 H              1 S1                 0.0000
     32 ****         2.4509  -0.5863  -1.3416 H              1 S1                 0.0000
     33 ****         1.3850   2.1213  -2.2582 H              1 S1                 0.0000
     34 ****         3.5633   0.2611  -3.4689 H              1 S1                 0.0000
     35 ****         3.0610   1.9236  -4.0741 H              1 S1                 0.0000
     36 ****         3.6991   2.9175  -1.8465 H              1 S1                 0.0000
     37 ****         4.1909   1.2497  -1.2462 H              1 S1                 0.0000
     38 ****        -0.3582   0.0619  -2.3659 H              1 S1                 0.0000
     39 ****         0.9466  -2.6370  -1.5435 H              1 S1                 0.0000
     40 ****        -0.7488  -2.3800  -2.2079 H              1 S1                 0.0000
     41 ****         0.2322  -1.3725  -4.3007 H              1 S1                 0.0000
     42 ****         1.9234  -1.6337  -3.6266 H              1 S1                 0.0000
     43 ****        -3.7464   1.6885   1.6650 LP             1 S1                 0.0000
     44 ****         1.7056  -2.1025   1.7722 LP             1 S1                 0.0000
     45 ****         2.1078  -1.8699   0.1036 LP             1 S1                 0.0000
@<TRIPOS>BOND
    1    1    2 1     
    2    1   20 1     
    3    1   21 1     
    4    1   22 1     
    5    2    8 1     
    6    2    3 2     
    7    3    4 1     
    8    4    5 1     
    9    4    6 1     
   10    5   23 1     
   11    5   24 1     
   12    5   25 1     
   13    6    7 1     
   14    6    8 2     
   15    7   26 1     
   16    7   27 1     
   17    7   28 1     
   18    8    9 1     
   19    9   10 1     
   20    9   29 1     
   21    9   30 1     
   22   10   11 2     
   23   10   12 am    
   24   12   13 1     
   25   12   31 1     
   26   13   14 1     
   27   13   17 1     
   28   13   32 1     
   29   14   16 1     
   30   14   15 1     
   31   14   33 1     
   32   15   16 1     
   33   15   34 1     
   34   15   35 1     
   35   16   36 1     
   36   16   37 1     
   37   17   19 1     
   38   17   18 1     
   39   17   38 1     
   40   18   19 1     
   41   18   39 1     
   42   18   40 1     
   43   19   41 1     
   44   19   42 1     
   45    3   43 1     
   46   11   44 1     
   47   11   45 1     
@<TRIPOS>SUBSTRUCTURE
      1 S1             1
@<TRIPOS>SET
LONE_PAIRS      STATIC     ATOMS    <user>   **** ""
3 43 44 45
DONOR_HYDROGENS      STATIC     ATOMS    <user>   **** ""
1 31
ATOM$BLUE        STATIC     ATOMS    COLORGROUP SYSTEM
3 43 44 45
ATOM$RED        STATIC     ATOMS    COLORGROUP SYSTEM
1 31
