AV-unprocessed.smi:20|AV-procd|sdf|115|dock6
  -GOLD-   2262015283D 1   1.00000     0.00000
 Structure written by MMmdl.
 57 61  0  0  0  0  0  0  0  0  1 V2000
  143.2076  133.3623  160.8909 O   0  0  0  0  0  0  0  0  0  0  0  0
  144.3214  133.4093  161.4079 C   0  0  0  0  0  0  0  0  0  0  0  0
  145.1052  134.6950  161.6102 C   0  0  0  0  0  0  0  0  0  0  0  0
  146.5354  134.1953  161.9228 C   0  0  2  0  0  0  0  0  0  0  0  0
  147.2666  135.0626  162.9730 C   0  0  0  0  0  0  0  0  0  0  0  0
  147.6223  136.4474  162.4084 C   0  0  0  0  0  0  0  0  0  0  0  0
  148.4417  136.3199  161.1161 C   0  0  0  0  0  0  0  0  0  0  0  0
  147.7536  135.4655  160.1527 N   0  0  0  0  0  0  0  0  0  0  0  0
  148.0863  135.5531  158.8399 C   0  0  0  0  0  0  0  0  0  0  0  0
  148.8998  134.5864  158.3408 N   0  0  0  0  0  0  0  0  0  0  0  0
  149.2668  134.6045  157.0568 C   0  0  0  0  0  0  0  0  0  0  0  0
  148.9465  135.4881  156.1111 N   0  0  0  0  0  0  0  0  0  0  0  0
  148.1376  136.4683  156.6043 C   0  0  0  0  0  0  0  0  0  0  0  0
  147.6560  136.5753  157.9414 C   0  0  0  0  0  0  0  0  0  0  0  0
  146.8593  137.7100  158.0580 N   0  0  0  0  0  0  0  0  0  0  0  0
  146.8669  138.2376  156.8650 C   0  0  0  0  0  0  0  0  0  0  0  0
  147.6299  137.5688  155.9358 N   0  0  0  0  0  0  0  0  0  0  0  0
  147.8177  137.9345  154.5429 C   0  0  0  0  0  0  0  0  0  0  0  0
  149.1124  138.7422  154.2441 C   0  0  1  0  0  0  0  0  0  0  0  0
  148.8283  140.2487  154.4602 C   0  0  0  0  0  0  0  0  0  0  0  0
  149.5166  141.0446  153.5172 O   0  0  0  0  0  0  0  0  0  0  0  0
  150.3408  138.2670  155.0786 C   0  0  2  0  0  0  0  0  0  0  0  0
  151.5978  139.1104  154.9181 C   0  0  0  0  0  0  0  0  0  0  0  0
  152.6833  138.1789  155.4351 C   0  0  0  0  0  0  0  0  0  0  0  0
  152.3016  136.9001  154.9565 O   0  0  0  0  0  0  0  0  0  0  0  0
  150.8968  136.8768  154.7204 C   0  0  0  0  0  0  0  0  0  0  0  0
  147.3896  134.1301  160.6301 C   0  0  0  0  0  0  0  0  0  0  0  0
  146.2872  132.7611  162.4452 C   0  0  0  0  0  0  0  0  0  0  0  0
  145.0144  132.3710  161.8696 N   0  0  0  0  0  0  0  0  0  0  0  0
  145.0550  135.3379  160.7305 H   0  0  0  0  0  0  0  0  0  0  0  0
  144.6714  135.2355  162.4523 H   0  0  0  0  0  0  0  0  0  0  0  0
  146.6570  135.1726  163.8706 H   0  0  0  0  0  0  0  0  0  0  0  0
  148.1827  134.5595  163.2858 H   0  0  0  0  0  0  0  0  0  0  0  0
  146.7095  137.0098  162.2083 H   0  0  0  0  0  0  0  0  0  0  0  0
  148.1821  137.0207  163.1478 H   0  0  0  0  0  0  0  0  0  0  0  0
  148.6049  137.3116  160.6926 H   0  0  0  0  0  0  0  0  0  0  0  0
  149.4199  135.8930  161.3400 H   0  0  0  0  0  0  0  0  0  0  0  0
  149.9107  133.7962  156.7431 H   0  0  0  0  0  0  0  0  0  0  0  0
  146.3260  139.1436  156.6343 H   0  0  0  0  0  0  0  0  0  0  0  0
  147.8061  137.0058  153.9718 H   0  0  0  0  0  0  0  0  0  0  0  0
  146.9457  138.5020  154.2154 H   0  0  0  0  0  0  0  0  0  0  0  0
  149.3642  138.6162  153.1903 H   0  0  0  0  0  0  0  0  0  0  0  0
  147.7594  140.4550  154.3959 H   0  0  0  0  0  0  0  0  0  0  0  0
  149.1608  140.5820  155.4421 H   0  0  0  0  0  0  0  0  0  0  0  0
  149.2774  140.7576  152.6490 H   0  0  0  0  0  0  0  0  0  0  0  0
  150.0744  138.2713  156.1368 H   0  0  0  0  0  0  0  0  0  0  0  0
  151.7744  139.3410  153.8664 H   0  0  0  0  0  0  0  0  0  0  0  0
  151.5638  140.0466  155.4759 H   0  0  0  0  0  0  0  0  0  0  0  0
  153.6797  138.4567  155.0909 H   0  0  0  0  0  0  0  0  0  0  0  0
  152.6881  138.1639  156.5259 H   0  0  0  0  0  0  0  0  0  0  0  0
  150.4386  136.0865  155.3134 H   0  0  0  0  0  0  0  0  0  0  0  0
  150.7394  136.6445  153.6666 H   0  0  0  0  0  0  0  0  0  0  0  0
  148.3144  133.5850  160.8247 H   0  0  0  0  0  0  0  0  0  0  0  0
  146.8581  133.5636  159.8647 H   0  0  0  0  0  0  0  0  0  0  0  0
  147.0784  132.0639  162.1671 H   0  0  0  0  0  0  0  0  0  0  0  0
  146.1922  132.7407  163.5319 H   0  0  0  0  0  0  0  0  0  0  0  0
  144.6941  131.4137  161.8431 H   0  0  0  0  0  0  0  0  0  0  0  0
  1  2  2  0  0  0  0
  2 29  1  0  0  0  0
  2  3  1  0  0  0  0
  3  4  1  0  0  0  0
  3 30  1  0  0  0  0
  3 31  1  0  0  0  0
  4 27  1  0  0  0  0
  4  5  1  0  0  0  0
  4 28  1  0  0  0  0
  5  6  1  0  0  0  0
  5 32  1  0  0  0  0
  5 33  1  0  0  0  0
  6  7  1  0  0  0  0
  6 34  1  0  0  0  0
  6 35  1  0  0  0  0
  7  8  1  0  0  0  0
  7 36  1  0  0  0  0
  7 37  1  0  0  0  0
  8  9  1  0  0  0  0
  8 27  1  0  0  0  0
  9 14  1  0  0  0  0
  9 10  2  0  0  0  0
 10 11  1  0  0  0  0
 11 12  2  0  0  0  0
 11 38  1  0  0  0  0
 12 13  1  0  0  0  0
 13 17  1  0  0  0  0
 13 14  2  0  0  0  0
 14 15  1  0  0  0  0
 15 16  2  0  0  0  0
 16 17  1  0  0  0  0
 16 39  1  0  0  0  0
 17 18  1  0  0  0  0
 18 19  1  0  0  0  0
 18 40  1  0  0  0  0
 18 41  1  0  0  0  0
 19 20  1  0  0  0  0
 19 22  1  0  0  0  0
 19 42  1  0  0  0  0
 20 21  1  0  0  0  0
 20 43  1  0  0  0  0
 20 44  1  0  0  0  0
 21 45  1  0  0  0  0
 22 26  1  0  0  0  0
 22 23  1  0  0  0  0
 22 46  1  0  0  0  0
 23 24  1  0  0  0  0
 23 47  1  0  0  0  0
 23 48  1  0  0  0  0
 24 25  1  0  0  0  0
 24 49  1  0  0  0  0
 24 50  1  0  0  0  0
 25 26  1  0  0  0  0
 26 51  1  0  0  0  0
 26 52  1  0  0  0  0
 27 53  1  0  0  0  0
 27 54  1  0  0  0  0
 28 29  1  0  0  0  0
 28 55  1  0  0  0  0
 28 56  1  0  0  0  0
 29 57  1  0  0  0  0
M  END
> <s_m_source_file>
AV-unprocessed.smi

> <i_m_source_file_index>
20

> <i_lp_mmshare_version>
43012

> <i_f3d_flags>
0

> <s_epik_input>
W0NIMl0xW05IXUMoPU8pW0NIMl1bQ0BAXTEyW0NIMl1bQ0gyXVtDSDJdTihbQ0gyXTIpYyhuW2NIXW4zKWMoYzM0KW5bY0hdbjRbQ0gyXVtDQEhdKFtDSDJdW09IXSlbQ0BASF01W0NIMl1bQ0gyXU9bQ0gyXTU=

> <s_epik_cmdline>
J2VwaWtfcHl0aG9uJywgJy1waCcsICc3LjAnLCAnLXRuJywgJzgnLCAnLW1hJywgJzIwMCcsICctbWV0YWxfYmluZGluZycsICctaW1hZScsICc8aW5maWxlLm1hZT4nLCAnLW9tYWUnLCAnPG91dGZpbGUubWFlPic=

> <r_lp_tautomer_probability>
1

> <r_epik_Ionization_Penalty>
0.0019697

> <r_epik_Ionization_Penalty_Charging>
0

> <r_epik_Ionization_Penalty_Neutral>
0.0019697

> <r_epik_State_Penalty>
0.00113613

> <r_epik_Charging_Adjusted_Penalty>
0.00113613

> <i_epik_Tot_Q>
0

> <i_epik_Tot_abs_Q>
0

> <r_epik_Metal_State_Penalty>
-0

> <b_epik_Metal_Only>
0

> <s_lp_Force_Field>
OPLS_2005

> <r_lp_Energy>
60.5509

> <b_lp_Chiralities_Consistent>
1

> <s_lp_Variant>
AV-unprocessed.smi:20-3

> <Gold.Version>
5.8.1

> <Gold.Id.Protein>
6NUR|6NUR_protein|mol2

> <Gold.PLP.Fitness>
46.1652

> <Gold.PLP.PLP>
-41.3533

> <Gold.PLP.part.hbond>
-4.8645

> <Gold.PLP.part.metal>
0.0000

> <Gold.PLP.part.buried>
-3.6189

> <Gold.PLP.part.nonpolar>
-33.2343

> <Gold.PLP.part.repulsive>
0.1881

> <Gold.PLP.ligand.clash>
0.0000

> <Gold.PLP.ligand.torsion>
2.2127

> <Gold.PLP.Chemscore.Hbond>
2.9751

> <Gold.PLP.Chemscore.CHOScore>
0.0000

> <Gold.PLP.Chemscore.Metal>
0.0000

> <Gold.Chemscore.Hbonds>
donor molecule, donor type, donor heavy atom, donor atom, acceptor molecule, acceptor atom, score
      L1  H    21    45       P1  7957  1.00
      P1  H  6896  6908       L1    10  0.91
      P1  H  7989  7998       L1    21  0.22
      P1  H 10752 10765       L1    25  0.74

> <Gold.PLP.Chemscore.Internal.Correction>
0.3119

> <Gold.Rescore>
     Score         DG    S(hbond)    S(metal)    S(lipo)     H(rot)  DE(clash)    DE(int)     intcor
     14.02     -18.05       2.18        0.00      98.39       2.43       0.30       3.73       ----

> <Gold.Chemscore.Fitness>
14.0201

> <Gold.Chemscore.DG>
-18.0476

> <Gold.Chemscore.ZeroCoef>
-5.4800

> <Gold.Chemscore.Hbond>
2.1793

> <Gold.Chemscore.Metal>
0.0000

> <Gold.Chemscore.Lipo>
98.3910

> <Gold.Chemscore.Internal_Hbond>
0.0000

> <Gold.Chemscore.DEClash>
0.2975

> <Gold.Chemscore.DEInternal>
3.7300

> <Gold.Chemscore.Rot>
2.4309

> <Gold.Chemscore.Internal.Correction>
   9.000000E+99

> <Gold.Chemscore.Hbonds>
donor molecule, donor type, donor heavy atom, donor atom, acceptor molecule, acceptor atom, score
      L1  H    21    45       P1  7957  0.97
      P1  H  6896  6908       L1    10  0.41
      P1  H  7989  7998       L1    21  0.07
      P1  H 10752 10765       L1    25  0.63

> <Gold.Chemscore.Hbond.Weighted>
-7.2790

> <Gold.Chemscore.Metal.Weighted>
-0.0000

> <Gold.Chemscore.Lipo.Weighted>
-11.5118

> <Gold.Chemscore.Internal_Hbond.Weighted>
0.0000

> <Gold.Chemscore.DEClash.Weighted>
0.2975

> <Gold.Chemscore.DEInternal.Weighted>
3.7300

> <Gold.Chemscore.Rot.Weighted>
6.2231

> <Gold.Chemscore.Internal.Correction.Weighted>
   9.000000E+99

> <Gold.Protein.RotatedTorsions>
[ 6907 6896 6895 6894 ] final  146.59 input  -60.11 | X-H torsion
[ 7974 7965 7964 7962 ] final   78.92 input  175.53 | X-H torsion
[ 8008 7997 7996 7995 ] final -113.78 input   59.86 | X-H torsion
[ 10167 10162 10161 10158 ] final  -55.78 input  -65.29 | X-H torsion
[ 10718 10713 10712 10709 ] final  -34.89 input   66.30 | X-H torsion
[ 10763 10752 10751 10750 ] final -172.55 input  -60.55 | X-H torsion
[ 11005 11000 10999 10996 ] final  149.56 input  -57.11 | X-H torsion

> <Gold.Protein.ActiveResidues>
 VAL166  LYS551  ARG553  GLY616  TRP617  ASP618  TYR619  PRO620  LYS621  CYS622 
 ASP623  PHE694  ASN695  SER759  ASP760  ASP761  ALA762  ILE779  LEU786  VAL792 
 PHE793  MET794  SER795  GLU796  ALA797  LYS798  CYS799  TRP800  GLU811  SER814 

> <Gold.Protein.RotatedAtoms>
  152.1659  133.4612  159.4884 H   0  0  0  0  0  0  0  0  0  0  0  0  # atno 6907 bound_to 6896
  150.6913  134.2013  159.4332 H   0  0  0  0  0  0  0  0  0  0  0  0  # atno 6908 bound_to 6896
  151.9918  134.9975  160.0612 H   0  0  0  0  0  0  0  0  0  0  0  0  # atno 6909 bound_to 6896
  145.6709  139.2496  143.1869 H   0  0  0  0  0  0  0  0  0  0  0  0  # atno 7974 bound_to 7965
  155.0261  140.0393  157.2456 H   0  0  0  0  0  0  0  0  0  0  0  0  # atno 8008 bound_to 7997
  154.7337  140.2735  155.6410 H   0  0  0  0  0  0  0  0  0  0  0  0  # atno 8009 bound_to 7997
  156.2847  140.2679  156.2044 H   0  0  0  0  0  0  0  0  0  0  0  0  # atno 8010 bound_to 7997
  140.6355  143.2480  151.5129 H   0  0  0  0  0  0  0  0  0  0  0  0  # atno 10167 bound_to 10162
  156.3452  130.4299  149.7752 H   0  0  0  0  0  0  0  0  0  0  0  0  # atno 10718 bound_to 10713
  154.6180  135.2872  155.0358 H   0  0  0  0  0  0  0  0  0  0  0  0  # atno 10763 bound_to 10752
  154.1564  135.6495  153.4979 H   0  0  0  0  0  0  0  0  0  0  0  0  # atno 10764 bound_to 10752
  153.0223  135.5368  154.6958 H   0  0  0  0  0  0  0  0  0  0  0  0  # atno 10765 bound_to 10752
  140.1055  134.8957  157.1860 H   0  0  0  0  0  0  0  0  0  0  0  0  # atno 11005 bound_to 11000
  146.1046  140.7502  142.9532 LP  0  0  0  0  0  0  0  0  0  0  0  0  # atno 17320 bound_to 7965
  144.7057  140.3842  143.7120 LP  0  0  0  0  0  0  0  0  0  0  0  0  # atno 17321 bound_to 7965
  139.5566  144.2261  152.1622 LP  0  0  0  0  0  0  0  0  0  0  0  0  # atno 17342 bound_to 10162
  140.1516  144.5109  150.6684 LP  0  0  0  0  0  0  0  0  0  0  0  0  # atno 17343 bound_to 10162
  156.4974  130.8113  151.3119 LP  0  0  0  0  0  0  0  0  0  0  0  0  # atno 17370 bound_to 10713
  157.7453  130.9956  150.2749 LP  0  0  0  0  0  0  0  0  0  0  0  0  # atno 17371 bound_to 10713
  140.3161  134.2968  155.7256 LP  0  0  0  0  0  0  0  0  0  0  0  0  # atno 17394 bound_to 11000
  141.2117  133.7681  156.9846 LP  0  0  0  0  0  0  0  0  0  0  0  0  # atno 17395 bound_to 11000

$$$$
