AV-unprocessed.smi:2821|AV-procd|sdf|10857|dock4
  -GOLD-   2272015303D 1   1.00000     0.00000
 Structure written by MMmdl.
 36 37  0  0  0  0  0  0  0  0  1 V2000
  154.5968  140.5145  161.5159 C   0  0  0  0  0  0  0  0  0  0  0  0
  153.6477  141.1877  160.5220 C   0  0  0  0  0  0  0  0  0  0  0  0
  153.3885  142.5172  160.9633 O   0  0  0  0  0  0  0  0  0  0  0  0
  152.5248  143.2943  160.2192 C   0  0  0  0  0  0  0  0  0  0  0  0
  152.2169  144.6029  160.6484 C   0  0  0  0  0  0  0  0  0  0  0  0
  151.3898  145.4094  159.9471 N   0  0  0  0  0  0  0  0  0  0  0  0
  150.8713  144.9013  158.8071 C   0  0  0  0  0  0  0  0  0  0  0  0
  151.1683  143.5930  158.3655 C   0  0  0  0  0  0  0  0  0  0  0  0
  150.5998  143.1245  157.1711 N   0  0  0  0  0  0  0  0  0  0  0  0
  150.9466  141.8257  156.5995 C   0  0  1  0  0  0  0  0  0  0  0  0
  150.7618  140.7464  157.6787 C   0  0  0  0  0  0  0  0  0  0  0  0
  150.1002  141.5268  155.3397 C   0  0  2  0  0  0  0  0  0  0  0  0
  148.6010  141.3728  155.6088 C   0  0  0  0  0  0  0  0  0  0  0  0
  148.1564  140.5211  154.4430 C   0  0  0  0  0  0  0  0  0  0  0  0
  149.3315  139.5620  154.3015 C   0  0  0  0  0  0  0  0  0  0  0  0
  150.4764  140.2852  154.7432 O   0  0  0  0  0  0  0  0  0  0  0  0
  151.9898  142.7877  159.0804 N   0  0  0  0  0  0  0  0  0  0  0  0
  154.8184  139.4918  161.2105 H   0  0  0  0  0  0  0  0  0  0  0  0
  154.1578  140.4786  162.5132 H   0  0  0  0  0  0  0  0  0  0  0  0
  155.5408  141.0556  161.5830 H   0  0  0  0  0  0  0  0  0  0  0  0
  154.1045  141.1969  159.5309 H   0  0  0  0  0  0  0  0  0  0  0  0
  152.7181  140.6197  160.4600 H   0  0  0  0  0  0  0  0  0  0  0  0
  152.6407  145.0064  161.5560 H   0  0  0  0  0  0  0  0  0  0  0  0
  150.2141  145.5471  158.2430 H   0  0  0  0  0  0  0  0  0  0  0  0
  150.0279  143.7503  156.6227 H   0  0  0  0  0  0  0  0  0  0  0  0
  152.0015  141.8236  156.3233 H   0  0  0  0  0  0  0  0  0  0  0  0
  151.0814  139.7660  157.3257 H   0  0  0  0  0  0  0  0  0  0  0  0
  149.7187  140.6657  157.9868 H   0  0  0  0  0  0  0  0  0  0  0  0
  151.3536  140.9750  158.5657 H   0  0  0  0  0  0  0  0  0  0  0  0
  150.2462  142.3088  154.5926 H   0  0  0  0  0  0  0  0  0  0  0  0
  148.4315  140.8382  156.5447 H   0  0  0  0  0  0  0  0  0  0  0  0
  148.0767  142.3275  155.6596 H   0  0  0  0  0  0  0  0  0  0  0  0
  147.2079  140.0123  154.6171 H   0  0  0  0  0  0  0  0  0  0  0  0
  148.0596  141.1345  153.5462 H   0  0  0  0  0  0  0  0  0  0  0  0
  149.1986  138.6960  154.9511 H   0  0  0  0  0  0  0  0  0  0  0  0
  149.4556  139.2039  153.2793 H   0  0  0  0  0  0  0  0  0  0  0  0
  1  2  1  0  0  0  0
  1 18  1  0  0  0  0
  1 19  1  0  0  0  0
  1 20  1  0  0  0  0
  2  3  1  0  0  0  0
  2 21  1  0  0  0  0
  2 22  1  0  0  0  0
  3  4  1  0  0  0  0
  4 17  1  0  0  0  0
  4  5  2  0  0  0  0
  5  6  1  0  0  0  0
  5 23  1  0  0  0  0
  6  7  2  0  0  0  0
  7  8  1  0  0  0  0
  7 24  1  0  0  0  0
  8  9  1  0  0  0  0
  8 17  2  0  0  0  0
  9 10  1  0  0  0  0
  9 25  1  0  0  0  0
 10 11  1  0  0  0  0
 10 12  1  0  0  0  0
 10 26  1  0  0  0  0
 11 27  1  0  0  0  0
 11 28  1  0  0  0  0
 11 29  1  0  0  0  0
 12 16  1  0  0  0  0
 12 13  1  0  0  0  0
 12 30  1  0  0  0  0
 13 14  1  0  0  0  0
 13 31  1  0  0  0  0
 13 32  1  0  0  0  0
 14 15  1  0  0  0  0
 14 33  1  0  0  0  0
 14 34  1  0  0  0  0
 15 16  1  0  0  0  0
 15 35  1  0  0  0  0
 15 36  1  0  0  0  0
M  END
> <s_m_source_file>
AV-unprocessed.smi

> <i_m_source_file_index>
2821

> <i_lp_mmshare_version>
43012

> <i_f3d_flags>
0

> <s_epik_input>
W0NIM11bQ0gyXU9jMVtjSF1uW2NIXWMobjEpW05IXVtDQEhdKFtDSDNdKVtDQEBIXTJbQ0gyXVtDSDJdW0NIMl1PMg==

> <s_epik_cmdline>
J2VwaWtfcHl0aG9uJywgJy1waCcsICc3LjAnLCAnLXRuJywgJzgnLCAnLW1hJywgJzIwMCcsICctbWV0YWxfYmluZGluZycsICctaW1hZScsICc8aW5maWxlLm1hZT4nLCAnLW9tYWUnLCAnPG91dGZpbGUubWFlPic=

> <r_lp_tautomer_probability>
1

> <r_epik_Ionization_Penalty>
4.69533e-05

> <r_epik_Ionization_Penalty_Charging>
0

> <r_epik_Ionization_Penalty_Neutral>
4.69533e-05

> <r_epik_State_Penalty>
-0

> <r_epik_Charging_Adjusted_Penalty>
0

> <i_epik_Tot_Q>
0

> <i_epik_Tot_abs_Q>
0

> <r_epik_Metal_State_Penalty>
-0

> <b_epik_Metal_Only>
0

> <s_lp_Force_Field>
OPLS_2005

> <r_lp_Energy>
28.2268

> <b_lp_Chiralities_Consistent>
1

> <s_lp_Variant>
AV-unprocessed.smi:2821-2

> <Gold.Version>
5.8.1

> <Gold.Id.Protein>
6NUR|6NUR_protein|mol2

> <Gold.PLP.Fitness>
45.6168

> <Gold.PLP.PLP>
-36.7049

> <Gold.PLP.part.hbond>
-2.0000

> <Gold.PLP.part.metal>
0.0000

> <Gold.PLP.part.buried>
-6.3682

> <Gold.PLP.part.nonpolar>
-28.1072

> <Gold.PLP.part.repulsive>
0.2660

> <Gold.PLP.ligand.clash>
0.0000

> <Gold.PLP.ligand.torsion>
0.0555

> <Gold.PLP.Chemscore.Hbond>
2.0000

> <Gold.PLP.Chemscore.CHOScore>
1.0000

> <Gold.PLP.Chemscore.Metal>
0.0000

> <Gold.Chemscore.Hbonds>
donor molecule, donor type, donor heavy atom, donor atom, acceptor molecule, acceptor atom, score
      L1  H     9    25       P1  8028  1.00
      P1  H  7989  7998       L1    16  1.00
      L1  C     7    24       P1  8029  1.00

> <Gold.PLP.Chemscore.Internal.Correction>
0.0230

> <Gold.Rescore>
     Score         DG    S(hbond)    S(metal)    S(lipo)     H(rot)  DE(clash)    DE(int)     intcor
     14.86     -16.62       1.79        0.00      78.10       1.55       0.30       1.46       ----

> <Gold.Chemscore.Fitness>
14.8586

> <Gold.Chemscore.DG>
-16.6196

> <Gold.Chemscore.ZeroCoef>
-5.4800

> <Gold.Chemscore.Hbond>
1.7884

> <Gold.Chemscore.Metal>
0.0000

> <Gold.Chemscore.Lipo>
78.1012

> <Gold.Chemscore.Internal_Hbond>
0.0000

> <Gold.Chemscore.DEClash>
0.2969

> <Gold.Chemscore.DEInternal>
1.4642

> <Gold.Chemscore.Rot>
1.5514

> <Gold.Chemscore.Internal.Correction>
   9.000000E+99

> <Gold.Chemscore.Hbonds>
donor molecule, donor type, donor heavy atom, donor atom, acceptor molecule, acceptor atom, score
      L1  H     9    25       P1  8028  1.00
      P1  H  7989  7998       L1    16  0.24

> <Gold.Chemscore.Hbond.Weighted>
-5.9733

> <Gold.Chemscore.Metal.Weighted>
-0.0000

> <Gold.Chemscore.Lipo.Weighted>
-9.1378

> <Gold.Chemscore.Internal_Hbond.Weighted>
0.0000

> <Gold.Chemscore.DEClash.Weighted>
0.2969

> <Gold.Chemscore.DEInternal.Weighted>
1.4642

> <Gold.Chemscore.Rot.Weighted>
3.9715

> <Gold.Chemscore.Internal.Correction.Weighted>
   9.000000E+99

> <Gold.Protein.RotatedTorsions>
[ 6907 6896 6895 6894 ] final   96.61 input  -60.11 | X-H torsion
[ 7974 7965 7964 7962 ] final   13.64 input  175.53 | X-H torsion
[ 8008 7997 7996 7995 ] final  -36.88 input   59.86 | X-H torsion
[ 10167 10162 10161 10158 ] final   -3.00 input  -65.29 | X-H torsion
[ 10718 10713 10712 10709 ] final  -32.63 input   66.30 | X-H torsion
[ 10763 10752 10751 10750 ] final   73.22 input  -60.55 | X-H torsion
[ 11005 11000 10999 10996 ] final    7.35 input  -57.11 | X-H torsion

> <Gold.Protein.ActiveResidues>
 VAL166  LYS551  ARG553  GLY616  TRP617  ASP618  TYR619  PRO620  LYS621  CYS622 
 ASP623  PHE694  ASN695  SER759  ASP760  ASP761  ALA762  ILE779  LEU786  VAL792 
 PHE793  MET794  SER795  GLU796  ALA797  LYS798  CYS799  TRP800  GLU811  SER814 

> <Gold.Protein.RotatedAtoms>
  152.5433  134.0860  159.8255 H   0  0  0  0  0  0  0  0  0  0  0  0  # atno 6907 bound_to 6896
  151.0955  133.5275  159.2620 H   0  0  0  0  0  0  0  0  0  0  0  0  # atno 6908 bound_to 6896
  151.2050  135.0467  159.8942 H   0  0  0  0  0  0  0  0  0  0  0  0  # atno 6909 bound_to 6896
  146.2324  139.9159  142.8517 H   0  0  0  0  0  0  0  0  0  0  0  0  # atno 7974 bound_to 7965
  154.4064  140.1619  156.2446 H   0  0  0  0  0  0  0  0  0  0  0  0  # atno 8008 bound_to 7997
  155.9172  140.3423  155.6121 H   0  0  0  0  0  0  0  0  0  0  0  0  # atno 8009 bound_to 7997
  155.7266  140.0775  157.2298 H   0  0  0  0  0  0  0  0  0  0  0  0  # atno 8010 bound_to 7997
  140.6873  143.6592  150.8282 H   0  0  0  0  0  0  0  0  0  0  0  0  # atno 10167 bound_to 10162
  156.3725  130.4342  149.7533 H   0  0  0  0  0  0  0  0  0  0  0  0  # atno 10718 bound_to 10713
  153.0508  135.5071  154.7861 H   0  0  0  0  0  0  0  0  0  0  0  0  # atno 10763 bound_to 10752
  154.6725  135.2955  154.9725 H   0  0  0  0  0  0  0  0  0  0  0  0  # atno 10764 bound_to 10752
  154.0538  135.6700  153.4856 H   0  0  0  0  0  0  0  0  0  0  0  0  # atno 10765 bound_to 10752
  140.5492  134.0300  155.7931 H   0  0  0  0  0  0  0  0  0  0  0  0  # atno 11005 bound_to 11000
  145.2184  140.9925  143.4060 LP  0  0  0  0  0  0  0  0  0  0  0  0  # atno 17320 bound_to 7965
  144.9631  139.3959  143.6346 LP  0  0  0  0  0  0  0  0  0  0  0  0  # atno 17321 bound_to 7965
  140.0300  143.5453  152.2764 LP  0  0  0  0  0  0  0  0  0  0  0  0  # atno 17342 bound_to 10162
  139.6243  144.7634  151.2673 LP  0  0  0  0  0  0  0  0  0  0  0  0  # atno 17343 bound_to 10162
  156.4655  130.7972  151.2991 LP  0  0  0  0  0  0  0  0  0  0  0  0  # atno 17370 bound_to 10713
  157.7485  131.0052  150.3105 LP  0  0  0  0  0  0  0  0  0  0  0  0  # atno 17371 bound_to 10713
  141.1182  133.9506  157.2782 LP  0  0  0  0  0  0  0  0  0  0  0  0  # atno 17394 bound_to 11000
  139.9464  135.0183  156.8864 LP  0  0  0  0  0  0  0  0  0  0  0  0  # atno 17395 bound_to 11000

$$$$
