AV-unprocessed.smi:18|AV-procd|sdf|108|dock9
  -GOLD-   2262015263D 1   1.00000     0.00000
 Structure written by MMmdl.
 47 50  0  0  0  0  0  0  0  0  1 V2000
  144.8035  139.7413  154.9292 O   0  0  0  0  0  0  0  0  0  0  0  0
  145.9544  140.4277  155.3790 C   0  0  0  0  0  0  0  0  0  0  0  0
  147.0313  140.5024  154.2817 C   0  0  0  0  0  0  0  0  0  0  0  0
  148.0080  141.6678  154.5458 C   0  0  0  0  0  0  0  0  0  0  0  0
  149.0819  141.3485  155.4747 N   0  0  0  0  0  0  0  0  0  0  0  0
  150.1767  140.5517  155.2203 C   0  0  0  0  0  0  0  0  0  0  0  0
  151.0103  140.4133  156.2150 N   0  0  0  0  0  0  0  0  0  0  0  0
  150.4389  141.1601  157.2368 C   0  0  0  0  0  0  0  0  0  0  0  0
  150.8081  141.4349  158.5803 C   0  0  0  0  0  0  0  0  0  0  0  0
  151.9543  140.9526  159.1187 N   0  0  0  0  0  0  0  0  0  0  0  0
  152.1632  139.5765  158.6793 C   0  0  0  0  0  0  0  0  0  0  0  0
  153.3548  138.9511  159.4143 C   0  0  0  0  0  0  0  0  0  0  0  0
  154.5022  139.7575  159.1917 O   0  0  0  0  0  0  0  0  0  0  0  0
  154.3373  141.0664  159.7234 C   0  0  0  0  0  0  0  0  0  0  0  0
  153.1569  141.7957  159.0385 C   0  0  2  0  0  0  0  0  0  0  0  0
  152.9350  143.1924  159.6764 C   0  0  0  0  0  0  0  0  0  0  0  0
  152.2198  143.1605  161.0361 C   0  0  0  0  0  0  0  0  0  0  0  0
  152.9762  142.5540  161.9505 F   0  0  0  0  0  0  0  0  0  0  0  0
  151.9663  144.4048  161.4394 F   0  0  0  0  0  0  0  0  0  0  0  0
  149.9887  142.2379  159.3104 N   0  0  0  0  0  0  0  0  0  0  0  0
  148.8688  142.7231  158.7658 C   0  0  0  0  0  0  0  0  0  0  0  0
  148.3952  142.5429  157.5309 N   0  0  0  0  0  0  0  0  0  0  0  0
  149.2234  141.7509  156.7915 C   0  0  0  0  0  0  0  0  0  0  0  0
  147.6739  139.1510  153.9366 C   0  0  0  0  0  0  0  0  0  0  0  0
  146.8506  138.9975  152.7616 O   0  0  0  0  0  0  0  0  0  0  0  0
  146.4960  140.3937  152.8472 C   0  0  0  0  0  0  0  0  0  0  0  0
  144.3792  140.2672  154.2682 H   0  0  0  0  0  0  0  0  0  0  0  0
  145.6673  141.4186  155.7312 H   0  0  0  0  0  0  0  0  0  0  0  0
  146.3358  139.8986  156.2530 H   0  0  0  0  0  0  0  0  0  0  0  0
  148.4639  142.0038  153.6136 H   0  0  0  0  0  0  0  0  0  0  0  0
  147.4705  142.5341  154.9333 H   0  0  0  0  0  0  0  0  0  0  0  0
  150.3428  140.0795  154.2627 H   0  0  0  0  0  0  0  0  0  0  0  0
  151.2689  138.9788  158.8624 H   0  0  0  0  0  0  0  0  0  0  0  0
  152.3438  139.5627  157.6032 H   0  0  0  0  0  0  0  0  0  0  0  0
  153.1538  138.8595  160.4828 H   0  0  0  0  0  0  0  0  0  0  0  0
  153.5461  137.9471  159.0359 H   0  0  0  0  0  0  0  0  0  0  0  0
  154.1890  141.0094  160.8032 H   0  0  0  0  0  0  0  0  0  0  0  0
  155.2695  141.6051  159.5596 H   0  0  0  0  0  0  0  0  0  0  0  0
  153.4067  141.9242  157.9845 H   0  0  0  0  0  0  0  0  0  0  0  0
  153.8861  143.7030  159.8241 H   0  0  0  0  0  0  0  0  0  0  0  0
  152.3679  143.8181  158.9861 H   0  0  0  0  0  0  0  0  0  0  0  0
  151.2620  142.6433  160.9970 H   0  0  0  0  0  0  0  0  0  0  0  0
  148.2680  143.3470  159.4108 H   0  0  0  0  0  0  0  0  0  0  0  0
  148.7310  139.2102  153.6751 H   0  0  0  0  0  0  0  0  0  0  0  0
  147.4999  138.3720  154.6797 H   0  0  0  0  0  0  0  0  0  0  0  0
  145.4221  140.5612  152.7571 H   0  0  0  0  0  0  0  0  0  0  0  0
  147.0457  140.9960  152.1219 H   0  0  0  0  0  0  0  0  0  0  0  0
  1  2  1  0  0  0  0
  1 27  1  0  0  0  0
  2  3  1  0  0  0  0
  2 28  1  0  0  0  0
  2 29  1  0  0  0  0
  3 26  1  0  0  0  0
  3  4  1  0  0  0  0
  3 24  1  0  0  0  0
  4  5  1  0  0  0  0
  4 30  1  0  0  0  0
  4 31  1  0  0  0  0
  5 23  1  0  0  0  0
  5  6  1  0  0  0  0
  6  7  2  0  0  0  0
  6 32  1  0  0  0  0
  7  8  1  0  0  0  0
  8 23  2  0  0  0  0
  8  9  1  0  0  0  0
  9 10  1  0  0  0  0
  9 20  2  0  0  0  0
 10 15  1  0  0  0  0
 10 11  1  0  0  0  0
 11 12  1  0  0  0  0
 11 33  1  0  0  0  0
 11 34  1  0  0  0  0
 12 13  1  0  0  0  0
 12 35  1  0  0  0  0
 12 36  1  0  0  0  0
 13 14  1  0  0  0  0
 14 15  1  0  0  0  0
 14 37  1  0  0  0  0
 14 38  1  0  0  0  0
 15 16  1  0  0  0  0
 15 39  1  0  0  0  0
 16 17  1  0  0  0  0
 16 40  1  0  0  0  0
 16 41  1  0  0  0  0
 17 18  1  0  0  0  0
 17 19  1  0  0  0  0
 17 42  1  0  0  0  0
 20 21  1  0  0  0  0
 21 22  2  0  0  0  0
 21 43  1  0  0  0  0
 22 23  1  0  0  0  0
 24 25  1  0  0  0  0
 24 44  1  0  0  0  0
 24 45  1  0  0  0  0
 25 26  1  0  0  0  0
 26 46  1  0  0  0  0
 26 47  1  0  0  0  0
M  END
> <s_m_source_file>
AV-unprocessed.smi

> <i_m_source_file_index>
18

> <i_lp_mmshare_version>
43012

> <i_f3d_flags>
0

> <s_epik_input>
W0NIMl0xT1tDSDJdQzEoW0NIMl1bT0hdKVtDSDJdbihbY0hdbjIpYyhjMjMpbltjSF1uYzNONFtDSDJdW0NIMl1PW0NIMl1bQ0BIXTRbQ0gyXVtDSF0oRilG

> <s_epik_cmdline>
J2VwaWtfcHl0aG9uJywgJy1waCcsICc3LjAnLCAnLXRuJywgJzgnLCAnLW1hJywgJzIwMCcsICctbWV0YWxfYmluZGluZycsICctaW1hZScsICc8aW5maWxlLm1hZT4nLCAnLW9tYWUnLCAnPG91dGZpbGUubWFlPic=

> <r_lp_tautomer_probability>
1

> <r_epik_Ionization_Penalty>
6.63711e-05

> <r_epik_Ionization_Penalty_Charging>
0

> <r_epik_Ionization_Penalty_Neutral>
6.63711e-05

> <r_epik_State_Penalty>
-0

> <r_epik_Charging_Adjusted_Penalty>
0

> <i_epik_Tot_Q>
0

> <i_epik_Tot_abs_Q>
0

> <r_epik_Metal_State_Penalty>
-0

> <b_epik_Metal_Only>
0

> <s_lp_Force_Field>
OPLS_2005

> <r_lp_Energy>
38.6195

> <b_lp_Chiralities_Consistent>
1

> <s_lp_Variant>
AV-unprocessed.smi:18-2

> <Gold.Version>
5.8.1

> <Gold.Id.Protein>
6NUR|6NUR_protein|mol2

> <Gold.PLP.Fitness>
45.7457

> <Gold.PLP.PLP>
-42.6937

> <Gold.PLP.part.hbond>
-3.0000

> <Gold.PLP.part.metal>
0.0000

> <Gold.PLP.part.buried>
-2.7240

> <Gold.PLP.part.nonpolar>
-39.9704

> <Gold.PLP.part.repulsive>
3.2797

> <Gold.PLP.ligand.clash>
0.0033

> <Gold.PLP.ligand.torsion>
1.7371

> <Gold.PLP.Chemscore.Hbond>
1.9913

> <Gold.PLP.Chemscore.CHOScore>
0.0000

> <Gold.PLP.Chemscore.Metal>
0.0000

> <Gold.Chemscore.Hbonds>
donor molecule, donor type, donor heavy atom, donor atom, acceptor molecule, acceptor atom, score
      L1  H     1    27       P1 10175  1.00
      P1  H  7997  8009       L1    13  1.00

> <Gold.PLP.Chemscore.Internal.Correction>
0.5559

> <Gold.Rescore>
     Score         DG    S(hbond)    S(metal)    S(lipo)     H(rot)  DE(clash)    DE(int)     intcor
      6.93     -13.04       1.52        0.00      86.18       2.96       1.60       4.51       ----

> <Gold.Chemscore.Fitness>
6.9259

> <Gold.Chemscore.DG>
-13.0373

> <Gold.Chemscore.ZeroCoef>
-5.4800

> <Gold.Chemscore.Hbond>
1.5157

> <Gold.Chemscore.Metal>
0.0000

> <Gold.Chemscore.Lipo>
86.1822

> <Gold.Chemscore.Internal_Hbond>
0.0000

> <Gold.Chemscore.DEClash>
1.5981

> <Gold.Chemscore.DEInternal>
4.5133

> <Gold.Chemscore.Rot>
2.9643

> <Gold.Chemscore.Internal.Correction>
   9.000000E+99

> <Gold.Chemscore.Hbonds>
donor molecule, donor type, donor heavy atom, donor atom, acceptor molecule, acceptor atom, score
      L1  H     1    27       P1 10175  0.95
      P1  H  7997  8009       L1    13  0.46

> <Gold.Chemscore.Hbond.Weighted>
-5.0626

> <Gold.Chemscore.Metal.Weighted>
-0.0000

> <Gold.Chemscore.Lipo.Weighted>
-10.0833

> <Gold.Chemscore.Internal_Hbond.Weighted>
0.0000

> <Gold.Chemscore.DEClash.Weighted>
1.5981

> <Gold.Chemscore.DEInternal.Weighted>
4.5133

> <Gold.Chemscore.Rot.Weighted>
7.5886

> <Gold.Chemscore.Internal.Correction.Weighted>
   9.000000E+99

> <Gold.Protein.RotatedTorsions>
[ 6907 6896 6895 6894 ] final  -32.64 input  -60.11 | X-H torsion
[ 7974 7965 7964 7962 ] final -115.17 input  175.53 | X-H torsion
[ 8008 7997 7996 7995 ] final  122.93 input   59.86 | X-H torsion
[ 10167 10162 10161 10158 ] final -102.10 input  -65.29 | X-H torsion
[ 10718 10713 10712 10709 ] final -136.20 input   66.30 | X-H torsion
[ 10763 10752 10751 10750 ] final  145.46 input  -60.55 | X-H torsion
[ 11005 11000 10999 10996 ] final   79.06 input  -57.11 | X-H torsion

> <Gold.Protein.ActiveResidues>
 VAL166  LYS551  ARG553  GLY616  TRP617  ASP618  TYR619  PRO620  LYS621  CYS622 
 ASP623  PHE694  ASN695  SER759  ASP760  ASP761  ALA762  ILE779  LEU786  VAL792 
 PHE793  MET794  SER795  GLU796  ALA797  LYS798  CYS799  TRP800  GLU811  SER814 

> <Gold.Protein.RotatedAtoms>
  151.0760  134.9829  159.8332 H   0  0  0  0  0  0  0  0  0  0  0  0  # atno 6907 bound_to 6896
  152.5414  134.2240  159.8809 H   0  0  0  0  0  0  0  0  0  0  0  0  # atno 6908 bound_to 6896
  151.2267  133.4429  159.2636 H   0  0  0  0  0  0  0  0  0  0  0  0  # atno 6909 bound_to 6896
  145.1115  140.8614  143.3867 H   0  0  0  0  0  0  0  0  0  0  0  0  # atno 7974 bound_to 7965
  156.2747  140.2774  156.1546 H   0  0  0  0  0  0  0  0  0  0  0  0  # atno 8008 bound_to 7997
  155.0817  140.0388  157.2659 H   0  0  0  0  0  0  0  0  0  0  0  0  # atno 8009 bound_to 7997
  154.6959  140.2639  155.6773 H   0  0  0  0  0  0  0  0  0  0  0  0  # atno 8010 bound_to 7997
  140.2343  143.3584  152.0859 H   0  0  0  0  0  0  0  0  0  0  0  0  # atno 10167 bound_to 10162
  156.2744  130.7284  151.1262 H   0  0  0  0  0  0  0  0  0  0  0  0  # atno 10718 bound_to 10713
  154.0058  135.2919  155.3398 H   0  0  0  0  0  0  0  0  0  0  0  0  # atno 10763 bound_to 10752
  154.7133  135.5140  153.8702 H   0  0  0  0  0  0  0  0  0  0  0  0  # atno 10764 bound_to 10752
  153.0745  135.6659  154.0295 H   0  0  0  0  0  0  0  0  0  0  0  0  # atno 10765 bound_to 10752
  139.9187  134.7813  156.1730 H   0  0  0  0  0  0  0  0  0  0  0  0  # atno 11005 bound_to 11000
  145.0841  139.2938  143.5768 LP  0  0  0  0  0  0  0  0  0  0  0  0  # atno 17320 bound_to 7965
  146.3526  140.0357  142.8647 LP  0  0  0  0  0  0  0  0  0  0  0  0  # atno 17321 bound_to 7965
  139.5099  144.6875  151.5848 LP  0  0  0  0  0  0  0  0  0  0  0  0  # atno 17342 bound_to 10162
  140.6162  143.9345  150.6490 LP  0  0  0  0  0  0  0  0  0  0  0  0  # atno 17343 bound_to 10162
  157.7294  131.0624  150.5773 LP  0  0  0  0  0  0  0  0  0  0  0  0  # atno 17370 bound_to 10713
  156.5873  130.4320  149.5952 LP  0  0  0  0  0  0  0  0  0  0  0  0  # atno 17371 bound_to 10713
  141.0689  133.6806  156.2100 LP  0  0  0  0  0  0  0  0  0  0  0  0  # atno 17394 bound_to 11000
  140.6540  134.5038  157.5579 LP  0  0  0  0  0  0  0  0  0  0  0  0  # atno 17395 bound_to 11000

$$$$
