AV-unprocessed.smi:3116|AV-procd|sdf|11875|dock9
  -GOLD-   2272017263D 1   1.00000     0.00000
 Structure written by MMmdl.
 33 33  0  0  0  0  0  0  0  0  1 V2000
  149.7368  139.8422  157.0991 C   0  0  0  0  0  0  0  0  0  0  0  0
  149.8085  141.0567  156.1609 C   0  0  1  0  0  0  0  0  0  0  0  0
  150.8645  141.9766  156.6203 N   0  0  0  0  0  0  0  0  0  0  0  0
  150.9309  142.1751  158.0698 C   0  0  2  0  0  0  0  0  0  0  0  0
  149.5748  142.7691  158.4875 C   0  0  0  0  0  0  0  0  0  0  0  0
  152.1327  143.0979  158.4154 C   0  0  1  0  0  0  0  0  0  0  0  0
  151.9765  144.5265  157.8583 C   0  0  0  0  0  0  0  0  0  0  0  0
  152.3770  143.1473  159.8533 N   0  0  0  0  0  0  0  0  0  0  0  0
  152.2816  144.2368  160.6948 C   0  0  0  0  0  0  0  0  0  0  0  0
  152.6333  143.8198  161.9463 C   0  0  0  0  0  0  0  0  0  0  0  0
  152.9341  142.4406  161.7707 C   0  0  0  0  0  0  0  0  0  0  0  0
  152.7831  142.0412  160.5185 N   0  0  0  0  0  0  0  0  0  0  0  0
  150.0051  140.6044  154.7047 C   0  0  0  0  0  0  0  0  0  0  0  0
  149.0582  140.9458  153.8273 N   0  0  0  0  0  0  0  0  0  0  0  0
  151.0056  139.9713  154.3728 O   0  0  0  0  0  0  0  0  0  0  0  0
  148.9593  139.1444  156.7857 H   0  0  0  0  0  0  0  0  0  0  0  0
  149.5030  140.1517  158.1183 H   0  0  0  0  0  0  0  0  0  0  0  0
  150.6817  139.2978  157.1276 H   0  0  0  0  0  0  0  0  0  0  0  0
  148.8495  141.5704  156.2358 H   0  0  0  0  0  0  0  0  0  0  0  0
  151.7742  141.7093  156.2734 H   0  0  0  0  0  0  0  0  0  0  0  0
  151.0532  141.2271  158.5946 H   0  0  0  0  0  0  0  0  0  0  0  0
  149.4947  142.8653  159.5699 H   0  0  0  0  0  0  0  0  0  0  0  0
  148.7513  142.1298  158.1666 H   0  0  0  0  0  0  0  0  0  0  0  0
  149.4186  143.7561  158.0509 H   0  0  0  0  0  0  0  0  0  0  0  0
  153.0286  142.6735  157.9589 H   0  0  0  0  0  0  0  0  0  0  0  0
  151.9774  144.5356  156.7688 H   0  0  0  0  0  0  0  0  0  0  0  0
  152.8004  145.1636  158.1817 H   0  0  0  0  0  0  0  0  0  0  0  0
  151.0478  144.9889  158.1943 H   0  0  0  0  0  0  0  0  0  0  0  0
  151.9794  145.2098  160.3360 H   0  0  0  0  0  0  0  0  0  0  0  0
  152.6721  144.4110  162.8491 H   0  0  0  0  0  0  0  0  0  0  0  0
  153.2583  141.7235  162.5101 H   0  0  0  0  0  0  0  0  0  0  0  0
  149.1422  140.6663  152.8607 H   0  0  0  0  0  0  0  0  0  0  0  0
  148.2585  141.4787  154.1367 H   0  0  0  0  0  0  0  0  0  0  0  0
  1  2  1  0  0  0  0
  1 16  1  0  0  0  0
  1 17  1  0  0  0  0
  1 18  1  0  0  0  0
  2  3  1  0  0  0  0
  2 13  1  0  0  0  0
  2 19  1  0  0  0  0
  3  4  1  0  0  0  0
  3 20  1  0  0  0  0
  4  5  1  0  0  0  0
  4  6  1  0  0  0  0
  4 21  1  0  0  0  0
  5 22  1  0  0  0  0
  5 23  1  0  0  0  0
  5 24  1  0  0  0  0
  6  7  1  0  0  0  0
  6  8  1  0  0  0  0
  6 25  1  0  0  0  0
  7 26  1  0  0  0  0
  7 27  1  0  0  0  0
  7 28  1  0  0  0  0
  8 12  1  0  0  0  0
  8  9  1  0  0  0  0
  9 10  2  0  0  0  0
  9 29  1  0  0  0  0
 10 11  1  0  0  0  0
 10 30  1  0  0  0  0
 11 12  2  0  0  0  0
 11 31  1  0  0  0  0
 13 14  1  0  0  0  0
 13 15  2  0  0  0  0
 14 32  1  0  0  0  0
 14 33  1  0  0  0  0
M  END
> <s_m_source_file>
AV-unprocessed.smi

> <i_m_source_file_index>
3116

> <i_lp_mmshare_version>
43012

> <i_f3d_flags>
0

> <s_epik_input>
W05IMl1DKD1PKVtDQEhdKFtDSDNdKVtOSF1bQ0BIXShbQ0gzXSlbQ0BIXShbQ0gzXSluMVtjSF1bY0hdW2NIXW4x

> <s_epik_cmdline>
J2VwaWtfcHl0aG9uJywgJy1waCcsICc3LjAnLCAnLXRuJywgJzgnLCAnLW1hJywgJzIwMCcsICctbWV0YWxfYmluZGluZycsICctaW1hZScsICc8aW5maWxlLm1hZT4nLCAnLW9tYWUnLCAnPG91dGZpbGUubWFlPic=

> <r_lp_tautomer_probability>
1

> <r_epik_Ionization_Penalty>
0.865977

> <r_epik_Ionization_Penalty_Charging>
0

> <r_epik_Ionization_Penalty_Neutral>
0.865977

> <r_epik_State_Penalty>
0.901888

> <r_epik_Charging_Adjusted_Penalty>
0.901888

> <i_epik_Tot_Q>
0

> <i_epik_Tot_abs_Q>
0

> <r_epik_Metal_State_Penalty>
0.901181

> <b_epik_Metal_Only>
0

> <s_lp_Force_Field>
OPLS_2005

> <r_lp_Energy>
8.89759

> <b_lp_Chiralities_Consistent>
1

> <s_lp_Variant>
AV-unprocessed.smi:3116-14

> <Gold.Version>
5.8.1

> <Gold.Id.Protein>
6NUR|6NUR_protein|mol2

> <Gold.PLP.Fitness>
40.8658

> <Gold.PLP.PLP>
-35.4325

> <Gold.PLP.part.hbond>
-2.0011

> <Gold.PLP.part.metal>
0.0000

> <Gold.PLP.part.buried>
-5.5702

> <Gold.PLP.part.nonpolar>
-26.9210

> <Gold.PLP.part.repulsive>
0.6315

> <Gold.PLP.ligand.clash>
0.0000

> <Gold.PLP.ligand.torsion>
0.3470

> <Gold.PLP.Chemscore.Hbond>
2.0000

> <Gold.PLP.Chemscore.CHOScore>
0.0000

> <Gold.PLP.Chemscore.Metal>
0.0000

> <Gold.Chemscore.Hbonds>
donor molecule, donor type, donor heavy atom, donor atom, acceptor molecule, acceptor atom, score
      L1  H    14    32       P1  7957  1.00
      P1  H  7989  7998       L1    15  0.68

> <Gold.PLP.Chemscore.Internal.Correction>
0.1273

> <Gold.Rescore>
     Score         DG    S(hbond)    S(metal)    S(lipo)     H(rot)  DE(clash)    DE(int)     intcor
     14.14     -14.64       1.82        0.00      78.51       2.38       0.10       0.40       ----

> <Gold.Chemscore.Fitness>
14.1438

> <Gold.Chemscore.DG>
-14.6398

> <Gold.Chemscore.ZeroCoef>
-5.4800

> <Gold.Chemscore.Hbond>
1.8194

> <Gold.Chemscore.Metal>
0.0000

> <Gold.Chemscore.Lipo>
78.5052

> <Gold.Chemscore.Internal_Hbond>
0.0000

> <Gold.Chemscore.DEClash>
0.0998

> <Gold.Chemscore.DEInternal>
0.3962

> <Gold.Chemscore.Rot>
2.3836

> <Gold.Chemscore.Internal.Correction>
   9.000000E+99

> <Gold.Chemscore.Hbonds>
donor molecule, donor type, donor heavy atom, donor atom, acceptor molecule, acceptor atom, score
      L1  H    14    32       P1  7957  1.00
      P1  H  7989  7998       L1    15  0.23

> <Gold.Chemscore.Hbond.Weighted>
-6.0766

> <Gold.Chemscore.Metal.Weighted>
-0.0000

> <Gold.Chemscore.Lipo.Weighted>
-9.1851

> <Gold.Chemscore.Internal_Hbond.Weighted>
0.0000

> <Gold.Chemscore.DEClash.Weighted>
0.0998

> <Gold.Chemscore.DEInternal.Weighted>
0.3962

> <Gold.Chemscore.Rot.Weighted>
6.1020

> <Gold.Chemscore.Internal.Correction.Weighted>
   9.000000E+99

> <Gold.Protein.RotatedTorsions>
[ 6907 6896 6895 6894 ] final -150.86 input  -60.11 | X-H torsion
[ 7974 7965 7964 7962 ] final  -52.06 input  175.53 | X-H torsion
[ 8008 7997 7996 7995 ] final  143.01 input   59.86 | X-H torsion
[ 10167 10162 10161 10158 ] final  100.62 input  -65.29 | X-H torsion
[ 10718 10713 10712 10709 ] final   83.11 input   66.30 | X-H torsion
[ 10763 10752 10751 10750 ] final  137.28 input  -60.55 | X-H torsion
[ 11005 11000 10999 10996 ] final -144.96 input  -57.11 | X-H torsion

> <Gold.Protein.ActiveResidues>
 VAL166  LYS551  ARG553  GLY616  TRP617  ASP618  TYR619  PRO620  LYS621  CYS622 
 ASP623  PHE694  ASN695  SER759  ASP760  ASP761  ALA762  ILE779  LEU786  VAL792 
 PHE793  MET794  SER795  GLU796  ALA797  LYS798  CYS799  TRP800  GLU811  SER814 

> <Gold.Protein.RotatedAtoms>
  151.2047  133.4590  159.2596 H   0  0  0  0  0  0  0  0  0  0  0  0  # atno 6907 bound_to 6896
  151.1035  134.9986  159.8470 H   0  0  0  0  0  0  0  0  0  0  0  0  # atno 6908 bound_to 6896
  152.5445  134.1971  159.8750 H   0  0  0  0  0  0  0  0  0  0  0  0  # atno 6909 bound_to 6896
  145.9121  140.7906  142.9690 H   0  0  0  0  0  0  0  0  0  0  0  0  # atno 7974 bound_to 7965
  156.2938  140.2273  156.4821 H   0  0  0  0  0  0  0  0  0  0  0  0  # atno 8008 bound_to 7997
  154.7844  140.0458  157.1173 H   0  0  0  0  0  0  0  0  0  0  0  0  # atno 8009 bound_to 7997
  154.9720  140.3067  155.4987 H   0  0  0  0  0  0  0  0  0  0  0  0  # atno 8010 bound_to 7997
  139.7511  144.6983  151.0431 H   0  0  0  0  0  0  0  0  0  0  0  0  # atno 10167 bound_to 10162
  157.6872  131.0077  150.2474 H   0  0  0  0  0  0  0  0  0  0  0  0  # atno 10718 bound_to 10713
  153.8704  135.3056  155.3442 H   0  0  0  0  0  0  0  0  0  0  0  0  # atno 10763 bound_to 10752
  154.7808  135.4836  153.9844 H   0  0  0  0  0  0  0  0  0  0  0  0  # atno 10764 bound_to 10752
  153.1410  135.6824  153.9124 H   0  0  0  0  0  0  0  0  0  0  0  0  # atno 10765 bound_to 10752
  140.7972  134.2900  157.4992 H   0  0  0  0  0  0  0  0  0  0  0  0  # atno 11005 bound_to 11000
  144.6744  140.1842  143.7403 LP  0  0  0  0  0  0  0  0  0  0  0  0  # atno 17320 bound_to 7965
  145.8658  139.2246  143.1690 LP  0  0  0  0  0  0  0  0  0  0  0  0  # atno 17321 bound_to 7965
  140.7798  143.4808  151.0021 LP  0  0  0  0  0  0  0  0  0  0  0  0  # atno 17342 bound_to 10162
  139.8496  143.7456  152.3178 LP  0  0  0  0  0  0  0  0  0  0  0  0  # atno 17343 bound_to 10162
  156.3077  130.3767  149.7690 LP  0  0  0  0  0  0  0  0  0  0  0  0  # atno 17370 bound_to 10713
  156.5300  130.8253  151.3234 LP  0  0  0  0  0  0  0  0  0  0  0  0  # atno 17371 bound_to 10713
  139.8725  134.9408  156.3780 LP  0  0  0  0  0  0  0  0  0  0  0  0  # atno 17394 bound_to 11000
  140.9331  133.7565  156.0050 LP  0  0  0  0  0  0  0  0  0  0  0  0  # atno 17395 bound_to 11000

$$$$
