AV-unprocessed.smi:193|AV-procd|sdf|1497|dock3
  -GOLD-   2262019323D 1   1.00000     0.00000
 Structure written by MMmdl.
 62 66  0  0  0  0  0  0  0  0  2 V2000
  150.3226  132.7667  155.4334 C   0  0  0  0  0  0  0  0  0  0  0  0
  149.4301  133.9977  155.2101 C   0  0  1  0  0  0  0  0  0  0  0  0
  150.2671  135.1971  154.7235 C   0  0  0  0  0  0  0  0  0  0  0  0
  149.6776  136.4758  155.1286 N   0  0  0  0  0  0  0  0  0  0  0  0
  150.5393  137.4928  155.3798 C   0  0  0  0  0  0  0  0  0  0  0  0
  151.8760  137.2508  155.4414 N   0  0  0  0  0  0  0  0  0  0  0  0
  152.7303  138.2520  155.6750 C   0  0  0  0  0  0  0  0  0  0  0  0
  152.4670  139.5457  155.8696 N   0  0  0  0  0  0  0  0  0  0  0  0
  151.1275  139.7936  155.8064 C   0  0  0  0  0  0  0  0  0  0  0  0
  150.1043  138.8340  155.5671 C   0  0  0  0  0  0  0  0  0  0  0  0
  148.8601  139.4528  155.5791 N   0  0  0  0  0  0  0  0  0  0  0  0
  149.1332  140.7091  155.8056 C   0  0  0  0  0  0  0  0  0  0  0  0
  150.4703  141.0031  155.9498 N   0  0  0  0  0  0  0  0  0  0  0  0
  151.0505  142.3125  156.2074 C   0  0  0  0  0  0  0  0  0  0  0  0
  151.1633  142.6642  157.7113 C   0  0  0  0  0  0  0  0  0  0  0  0
  149.8674  142.5597  158.2757 O   0  0  0  0  0  0  0  0  0  0  0  0
  152.0888  141.6624  158.4307 C   0  0  0  0  0  0  0  0  0  0  0  0
  152.3634  142.0701  159.8892 C   0  0  0  0  0  0  0  0  0  0  0  0
  152.8967  143.3879  159.9330 O   0  0  0  0  0  0  0  0  0  0  0  0
  151.9902  144.3644  159.4347 C   0  0  0  0  0  0  0  0  0  0  0  0
  151.6869  144.0975  157.9495 C   0  0  0  0  0  0  0  0  0  0  0  0
  148.4264  136.9208  154.5183 C   0  0  0  0  0  0  0  0  0  0  0  0
  147.2854  135.8998  154.6358 C   0  0  0  0  0  0  0  0  0  0  0  0
  147.5022  134.7703  153.7012 N   0  3  2  0  0  0  0  0  0  0  0  0
  146.2476  134.3256  153.0538 C   0  0  2  0  0  0  0  0  0  0  0  0
  146.4525  133.2624  151.9997 C   0  0  0  0  0  0  0  0  0  0  0  0
  146.1571  134.6889  151.5882 C   0  0  1  0  0  0  0  0  0  0  0  0
  144.8250  135.0419  150.9643 C   0  0  0  0  0  0  0  0  0  0  0  0
  148.2613  133.6253  154.2678 C   0  0  0  0  0  0  0  0  0  0  0  0
  150.8029  132.4499  154.5070 H   0  0  0  0  0  0  0  0  0  0  0  0
  149.7432  131.9250  155.8138 H   0  0  0  0  0  0  0  0  0  0  0  0
  151.1086  132.9754  156.1601 H   0  0  0  0  0  0  0  0  0  0  0  0
  149.0195  134.2518  156.1887 H   0  0  0  0  0  0  0  0  0  0  0  0
  151.2635  135.1187  155.1616 H   0  0  0  0  0  0  0  0  0  0  0  0
  150.4016  135.1670  153.6414 H   0  0  0  0  0  0  0  0  0  0  0  0
  153.7743  137.9778  155.7102 H   0  0  0  0  0  0  0  0  0  0  0  0
  148.3622  141.4634  155.8705 H   0  0  0  0  0  0  0  0  0  0  0  0
  152.0337  142.3480  155.7353 H   0  0  0  0  0  0  0  0  0  0  0  0
  150.4429  143.0586  155.6937 H   0  0  0  0  0  0  0  0  0  0  0  0
  149.9541  142.2858  159.1760 H   0  0  0  0  0  0  0  0  0  0  0  0
  151.6661  140.6573  158.3962 H   0  0  0  0  0  0  0  0  0  0  0  0
  153.0424  141.6100  157.9037 H   0  0  0  0  0  0  0  0  0  0  0  0
  151.4560  142.0121  160.4921 H   0  0  0  0  0  0  0  0  0  0  0  0
  153.0828  141.3851  160.3380 H   0  0  0  0  0  0  0  0  0  0  0  0
  151.0755  144.3641  160.0292 H   0  0  0  0  0  0  0  0  0  0  0  0
  152.4400  145.3507  159.5500 H   0  0  0  0  0  0  0  0  0  0  0  0
  152.6045  144.2434  157.3781 H   0  0  0  0  0  0  0  0  0  0  0  0
  150.9763  144.8390  157.5824 H   0  0  0  0  0  0  0  0  0  0  0  0
  148.0960  137.8474  154.9883 H   0  0  0  0  0  0  0  0  0  0  0  0
  148.6064  137.1632  153.4701 H   0  0  0  0  0  0  0  0  0  0  0  0
  147.1358  135.5587  155.6609 H   0  0  0  0  0  0  0  0  0  0  0  0
  146.3655  136.4169  154.3593 H   0  0  0  0  0  0  0  0  0  0  0  0
  145.3571  134.3172  153.6803 H   0  0  0  0  0  0  0  0  0  0  0  0
  147.4610  132.8913  151.8268 H   0  0  0  0  0  0  0  0  0  0  0  0
  145.6607  132.5271  151.8717 H   0  0  0  0  0  0  0  0  0  0  0  0
  146.9939  135.2457  151.1691 H   0  0  0  0  0  0  0  0  0  0  0  0
  144.0207  134.4573  151.4120 H   0  0  0  0  0  0  0  0  0  0  0  0
  144.8475  134.8396  149.8935 H   0  0  0  0  0  0  0  0  0  0  0  0
  144.6103  136.1000  151.1150 H   0  0  0  0  0  0  0  0  0  0  0  0
  148.6393  133.0410  153.4279 H   0  0  0  0  0  0  0  0  0  0  0  0
  147.5744  132.9731  154.8096 H   0  0  0  0  0  0  0  0  0  0  0  0
  148.0741  135.1473  152.9590 H   0  0  0  0  0  0  0  0  0  0  0  0
  1  2  1  0  0  0  0
  1 30  1  0  0  0  0
  1 31  1  0  0  0  0
  1 32  1  0  0  0  0
  2 29  1  0  0  0  0
  2  3  1  0  0  0  0
  2 33  1  0  0  0  0
  3  4  1  0  0  0  0
  3 34  1  0  0  0  0
  3 35  1  0  0  0  0
  4  5  1  0  0  0  0
  4 22  1  0  0  0  0
  5 10  1  0  0  0  0
  5  6  2  0  0  0  0
  6  7  1  0  0  0  0
  7  8  2  0  0  0  0
  7 36  1  0  0  0  0
  8  9  1  0  0  0  0
  9 13  1  0  0  0  0
  9 10  2  0  0  0  0
 10 11  1  0  0  0  0
 11 12  2  0  0  0  0
 12 13  1  0  0  0  0
 12 37  1  0  0  0  0
 13 14  1  0  0  0  0
 14 15  1  0  0  0  0
 14 38  1  0  0  0  0
 14 39  1  0  0  0  0
 15 21  1  0  0  0  0
 15 16  1  0  0  0  0
 15 17  1  0  0  0  0
 16 40  1  0  0  0  0
 17 18  1  0  0  0  0
 17 41  1  0  0  0  0
 17 42  1  0  0  0  0
 18 19  1  0  0  0  0
 18 43  1  0  0  0  0
 18 44  1  0  0  0  0
 19 20  1  0  0  0  0
 20 21  1  0  0  0  0
 20 45  1  0  0  0  0
 20 46  1  0  0  0  0
 21 47  1  0  0  0  0
 21 48  1  0  0  0  0
 22 23  1  0  0  0  0
 22 49  1  0  0  0  0
 22 50  1  0  0  0  0
 23 24  1  0  0  0  0
 23 51  1  0  0  0  0
 23 52  1  0  0  0  0
 24 25  1  0  0  0  0
 24 29  1  0  0  0  0
 24 62  1  0  0  0  0
 25 27  1  0  0  0  0
 25 26  1  0  0  0  0
 25 53  1  0  0  0  0
 26 27  1  0  0  0  0
 26 54  1  0  0  0  0
 26 55  1  0  0  0  0
 27 28  1  0  0  0  0
 27 56  1  0  0  0  0
 28 57  1  0  0  0  0
 28 58  1  0  0  0  0
 28 59  1  0  0  0  0
 29 60  1  0  0  0  0
 29 61  1  0  0  0  0
M  CHG  1  24   1
M  END
> <s_m_source_file>
AV-unprocessed.smi

> <i_m_source_file_index>
193

> <i_lp_mmshare_version>
43012

> <i_f3d_flags>
0

> <s_epik_input>
W0NIM11bQ0BASF0xW0NIMl1bQ0BIXTFOKFtDSDJdMilbQ0gyXVtDSDJdTihbQ0gyXVtDQEhdMltDSDNdKWMobltjSF1uMyljKGMzNCluW2NIXW40W0NIMl1DNShbT0hdKVtDSDJdW0NIMl1PW0NIMl1bQ0gyXTU=

> <s_epik_cmdline>
J2VwaWtfcHl0aG9uJywgJy1waCcsICc3LjAnLCAnLXRuJywgJzgnLCAnLW1hJywgJzIwMCcsICctbWV0YWxfYmluZGluZycsICctaW1hZScsICc8aW5maWxlLm1hZT4nLCAnLW9tYWUnLCAnPG91dGZpbGUubWFlPic=

> <r_lp_tautomer_probability>
1

> <r_epik_Ionization_Penalty>
0.0540825

> <r_epik_Ionization_Penalty_Charging>
0.0538476

> <r_epik_Ionization_Penalty_Neutral>
0.000234891

> <r_epik_State_Penalty>
0.0200719

> <r_epik_Charging_Adjusted_Penalty>
0.0739194

> <i_epik_Tot_Q>
1

> <i_epik_Tot_abs_Q>
1

> <r_epik_Metal_State_Penalty>
0.0199414

> <b_epik_Metal_Only>
0

> <s_lp_Force_Field>
OPLS_2005

> <r_lp_Energy>
54.7229

> <b_lp_Chiralities_Consistent>
1

> <s_lp_Variant>
AV-unprocessed.smi:193-2

> <Gold.Version>
5.8.1

> <Gold.Id.Protein>
6NUR|6NUR_protein|mol2

> <Gold.PLP.Fitness>
56.9436

> <Gold.PLP.PLP>
-46.3563

> <Gold.PLP.part.hbond>
-3.0000

> <Gold.PLP.part.metal>
0.0000

> <Gold.PLP.part.buried>
-4.6041

> <Gold.PLP.part.nonpolar>
-39.5757

> <Gold.PLP.part.repulsive>
0.2249

> <Gold.PLP.ligand.clash>
0.0000

> <Gold.PLP.ligand.torsion>
1.5557

> <Gold.PLP.Chemscore.Hbond>
3.9440

> <Gold.PLP.Chemscore.CHOScore>
0.0000

> <Gold.PLP.Chemscore.Metal>
0.0000

> <Gold.Chemscore.Hbonds>
donor molecule, donor type, donor heavy atom, donor atom, acceptor molecule, acceptor atom, score
      L1  H    24    62       P1  7948  2.00
      P1  H  7997  8010       L1     8  0.85
      P1  H 10752 10764       L1     6  0.73

> <Gold.PLP.Chemscore.Internal.Correction>
1.8668

> <Gold.Rescore>
     Score         DG    S(hbond)    S(metal)    S(lipo)     H(rot)  DE(clash)    DE(int)     intcor
     15.95     -19.58       2.12        0.00     108.23       2.20       0.56       3.07       ----

> <Gold.Chemscore.Fitness>
15.9533

> <Gold.Chemscore.DG>
-19.5847

> <Gold.Chemscore.ZeroCoef>
-5.4800

> <Gold.Chemscore.Hbond>
2.1191

> <Gold.Chemscore.Metal>
0.0000

> <Gold.Chemscore.Lipo>
108.2348

> <Gold.Chemscore.Internal_Hbond>
0.0000

> <Gold.Chemscore.DEClash>
0.5617

> <Gold.Chemscore.DEInternal>
3.0697

> <Gold.Chemscore.Rot>
2.2018

> <Gold.Chemscore.Internal.Correction>
   9.000000E+99

> <Gold.Chemscore.Hbonds>
donor molecule, donor type, donor heavy atom, donor atom, acceptor molecule, acceptor atom, score
      L1  H    24    62       P1  7948  0.98
      P1  H  7997  8010       L1     8  0.14
      P1  H 10752 10764       L1     6  0.45

> <Gold.Chemscore.Hbond.Weighted>
-7.0778

> <Gold.Chemscore.Metal.Weighted>
-0.0000

> <Gold.Chemscore.Lipo.Weighted>
-12.6635

> <Gold.Chemscore.Internal_Hbond.Weighted>
0.0000

> <Gold.Chemscore.DEClash.Weighted>
0.5617

> <Gold.Chemscore.DEInternal.Weighted>
3.0697

> <Gold.Chemscore.Rot.Weighted>
5.6366

> <Gold.Chemscore.Internal.Correction.Weighted>
   9.000000E+99

> <Gold.Protein.RotatedTorsions>
[ 6907 6896 6895 6894 ] final  155.28 input  -60.11 | X-H torsion
[ 7974 7965 7964 7962 ] final   95.20 input  175.53 | X-H torsion
[ 8008 7997 7996 7995 ] final   81.11 input   59.86 | X-H torsion
[ 10167 10162 10161 10158 ] final   69.79 input  -65.29 | X-H torsion
[ 10718 10713 10712 10709 ] final   56.53 input   66.30 | X-H torsion
[ 10763 10752 10751 10750 ] final  -53.68 input  -60.55 | X-H torsion
[ 11005 11000 10999 10996 ] final  -15.64 input  -57.11 | X-H torsion

> <Gold.Protein.ActiveResidues>
 VAL166  LYS551  ARG553  GLY616  TRP617  ASP618  TYR619  PRO620  LYS621  CYS622 
 ASP623  PHE694  ASN695  SER759  ASP760  ASP761  ALA762  ILE779  LEU786  VAL792 
 PHE793  MET794  SER795  GLU796  ALA797  LYS798  CYS799  TRP800  GLU811  SER814 

> <Gold.Protein.RotatedAtoms>
  152.0463  133.3999  159.4357 H   0  0  0  0  0  0  0  0  0  0  0  0  # atno 6907 bound_to 6896
  150.6872  134.3358  159.4856 H   0  0  0  0  0  0  0  0  0  0  0  0  # atno 6908 bound_to 6896
  152.1162  134.9238  160.0615 H   0  0  0  0  0  0  0  0  0  0  0  0  # atno 6909 bound_to 6896
  145.4553  139.2290  143.3017 H   0  0  0  0  0  0  0  0  0  0  0  0  # atno 7974 bound_to 7965
  155.8926  140.3438  155.5967 H   0  0  0  0  0  0  0  0  0  0  0  0  # atno 8008 bound_to 7997
  155.7593  140.0830  157.2182 H   0  0  0  0  0  0  0  0  0  0  0  0  # atno 8009 bound_to 7997
  154.4035  140.1539  156.2801 H   0  0  0  0  0  0  0  0  0  0  0  0  # atno 8010 bound_to 7997
  140.0640  144.5209  150.7274 H   0  0  0  0  0  0  0  0  0  0  0  0  # atno 10167 bound_to 10162
  157.5439  130.8716  149.8862 H   0  0  0  0  0  0  0  0  0  0  0  0  # atno 10718 bound_to 10713
  154.1627  135.6472  153.4990 H   0  0  0  0  0  0  0  0  0  0  0  0  # atno 10763 bound_to 10752
  153.0106  135.5364  154.6694 H   0  0  0  0  0  0  0  0  0  0  0  0  # atno 10764 bound_to 10752
  154.6012  135.2944  155.0505 H   0  0  0  0  0  0  0  0  0  0  0  0  # atno 10765 bound_to 10752
  140.7987  133.8231  155.9449 H   0  0  0  0  0  0  0  0  0  0  0  0  # atno 11005 bound_to 11000
  146.2481  140.5317  142.8905 LP  0  0  0  0  0  0  0  0  0  0  0  0  # atno 17320 bound_to 7965
  144.8036  140.6258  143.6462 LP  0  0  0  0  0  0  0  0  0  0  0  0  # atno 17321 bound_to 7965
  140.7158  143.2543  151.4439 LP  0  0  0  0  0  0  0  0  0  0  0  0  # atno 17342 bound_to 10162
  139.5876  144.1570  152.2048 LP  0  0  0  0  0  0  0  0  0  0  0  0  # atno 17343 bound_to 10162
  156.0519  130.3716  150.1181 LP  0  0  0  0  0  0  0  0  0  0  0  0  # atno 17370 bound_to 10713
  156.9359  130.9729  151.3525 LP  0  0  0  0  0  0  0  0  0  0  0  0  # atno 17371 bound_to 10713
  140.9317  134.2014  157.4859 LP  0  0  0  0  0  0  0  0  0  0  0  0  # atno 17394 bound_to 11000
  139.8724  134.9835  156.5202 LP  0  0  0  0  0  0  0  0  0  0  0  0  # atno 17395 bound_to 11000

$$$$
