AV-unprocessed.smi:964|AV-procd|sdf|4279|dock6
  -GOLD-   22720 2183D 1   1.00000     0.00000
 Structure written by MMmdl.
 20 20  0  0  0  0  0  0  0  0  2 V2000
  151.5745  138.0384  154.1767 C   0  0  0  0  0  0  0  0  0  0  0  0
  150.4057  138.9628  154.1199 C   0  0  0  0  0  0  0  0  0  0  0  0
  149.2223  138.5771  153.6215 N   0  0  0  0  0  0  0  0  0  0  0  0
  148.4676  139.6773  153.7601 C   0  0  0  0  0  0  0  0  0  0  0  0
  147.0397  139.7254  153.3245 C   0  0  0  0  0  0  0  0  0  0  0  0
  146.5858  138.4208  152.6552 C   0  0  0  0  0  0  0  0  0  0  0  0
  145.1827  138.5025  152.2158 N   0  3  0  0  0  0  0  0  0  0  0  0
  149.1295  140.7025  154.3046 N   0  0  0  0  0  0  0  0  0  0  0  0
  150.4091  140.2303  154.5433 N   0  0  0  0  0  0  0  0  0  0  0  0
  148.9654  137.6774  153.2419 H   0  0  0  0  0  0  0  0  0  0  0  0
  152.4099  138.5110  154.6941 H   0  0  0  0  0  0  0  0  0  0  0  0
  151.8931  137.7749  153.1680 H   0  0  0  0  0  0  0  0  0  0  0  0
  151.3063  137.1268  154.7112 H   0  0  0  0  0  0  0  0  0  0  0  0
  146.9200  140.5618  152.6343 H   0  0  0  0  0  0  0  0  0  0  0  0
  146.4120  139.9433  154.1899 H   0  0  0  0  0  0  0  0  0  0  0  0
  147.2094  138.2029  151.7873 H   0  0  0  0  0  0  0  0  0  0  0  0
  146.6906  137.5834  153.3456 H   0  0  0  0  0  0  0  0  0  0  0  0
  144.6350  137.8114  152.7087 H   0  0  0  0  0  0  0  0  0  0  0  0
  145.1298  138.3248  151.2227 H   0  0  0  0  0  0  0  0  0  0  0  0
  144.8178  139.4234  152.4127 H   0  0  0  0  0  0  0  0  0  0  0  0
  1 11  1  0  0  0  0
  1 12  1  0  0  0  0
  1 13  1  0  0  0  0
  1  2  1  0  0  0  0
  2  3  1  0  0  0  0
  2  9  2  0  0  0  0
  3 10  1  0  0  0  0
  3  4  1  0  0  0  0
  4  8  2  0  0  0  0
  4  5  1  0  0  0  0
  5  6  1  0  0  0  0
  5 14  1  0  0  0  0
  5 15  1  0  0  0  0
  6  7  1  0  0  0  0
  6 16  1  0  0  0  0
  6 17  1  0  0  0  0
  7 18  1  0  0  0  0
  7 19  1  0  0  0  0
  7 20  1  0  0  0  0
  8  9  1  0  0  0  0
M  CHG  1   7   1
M  END
> <s_m_source_file>
AV-unprocessed.smi

> <i_m_source_file_index>
964

> <i_lp_mmshare_version>
43012

> <i_f3d_flags>
0

> <s_epik_input>
W0NIM11jMW5jKG5bbkhdMSlbQ0gyXVtDSDJdW05IMl0=

> <s_epik_cmdline>
J2VwaWtfcHl0aG9uJywgJy1waCcsICc3LjAnLCAnLXRuJywgJzgnLCAnLW1hJywgJzIwMCcsICctbWV0YWxfYmluZGluZycsICctaW1hZScsICc8aW5maWxlLm1hZT4nLCAnLW9tYWUnLCAnPG91dGZpbGUubWFlPic=

> <r_lp_tautomer_probability>
0.0517155

> <r_epik_Ionization_Penalty>
0.0139864

> <r_epik_Ionization_Penalty_Charging>
0.00465044

> <r_epik_Ionization_Penalty_Neutral>
0.00933595

> <r_epik_State_Penalty>
2.23303

> <r_epik_Charging_Adjusted_Penalty>
2.23768

> <i_epik_Tot_Q>
1

> <i_epik_Tot_abs_Q>
1

> <r_epik_Metal_State_Penalty>
2.43351

> <b_epik_Metal_Only>
0

> <s_lp_Force_Field>
OPLS_2005

> <r_lp_Energy>
2.69796

> <b_lp_Chiralities_Consistent>
1

> <s_lp_Variant>
AV-unprocessed.smi:964-3

> <Gold.Version>
5.8.1

> <Gold.Id.Protein>
6NUR|6NUR_protein|mol2

> <Gold.PLP.Fitness>
32.1356

> <Gold.PLP.PLP>
-17.9018

> <Gold.PLP.part.hbond>
-4.8165

> <Gold.PLP.part.metal>
0.0000

> <Gold.PLP.part.buried>
-1.2341

> <Gold.PLP.part.nonpolar>
-12.1445

> <Gold.PLP.part.repulsive>
0.3043

> <Gold.PLP.ligand.clash>
0.0000

> <Gold.PLP.ligand.torsion>
0.0113

> <Gold.PLP.Chemscore.Hbond>
4.7520

> <Gold.PLP.Chemscore.CHOScore>
0.0000

> <Gold.PLP.Chemscore.Metal>
0.0000

> <Gold.Chemscore.Hbonds>
donor molecule, donor type, donor heavy atom, donor atom, acceptor molecule, acceptor atom, score
      L1  H     3    10       P1  7948  1.00
      L1  H     7    19       P1 10171  0.75
      L1  H     7    20       P1 10175  2.00
      P1  H  7989  7998       L1     9  0.95

> <Gold.PLP.Chemscore.Internal.Correction>
0.0004

> <Gold.Rescore>
     Score         DG    S(hbond)    S(metal)    S(lipo)     H(rot)  DE(clash)    DE(int)     intcor
     13.41     -13.54       2.78        0.00      22.44       1.51       0.11       0.02       ----

> <Gold.Chemscore.Fitness>
13.4059

> <Gold.Chemscore.DG>
-13.5383

> <Gold.Chemscore.ZeroCoef>
-5.4800

> <Gold.Chemscore.Hbond>
2.7824

> <Gold.Chemscore.Metal>
0.0000

> <Gold.Chemscore.Lipo>
22.4448

> <Gold.Chemscore.Internal_Hbond>
0.0000

> <Gold.Chemscore.DEClash>
0.1112

> <Gold.Chemscore.DEInternal>
0.0212

> <Gold.Chemscore.Rot>
1.5082

> <Gold.Chemscore.Internal.Correction>
   9.000000E+99

> <Gold.Chemscore.Hbonds>
donor molecule, donor type, donor heavy atom, donor atom, acceptor molecule, acceptor atom, score
      L1  H     3    10       P1  7948  0.95
      L1  H     7    19       P1 10171  0.74
      L1  H     7    20       P1 10175  0.90
      P1  H  7989  7998       L1     9  0.19

> <Gold.Chemscore.Hbond.Weighted>
-9.2934

> <Gold.Chemscore.Metal.Weighted>
-0.0000

> <Gold.Chemscore.Lipo.Weighted>
-2.6260

> <Gold.Chemscore.Internal_Hbond.Weighted>
0.0000

> <Gold.Chemscore.DEClash.Weighted>
0.1112

> <Gold.Chemscore.DEInternal.Weighted>
0.0212

> <Gold.Chemscore.Rot.Weighted>
3.8611

> <Gold.Chemscore.Internal.Correction.Weighted>
   9.000000E+99

> <Gold.Protein.RotatedTorsions>
[ 6907 6896 6895 6894 ] final   45.01 input  -60.11 | X-H torsion
[ 7974 7965 7964 7962 ] final -134.91 input  175.53 | X-H torsion
[ 8008 7997 7996 7995 ] final -135.50 input   59.86 | X-H torsion
[ 10167 10162 10161 10158 ] final -137.17 input  -65.29 | X-H torsion
[ 10718 10713 10712 10709 ] final -171.73 input   66.30 | X-H torsion
[ 10763 10752 10751 10750 ] final -155.82 input  -60.55 | X-H torsion
[ 11005 11000 10999 10996 ] final  150.73 input  -57.11 | X-H torsion

> <Gold.Protein.ActiveResidues>
 VAL166  LYS551  ARG553  GLY616  TRP617  ASP618  TYR619  PRO620  LYS621  CYS622 
 ASP623  PHE694  ASN695  SER759  ASP760  ASP761  ALA762  ILE779  LEU786  VAL792 
 PHE793  MET794  SER795  GLU796  ALA797  LYS798  CYS799  TRP800  GLU811  SER814 

> <Gold.Protein.RotatedAtoms>
  152.2394  134.8243  160.0462 H   0  0  0  0  0  0  0  0  0  0  0  0  # atno 6907 bound_to 6896
  151.8963  133.3522  159.3823 H   0  0  0  0  0  0  0  0  0  0  0  0  # atno 6908 bound_to 6896
  150.7049  134.4799  159.5509 H   0  0  0  0  0  0  0  0  0  0  0  0  # atno 6909 bound_to 6896
  144.9061  140.6835  143.5054 H   0  0  0  0  0  0  0  0  0  0  0  0  # atno 7974 bound_to 7965
  155.3797  140.0493  157.3044 H   0  0  0  0  0  0  0  0  0  0  0  0  # atno 8008 bound_to 7997
  154.5089  140.2184  155.9158 H   0  0  0  0  0  0  0  0  0  0  0  0  # atno 8009 bound_to 7997
  156.1558  140.3126  155.8730 H   0  0  0  0  0  0  0  0  0  0  0  0  # atno 8010 bound_to 7997
  139.8605  143.7084  152.2650 H   0  0  0  0  0  0  0  0  0  0  0  0  # atno 10167 bound_to 10162
  156.7451  130.9357  151.3112 H   0  0  0  0  0  0  0  0  0  0  0  0  # atno 10718 bound_to 10713
  154.7759  135.3159  154.8093 H   0  0  0  0  0  0  0  0  0  0  0  0  # atno 10763 bound_to 10752
  153.8816  135.6834  153.4771 H   0  0  0  0  0  0  0  0  0  0  0  0  # atno 10764 bound_to 10752
  153.1383  135.4750  154.9392 H   0  0  0  0  0  0  0  0  0  0  0  0  # atno 10765 bound_to 10752
  140.1157  134.8896  157.2000 H   0  0  0  0  0  0  0  0  0  0  0  0  # atno 11005 bound_to 11000
  145.3533  139.1700  143.4422 LP  0  0  0  0  0  0  0  0  0  0  0  0  # atno 17320 bound_to 7965
  146.3134  140.3588  142.8663 LP  0  0  0  0  0  0  0  0  0  0  0  0  # atno 17321 bound_to 7965
  139.7379  144.7567  151.0699 LP  0  0  0  0  0  0  0  0  0  0  0  0  # atno 17342 bound_to 10162
  140.7776  143.5008  150.9773 LP  0  0  0  0  0  0  0  0  0  0  0  0  # atno 17343 bound_to 10162
  157.6801  130.9132  150.0247 LP  0  0  0  0  0  0  0  0  0  0  0  0  # atno 17370 bound_to 10713
  156.1438  130.3642  149.9541 LP  0  0  0  0  0  0  0  0  0  0  0  0  # atno 17371 bound_to 10713
  140.3032  134.3108  155.7284 LP  0  0  0  0  0  0  0  0  0  0  0  0  # atno 17394 bound_to 11000
  141.2140  133.7604  156.9670 LP  0  0  0  0  0  0  0  0  0  0  0  0  # atno 17395 bound_to 11000

$$$$
