#       Name:                AV-unprocessed.smi:3241
#       Creating user name   scv26
#       Creation time:       Fri Mar 27 18:25:29 2020


#       File generated by GOLD software.
#

@<TRIPOS>MOLECULE
AV-unprocessed.smi:3241
    47    48     1
SMALL
NO_CHARGES


@<TRIPOS>ATOM
      1 ****        -2.0551   0.3760  -1.7085 C.3            1 S1                 0.0000
      2 ****        -2.8327   0.7349  -0.4321 C.3            1 S1                 0.0000
      3 ****        -2.7005   2.2301  -0.0800 C.3            1 S1                 0.0000
      4 ****        -3.5065   2.5846   1.1799 C.3            1 S1                 0.0000
      5 ****        -3.0997   1.7022   2.3700 C.3            1 S1                 0.0000
      6 ****        -3.2286   0.2087   2.0270 C.3            1 S1                 0.0000
      7 ****        -2.4269  -0.1580   0.7612 C.3            1 S1                 0.0000
      8 ****        -1.0357   0.0179   1.0032 O.3            1 S1                 0.0000
      9 ****        -0.3811  -1.1252   1.5302 C.3            1 S1                 0.0000
     10 ****         1.0990  -0.7856   1.7291 C.3            1 S1                 0.0000
     11 ****         1.7387  -0.4635   0.4390 N.4            1 S1                 1.0000
     12 ****         3.1895  -0.2038   0.5253 C.3            1 S1                 0.0000
     13 ****         3.7702   0.2204  -0.8335 C.3            1 S1                 0.0000
     14 ****         3.6649  -0.8278  -1.8330 N.pl3          1 S1                 0.0000
     15 ****         4.5768  -1.8156  -2.1401 C.2            1 S1                 0.0000
     16 ****         4.0366  -2.5685  -3.1431 C.2            1 S1                 0.0000
     17 ****         2.7760  -1.9552  -3.3864 C.2            1 S1                 0.0000
     18 ****         2.5549  -0.9155  -2.5982 N.2            1 S1                 0.0000
     19 ****        -0.9866   0.5611  -1.5928 H              1 S1                 0.0000
     20 ****        -2.4027   0.9654  -2.5573 H              1 S1                 0.0000
     21 ****        -2.1844  -0.6760  -1.9637 H              1 S1                 0.0000
     22 ****        -3.8864   0.5418  -0.6391 H              1 S1                 0.0000
     23 ****        -1.6510   2.4845   0.0744 H              1 S1                 0.0000
     24 ****        -3.0444   2.8413  -0.9152 H              1 S1                 0.0000
     25 ****        -3.3618   3.6359   1.4298 H              1 S1                 0.0000
     26 ****        -4.5710   2.4585   0.9792 H              1 S1                 0.0000
     27 ****        -2.0713   1.9262   2.6564 H              1 S1                 0.0000
     28 ****        -3.7187   1.9393   3.2358 H              1 S1                 0.0000
     29 ****        -2.9082  -0.3963   2.8749 H              1 S1                 0.0000
     30 ****        -4.2805  -0.0308   1.8665 H              1 S1                 0.0000
     31 ****        -2.6324  -1.1961   0.4927 H              1 S1                 0.0000
     32 ****        -0.8269  -1.4128   2.4828 H              1 S1                 0.0000
     33 ****        -0.4837  -1.9714   0.8490 H              1 S1                 0.0000
     34 ****         1.2047   0.0583   2.4121 H              1 S1                 0.0000
     35 ****         1.6116  -1.6354   2.1817 H              1 S1                 0.0000
     36 ****         1.5911  -1.2325  -0.1994 H              1 S1                 0.0000
     37 ****         3.3646   0.5871   1.2557 H              1 S1                 0.0000
     38 ****         3.6980  -1.0965   0.8918 H              1 S1                 0.0000
     39 ****         3.2698   1.1173  -1.2022 H              1 S1                 0.0000
     40 ****         4.8240   0.4774  -0.7205 H              1 S1                 0.0000
     41 ****         5.5228  -1.9004  -1.6259 H              1 S1                 0.0000
     42 ****         4.4756  -3.4264  -3.6308 H              1 S1                 0.0000
     43 ****         2.0199  -2.2332  -4.1058 H              1 S1                 0.0000
     44 ****         1.2871   0.3564   0.0587 H              1 S1                 0.0000
     45 ****        -0.9243   0.7692   1.6537 LP             1 S1                 0.0000
     46 ****        -0.5961   0.2584   0.1378 LP             1 S1                 0.0000
     47 ****         1.7471  -0.3265  -2.5743 LP             1 S1                 0.0000
@<TRIPOS>BOND
    1    1    2 1     
    2    1   19 1     
    3    1   20 1     
    4    1   21 1     
    5    2    7 1     
    6    2    3 1     
    7    2   22 1     
    8    3    4 1     
    9    3   23 1     
   10    3   24 1     
   11    4    5 1     
   12    4   25 1     
   13    4   26 1     
   14    5    6 1     
   15    5   27 1     
   16    5   28 1     
   17    6    7 1     
   18    6   29 1     
   19    6   30 1     
   20    7    8 1     
   21    7   31 1     
   22    8    9 1     
   23    9   10 1     
   24    9   32 1     
   25    9   33 1     
   26   10   11 1     
   27   10   34 1     
   28   10   35 1     
   29   11   12 1     
   30   11   36 1     
   31   11   44 1     
   32   12   13 1     
   33   12   37 1     
   34   12   38 1     
   35   13   14 1     
   36   13   39 1     
   37   13   40 1     
   38   14   18 1     
   39   14   15 1     
   40   15   16 2     
   41   15   41 1     
   42   16   17 1     
   43   16   42 1     
   44   17   18 2     
   45   17   43 1     
   46    8   45 1     
   47    8   46 1     
   48   18   47 1     
@<TRIPOS>SUBSTRUCTURE
      1 S1             1
@<TRIPOS>SET
LONE_PAIRS      STATIC     ATOMS    <user>   **** ""
3 45 46 47
DONOR_HYDROGENS      STATIC     ATOMS    <user>   **** ""
2 36 44
ATOM$BLUE        STATIC     ATOMS    COLORGROUP SYSTEM
3 45 46 47
ATOM$RED        STATIC     ATOMS    COLORGROUP SYSTEM
2 36 44
