AV-unprocessed.smi:148|AV-procd|sdf|1218|dock10
  -GOLD-   2262018403D 1   1.00000     0.00000
 Structure written by MMmdl.
 63 67  0  0  0  0  0  0  0  0  1 V2000
  154.9024  133.8997  159.3590 O   0  0  0  0  0  0  0  0  0  0  0  0
  155.4512  133.1644  160.4325 C   0  0  0  0  0  0  0  0  0  0  0  0
  155.0512  133.7792  161.7952 C   0  0  2  0  0  0  0  0  0  0  0  0
  155.8487  135.0737  162.1063 C   0  0  0  0  0  0  0  0  0  0  0  0
  155.1883  136.2695  161.6132 N   0  0  0  0  0  0  0  0  0  0  0  0
  154.1085  136.9043  162.1832 C   0  0  0  0  0  0  0  0  0  0  0  0
  153.6852  137.9614  161.5457 N   0  0  0  0  0  0  0  0  0  0  0  0
  154.5392  138.0628  160.4537 C   0  0  0  0  0  0  0  0  0  0  0  0
  154.6465  138.9586  159.3523 C   0  0  0  0  0  0  0  0  0  0  0  0
  153.8260  140.0101  159.1280 N   0  0  0  0  0  0  0  0  0  0  0  0
  154.0196  141.0218  160.1665 C   0  0  0  0  0  0  0  0  0  0  0  0
  153.2994  142.3294  159.8153 C   0  0  0  0  0  0  0  0  0  0  0  0
  151.8147  142.0621  159.5509 C   0  0  0  0  0  0  0  0  0  0  0  0
  151.6606  141.0056  158.4484 C   0  0  0  0  0  0  0  0  0  0  0  0
  152.4244  139.6990  158.7902 C   0  0  1  0  0  0  0  0  0  0  0  0
  152.2938  138.5993  157.6889 C   0  0  2  0  0  0  0  0  0  0  0  0
  152.4548  139.0723  156.2310 C   0  0  0  0  0  0  0  0  0  0  0  0
  151.6055  138.1222  155.3703 C   0  0  0  0  0  0  0  0  0  0  0  0
  151.0111  137.0873  156.3306 C   0  0  0  0  0  0  0  0  0  0  0  0
  150.9846  137.7965  157.6837 C   0  0  1  0  0  0  0  0  0  0  0  0
  150.9211  136.8722  158.7502 O   0  0  0  0  0  0  0  0  0  0  0  0
  155.6459  138.7535  158.4595 N   0  0  0  0  0  0  0  0  0  0  0  0
  156.4806  137.7219  158.6174 C   0  0  0  0  0  0  0  0  0  0  0  0
  156.4938  136.7976  159.5805 N   0  0  0  0  0  0  0  0  0  0  0  0
  155.4978  137.0121  160.4875 C   0  0  0  0  0  0  0  0  0  0  0  0
  155.1026  132.7335  162.9450 C   0  0  1  0  0  0  0  0  0  0  0  0
  154.4838  133.1832  164.2714 C   0  0  0  0  0  0  0  0  0  0  0  0
  153.6468  131.9853  164.7097 C   0  0  0  0  0  0  0  0  0  0  0  0
  153.2431  131.4093  163.4797 O   0  0  0  0  0  0  0  0  0  0  0  0
  154.3851  131.4085  162.6375 C   0  0  0  0  0  0  0  0  0  0  0  0
  155.5935  134.0943  158.7442 H   0  0  0  0  0  0  0  0  0  0  0  0
  155.1297  132.1252  160.3619 H   0  0  0  0  0  0  0  0  0  0  0  0
  156.5327  133.1694  160.2995 H   0  0  0  0  0  0  0  0  0  0  0  0
  154.0058  134.0796  161.7046 H   0  0  0  0  0  0  0  0  0  0  0  0
  155.9900  135.2001  163.1792 H   0  0  0  0  0  0  0  0  0  0  0  0
  156.8470  135.0340  161.6724 H   0  0  0  0  0  0  0  0  0  0  0  0
  153.6378  136.5513  163.0893 H   0  0  0  0  0  0  0  0  0  0  0  0
  153.6453  140.6387  161.1170 H   0  0  0  0  0  0  0  0  0  0  0  0
  155.0842  141.2200  160.3017 H   0  0  0  0  0  0  0  0  0  0  0  0
  153.4135  143.0488  160.6266 H   0  0  0  0  0  0  0  0  0  0  0  0
  153.7574  142.7772  158.9323 H   0  0  0  0  0  0  0  0  0  0  0  0
  151.3324  141.7155  160.4657 H   0  0  0  0  0  0  0  0  0  0  0  0
  151.3118  142.9851  159.2614 H   0  0  0  0  0  0  0  0  0  0  0  0
  150.5982  140.8108  158.3128 H   0  0  0  0  0  0  0  0  0  0  0  0
  152.0206  141.4270  157.5106 H   0  0  0  0  0  0  0  0  0  0  0  0
  151.9624  139.3021  159.6942 H   0  0  0  0  0  0  0  0  0  0  0  0
  153.0775  137.8579  157.8512 H   0  0  0  0  0  0  0  0  0  0  0  0
  152.1089  140.0953  156.0906 H   0  0  0  0  0  0  0  0  0  0  0  0
  153.5025  139.0493  155.9302 H   0  0  0  0  0  0  0  0  0  0  0  0
  150.8047  138.6841  154.8883 H   0  0  0  0  0  0  0  0  0  0  0  0
  152.1911  137.6479  154.5821 H   0  0  0  0  0  0  0  0  0  0  0  0
  150.0256  136.7409  156.0178 H   0  0  0  0  0  0  0  0  0  0  0  0
  151.6692  136.2177  156.3759 H   0  0  0  0  0  0  0  0  0  0  0  0
  150.1128  138.4483  157.7156 H   0  0  0  0  0  0  0  0  0  0  0  0
  150.0786  136.9562  159.1700 H   0  0  0  0  0  0  0  0  0  0  0  0
  157.2464  137.6216  157.8625 H   0  0  0  0  0  0  0  0  0  0  0  0
  156.1486  132.4824  163.1259 H   0  0  0  0  0  0  0  0  0  0  0  0
  155.2371  133.4500  165.0133 H   0  0  0  0  0  0  0  0  0  0  0  0
  153.8366  134.0490  164.1440 H   0  0  0  0  0  0  0  0  0  0  0  0
  154.2512  131.2692  165.2693 H   0  0  0  0  0  0  0  0  0  0  0  0
  152.7917  132.2695  165.3235 H   0  0  0  0  0  0  0  0  0  0  0  0
  154.1120  131.2865  161.5895 H   0  0  0  0  0  0  0  0  0  0  0  0
  155.0191  130.5627  162.9080 H   0  0  0  0  0  0  0  0  0  0  0  0
  1  2  1  0  0  0  0
  1 31  1  0  0  0  0
  2  3  1  0  0  0  0
  2 32  1  0  0  0  0
  2 33  1  0  0  0  0
  3  4  1  0  0  0  0
  3 26  1  0  0  0  0
  3 34  1  0  0  0  0
  4  5  1  0  0  0  0
  4 35  1  0  0  0  0
  4 36  1  0  0  0  0
  5 25  1  0  0  0  0
  5  6  1  0  0  0  0
  6  7  2  0  0  0  0
  6 37  1  0  0  0  0
  7  8  1  0  0  0  0
  8 25  2  0  0  0  0
  8  9  1  0  0  0  0
  9 10  1  0  0  0  0
  9 22  2  0  0  0  0
 10 15  1  0  0  0  0
 10 11  1  0  0  0  0
 11 12  1  0  0  0  0
 11 38  1  0  0  0  0
 11 39  1  0  0  0  0
 12 13  1  0  0  0  0
 12 40  1  0  0  0  0
 12 41  1  0  0  0  0
 13 14  1  0  0  0  0
 13 42  1  0  0  0  0
 13 43  1  0  0  0  0
 14 15  1  0  0  0  0
 14 44  1  0  0  0  0
 14 45  1  0  0  0  0
 15 16  1  0  0  0  0
 15 46  1  0  0  0  0
 16 20  1  0  0  0  0
 16 17  1  0  0  0  0
 16 47  1  0  0  0  0
 17 18  1  0  0  0  0
 17 48  1  0  0  0  0
 17 49  1  0  0  0  0
 18 19  1  0  0  0  0
 18 50  1  0  0  0  0
 18 51  1  0  0  0  0
 19 20  1  0  0  0  0
 19 52  1  0  0  0  0
 19 53  1  0  0  0  0
 20 21  1  0  0  0  0
 20 54  1  0  0  0  0
 21 55  1  0  0  0  0
 22 23  1  0  0  0  0
 23 24  2  0  0  0  0
 23 56  1  0  0  0  0
 24 25  1  0  0  0  0
 26 30  1  0  0  0  0
 26 27  1  0  0  0  0
 26 57  1  0  0  0  0
 27 28  1  0  0  0  0
 27 58  1  0  0  0  0
 27 59  1  0  0  0  0
 28 29  1  0  0  0  0
 28 60  1  0  0  0  0
 28 61  1  0  0  0  0
 29 30  1  0  0  0  0
 30 62  1  0  0  0  0
 30 63  1  0  0  0  0
M  END
> <s_m_source_file>
AV-unprocessed.smi

> <i_m_source_file_index>
148

> <i_lp_mmshare_version>
43012

> <i_f3d_flags>
0

> <s_epik_input>
W0NIMl0xT1tDSDJdW0NIMl1bQ0BIXTFbQ0BIXShbQ0gyXVtPSF0pW0NIMl1uKFtjSF1uMiljKGMyMyluW2NIXW5jM040W0NIMl1bQ0gyXVtDSDJdW0NIMl1bQ0BIXTRbQ0BASF01W0NIMl1bQ0gyXVtDSDJdW0NASF01W09IXQ==

> <s_epik_cmdline>
J2VwaWtfcHl0aG9uJywgJy1waCcsICc3LjAnLCAnLXRuJywgJzgnLCAnLW1hJywgJzIwMCcsICctbWV0YWxfYmluZGluZycsICctaW1hZScsICc8aW5maWxlLm1hZT4nLCAnLW9tYWUnLCAnPG91dGZpbGUubWFlPic=

> <r_lp_tautomer_probability>
1

> <r_epik_Ionization_Penalty>
0.00556303

> <r_epik_Ionization_Penalty_Charging>
0

> <r_epik_Ionization_Penalty_Neutral>
0.00556303

> <r_epik_State_Penalty>
0.00401767

> <r_epik_Charging_Adjusted_Penalty>
0.00401767

> <i_epik_Tot_Q>
0

> <i_epik_Tot_abs_Q>
0

> <r_epik_Metal_State_Penalty>
-0

> <b_epik_Metal_Only>
0

> <s_lp_Force_Field>
OPLS_2005

> <r_lp_Energy>
68.3578

> <b_lp_Chiralities_Consistent>
1

> <s_lp_Variant>
AV-unprocessed.smi:148-17

> <Gold.Version>
5.8.1

> <Gold.Id.Protein>
6NUR|6NUR_protein|mol2

> <Gold.PLP.Fitness>
45.9995

> <Gold.PLP.PLP>
-39.4462

> <Gold.PLP.part.hbond>
-3.6207

> <Gold.PLP.part.metal>
0.0000

> <Gold.PLP.part.buried>
-5.4589

> <Gold.PLP.part.nonpolar>
-31.5374

> <Gold.PLP.part.repulsive>
0.0453

> <Gold.PLP.ligand.clash>
0.0000

> <Gold.PLP.ligand.torsion>
1.4306

> <Gold.PLP.Chemscore.Hbond>
2.9913

> <Gold.PLP.Chemscore.CHOScore>
0.0000

> <Gold.PLP.Chemscore.Metal>
0.0000

> <Gold.Chemscore.Hbonds>
donor molecule, donor type, donor heavy atom, donor atom, acceptor molecule, acceptor atom, score
      P1  H  6896  6908       L1    21  0.32
      P1  H  6896  6909       L1     1  0.23
      P1  H  7997  8008       L1    22  0.90

> <Gold.PLP.Chemscore.Internal.Correction>
0.4408

> <Gold.Rescore>
     Score         DG    S(hbond)    S(metal)    S(lipo)     H(rot)  DE(clash)    DE(int)     intcor
     14.93     -16.44       2.23        0.00     102.66       3.32       0.10       1.41       ----

> <Gold.Chemscore.Fitness>
14.9336

> <Gold.Chemscore.DG>
-16.4391

> <Gold.Chemscore.ZeroCoef>
-5.4800

> <Gold.Chemscore.Hbond>
2.2299

> <Gold.Chemscore.Metal>
0.0000

> <Gold.Chemscore.Lipo>
102.6614

> <Gold.Chemscore.Internal_Hbond>
0.0000

> <Gold.Chemscore.DEClash>
0.0998

> <Gold.Chemscore.DEInternal>
1.4057

> <Gold.Chemscore.Rot>
3.3203

> <Gold.Chemscore.Internal.Correction>
   9.000000E+99

> <Gold.Chemscore.Hbonds>
donor molecule, donor type, donor heavy atom, donor atom, acceptor molecule, acceptor atom, score
      P1  H  6896  6908       L1    21  0.01
      P1  H  6896  6909       L1     1  0.13
      P1  H  7997  8008       L1    22  0.17

> <Gold.Chemscore.Hbond.Weighted>
-7.4477

> <Gold.Chemscore.Metal.Weighted>
-0.0000

> <Gold.Chemscore.Lipo.Weighted>
-12.0114

> <Gold.Chemscore.Internal_Hbond.Weighted>
0.0000

> <Gold.Chemscore.DEClash.Weighted>
0.0998

> <Gold.Chemscore.DEInternal.Weighted>
1.4057

> <Gold.Chemscore.Rot.Weighted>
8.5000

> <Gold.Chemscore.Internal.Correction.Weighted>
   9.000000E+99

> <Gold.Protein.RotatedTorsions>
[ 6907 6896 6895 6894 ] final -142.06 input  -60.11 | X-H torsion
[ 7974 7965 7964 7962 ] final  -17.43 input  175.53 | X-H torsion
[ 8008 7997 7996 7995 ] final -123.79 input   59.86 | X-H torsion
[ 10167 10162 10161 10158 ] final    1.41 input  -65.29 | X-H torsion
[ 10718 10713 10712 10709 ] final   56.07 input   66.30 | X-H torsion
[ 10763 10752 10751 10750 ] final  -63.37 input  -60.55 | X-H torsion
[ 11005 11000 10999 10996 ] final -166.35 input  -57.11 | X-H torsion

> <Gold.Protein.ActiveResidues>
 VAL166  LYS551  ARG553  GLY616  TRP617  ASP618  TYR619  PRO620  LYS621  CYS622 
 ASP623  PHE694  ASN695  SER759  ASP760  ASP761  ALA762  ILE779  LEU786  VAL792 
 PHE793  MET794  SER795  GLU796  ALA797  LYS798  CYS799  TRP800  GLU811  SER814 

> <Gold.Protein.RotatedAtoms>
  151.0820  133.5382  159.2619 H   0  0  0  0  0  0  0  0  0  0  0  0  # atno 6907 bound_to 6896
  151.2282  135.0544  159.8987 H   0  0  0  0  0  0  0  0  0  0  0  0  # atno 6908 bound_to 6896
  152.5425  134.0613  159.8207 H   0  0  0  0  0  0  0  0  0  0  0  0  # atno 6909 bound_to 6896
  146.1941  140.3778  142.8447 H   0  0  0  0  0  0  0  0  0  0  0  0  # atno 7974 bound_to 7965
  155.1863  140.0412  157.2892 H   0  0  0  0  0  0  0  0  0  0  0  0  # atno 8008 bound_to 7997
  154.6169  140.2491  155.7570 H   0  0  0  0  0  0  0  0  0  0  0  0  # atno 8009 bound_to 7997
  156.2412  140.2903  156.0459 H   0  0  0  0  0  0  0  0  0  0  0  0  # atno 8010 bound_to 7997
  140.6684  143.7117  150.7873 H   0  0  0  0  0  0  0  0  0  0  0  0  # atno 10167 bound_to 10162
  157.5400  130.8690  149.8808 H   0  0  0  0  0  0  0  0  0  0  0  0  # atno 10718 bound_to 10713
  154.3139  135.6210  153.5478 H   0  0  0  0  0  0  0  0  0  0  0  0  # atno 10763 bound_to 10752
  152.9826  135.5708  154.5146 H   0  0  0  0  0  0  0  0  0  0  0  0  # atno 10764 bound_to 10752
  154.4801  135.2863  155.1554 H   0  0  0  0  0  0  0  0  0  0  0  0  # atno 10765 bound_to 10752
  140.5655  134.5290  157.5152 H   0  0  0  0  0  0  0  0  0  0  0  0  # atno 11005 bound_to 11000
  144.8545  140.7050  143.6147 LP  0  0  0  0  0  0  0  0  0  0  0  0  # atno 17320 bound_to 7965
  145.3699  139.1661  143.4337 LP  0  0  0  0  0  0  0  0  0  0  0  0  # atno 17321 bound_to 7965
  140.0798  143.4980  152.2536 LP  0  0  0  0  0  0  0  0  0  0  0  0  # atno 17342 bound_to 10162
  139.5942  144.7561  151.3327 LP  0  0  0  0  0  0  0  0  0  0  0  0  # atno 17343 bound_to 10162
  156.0489  130.3722  150.1250 LP  0  0  0  0  0  0  0  0  0  0  0  0  # atno 17370 bound_to 10713
  156.9430  130.9750  151.3512 LP  0  0  0  0  0  0  0  0  0  0  0  0  # atno 17371 bound_to 10713
  139.9387  134.7827  156.0735 LP  0  0  0  0  0  0  0  0  0  0  0  0  # atno 17394 bound_to 11000
  141.1088  133.6650  156.2929 LP  0  0  0  0  0  0  0  0  0  0  0  0  # atno 17395 bound_to 11000

$$$$
