AV-unprocessed.smi:2881|AV-procd|sdf|11060|dock9
  -GOLD-   2272015533D 1   1.00000     0.00000
 Structure written by MMmdl.
 40 42  0  0  0  0  0  0  0  0  1 V2000
  147.3601  141.4343  153.5165 C   0  0  0  0  0  0  0  0  0  0  0  0
  148.3253  140.8504  154.4911 C   0  0  0  0  0  0  0  0  0  0  0  0
  148.3270  140.8264  155.8572 C   0  0  0  0  0  0  0  0  0  0  0  0
  149.5155  140.1133  156.1975 C   0  0  0  0  0  0  0  0  0  0  0  0
  150.0340  139.7734  157.5697 C   0  0  0  0  0  0  0  0  0  0  0  0
  151.2916  140.5886  157.8722 C   0  0  0  0  0  0  0  0  0  0  0  0
  152.3405  140.3522  157.2732 O   0  0  0  0  0  0  0  0  0  0  0  0
  151.1731  141.5447  158.8059 N   0  0  0  0  0  0  0  0  0  0  0  0
  152.2591  142.4071  159.2640 C   0  0  1  0  0  0  0  0  0  0  0  0
  152.4319  143.6921  158.4155 C   0  0  1  0  0  0  0  0  0  0  0  0
  151.0978  144.4544  158.2638 C   0  0  0  0  0  0  0  0  0  0  0  0
  150.8565  144.9962  159.6851 C   0  0  0  0  0  0  0  0  0  0  0  0
  152.0940  144.4963  160.4554 C   0  0  2  0  0  0  0  0  0  0  0  0
  153.1771  144.5978  159.3870 C   0  0  0  0  0  0  0  0  0  0  0  0
  151.9739  142.9697  160.6805 C   0  0  2  0  0  0  0  0  0  0  0  0
  152.9437  142.4202  161.7443 C   0  0  0  0  0  0  0  0  0  0  0  0
  152.7312  143.0644  162.9827 O   0  0  0  0  0  0  0  0  0  0  0  0
  150.1995  139.7359  155.1262 N   0  0  0  0  0  0  0  0  0  0  0  0
  149.4639  140.1884  154.0940 N   0  0  0  0  0  0  0  0  0  0  0  0
  149.7473  140.0386  153.1362 H   0  0  0  0  0  0  0  0  0  0  0  0
  146.4102  141.6637  154.0000 H   0  0  0  0  0  0  0  0  0  0  0  0
  147.1620  140.7396  152.6997 H   0  0  0  0  0  0  0  0  0  0  0  0
  147.7528  142.3573  153.0897 H   0  0  0  0  0  0  0  0  0  0  0  0
  147.5856  141.2496  156.5185 H   0  0  0  0  0  0  0  0  0  0  0  0
  149.2817  139.9740  158.3340 H   0  0  0  0  0  0  0  0  0  0  0  0
  150.2646  138.7093  157.6364 H   0  0  0  0  0  0  0  0  0  0  0  0
  150.2728  141.6722  159.2442 H   0  0  0  0  0  0  0  0  0  0  0  0
  153.1943  141.8430  159.2639 H   0  0  0  0  0  0  0  0  0  0  0  0
  152.9446  143.5225  157.4682 H   0  0  0  0  0  0  0  0  0  0  0  0
  151.2087  145.2793  157.5590 H   0  0  0  0  0  0  0  0  0  0  0  0
  150.2779  143.8317  157.9061 H   0  0  0  0  0  0  0  0  0  0  0  0
  150.8178  146.0862  159.6769 H   0  0  0  0  0  0  0  0  0  0  0  0
  149.9228  144.6332  160.1165 H   0  0  0  0  0  0  0  0  0  0  0  0
  152.2909  145.0659  161.3639 H   0  0  0  0  0  0  0  0  0  0  0  0
  154.1423  144.1961  159.6988 H   0  0  0  0  0  0  0  0  0  0  0  0
  153.3210  145.6124  159.0111 H   0  0  0  0  0  0  0  0  0  0  0  0
  150.9574  142.7252  160.9952 H   0  0  0  0  0  0  0  0  0  0  0  0
  152.7799  141.3510  161.8837 H   0  0  0  0  0  0  0  0  0  0  0  0
  153.9834  142.5496  161.4437 H   0  0  0  0  0  0  0  0  0  0  0  0
  152.0275  142.6238  163.4344 H   0  0  0  0  0  0  0  0  0  0  0  0
  1  2  1  0  0  0  0
  1 21  1  0  0  0  0
  1 22  1  0  0  0  0
  1 23  1  0  0  0  0
  2 19  1  0  0  0  0
  2  3  2  0  0  0  0
  3  4  1  0  0  0  0
  3 24  1  0  0  0  0
  4  5  1  0  0  0  0
  4 18  2  0  0  0  0
  5  6  1  0  0  0  0
  5 25  1  0  0  0  0
  5 26  1  0  0  0  0
  6  7  2  0  0  0  0
  6  8  1  0  0  0  0
  8  9  1  0  0  0  0
  8 27  1  0  0  0  0
  9 15  1  0  0  0  0
  9 10  1  0  0  0  0
  9 28  1  0  0  0  0
 10 14  1  0  0  0  0
 10 11  1  0  0  0  0
 10 29  1  0  0  0  0
 11 12  1  0  0  0  0
 11 30  1  0  0  0  0
 11 31  1  0  0  0  0
 12 13  1  0  0  0  0
 12 32  1  0  0  0  0
 12 33  1  0  0  0  0
 13 14  1  0  0  0  0
 13 15  1  0  0  0  0
 13 34  1  0  0  0  0
 14 35  1  0  0  0  0
 14 36  1  0  0  0  0
 15 16  1  0  0  0  0
 15 37  1  0  0  0  0
 16 17  1  0  0  0  0
 16 38  1  0  0  0  0
 16 39  1  0  0  0  0
 17 40  1  0  0  0  0
 18 19  1  0  0  0  0
 19 20  1  0  0  0  0
M  END
> <s_m_source_file>
AV-unprocessed.smi

> <i_m_source_file_index>
2881

> <i_lp_mmshare_version>
43012

> <i_f3d_flags>
0

> <s_epik_input>
W0NIM11jMVtjSF1jKG5bbkhdMSlbQ0gyXUMoPU8pW05IXVtDQEhdKFtDQEBIXTIzKVtDQEhdKFtDSDJdW09IXSlbQ0BASF0oW0NIMl0zKVtDSDJdW0NIMl0y

> <s_epik_cmdline>
J2VwaWtfcHl0aG9uJywgJy1waCcsICc3LjAnLCAnLXRuJywgJzgnLCAnLW1hJywgJzIwMCcsICctbWV0YWxfYmluZGluZycsICctaW1hZScsICc8aW5maWxlLm1hZT4nLCAnLW9tYWUnLCAnPG91dGZpbGUubWFlPic=

> <r_lp_tautomer_probability>
0.5

> <r_epik_Ionization_Penalty>
9.4349e-05

> <r_epik_Ionization_Penalty_Charging>
0

> <r_epik_Ionization_Penalty_Neutral>
9.4349e-05

> <r_epik_State_Penalty>
0.41068

> <r_epik_Charging_Adjusted_Penalty>
0.41068

> <i_epik_Tot_Q>
0

> <i_epik_Tot_abs_Q>
0

> <r_epik_Metal_State_Penalty>
0.4107

> <b_epik_Metal_Only>
0

> <s_lp_Force_Field>
OPLS_2005

> <r_lp_Energy>
47.9612

> <b_lp_Chiralities_Consistent>
1

> <s_lp_Variant>
AV-unprocessed.smi:2881-6

> <Gold.Version>
5.8.1

> <Gold.Id.Protein>
6NUR|6NUR_protein|mol2

> <Gold.PLP.Fitness>
40.1867

> <Gold.PLP.PLP>
-35.2718

> <Gold.PLP.part.hbond>
-2.8571

> <Gold.PLP.part.metal>
0.0000

> <Gold.PLP.part.buried>
-6.5861

> <Gold.PLP.part.nonpolar>
-25.5060

> <Gold.PLP.part.repulsive>
0.3476

> <Gold.PLP.ligand.clash>
0.0000

> <Gold.PLP.ligand.torsion>
0.5405

> <Gold.PLP.Chemscore.Hbond>
1.9920

> <Gold.PLP.Chemscore.CHOScore>
0.0000

> <Gold.PLP.Chemscore.Metal>
0.0000

> <Gold.Chemscore.Hbonds>
donor molecule, donor type, donor heavy atom, donor atom, acceptor molecule, acceptor atom, score
      L1  H    19    20       P1  7957  1.00
      P1  H  7997  8009       L1     7  0.71

> <Gold.PLP.Chemscore.Internal.Correction>
0.0198

> <Gold.Rescore>
     Score         DG    S(hbond)    S(metal)    S(lipo)     H(rot)  DE(clash)    DE(int)     intcor
     17.01     -19.24       1.80        0.00     116.11       2.28       0.81       1.42       ----

> <Gold.Chemscore.Fitness>
17.0094

> <Gold.Chemscore.DG>
-19.2361

> <Gold.Chemscore.ZeroCoef>
-5.4800

> <Gold.Chemscore.Hbond>
1.7954

> <Gold.Chemscore.Metal>
0.0000

> <Gold.Chemscore.Lipo>
116.1077

> <Gold.Chemscore.Internal_Hbond>
0.0000

> <Gold.Chemscore.DEClash>
0.8095

> <Gold.Chemscore.DEInternal>
1.4173

> <Gold.Chemscore.Rot>
2.2755

> <Gold.Chemscore.Internal.Correction>
   9.000000E+99

> <Gold.Chemscore.Hbonds>
donor molecule, donor type, donor heavy atom, donor atom, acceptor molecule, acceptor atom, score
      L1  H    19    20       P1  7957  0.97
      P1  H  7997  8009       L1     7  0.68

> <Gold.Chemscore.Hbond.Weighted>
-5.9967

> <Gold.Chemscore.Metal.Weighted>
-0.0000

> <Gold.Chemscore.Lipo.Weighted>
-13.5846

> <Gold.Chemscore.Internal_Hbond.Weighted>
0.0000

> <Gold.Chemscore.DEClash.Weighted>
0.8095

> <Gold.Chemscore.DEInternal.Weighted>
1.4173

> <Gold.Chemscore.Rot.Weighted>
5.8252

> <Gold.Chemscore.Internal.Correction.Weighted>
   9.000000E+99

> <Gold.Protein.RotatedTorsions>
[ 6907 6896 6895 6894 ] final  -99.92 input  -60.11 | X-H torsion
[ 7974 7965 7964 7962 ] final   59.49 input  175.53 | X-H torsion
[ 8008 7997 7996 7995 ] final -179.05 input   59.86 | X-H torsion
[ 10167 10162 10161 10158 ] final   -2.65 input  -65.29 | X-H torsion
[ 10718 10713 10712 10709 ] final  -30.17 input   66.30 | X-H torsion
[ 10763 10752 10751 10750 ] final   58.11 input  -60.55 | X-H torsion
[ 11005 11000 10999 10996 ] final  148.55 input  -57.11 | X-H torsion

> <Gold.Protein.ActiveResidues>
 VAL166  LYS551  ARG553  GLY616  TRP617  ASP618  TYR619  PRO620  LYS621  CYS622 
 ASP623  PHE694  ASN695  SER759  ASP760  ASP761  ALA762  ILE779  LEU786  VAL792 
 PHE793  MET794  SER795  GLU796  ALA797  LYS798  CYS799  TRP800  GLU811  SER814 

> <Gold.Protein.RotatedAtoms>
  150.7097  134.0966  159.3950 H   0  0  0  0  0  0  0  0  0  0  0  0  # atno 6907 bound_to 6896
  151.8952  135.0398  160.0510 H   0  0  0  0  0  0  0  0  0  0  0  0  # atno 6908 bound_to 6896
  152.2459  133.5139  159.5334 H   0  0  0  0  0  0  0  0  0  0  0  0  # atno 6909 bound_to 6896
  145.9065  139.3621  143.0561 H   0  0  0  0  0  0  0  0  0  0  0  0  # atno 7974 bound_to 7965
  156.0260  140.1271  157.0308 H   0  0  0  0  0  0  0  0  0  0  0  0  # atno 8008 bound_to 7997
  154.4330  140.1059  156.6101 H   0  0  0  0  0  0  0  0  0  0  0  0  # atno 8009 bound_to 7997
  155.5876  140.3469  155.4560 H   0  0  0  0  0  0  0  0  0  0  0  0  # atno 8010 bound_to 7997
  140.6859  143.6632  150.8248 H   0  0  0  0  0  0  0  0  0  0  0  0  # atno 10167 bound_to 10162
  156.4032  130.4394  149.7307 H   0  0  0  0  0  0  0  0  0  0  0  0  # atno 10718 bound_to 10713
  152.9864  135.5618  154.5500 H   0  0  0  0  0  0  0  0  0  0  0  0  # atno 10763 bound_to 10752
  154.4938  135.2794  155.1477 H   0  0  0  0  0  0  0  0  0  0  0  0  # atno 10764 bound_to 10752
  154.2936  135.6321  153.5448 H   0  0  0  0  0  0  0  0  0  0  0  0  # atno 10765 bound_to 10752
  140.0969  134.9007  157.1737 H   0  0  0  0  0  0  0  0  0  0  0  0  # atno 11005 bound_to 11000
  145.8725  140.9411  143.0643 LP  0  0  0  0  0  0  0  0  0  0  0  0  # atno 17320 bound_to 7965
  144.6740  140.0673  143.7474 LP  0  0  0  0  0  0  0  0  0  0  0  0  # atno 17321 bound_to 7965
  140.0339  143.5415  152.2748 LP  0  0  0  0  0  0  0  0  0  0  0  0  # atno 17342 bound_to 10162
  139.6218  144.7630  151.2725 LP  0  0  0  0  0  0  0  0  0  0  0  0  # atno 17343 bound_to 10162
  156.4315  130.7817  151.2837 LP  0  0  0  0  0  0  0  0  0  0  0  0  # atno 17370 bound_to 10713
  157.7504  131.0152  150.3497 LP  0  0  0  0  0  0  0  0  0  0  0  0  # atno 17371 bound_to 10713
  140.3274  134.2848  155.7234 LP  0  0  0  0  0  0  0  0  0  0  0  0  # atno 17394 bound_to 11000
  141.2094  133.7748  156.9995 LP  0  0  0  0  0  0  0  0  0  0  0  0  # atno 17395 bound_to 11000

$$$$
