AV-unprocessed.smi:2736|AV-procd|sdf|10546|dock4
  -GOLD-   2272014593D 1   1.00000     0.00000
 Structure written by MMmdl.
 38 40  0  0  0  0  0  0  0  0  1 V2000
  154.9164  139.4901  159.7220 C   0  0  0  0  0  0  0  0  0  0  0  0
  153.8107  140.4617  159.6284 N   0  0  0  0  0  0  0  0  0  0  0  0
  152.9565  140.3714  158.5608 C   0  0  0  0  0  0  0  0  0  0  0  0
  153.0415  139.5335  157.6624 O   0  0  0  0  0  0  0  0  0  0  0  0
  151.8948  141.3845  158.5616 C   0  0  0  0  0  0  0  0  0  0  0  0
  151.7752  142.3275  159.5287 C   0  0  0  0  0  0  0  0  0  0  0  0
  150.6929  143.1658  159.2850 N   0  0  0  0  0  0  0  0  0  0  0  0
  150.2045  142.6686  158.1486 C   0  0  0  0  0  0  0  0  0  0  0  0
  150.8639  141.6044  157.6481 N   0  0  0  0  0  0  0  0  0  0  0  0
  150.5285  140.8935  156.4233 C   0  0  0  0  0  0  0  0  0  0  0  0
  149.3434  141.5323  155.6714 C   0  0  1  0  0  0  0  0  0  0  0  0
  149.7691  142.7012  154.9959 O   0  0  0  0  0  0  0  0  0  0  0  0
  148.6725  140.5230  154.7424 C   0  0  0  0  0  0  0  0  0  0  0  0
  149.1763  139.2043  154.6520 C   0  0  0  0  0  0  0  0  0  0  0  0
  148.5683  138.2602  153.8029 C   0  0  0  0  0  0  0  0  0  0  0  0
  147.4447  138.6226  153.0389 C   0  0  0  0  0  0  0  0  0  0  0  0
  146.9270  139.9276  153.1303 C   0  0  0  0  0  0  0  0  0  0  0  0
  147.5307  140.8769  153.9793 C   0  0  0  0  0  0  0  0  0  0  0  0
  146.8372  142.4587  154.0685 Cl  0  0  0  0  0  0  0  0  0  0  0  0
  152.7182  142.3321  160.5890 N   0  0  0  0  0  0  0  0  0  0  0  0
  152.6068  143.3485  161.6391 C   0  0  0  0  0  0  0  0  0  0  0  0
  153.7322  141.4083  160.6352 C   0  0  0  0  0  0  0  0  0  0  0  0
  154.5530  141.4301  161.5570 O   0  0  0  0  0  0  0  0  0  0  0  0
  154.8940  138.6973  158.9738 H   0  0  0  0  0  0  0  0  0  0  0  0
  154.9105  138.9903  160.6921 H   0  0  0  0  0  0  0  0  0  0  0  0
  155.8749  140.0003  159.6136 H   0  0  0  0  0  0  0  0  0  0  0  0
  149.3397  143.0943  157.6612 H   0  0  0  0  0  0  0  0  0  0  0  0
  151.4080  140.8243  155.7843 H   0  0  0  0  0  0  0  0  0  0  0  0
  150.2797  139.8668  156.6950 H   0  0  0  0  0  0  0  0  0  0  0  0
  148.6107  141.8795  156.3994 H   0  0  0  0  0  0  0  0  0  0  0  0
  149.6405  143.4419  155.5687 H   0  0  0  0  0  0  0  0  0  0  0  0
  150.0336  138.9043  155.2367 H   0  0  0  0  0  0  0  0  0  0  0  0
  148.9638  137.2571  153.7396 H   0  0  0  0  0  0  0  0  0  0  0  0
  146.9769  137.8992  152.3875 H   0  0  0  0  0  0  0  0  0  0  0  0
  146.0592  140.1999  152.5478 H   0  0  0  0  0  0  0  0  0  0  0  0
  152.5164  142.8803  162.6202 H   0  0  0  0  0  0  0  0  0  0  0  0
  151.7394  143.9957  161.5106 H   0  0  0  0  0  0  0  0  0  0  0  0
  153.4908  143.9877  161.6458 H   0  0  0  0  0  0  0  0  0  0  0  0
  1  2  1  0  0  0  0
  1 24  1  0  0  0  0
  1 25  1  0  0  0  0
  1 26  1  0  0  0  0
  2 22  1  0  0  0  0
  2  3  1  0  0  0  0
  3  4  2  0  0  0  0
  3  5  1  0  0  0  0
  5  9  1  0  0  0  0
  5  6  2  0  0  0  0
  6  7  1  0  0  0  0
  6 20  1  0  0  0  0
  7  8  2  0  0  0  0
  8  9  1  0  0  0  0
  8 27  1  0  0  0  0
  9 10  1  0  0  0  0
 10 11  1  0  0  0  0
 10 28  1  0  0  0  0
 10 29  1  0  0  0  0
 11 12  1  0  0  0  0
 11 13  1  0  0  0  0
 11 30  1  0  0  0  0
 12 31  1  0  0  0  0
 13 18  1  0  0  0  0
 13 14  2  0  0  0  0
 14 15  1  0  0  0  0
 14 32  1  0  0  0  0
 15 16  2  0  0  0  0
 15 33  1  0  0  0  0
 16 17  1  0  0  0  0
 16 34  1  0  0  0  0
 17 18  2  0  0  0  0
 17 35  1  0  0  0  0
 18 19  1  0  0  0  0
 20 21  1  0  0  0  0
 20 22  1  0  0  0  0
 21 36  1  0  0  0  0
 21 37  1  0  0  0  0
 21 38  1  0  0  0  0
 22 23  2  0  0  0  0
M  END
> <s_m_source_file>
AV-unprocessed.smi

> <i_m_source_file_index>
2736

> <i_lp_mmshare_version>
43012

> <i_f3d_flags>
0

> <s_epik_input>
Tz1jMW4oW0NIM10pYyg9TyluKFtDSDNdKWMoYzEyKW5bY0hdbjJbQ0gyXVtDQEhdKFtPSF0pYzNbY0hdW2NIXVtjSF1bY0hdYzNDbA==

> <s_epik_cmdline>
J2VwaWtfcHl0aG9uJywgJy1waCcsICc3LjAnLCAnLXRuJywgJzgnLCAnLW1hJywgJzIwMCcsICctbWV0YWxfYmluZGluZycsICctaW1hZScsICc8aW5maWxlLm1hZT4nLCAnLW9tYWUnLCAnPG91dGZpbGUubWFlPic=

> <r_lp_tautomer_probability>
1

> <r_epik_Ionization_Penalty>
1.63404e-06

> <r_epik_Ionization_Penalty_Charging>
3.74189e-09

> <r_epik_Ionization_Penalty_Neutral>
1.63029e-06

> <r_epik_State_Penalty>
-0

> <r_epik_Charging_Adjusted_Penalty>
3.74189e-09

> <i_epik_Tot_Q>
0

> <i_epik_Tot_abs_Q>
0

> <r_epik_Metal_State_Penalty>
-0

> <b_epik_Metal_Only>
0

> <s_lp_Force_Field>
OPLS_2005

> <r_lp_Energy>
36.7388

> <b_lp_Chiralities_Consistent>
1

> <s_lp_Variant>
AV-unprocessed.smi:2736-2

> <Gold.Version>
5.8.1

> <Gold.Id.Protein>
6NUR|6NUR_protein|mol2

> <Gold.PLP.Fitness>
48.4374

> <Gold.PLP.PLP>
-40.2627

> <Gold.PLP.part.hbond>
-3.7048

> <Gold.PLP.part.metal>
0.0000

> <Gold.PLP.part.buried>
2.0052

> <Gold.PLP.part.nonpolar>
-38.9383

> <Gold.PLP.part.repulsive>
0.0674

> <Gold.PLP.ligand.clash>
0.0000

> <Gold.PLP.ligand.torsion>
0.1973

> <Gold.PLP.Chemscore.Hbond>
1.8480

> <Gold.PLP.Chemscore.CHOScore>
0.9986

> <Gold.PLP.Chemscore.Metal>
0.0000

> <Gold.Chemscore.Hbonds>
donor molecule, donor type, donor heavy atom, donor atom, acceptor molecule, acceptor atom, score
      L1  H    12    31       P1  8028  0.72
      P1  H  7997  8010       L1     4  1.00
      L1  C     8    27       P1  8028  0.81

> <Gold.PLP.Chemscore.Internal.Correction>
0.0295

> <Gold.Rescore>
     Score         DG    S(hbond)    S(metal)    S(lipo)     H(rot)  DE(clash)    DE(int)     intcor
     10.84     -13.42       1.12        0.00      82.86       2.15       1.66       0.92       ----

> <Gold.Chemscore.Fitness>
10.8373

> <Gold.Chemscore.DG>
-13.4161

> <Gold.Chemscore.ZeroCoef>
-5.4800

> <Gold.Chemscore.Hbond>
1.1196

> <Gold.Chemscore.Metal>
0.0000

> <Gold.Chemscore.Lipo>
82.8551

> <Gold.Chemscore.Internal_Hbond>
0.0000

> <Gold.Chemscore.DEClash>
1.6559

> <Gold.Chemscore.DEInternal>
0.9229

> <Gold.Chemscore.Rot>
2.1474

> <Gold.Chemscore.Internal.Correction>
   9.000000E+99

> <Gold.Chemscore.Hbonds>
donor molecule, donor type, donor heavy atom, donor atom, acceptor molecule, acceptor atom, score
      L1  H    12    31       P1  8028  0.70
      P1  H  7997  8010       L1     4  0.52

> <Gold.Chemscore.Hbond.Weighted>
-3.7394

> <Gold.Chemscore.Metal.Weighted>
-0.0000

> <Gold.Chemscore.Lipo.Weighted>
-9.6940

> <Gold.Chemscore.Internal_Hbond.Weighted>
0.0000

> <Gold.Chemscore.DEClash.Weighted>
1.6559

> <Gold.Chemscore.DEInternal.Weighted>
0.9229

> <Gold.Chemscore.Rot.Weighted>
5.4974

> <Gold.Chemscore.Internal.Correction.Weighted>
   9.000000E+99

> <Gold.Protein.RotatedTorsions>
[ 6907 6896 6895 6894 ] final   47.20 input  -60.11 | X-H torsion
[ 7974 7965 7964 7962 ] final   -7.53 input  175.53 | X-H torsion
[ 8008 7997 7996 7995 ] final   65.20 input   59.86 | X-H torsion
[ 10167 10162 10161 10158 ] final  158.08 input  -65.29 | X-H torsion
[ 10718 10713 10712 10709 ] final -106.70 input   66.30 | X-H torsion
[ 10763 10752 10751 10750 ] final   45.14 input  -60.55 | X-H torsion
[ 11005 11000 10999 10996 ] final  147.73 input  -57.11 | X-H torsion

> <Gold.Protein.ActiveResidues>
 VAL166  LYS551  ARG553  GLY616  TRP617  ASP618  TYR619  PRO620  LYS621  CYS622 
 ASP623  PHE694  ASN695  SER759  ASP760  ASP761  ALA762  ILE779  LEU786  VAL792 
 PHE793  MET794  SER795  GLU796  ALA797  LYS798  CYS799  TRP800  GLU811  SER814 

> <Gold.Protein.RotatedAtoms>
  152.2653  134.7991  160.0423 H   0  0  0  0  0  0  0  0  0  0  0  0  # atno 6907 bound_to 6896
  151.8623  133.3454  159.3716 H   0  0  0  0  0  0  0  0  0  0  0  0  # atno 6908 bound_to 6896
  150.7131  134.5122  159.5657 H   0  0  0  0  0  0  0  0  0  0  0  0  # atno 6909 bound_to 6896
  146.2304  140.2334  142.8341 H   0  0  0  0  0  0  0  0  0  0  0  0  # atno 7974 bound_to 7965
  155.6579  140.3497  155.4772 H   0  0  0  0  0  0  0  0  0  0  0  0  # atno 8008 bound_to 7997
  155.9793  140.1171  157.0764 H   0  0  0  0  0  0  0  0  0  0  0  0  # atno 8009 bound_to 7997
  154.4187  140.1141  156.5399 H   0  0  0  0  0  0  0  0  0  0  0  0  # atno 8010 bound_to 7997
  139.4825  144.4858  151.8379 H   0  0  0  0  0  0  0  0  0  0  0  0  # atno 10167 bound_to 10162
  156.0402  130.5626  150.7718 H   0  0  0  0  0  0  0  0  0  0  0  0  # atno 10718 bound_to 10713
  152.9829  135.6049  154.3388 H   0  0  0  0  0  0  0  0  0  0  0  0  # atno 10763 bound_to 10752
  154.3086  135.2771  155.2578 H   0  0  0  0  0  0  0  0  0  0  0  0  # atno 10764 bound_to 10752
  154.4798  135.5920  153.6437 H   0  0  0  0  0  0  0  0  0  0  0  0  # atno 10765 bound_to 10752
  140.0901  134.9046  157.1637 H   0  0  0  0  0  0  0  0  0  0  0  0  # atno 11005 bound_to 11000
  144.9540  140.8208  143.5554 LP  0  0  0  0  0  0  0  0  0  0  0  0  # atno 17320 bound_to 7965
  145.2297  139.2120  143.5049 LP  0  0  0  0  0  0  0  0  0  0  0  0  # atno 17321 bound_to 7965
  140.4338  144.2080  150.5888 LP  0  0  0  0  0  0  0  0  0  0  0  0  # atno 17342 bound_to 10162
  140.4753  143.2398  151.9032 LP  0  0  0  0  0  0  0  0  0  0  0  0  # atno 17343 bound_to 10162
  157.5210  131.0931  151.0079 LP  0  0  0  0  0  0  0  0  0  0  0  0  # atno 17370 bound_to 10713
  157.0409  130.5749  149.5356 LP  0  0  0  0  0  0  0  0  0  0  0  0  # atno 17371 bound_to 10713
  140.3365  134.2752  155.7219 LP  0  0  0  0  0  0  0  0  0  0  0  0  # atno 17394 bound_to 11000
  141.2075  133.7804  157.0115 LP  0  0  0  0  0  0  0  0  0  0  0  0  # atno 17395 bound_to 11000

$$$$
