AV-unprocessed.smi:1483|AV-procd|sdf|5990|dock4
  -GOLD-   22720 6 83D 1   1.00000     0.00000
 Structure written by MMmdl.
 49 50  0  0  0  0  0  0  0  0  2 V2000
  153.4052  140.9571  159.4497 C   0  0  0  0  0  0  0  0  0  0  0  0
  152.5656  140.5610  158.2532 C   0  0  0  0  0  0  0  0  0  0  0  0
  151.4236  141.3070  157.8937 C   0  0  0  0  0  0  0  0  0  0  0  0
  150.6901  140.9076  156.7598 C   0  0  0  0  0  0  0  0  0  0  0  0
  151.1265  139.7826  156.0295 C   0  0  0  0  0  0  0  0  0  0  0  0
  150.4188  139.3599  154.7506 C   0  0  0  0  0  0  0  0  0  0  0  0
  149.2921  140.3487  154.4404 C   0  0  0  0  0  0  0  0  0  0  0  0
  149.5500  141.4944  154.0742 O   0  0  0  0  0  0  0  0  0  0  0  0
  148.0455  139.8628  154.5423 N   0  0  0  0  0  0  0  0  0  0  0  0
  146.8236  140.4782  154.0319 C   0  0  2  0  0  0  0  0  0  0  0  0
  145.6073  139.6703  154.5124 C   0  0  0  0  0  0  0  0  0  0  0  0
  145.5880  138.2537  153.9018 C   0  0  0  0  0  0  0  0  0  0  0  0
  145.6316  138.2845  152.4152 N   0  3  2  0  0  0  0  0  0  0  0  0
  145.5676  136.9157  151.8382 C   0  0  0  0  0  0  0  0  0  0  0  0
  144.4822  136.0260  152.4819 C   0  0  0  0  0  0  0  0  0  0  0  0
  144.2306  134.7483  151.6644 C   0  0  0  0  0  0  0  0  0  0  0  0
  143.1769  136.8154  152.6601 C   0  0  0  0  0  0  0  0  0  0  0  0
  146.7822  139.0772  151.9013 C   0  0  0  0  0  0  0  0  0  0  0  0
  146.8013  140.5003  152.4902 C   0  0  0  0  0  0  0  0  0  0  0  0
  152.2723  139.0951  156.4856 C   0  0  0  0  0  0  0  0  0  0  0  0
  152.9874  139.4774  157.5649 N   0  0  0  0  0  0  0  0  0  0  0  0
  152.8446  141.6048  160.1243 H   0  0  0  0  0  0  0  0  0  0  0  0
  154.2964  141.4925  159.1219 H   0  0  0  0  0  0  0  0  0  0  0  0
  153.7191  140.0761  160.0108 H   0  0  0  0  0  0  0  0  0  0  0  0
  151.1193  142.1707  158.4669 H   0  0  0  0  0  0  0  0  0  0  0  0
  149.8216  141.4678  156.4454 H   0  0  0  0  0  0  0  0  0  0  0  0
  151.1236  139.3319  153.9188 H   0  0  0  0  0  0  0  0  0  0  0  0
  150.0151  138.3531  154.8656 H   0  0  0  0  0  0  0  0  0  0  0  0
  147.9541  138.9198  154.8912 H   0  0  0  0  0  0  0  0  0  0  0  0
  146.7591  141.4968  154.4181 H   0  0  0  0  0  0  0  0  0  0  0  0
  145.6044  139.6055  155.6012 H   0  0  0  0  0  0  0  0  0  0  0  0
  144.6911  140.1951  154.2377 H   0  0  0  0  0  0  0  0  0  0  0  0
  146.4289  137.6671  154.2757 H   0  0  0  0  0  0  0  0  0  0  0  0
  144.6821  137.7407  154.2270 H   0  0  0  0  0  0  0  0  0  0  0  0
  145.4121  136.9914  150.7605 H   0  0  0  0  0  0  0  0  0  0  0  0
  146.5316  136.4211  151.9680 H   0  0  0  0  0  0  0  0  0  0  0  0
  144.8023  135.7286  153.4797 H   0  0  0  0  0  0  0  0  0  0  0  0
  143.9001  134.9835  150.6523 H   0  0  0  0  0  0  0  0  0  0  0  0
  143.4607  134.1312  152.1288 H   0  0  0  0  0  0  0  0  0  0  0  0
  145.1310  134.1386  151.5878 H   0  0  0  0  0  0  0  0  0  0  0  0
  142.7791  137.1489  151.7012 H   0  0  0  0  0  0  0  0  0  0  0  0
  143.3329  137.6983  153.2806 H   0  0  0  0  0  0  0  0  0  0  0  0
  142.4116  136.2078  153.1441 H   0  0  0  0  0  0  0  0  0  0  0  0
  147.7141  138.5594  152.1323 H   0  0  0  0  0  0  0  0  0  0  0  0
  146.7327  139.1543  150.8162 H   0  0  0  0  0  0  0  0  0  0  0  0
  145.9180  141.0424  152.1497 H   0  0  0  0  0  0  0  0  0  0  0  0
  147.6564  141.0518  152.0983 H   0  0  0  0  0  0  0  0  0  0  0  0
  152.6473  138.2364  155.9482 H   0  0  0  0  0  0  0  0  0  0  0  0
  144.7913  138.7617  152.1209 H   0  0  0  0  0  0  0  0  0  0  0  0
  1  2  1  0  0  0  0
  1 22  1  0  0  0  0
  1 23  1  0  0  0  0
  1 24  1  0  0  0  0
  2 21  1  0  0  0  0
  2  3  2  0  0  0  0
  3  4  1  0  0  0  0
  3 25  1  0  0  0  0
  4  5  2  0  0  0  0
  4 26  1  0  0  0  0
  5  6  1  0  0  0  0
  5 20  1  0  0  0  0
  6  7  1  0  0  0  0
  6 27  1  0  0  0  0
  6 28  1  0  0  0  0
  7  8  2  0  0  0  0
  7  9  1  0  0  0  0
  9 10  1  0  0  0  0
  9 29  1  0  0  0  0
 10 19  1  0  0  0  0
 10 11  1  0  0  0  0
 10 30  1  0  0  0  0
 11 12  1  0  0  0  0
 11 31  1  0  0  0  0
 11 32  1  0  0  0  0
 12 13  1  0  0  0  0
 12 33  1  0  0  0  0
 12 34  1  0  0  0  0
 13 14  1  0  0  0  0
 13 18  1  0  0  0  0
 13 49  1  0  0  0  0
 14 15  1  0  0  0  0
 14 35  1  0  0  0  0
 14 36  1  0  0  0  0
 15 16  1  0  0  0  0
 15 17  1  0  0  0  0
 15 37  1  0  0  0  0
 16 38  1  0  0  0  0
 16 39  1  0  0  0  0
 16 40  1  0  0  0  0
 17 41  1  0  0  0  0
 17 42  1  0  0  0  0
 17 43  1  0  0  0  0
 18 19  1  0  0  0  0
 18 44  1  0  0  0  0
 18 45  1  0  0  0  0
 19 46  1  0  0  0  0
 19 47  1  0  0  0  0
 20 21  2  0  0  0  0
 20 48  1  0  0  0  0
M  CHG  1  13   1
M  END
> <s_m_source_file>
AV-unprocessed.smi

> <i_m_source_file_index>
1483

> <i_lp_mmshare_version>
43012

> <i_f3d_flags>
0

> <s_epik_input>
W0NIM11jMVtjSF1bY0hdYyhbY0hdbjEpW0NIMl1DKD1PKVtOSF1bQ0hdMltDSDJdW0NIMl1OKFtDSDJdW0NIMl0yKVtDSDJdW0NIXShbQ0gzXSlbQ0gzXQ==

> <s_epik_cmdline>
J2VwaWtfcHl0aG9uJywgJy1waCcsICc3LjAnLCAnLXRuJywgJzgnLCAnLW1hJywgJzIwMCcsICctbWV0YWxfYmluZGluZycsICctaW1hZScsICc8aW5maWxlLm1hZT4nLCAnLW9tYWUnLCAnPG91dGZpbGUubWFlPic=

> <r_epik_Ionization_Penalty>
0.0186701

> <r_epik_Ionization_Penalty_Charging>
0.00405837

> <r_epik_Ionization_Penalty_Neutral>
0.0146117

> <r_epik_State_Penalty>
0.0114383

> <r_epik_Charging_Adjusted_Penalty>
0.0154967

> <i_epik_Tot_Q>
1

> <i_epik_Tot_abs_Q>
1

> <r_epik_Metal_State_Penalty>
0.0111573

> <b_epik_Metal_Only>
0

> <s_lp_Force_Field>
OPLS_2005

> <r_lp_Energy>
15.6664

> <b_lp_Chiralities_Consistent>
1

> <s_lp_Variant>
AV-unprocessed.smi:1483-2

> <Gold.Version>
5.8.1

> <Gold.Id.Protein>
6NUR|6NUR_protein|mol2

> <Gold.PLP.Fitness>
43.5643

> <Gold.PLP.PLP>
-33.7802

> <Gold.PLP.part.hbond>
-4.6310

> <Gold.PLP.part.metal>
0.0000

> <Gold.PLP.part.buried>
3.5220

> <Gold.PLP.part.nonpolar>
-32.1491

> <Gold.PLP.part.repulsive>
0.2464

> <Gold.PLP.ligand.clash>
0.0000

> <Gold.PLP.ligand.torsion>
0.3082

> <Gold.PLP.Chemscore.Hbond>
3.4273

> <Gold.PLP.Chemscore.CHOScore>
0.0000

> <Gold.PLP.Chemscore.Metal>
0.0000

> <Gold.Chemscore.Hbonds>
donor molecule, donor type, donor heavy atom, donor atom, acceptor molecule, acceptor atom, score
      L1  H    13    49       P1 10175  1.66
      P1  H  7989  7998       L1     8  0.08
      P1  H  7997  8008       L1    21  1.00
      P1  H  8011  8017       L1     8  0.66

> <Gold.PLP.Chemscore.Internal.Correction>
0.1185

> <Gold.Rescore>
     Score         DG    S(hbond)    S(metal)    S(lipo)     H(rot)  DE(clash)    DE(int)     intcor
     17.53     -19.51       2.09        0.00      92.57       1.47       1.04       0.94       ----

> <Gold.Chemscore.Fitness>
17.5321

> <Gold.Chemscore.DG>
-19.5132

> <Gold.Chemscore.ZeroCoef>
-5.4800

> <Gold.Chemscore.Hbond>
2.0874

> <Gold.Chemscore.Metal>
0.0000

> <Gold.Chemscore.Lipo>
92.5669

> <Gold.Chemscore.Internal_Hbond>
0.0000

> <Gold.Chemscore.DEClash>
1.0384

> <Gold.Chemscore.DEInternal>
0.9427

> <Gold.Chemscore.Rot>
1.4723

> <Gold.Chemscore.Internal.Correction>
   9.000000E+99

> <Gold.Chemscore.Hbonds>
donor molecule, donor type, donor heavy atom, donor atom, acceptor molecule, acceptor atom, score
      L1  H    13    49       P1 10175  0.76
      P1  H  7989  7998       L1     8  0.01
      P1  H  7997  8008       L1    21  0.14
      P1  H  8011  8017       L1     8  0.64

> <Gold.Chemscore.Hbond.Weighted>
-6.9720

> <Gold.Chemscore.Metal.Weighted>
-0.0000

> <Gold.Chemscore.Lipo.Weighted>
-10.8303

> <Gold.Chemscore.Internal_Hbond.Weighted>
0.0000

> <Gold.Chemscore.DEClash.Weighted>
1.0384

> <Gold.Chemscore.DEInternal.Weighted>
0.9427

> <Gold.Chemscore.Rot.Weighted>
3.7691

> <Gold.Chemscore.Internal.Correction.Weighted>
   9.000000E+99

> <Gold.Protein.RotatedTorsions>
[ 6907 6896 6895 6894 ] final  102.34 input  -60.11 | X-H torsion
[ 7974 7965 7964 7962 ] final -124.83 input  175.53 | X-H torsion
[ 8008 7997 7996 7995 ] final  -73.52 input   59.86 | X-H torsion
[ 10167 10162 10161 10158 ] final   82.48 input  -65.29 | X-H torsion
[ 10718 10713 10712 10709 ] final  157.99 input   66.30 | X-H torsion
[ 10763 10752 10751 10750 ] final   71.06 input  -60.55 | X-H torsion
[ 11005 11000 10999 10996 ] final  174.07 input  -57.11 | X-H torsion

> <Gold.Protein.ActiveResidues>
 VAL166  LYS551  ARG553  GLY616  TRP617  ASP618  TYR619  PRO620  LYS621  CYS622 
 ASP623  PHE694  ASN695  SER759  ASP760  ASP761  ALA762  ILE779  LEU786  VAL792 
 PHE793  MET794  SER795  GLU796  ALA797  LYS798  CYS799  TRP800  GLU811  SER814 

> <Gold.Protein.RotatedAtoms>
  152.5326  133.9990  159.7885 H   0  0  0  0  0  0  0  0  0  0  0  0  # atno 6907 bound_to 6896
  151.0212  133.5867  159.2678 H   0  0  0  0  0  0  0  0  0  0  0  0  # atno 6908 bound_to 6896
  151.2906  135.0747  159.9256 H   0  0  0  0  0  0  0  0  0  0  0  0  # atno 6909 bound_to 6896
  145.0040  140.7846  143.4479 H   0  0  0  0  0  0  0  0  0  0  0  0  # atno 7974 bound_to 7965
  154.5254  140.0777  156.8249 H   0  0  0  0  0  0  0  0  0  0  0  0  # atno 8008 bound_to 7997
  155.3487  140.3411  155.4221 H   0  0  0  0  0  0  0  0  0  0  0  0  # atno 8009 bound_to 7997
  156.1726  140.1625  156.8407 H   0  0  0  0  0  0  0  0  0  0  0  0  # atno 8010 bound_to 7997
  139.9284  144.6168  150.8370 H   0  0  0  0  0  0  0  0  0  0  0  0  # atno 10167 bound_to 10162
  157.1840  131.0639  151.2116 H   0  0  0  0  0  0  0  0  0  0  0  0  # atno 10718 bound_to 10713
  153.0377  135.5151  154.7536 H   0  0  0  0  0  0  0  0  0  0  0  0  # atno 10763 bound_to 10752
  154.6499  135.2923  155.0002 H   0  0  0  0  0  0  0  0  0  0  0  0  # atno 10764 bound_to 10752
  154.0890  135.6653  153.4902 H   0  0  0  0  0  0  0  0  0  0  0  0  # atno 10765 bound_to 10752
  140.3474  134.7225  157.4244 H   0  0  0  0  0  0  0  0  0  0  0  0  # atno 11005 bound_to 11000
  145.2114  139.2203  143.5141 LP  0  0  0  0  0  0  0  0  0  0  0  0  # atno 17320 bound_to 7965
  146.3457  140.1953  142.8589 LP  0  0  0  0  0  0  0  0  0  0  0  0  # atno 17321 bound_to 7965
  140.7644  143.3248  151.2541 LP  0  0  0  0  0  0  0  0  0  0  0  0  # atno 17342 bound_to 10162
  139.6803  143.9866  152.2804 LP  0  0  0  0  0  0  0  0  0  0  0  0  # atno 17343 bound_to 10162
  157.3925  130.7289  149.6708 LP  0  0  0  0  0  0  0  0  0  0  0  0  # atno 17370 bound_to 10713
  155.9720  130.4142  150.4123 LP  0  0  0  0  0  0  0  0  0  0  0  0  # atno 17371 bound_to 10713
  140.0731  134.5834  155.8620 LP  0  0  0  0  0  0  0  0  0  0  0  0  # atno 17394 bound_to 11000
  141.2022  133.6623  156.5991 LP  0  0  0  0  0  0  0  0  0  0  0  0  # atno 17395 bound_to 11000

$$$$
