AV-unprocessed.smi:112|AV-procd|sdf|1083|dock8
  -GOLD-   2262018173D 1   1.00000     0.00000
 Structure written by MMmdl.
 54 57  0  0  0  0  0  0  0  0  3 V2000
  149.1751  136.1568  158.6504 C   0  0  0  0  0  0  0  0  0  0  0  0
  150.0622  137.2300  158.0386 C   0  0  0  0  0  0  0  0  0  0  0  0
  149.7768  137.8070  156.8485 C   0  0  0  0  0  0  0  0  0  0  0  0
  150.5622  138.7861  156.2666 N   0  0  0  0  0  0  0  0  0  0  0  0
  150.1965  139.4328  154.9478 C   0  0  2  0  0  0  0  0  0  0  0  0
  149.5874  140.8231  155.1814 C   0  0  0  0  0  0  0  0  0  0  0  0
  148.3947  140.8286  154.2452 C   0  0  1  0  0  0  0  0  0  0  0  0
  148.7655  141.3073  152.9660 O   0  0  0  0  0  0  0  0  0  0  0  0
  148.0001  139.3468  154.2199 C   0  0  1  0  0  0  0  0  0  0  0  0
  147.1615  138.8691  153.0221 C   0  0  0  0  0  0  0  0  0  0  0  0
  147.9839  138.6879  151.8890 O   0  0  0  0  0  0  0  0  0  0  0  0
  149.2429  138.6540  154.2838 O   0  0  0  0  0  0  0  0  0  0  0  0
  151.7201  139.2366  156.9312 C   0  0  0  0  0  0  0  0  0  0  0  0
  152.4171  140.1312  156.4464 O   0  0  0  0  0  0  0  0  0  0  0  0
  152.0523  138.6468  158.1714 N   0  0  0  0  0  0  0  0  0  0  0  0
  153.2599  139.1265  158.8807 C   0  0  0  0  0  0  0  0  0  0  0  0
  152.9601  140.1634  159.9859 C   0  0  0  0  0  0  0  0  0  0  0  0
  152.0868  141.0089  159.7873 O   0  0  0  0  0  0  0  0  0  0  0  0
  153.6794  140.0924  161.1336 N   0  0  0  0  0  0  0  0  0  0  0  0
  154.7161  139.0752  161.3816 C   0  0  0  0  0  0  0  0  0  0  0  0
  155.2770  139.3619  162.7917 C   0  0  0  0  0  0  0  0  0  0  0  0
  154.4853  140.5565  163.2351 C   0  0  0  0  0  0  0  0  0  0  0  0
  154.6027  141.2329  164.4613 C   0  0  0  0  0  0  0  0  0  0  0  0
  153.7689  142.3520  164.7085 C   0  0  0  0  0  0  0  0  0  0  0  0
  153.8668  143.0893  165.9840 N   0  3  0  0  0  0  0  0  0  0  0  0
  154.6814  142.7051  166.8170 O   0  0  0  0  0  0  0  0  0  0  0  0
  153.1281  144.0539  166.1555 O   0  5  0  0  0  0  0  0  0  0  0  0
  152.8399  142.7539  163.7122 C   0  0  0  0  0  0  0  0  0  0  0  0
  152.7349  142.0619  162.4859 C   0  0  0  0  0  0  0  0  0  0  0  0
  153.5762  140.9509  162.2604 C   0  0  0  0  0  0  0  0  0  0  0  0
  151.2564  137.6446  158.7787 C   0  0  0  0  0  0  0  0  0  0  0  0
  151.5689  137.1724  159.8736 O   0  0  0  0  0  0  0  0  0  0  0  0
  148.3291  135.9132  158.0070 H   0  0  0  0  0  0  0  0  0  0  0  0
  148.7787  136.4919  159.6095 H   0  0  0  0  0  0  0  0  0  0  0  0
  149.7423  135.2399  158.8150 H   0  0  0  0  0  0  0  0  0  0  0  0
  148.8836  137.4790  156.3394 H   0  0  0  0  0  0  0  0  0  0  0  0
  151.1056  139.4452  154.3441 H   0  0  0  0  0  0  0  0  0  0  0  0
  149.2465  140.9036  156.2151 H   0  0  0  0  0  0  0  0  0  0  0  0
  150.3147  141.6135  154.9917 H   0  0  0  0  0  0  0  0  0  0  0  0
  147.5864  141.4545  154.6244 H   0  0  0  0  0  0  0  0  0  0  0  0
  149.1894  140.6057  152.4956 H   0  0  0  0  0  0  0  0  0  0  0  0
  147.4599  139.1218  155.1410 H   0  0  0  0  0  0  0  0  0  0  0  0
  146.6323  137.9426  153.2458 H   0  0  0  0  0  0  0  0  0  0  0  0
  146.4046  139.6151  152.7796 H   0  0  0  0  0  0  0  0  0  0  0  0
  148.7303  139.2629  151.9644 H   0  0  0  0  0  0  0  0  0  0  0  0
  153.8052  138.2897  159.3189 H   0  0  0  0  0  0  0  0  0  0  0  0
  153.9640  139.5599  158.1689 H   0  0  0  0  0  0  0  0  0  0  0  0
  154.2914  138.0713  161.3400 H   0  0  0  0  0  0  0  0  0  0  0  0
  155.5116  139.1422  160.6383 H   0  0  0  0  0  0  0  0  0  0  0  0
  155.1177  138.5240  163.4711 H   0  0  0  0  0  0  0  0  0  0  0  0
  156.3415  139.5977  162.7649 H   0  0  0  0  0  0  0  0  0  0  0  0
  155.3218  140.8945  165.1926 H   0  0  0  0  0  0  0  0  0  0  0  0
  152.1942  143.6035  163.8792 H   0  0  0  0  0  0  0  0  0  0  0  0
  152.0168  142.4012  161.7562 H   0  0  0  0  0  0  0  0  0  0  0  0
  1  2  1  0  0  0  0
  1 33  1  0  0  0  0
  1 34  1  0  0  0  0
  1 35  1  0  0  0  0
  2 31  1  0  0  0  0
  2  3  2  0  0  0  0
  3  4  1  0  0  0  0
  3 36  1  0  0  0  0
  4  5  1  0  0  0  0
  4 13  1  0  0  0  0
  5 12  1  0  0  0  0
  5  6  1  0  0  0  0
  5 37  1  0  0  0  0
  6  7  1  0  0  0  0
  6 38  1  0  0  0  0
  6 39  1  0  0  0  0
  7  8  1  0  0  0  0
  7  9  1  0  0  0  0
  7 40  1  0  0  0  0
  8 41  1  0  0  0  0
  9 10  1  0  0  0  0
  9 12  1  0  0  0  0
  9 42  1  0  0  0  0
 10 11  1  0  0  0  0
 10 43  1  0  0  0  0
 10 44  1  0  0  0  0
 11 45  1  0  0  0  0
 13 14  2  0  0  0  0
 13 15  1  0  0  0  0
 15 16  1  0  0  0  0
 15 31  1  0  0  0  0
 16 17  1  0  0  0  0
 16 46  1  0  0  0  0
 16 47  1  0  0  0  0
 17 18  2  0  0  0  0
 17 19  1  0  0  0  0
 19 30  1  0  0  0  0
 19 20  1  0  0  0  0
 20 21  1  0  0  0  0
 20 48  1  0  0  0  0
 20 49  1  0  0  0  0
 21 22  1  0  0  0  0
 21 50  1  0  0  0  0
 21 51  1  0  0  0  0
 22 30  2  0  0  0  0
 22 23  1  0  0  0  0
 23 24  2  0  0  0  0
 23 52  1  0  0  0  0
 24 25  1  0  0  0  0
 24 28  1  0  0  0  0
 25 26  2  0  0  0  0
 25 27  1  0  0  0  0
 28 29  2  0  0  0  0
 28 53  1  0  0  0  0
 29 30  1  0  0  0  0
 29 54  1  0  0  0  0
 31 32  2  0  0  0  0
M  CHG  1  25   1
M  CHG  1  27  -1
M  END
> <s_m_source_file>
AV-unprocessed.smi

> <i_m_source_file_index>
112

> <i_lp_mmshare_version>
43012

> <i_f3d_flags>
0

> <s_epik_input>
W09IXVtDSDJdW0NAQEhdKE8xKVtDQEhdKFtPSF0pW0NIMl1bQ0BIXTFuKFtjSF1jMltDSDNdKWMoPU8pbihjMj1PKVtDSDJdQyg9TylOKFtDSDJdW0NIMl0zKWMoYzM0KVtjSF1bY0hdYyhbY0hdNClbTitdKD1PKVtPLV0=

> <s_epik_cmdline>
J2VwaWtfcHl0aG9uJywgJy1waCcsICc3LjAnLCAnLXRuJywgJzgnLCAnLW1hJywgJzIwMCcsICctbWV0YWxfYmluZGluZycsICctaW1hZScsICc8aW5maWxlLm1hZT4nLCAnLW9tYWUnLCAnPG91dGZpbGUubWFlPic=

> <r_lp_tautomer_probability>
1

> <r_epik_Ionization_Penalty>
2.5696e-07

> <r_epik_Ionization_Penalty_Charging>
1.04886e-08

> <r_epik_Ionization_Penalty_Neutral>
2.46472e-07

> <r_epik_State_Penalty>
-0

> <r_epik_Charging_Adjusted_Penalty>
1.04886e-08

> <i_epik_Tot_Q>
0

> <i_epik_Tot_abs_Q>
2

> <r_epik_Metal_State_Penalty>
-0

> <b_epik_Metal_Only>
0

> <s_epik_Chemistry_Notes>
This compound contains an acetal/aminal-like group ( X-CH(R)-Y where X, Y are N, S, or O) that may be acid/base labile, releasing an aldehyde.

> <s_lp_Force_Field>
OPLS_2005

> <r_lp_Energy>
59.5699

> <b_lp_Chiralities_Consistent>
1

> <s_lp_Variant>
AV-unprocessed.smi:112-1

> <Gold.Version>
5.8.1

> <Gold.Id.Protein>
6NUR|6NUR_protein|mol2

> <Gold.PLP.Fitness>
60.5487

> <Gold.PLP.PLP>
-48.5093

> <Gold.PLP.part.hbond>
-5.9385

> <Gold.PLP.part.metal>
0.0000

> <Gold.PLP.part.buried>
1.7049

> <Gold.PLP.part.nonpolar>
-42.8501

> <Gold.PLP.part.repulsive>
0.2646

> <Gold.PLP.ligand.clash>
0.0000

> <Gold.PLP.ligand.torsion>
1.1977

> <Gold.PLP.Chemscore.Hbond>
4.8047

> <Gold.PLP.Chemscore.CHOScore>
0.0000

> <Gold.PLP.Chemscore.Metal>
0.0000

> <Gold.Chemscore.Hbonds>
donor molecule, donor type, donor heavy atom, donor atom, acceptor molecule, acceptor atom, score
      L1  H     8    41       P1  7957  0.87
      L1  H    11    45       P1  7957  0.54
      P1  H  6896  6907       L1    32  1.00
      P1  H  7954  7966       L1    11  0.57
      P1  H  7997  8008       L1    14  1.00
      P1  H  8011  8017       L1     8  0.60

> <Gold.PLP.Chemscore.Internal.Correction>
0.0209

> <Gold.Rescore>
     Score         DG    S(hbond)    S(metal)    S(lipo)     H(rot)  DE(clash)    DE(int)     intcor
     17.86     -21.58       3.89        0.00      98.47       3.29       1.47       2.24       ----

> <Gold.Chemscore.Fitness>
17.8635

> <Gold.Chemscore.DG>
-21.5785

> <Gold.Chemscore.ZeroCoef>
-5.4800

> <Gold.Chemscore.Hbond>
3.8933

> <Gold.Chemscore.Metal>
0.0000

> <Gold.Chemscore.Lipo>
98.4725

> <Gold.Chemscore.Internal_Hbond>
0.0000

> <Gold.Chemscore.DEClash>
1.4717

> <Gold.Chemscore.DEInternal>
2.2434

> <Gold.Chemscore.Rot>
3.2916

> <Gold.Chemscore.Internal.Correction>
   9.000000E+99

> <Gold.Chemscore.Hbonds>
donor molecule, donor type, donor heavy atom, donor atom, acceptor molecule, acceptor atom, score
      L1  H     8    41       P1  7957  0.81
      L1  H    11    45       P1  7957  0.52
      P1  H  6896  6907       L1    32  0.89
      P1  H  7954  7966       L1    11  0.22
      P1  H  7997  8008       L1    14  0.97
      P1  H  8011  8017       L1     8  0.04

> <Gold.Chemscore.Hbond.Weighted>
-13.0038

> <Gold.Chemscore.Metal.Weighted>
-0.0000

> <Gold.Chemscore.Lipo.Weighted>
-11.5213

> <Gold.Chemscore.Internal_Hbond.Weighted>
0.0000

> <Gold.Chemscore.DEClash.Weighted>
1.4717

> <Gold.Chemscore.DEInternal.Weighted>
2.2434

> <Gold.Chemscore.Rot.Weighted>
8.4265

> <Gold.Chemscore.Internal.Correction.Weighted>
   9.000000E+99

> <Gold.Protein.RotatedTorsions>
[ 6907 6896 6895 6894 ] final   -0.92 input  -60.11 | X-H torsion
[ 7974 7965 7964 7962 ] final  178.37 input  175.53 | X-H torsion
[ 8008 7997 7996 7995 ] final  -37.09 input   59.86 | X-H torsion
[ 10167 10162 10161 10158 ] final  -77.48 input  -65.29 | X-H torsion
[ 10718 10713 10712 10709 ] final   50.63 input   66.30 | X-H torsion
[ 10763 10752 10751 10750 ] final  125.63 input  -60.55 | X-H torsion
[ 11005 11000 10999 10996 ] final -116.63 input  -57.11 | X-H torsion

> <Gold.Protein.ActiveResidues>
 VAL166  LYS551  ARG553  GLY616  TRP617  ASP618  TYR619  PRO620  LYS621  CYS622 
 ASP623  PHE694  ASN695  SER759  ASP760  ASP761  ALA762  ILE779  LEU786  VAL792 
 PHE793  MET794  SER795  GLU796  ALA797  LYS798  CYS799  TRP800  GLU811  SER814 

> <Gold.Protein.RotatedAtoms>
  151.5544  135.1067  159.9957 H   0  0  0  0  0  0  0  0  0  0  0  0  # atno 6907 bound_to 6896
  152.4476  133.7562  159.6732 H   0  0  0  0  0  0  0  0  0  0  0  0  # atno 6908 bound_to 6896
  150.8396  133.7890  159.3090 H   0  0  0  0  0  0  0  0  0  0  0  0  # atno 6909 bound_to 6896
  144.7157  140.0388  143.6438 H   0  0  0  0  0  0  0  0  0  0  0  0  # atno 7974 bound_to 7965
  154.4060  140.1613  156.2480 H   0  0  0  0  0  0  0  0  0  0  0  0  # atno 8008 bound_to 7997
  155.9144  140.3425  155.6101 H   0  0  0  0  0  0  0  0  0  0  0  0  # atno 8009 bound_to 7997
  155.7297  140.0779  157.2285 H   0  0  0  0  0  0  0  0  0  0  0  0  # atno 8010 bound_to 7997
  140.4766  143.2412  151.8123 H   0  0  0  0  0  0  0  0  0  0  0  0  # atno 10167 bound_to 10162
  157.4903  130.8372  149.8195 H   0  0  0  0  0  0  0  0  0  0  0  0  # atno 10718 bound_to 10713
  153.6803  135.3315  155.3176 H   0  0  0  0  0  0  0  0  0  0  0  0  # atno 10763 bound_to 10752
  154.8467  135.4407  154.1613 H   0  0  0  0  0  0  0  0  0  0  0  0  # atno 10764 bound_to 10752
  153.2627  135.6993  153.7638 H   0  0  0  0  0  0  0  0  0  0  0  0  # atno 10765 bound_to 10752
  141.0409  133.9837  157.2996 H   0  0  0  0  0  0  0  0  0  0  0  0  # atno 11005 bound_to 11000
  146.0041  139.3115  143.0910 LP  0  0  0  0  0  0  0  0  0  0  0  0  # atno 17320 bound_to 7965
  145.8759  140.9392  143.0626 LP  0  0  0  0  0  0  0  0  0  0  0  0  # atno 17321 bound_to 7965
  139.4826  144.4825  151.9288 LP  0  0  0  0  0  0  0  0  0  0  0  0  # atno 17342 bound_to 10162
  140.3910  144.2615  150.5900 LP  0  0  0  0  0  0  0  0  0  0  0  0  # atno 17343 bound_to 10162
  156.0170  130.3810  150.2081 LP  0  0  0  0  0  0  0  0  0  0  0  0  # atno 17370 bound_to 10713
  157.0269  130.9996  151.3323 LP  0  0  0  0  0  0  0  0  0  0  0  0  # atno 17371 bound_to 10713
  139.9275  135.0201  156.8285 LP  0  0  0  0  0  0  0  0  0  0  0  0  # atno 17394 bound_to 11000
  140.6236  133.9971  155.7629 LP  0  0  0  0  0  0  0  0  0  0  0  0  # atno 17395 bound_to 11000

$$$$
