AV-unprocessed.smi:2464|AV-procd|sdf|9721|dock3
  -GOLD-   2272013363D 1   1.00000     0.00000
 Structure written by MMmdl.
 32 33  0  0  0  0  0  0  0  0  3 V2000
  153.4224  142.7082  160.4687 C   0  0  0  0  0  0  0  0  0  0  0  0
  152.4588  143.0698  159.3336 C   0  0  0  0  0  0  0  0  0  0  0  0
  152.2281  141.8998  158.4834 N   0  0  0  0  0  0  0  0  0  0  0  0
  151.3348  141.8049  157.4859 C   0  0  0  0  0  0  0  0  0  0  0  0
  150.5830  142.7213  157.1525 O   0  0  0  0  0  0  0  0  0  0  0  0
  151.3617  140.5840  156.9258 N   0  0  0  0  0  0  0  0  0  0  0  0
  150.5490  140.0850  155.8687 C   0  0  0  0  0  0  0  0  0  0  0  0
  149.3418  140.7247  155.4958 C   0  0  0  0  0  0  0  0  0  0  0  0
  148.6084  140.2181  154.4071 C   0  0  0  0  0  0  0  0  0  0  0  0
  149.0025  139.1537  153.6812 N   0  0  0  0  0  0  0  0  0  0  0  0
  150.1603  138.5526  154.0249 C   0  0  0  0  0  0  0  0  0  0  0  0
  150.9770  138.9654  155.1030 C   0  0  0  0  0  0  0  0  0  0  0  0
  152.2225  138.2274  155.3877 N   0  3  0  0  0  0  0  0  0  0  0  0
  153.1504  138.8211  155.9273 O   0  0  0  0  0  0  0  0  0  0  0  0
  152.2579  137.0388  155.0883 O   0  5  0  0  0  0  0  0  0  0  0  0
  151.1481  143.8094  159.6793 C   0  0  0  0  0  0  0  0  0  0  0  0
  151.8705  145.1221  159.3663 C   0  0  0  0  0  0  0  0  0  0  0  0
  152.7984  144.2984  158.4684 C   0  0  0  0  0  0  0  0  0  0  0  0
  153.7021  143.5856  161.0522 H   0  0  0  0  0  0  0  0  0  0  0  0
  154.3438  142.2689  160.0846 H   0  0  0  0  0  0  0  0  0  0  0  0
  152.9795  141.9916  161.1607 H   0  0  0  0  0  0  0  0  0  0  0  0
  152.7966  141.0890  158.6798 H   0  0  0  0  0  0  0  0  0  0  0  0
  151.9568  139.9037  157.3754 H   0  0  0  0  0  0  0  0  0  0  0  0
  148.9775  141.6003  156.0114 H   0  0  0  0  0  0  0  0  0  0  0  0
  147.6854  140.6897  154.1041 H   0  0  0  0  0  0  0  0  0  0  0  0
  150.4392  137.7039  153.4176 H   0  0  0  0  0  0  0  0  0  0  0  0
  150.3299  143.6102  158.9837 H   0  0  0  0  0  0  0  0  0  0  0  0
  150.8237  143.7060  160.7153 H   0  0  0  0  0  0  0  0  0  0  0  0
  151.2666  145.8637  158.8431 H   0  0  0  0  0  0  0  0  0  0  0  0
  152.3778  145.5481  160.2334 H   0  0  0  0  0  0  0  0  0  0  0  0
  153.8443  144.6056  158.4967 H   0  0  0  0  0  0  0  0  0  0  0  0
  152.4305  144.2315  157.4423 H   0  0  0  0  0  0  0  0  0  0  0  0
  1  2  1  0  0  0  0
  1 19  1  0  0  0  0
  1 20  1  0  0  0  0
  1 21  1  0  0  0  0
  2 18  1  0  0  0  0
  2  3  1  0  0  0  0
  2 16  1  0  0  0  0
  3  4  1  0  0  0  0
  3 22  1  0  0  0  0
  4  5  2  0  0  0  0
  4  6  1  0  0  0  0
  6  7  1  0  0  0  0
  6 23  1  0  0  0  0
  7 12  1  0  0  0  0
  7  8  2  0  0  0  0
  8  9  1  0  0  0  0
  8 24  1  0  0  0  0
  9 10  2  0  0  0  0
  9 25  1  0  0  0  0
 10 11  1  0  0  0  0
 11 12  2  0  0  0  0
 11 26  1  0  0  0  0
 12 13  1  0  0  0  0
 13 14  2  0  0  0  0
 13 15  1  0  0  0  0
 16 17  1  0  0  0  0
 16 27  1  0  0  0  0
 16 28  1  0  0  0  0
 17 18  1  0  0  0  0
 17 29  1  0  0  0  0
 17 30  1  0  0  0  0
 18 31  1  0  0  0  0
 18 32  1  0  0  0  0
M  CHG  1  13   1
M  CHG  1  15  -1
M  END
> <s_m_source_file>
AV-unprocessed.smi

> <i_m_source_file_index>
2464

> <i_lp_mmshare_version>
43012

> <i_f3d_flags>
0

> <s_epik_input>
W0NIMl0xW0NIMl1bQ0gyXUMxKFtDSDNdKVtOSF1DKD1PKVtOSF1jMltjSF1bY0hdbltjSF1jMltOK10oPU8pW08tXQ==

> <s_epik_cmdline>
J2VwaWtfcHl0aG9uJywgJy1waCcsICc3LjAnLCAnLXRuJywgJzgnLCAnLW1hJywgJzIwMCcsICctbWV0YWxfYmluZGluZycsICctaW1hZScsICc8aW5maWxlLm1hZT4nLCAnLW9tYWUnLCAnPG91dGZpbGUubWFlPic=

> <r_lp_tautomer_probability>
1

> <r_epik_Ionization_Penalty>
0.000161487

> <r_epik_Ionization_Penalty_Charging>
0

> <r_epik_Ionization_Penalty_Neutral>
0.000161487

> <r_epik_State_Penalty>
-0

> <r_epik_Charging_Adjusted_Penalty>
0

> <i_epik_Tot_Q>
0

> <i_epik_Tot_abs_Q>
2

> <r_epik_Metal_State_Penalty>
-0

> <b_epik_Metal_Only>
0

> <s_lp_Force_Field>
OPLS_2005

> <r_lp_Energy>
25.6435

> <b_lp_Chiralities_Consistent>
1

> <s_lp_Variant>
AV-unprocessed.smi:2464-1

> <Gold.Version>
5.8.1

> <Gold.Id.Protein>
6NUR|6NUR_protein|mol2

> <Gold.PLP.Fitness>
43.8133

> <Gold.PLP.PLP>
-35.5992

> <Gold.PLP.part.hbond>
-2.0000

> <Gold.PLP.part.metal>
0.0000

> <Gold.PLP.part.buried>
-7.5880

> <Gold.PLP.part.nonpolar>
-31.3353

> <Gold.PLP.part.repulsive>
3.5499

> <Gold.PLP.ligand.clash>
0.0000

> <Gold.PLP.ligand.torsion>
0.6106

> <Gold.PLP.Chemscore.Hbond>
1.9440

> <Gold.PLP.Chemscore.CHOScore>
1.1007

> <Gold.PLP.Chemscore.Metal>
0.0000

> <Gold.Chemscore.Hbonds>
donor molecule, donor type, donor heavy atom, donor atom, acceptor molecule, acceptor atom, score
      P1  H  7997  8010       L1    14  1.00
      P1  H 10752 10765       L1    15  0.83
      L1  C    11    26       P1  7948  0.74
      L1  C    11    26       P1  7949  0.31

> <Gold.PLP.Chemscore.Internal.Correction>
0.3012

> <Gold.Rescore>
     Score         DG    S(hbond)    S(metal)    S(lipo)     H(rot)  DE(clash)    DE(int)     intcor
     14.87     -19.84       1.90        0.00      90.28       1.00       0.01       4.96       ----

> <Gold.Chemscore.Fitness>
14.8677

> <Gold.Chemscore.DG>
-19.8438

> <Gold.Chemscore.ZeroCoef>
-5.4800

> <Gold.Chemscore.Hbond>
1.9045

> <Gold.Chemscore.Metal>
0.0000

> <Gold.Chemscore.Lipo>
90.2800

> <Gold.Chemscore.Internal_Hbond>
0.0000

> <Gold.Chemscore.DEClash>
0.0114

> <Gold.Chemscore.DEInternal>
4.9647

> <Gold.Chemscore.Rot>
1.0000

> <Gold.Chemscore.Internal.Correction>
   9.000000E+99

> <Gold.Chemscore.Hbonds>
donor molecule, donor type, donor heavy atom, donor atom, acceptor molecule, acceptor atom, score
      P1  H  7997  8010       L1    14  0.98
      P1  H 10752 10765       L1    15  0.81

> <Gold.Chemscore.Hbond.Weighted>
-6.3610

> <Gold.Chemscore.Metal.Weighted>
-0.0000

> <Gold.Chemscore.Lipo.Weighted>
-10.5628

> <Gold.Chemscore.Internal_Hbond.Weighted>
0.0000

> <Gold.Chemscore.DEClash.Weighted>
0.0114

> <Gold.Chemscore.DEInternal.Weighted>
4.9647

> <Gold.Chemscore.Rot.Weighted>
2.5600

> <Gold.Chemscore.Internal.Correction.Weighted>
   9.000000E+99

> <Gold.Protein.RotatedTorsions>
[ 6907 6896 6895 6894 ] final  -94.08 input  -60.11 | X-H torsion
[ 7974 7965 7964 7962 ] final  -18.16 input  175.53 | X-H torsion
[ 8008 7997 7996 7995 ] final   81.46 input   59.86 | X-H torsion
[ 10167 10162 10161 10158 ] final   85.08 input  -65.29 | X-H torsion
[ 10718 10713 10712 10709 ] final   39.72 input   66.30 | X-H torsion
[ 10763 10752 10751 10750 ] final -172.76 input  -60.55 | X-H torsion
[ 11005 11000 10999 10996 ] final  108.20 input  -57.11 | X-H torsion

> <Gold.Protein.ActiveResidues>
 VAL166  LYS551  ARG553  GLY616  TRP617  ASP618  TYR619  PRO620  LYS621  CYS622 
 ASP623  PHE694  ASN695  SER759  ASP760  ASP761  ALA762  ILE779  LEU786  VAL792 
 PHE793  MET794  SER795  GLU796  ALA797  LYS798  CYS799  TRP800  GLU811  SER814 

> <Gold.Protein.RotatedAtoms>
  150.6935  134.1867  159.4269 H   0  0  0  0  0  0  0  0  0  0  0  0  # atno 6907 bound_to 6896
  151.9840  135.0011  160.0568 H   0  0  0  0  0  0  0  0  0  0  0  0  # atno 6908 bound_to 6896
  152.1729  133.4620  159.4955 H   0  0  0  0  0  0  0  0  0  0  0  0  # atno 6909 bound_to 6896
  146.1906  140.3882  142.8459 H   0  0  0  0  0  0  0  0  0  0  0  0  # atno 7974 bound_to 7965
  155.8974  140.3435  155.6001 H   0  0  0  0  0  0  0  0  0  0  0  0  # atno 8008 bound_to 7997
  155.7540  140.0824  157.2206 H   0  0  0  0  0  0  0  0  0  0  0  0  # atno 8009 bound_to 7997
  154.4040  140.1548  156.2744 H   0  0  0  0  0  0  0  0  0  0  0  0  # atno 8010 bound_to 7997
  139.9014  144.6327  150.8633 H   0  0  0  0  0  0  0  0  0  0  0  0  # atno 10167 bound_to 10162
  157.3738  130.7716  149.7140 H   0  0  0  0  0  0  0  0  0  0  0  0  # atno 10718 bound_to 10713
  154.6156  135.2869  155.0383 H   0  0  0  0  0  0  0  0  0  0  0  0  # atno 10763 bound_to 10752
  154.1597  135.6490  153.4987 H   0  0  0  0  0  0  0  0  0  0  0  0  # atno 10764 bound_to 10752
  153.0213  135.5375  154.6926 H   0  0  0  0  0  0  0  0  0  0  0  0  # atno 10765 bound_to 10752
  139.8840  134.9423  156.5935 H   0  0  0  0  0  0  0  0  0  0  0  0  # atno 11005 bound_to 11000
  144.8479  140.6956  143.6187 LP  0  0  0  0  0  0  0  0  0  0  0  0  # atno 17320 bound_to 7965
  145.3805  139.1638  143.4283 LP  0  0  0  0  0  0  0  0  0  0  0  0  # atno 17321 bound_to 7965
  140.7706  143.3434  151.2161 LP  0  0  0  0  0  0  0  0  0  0  0  0  # atno 17342 bound_to 10162
  139.7022  143.9514  152.2910 LP  0  0  0  0  0  0  0  0  0  0  0  0  # atno 17343 bound_to 10162
  155.9761  130.4080  150.3802 LP  0  0  0  0  0  0  0  0  0  0  0  0  # atno 17370 bound_to 10713
  157.1897  131.0412  151.2706 LP  0  0  0  0  0  0  0  0  0  0  0  0  # atno 17371 bound_to 10713
  140.7937  133.8561  155.8668 LP  0  0  0  0  0  0  0  0  0  0  0  0  # atno 17394 bound_to 11000
  140.9654  134.1601  157.4620 LP  0  0  0  0  0  0  0  0  0  0  0  0  # atno 17395 bound_to 11000

$$$$
