AV-unprocessed.smi:2858|AV-procd|sdf|11000|dock9
  -GOLD-   2272015453D 1   1.00000     0.00000
 Structure written by MMmdl.
 40 41  0  0  0  0  0  0  0  0  2 V2000
  142.9230  138.0909  155.7916 O   0  0  0  0  0  0  0  0  0  0  0  0
  143.5922  137.9611  154.7699 C   0  0  0  0  0  0  0  0  0  0  0  0
  145.0289  138.5044  154.7295 C   0  0  0  0  0  0  0  0  0  0  0  0
  145.5892  138.6268  153.3587 N   0  3  1  0  0  0  0  0  0  0  0  0
  147.0117  139.0502  153.3710 C   0  0  0  0  0  0  0  0  0  0  0  0
  147.2050  140.4388  154.0028 C   0  0  0  0  0  0  0  0  0  0  0  0
  148.5942  141.0273  153.7039 C   0  0  0  0  0  0  0  0  0  0  0  0
  149.0652  141.8785  154.7908 N   0  0  0  0  0  0  0  0  0  0  0  0
  150.0315  141.5459  155.6596 C   0  0  0  0  0  0  0  0  0  0  0  0
  150.6351  140.4732  155.6194 O   0  0  0  0  0  0  0  0  0  0  0  0
  150.2449  142.5273  156.5539 N   0  0  0  0  0  0  0  0  0  0  0  0
  151.1856  142.5546  157.6182 C   0  0  0  0  0  0  0  0  0  0  0  0
  151.6588  143.8400  157.9669 C   0  0  0  0  0  0  0  0  0  0  0  0
  152.5962  143.9737  159.0096 C   0  0  0  0  0  0  0  0  0  0  0  0
  153.0351  142.8175  159.6789 C   0  0  0  0  0  0  0  0  0  0  0  0
  152.5139  141.5764  159.2697 C   0  0  0  0  0  0  0  0  0  0  0  0
  151.6168  141.4455  158.2697 N   0  0  0  0  0  0  0  0  0  0  0  0
  145.3380  137.4084  152.5513 C   0  0  0  0  0  0  0  0  0  0  0  0
  143.8250  137.1601  152.4214 C   0  0  0  0  0  0  0  0  0  0  0  0
  143.1048  137.3496  153.6782 N   0  0  0  0  0  0  0  0  0  0  0  0
  145.0500  139.4798  155.2177 H   0  0  0  0  0  0  0  0  0  0  0  0
  145.6577  137.8366  155.3203 H   0  0  0  0  0  0  0  0  0  0  0  0
  147.5910  138.3317  153.9529 H   0  0  0  0  0  0  0  0  0  0  0  0
  147.4152  139.0236  152.3576 H   0  0  0  0  0  0  0  0  0  0  0  0
  146.4417  141.1246  153.6368 H   0  0  0  0  0  0  0  0  0  0  0  0
  147.0655  140.3707  155.0826 H   0  0  0  0  0  0  0  0  0  0  0  0
  149.3178  140.2237  153.5645 H   0  0  0  0  0  0  0  0  0  0  0  0
  148.5767  141.5947  152.7717 H   0  0  0  0  0  0  0  0  0  0  0  0
  148.6188  142.7783  154.8938 H   0  0  0  0  0  0  0  0  0  0  0  0
  149.6701  143.3518  156.4628 H   0  0  0  0  0  0  0  0  0  0  0  0
  151.3104  144.7182  157.4429 H   0  0  0  0  0  0  0  0  0  0  0  0
  152.9706  144.9468  159.2910 H   0  0  0  0  0  0  0  0  0  0  0  0
  153.7519  142.8797  160.4843 H   0  0  0  0  0  0  0  0  0  0  0  0
  152.8244  140.6644  159.7577 H   0  0  0  0  0  0  0  0  0  0  0  0
  145.7724  137.4932  151.5559 H   0  0  0  0  0  0  0  0  0  0  0  0
  145.8188  136.5552  153.0329 H   0  0  0  0  0  0  0  0  0  0  0  0
  143.4021  137.8527  151.6927 H   0  0  0  0  0  0  0  0  0  0  0  0
  143.6363  136.1549  152.0439 H   0  0  0  0  0  0  0  0  0  0  0  0
  142.1601  136.9938  153.7206 H   0  0  0  0  0  0  0  0  0  0  0  0
  145.0726  139.3735  152.9165 H   0  0  0  0  0  0  0  0  0  0  0  0
  1  2  2  0  0  0  0
  2 20  1  0  0  0  0
  2  3  1  0  0  0  0
  3  4  1  0  0  0  0
  3 21  1  0  0  0  0
  3 22  1  0  0  0  0
  4  5  1  0  0  0  0
  4 18  1  0  0  0  0
  4 40  1  0  0  0  0
  5  6  1  0  0  0  0
  5 23  1  0  0  0  0
  5 24  1  0  0  0  0
  6  7  1  0  0  0  0
  6 25  1  0  0  0  0
  6 26  1  0  0  0  0
  7  8  1  0  0  0  0
  7 27  1  0  0  0  0
  7 28  1  0  0  0  0
  8  9  1  0  0  0  0
  8 29  1  0  0  0  0
  9 10  2  0  0  0  0
  9 11  1  0  0  0  0
 11 12  1  0  0  0  0
 11 30  1  0  0  0  0
 12 17  1  0  0  0  0
 12 13  2  0  0  0  0
 13 14  1  0  0  0  0
 13 31  1  0  0  0  0
 14 15  2  0  0  0  0
 14 32  1  0  0  0  0
 15 16  1  0  0  0  0
 15 33  1  0  0  0  0
 16 17  2  0  0  0  0
 16 34  1  0  0  0  0
 18 19  1  0  0  0  0
 18 35  1  0  0  0  0
 18 36  1  0  0  0  0
 19 20  1  0  0  0  0
 19 37  1  0  0  0  0
 19 38  1  0  0  0  0
 20 39  1  0  0  0  0
M  CHG  1   4   1
M  END
> <s_m_source_file>
AV-unprocessed.smi

> <i_m_source_file_index>
2858

> <i_lp_mmshare_version>
43012

> <i_f3d_flags>
0

> <s_epik_input>
Tz1DMVtDSDJdTihbQ0gyXVtDSDJdW05IXTEpW0NIMl1bQ0gyXVtDSDJdW05IXUMoPU8pW05IXWMyW2NIXVtjSF1bY0hdW2NIXW4y

> <s_epik_cmdline>
J2VwaWtfcHl0aG9uJywgJy1waCcsICc3LjAnLCAnLXRuJywgJzgnLCAnLW1hJywgJzIwMCcsICctbWV0YWxfYmluZGluZycsICctaW1hZScsICc8aW5maWxlLm1hZT4nLCAnLW9tYWUnLCAnPG91dGZpbGUubWFlPic=

> <r_epik_Ionization_Penalty>
0.11034

> <r_epik_Ionization_Penalty_Charging>
0.110189

> <r_epik_Ionization_Penalty_Neutral>
0.000150894

> <r_epik_State_Penalty>
0.0999426

> <r_epik_Charging_Adjusted_Penalty>
0.210132

> <i_epik_Tot_Q>
1

> <i_epik_Tot_abs_Q>
1

> <r_epik_Metal_State_Penalty>
0.172915

> <b_epik_Metal_Only>
0

> <s_lp_Force_Field>
OPLS_2005

> <r_lp_Energy>
20.0709

> <b_lp_Chiralities_Consistent>
1

> <s_lp_Variant>
AV-unprocessed.smi:2858-2

> <Gold.Version>
5.8.1

> <Gold.Id.Protein>
6NUR|6NUR_protein|mol2

> <Gold.PLP.Fitness>
47.5482

> <Gold.PLP.PLP>
-34.9645

> <Gold.PLP.part.hbond>
-4.0000

> <Gold.PLP.part.metal>
0.0000

> <Gold.PLP.part.buried>
-1.6559

> <Gold.PLP.part.nonpolar>
-28.4139

> <Gold.PLP.part.repulsive>
0.4426

> <Gold.PLP.ligand.clash>
0.0000

> <Gold.PLP.ligand.torsion>
0.5401

> <Gold.PLP.Chemscore.Hbond>
4.5426

> <Gold.PLP.Chemscore.CHOScore>
0.0000

> <Gold.PLP.Chemscore.Metal>
0.0000

> <Gold.Chemscore.Hbonds>
donor molecule, donor type, donor heavy atom, donor atom, acceptor molecule, acceptor atom, score
      L1  H     4    40       P1 10175  2.00
      L1  H     8    29       P1  8028  0.77
      L1  H    11    30       P1  8028  1.00
      P1  H  7989  7998       L1    10  0.11

> <Gold.PLP.Chemscore.Internal.Correction>
0.0363

> <Gold.Rescore>
     Score         DG    S(hbond)    S(metal)    S(lipo)     H(rot)  DE(clash)    DE(int)     intcor
     17.78     -20.26       3.17        0.00      81.12       2.08       0.77       1.71       ----

> <Gold.Chemscore.Fitness>
17.7780

> <Gold.Chemscore.DG>
-20.2561

> <Gold.Chemscore.ZeroCoef>
-5.4800

> <Gold.Chemscore.Hbond>
3.1748

> <Gold.Chemscore.Metal>
0.0000

> <Gold.Chemscore.Lipo>
81.1209

> <Gold.Chemscore.Internal_Hbond>
0.0000

> <Gold.Chemscore.DEClash>
0.7678

> <Gold.Chemscore.DEInternal>
1.7103

> <Gold.Chemscore.Rot>
2.0777

> <Gold.Chemscore.Internal.Correction>
   9.000000E+99

> <Gold.Chemscore.Hbonds>
donor molecule, donor type, donor heavy atom, donor atom, acceptor molecule, acceptor atom, score
      L1  H     4    40       P1 10175  1.00
      L1  H     8    29       P1  8028  0.74
      L1  H    11    30       P1  8028  0.99
      P1  H  7989  7998       L1    10  0.01

> <Gold.Chemscore.Hbond.Weighted>
-10.6037

> <Gold.Chemscore.Metal.Weighted>
-0.0000

> <Gold.Chemscore.Lipo.Weighted>
-9.4911

> <Gold.Chemscore.Internal_Hbond.Weighted>
0.0000

> <Gold.Chemscore.DEClash.Weighted>
0.7678

> <Gold.Chemscore.DEInternal.Weighted>
1.7103

> <Gold.Chemscore.Rot.Weighted>
5.3188

> <Gold.Chemscore.Internal.Correction.Weighted>
   9.000000E+99

> <Gold.Protein.RotatedTorsions>
[ 6907 6896 6895 6894 ] final  110.15 input  -60.11 | X-H torsion
[ 7974 7965 7964 7962 ] final  -47.42 input  175.53 | X-H torsion
[ 8008 7997 7996 7995 ] final  -27.46 input   59.86 | X-H torsion
[ 10167 10162 10161 10158 ] final  135.70 input  -65.29 | X-H torsion
[ 10718 10713 10712 10709 ] final   41.90 input   66.30 | X-H torsion
[ 10763 10752 10751 10750 ] final -155.58 input  -60.55 | X-H torsion
[ 11005 11000 10999 10996 ] final  -98.71 input  -57.11 | X-H torsion

> <Gold.Protein.ActiveResidues>
 VAL166  LYS551  ARG553  GLY616  TRP617  ASP618  TYR619  PRO620  LYS621  CYS622 
 ASP623  PHE694  ASN695  SER759  ASP760  ASP761  ALA762  ILE779  LEU786  VAL792 
 PHE793  MET794  SER795  GLU796  ALA797  LYS798  CYS799  TRP800  GLU811  SER814 

> <Gold.Protein.RotatedAtoms>
  152.5033  133.8841  159.7360 H   0  0  0  0  0  0  0  0  0  0  0  0  # atno 6907 bound_to 6896
  150.9296  133.6774  159.2820 H   0  0  0  0  0  0  0  0  0  0  0  0  # atno 6908 bound_to 6896
  151.4123  135.0991  159.9641 H   0  0  0  0  0  0  0  0  0  0  0  0  # atno 6909 bound_to 6896
  145.9618  140.7471  142.9453 H   0  0  0  0  0  0  0  0  0  0  0  0  # atno 7974 bound_to 7965
  154.4376  140.1872  156.0935 H   0  0  0  0  0  0  0  0  0  0  0  0  # atno 8008 bound_to 7997
  156.0347  140.3326  155.7152 H   0  0  0  0  0  0  0  0  0  0  0  0  # atno 8009 bound_to 7997
  155.5788  140.0619  157.2779 H   0  0  0  0  0  0  0  0  0  0  0  0  # atno 8010 bound_to 7997
  139.5207  144.6503  151.5321 H   0  0  0  0  0  0  0  0  0  0  0  0  # atno 10167 bound_to 10162
  157.3987  130.7848  149.7330 H   0  0  0  0  0  0  0  0  0  0  0  0  # atno 10718 bound_to 10713
  154.7776  135.3164  154.8058 H   0  0  0  0  0  0  0  0  0  0  0  0  # atno 10763 bound_to 10752
  153.8778  135.6838  153.4773 H   0  0  0  0  0  0  0  0  0  0  0  0  # atno 10764 bound_to 10752
  153.1404  135.4741  154.9423 H   0  0  0  0  0  0  0  0  0  0  0  0  # atno 10765 bound_to 10752
  141.1335  133.8266  157.0875 H   0  0  0  0  0  0  0  0  0  0  0  0  # atno 11005 bound_to 11000
  144.6817  140.2604  143.7320 LP  0  0  0  0  0  0  0  0  0  0  0  0  # atno 17320 bound_to 7965
  145.8029  139.1971  143.2037 LP  0  0  0  0  0  0  0  0  0  0  0  0  # atno 17321 bound_to 7965
  140.6305  143.9085  150.6601 LP  0  0  0  0  0  0  0  0  0  0  0  0  # atno 17342 bound_to 10162
  140.2388  143.3680  152.1504 LP  0  0  0  0  0  0  0  0  0  0  0  0  # atno 17343 bound_to 10162
  155.9817  130.4016  150.3455 LP  0  0  0  0  0  0  0  0  0  0  0  0  # atno 17370 bound_to 10713
  157.1580  131.0338  151.2854 LP  0  0  0  0  0  0  0  0  0  0  0  0  # atno 17371 bound_to 10713
  140.0413  134.9853  157.0966 LP  0  0  0  0  0  0  0  0  0  0  0  0  # atno 17394 bound_to 11000
  140.4131  134.1960  155.7163 LP  0  0  0  0  0  0  0  0  0  0  0  0  # atno 17395 bound_to 11000

$$$$
