AV-unprocessed.smi:16|AV-procd|sdf|88|dock7
  -GOLD-   2262015223D 1   1.00000     0.00000
 Structure written by MMmdl.
 60 64  0  0  0  0  0  0  0  0  2 V2000
  152.5330  143.5389  158.7968 C   0  0  0  0  0  0  0  0  0  0  0  0
  151.4438  142.5182  159.1586 C   0  0  0  0  0  0  0  0  0  0  0  0
  151.2717  141.4803  158.1113 N   0  3  2  0  0  0  0  0  0  0  0  0
  152.4956  140.6610  157.9165 C   0  0  0  0  0  0  0  0  0  0  0  0
  152.2308  139.4971  156.9483 C   0  0  0  0  0  0  0  0  0  0  0  0
  151.6811  140.0087  155.5995 C   0  0  1  0  0  0  0  0  0  0  0  0
  151.3856  138.9522  154.6833 O   0  0  0  0  0  0  0  0  0  0  0  0
  150.2611  138.1492  155.0378 C   0  0  0  0  0  0  0  0  0  0  0  0
  149.0178  139.0309  155.2271 C   0  0  0  0  0  0  0  0  0  0  0  0
  149.2932  140.0920  156.1879 N   0  0  0  0  0  0  0  0  0  0  0  0
  148.1811  140.7715  156.5411 C   0  0  0  0  0  0  0  0  0  0  0  0
  147.7781  140.8006  157.8381 N   0  0  0  0  0  0  0  0  0  0  0  0
  146.6554  141.4468  158.1690 C   0  0  0  0  0  0  0  0  0  0  0  0
  145.8033  142.1009  157.3752 N   0  0  0  0  0  0  0  0  0  0  0  0
  146.2090  142.0663  156.0730 C   0  0  0  0  0  0  0  0  0  0  0  0
  147.3827  141.4364  155.5768 C   0  0  0  0  0  0  0  0  0  0  0  0
  147.4812  141.6130  154.2035 N   0  0  0  0  0  0  0  0  0  0  0  0
  146.4250  142.3196  153.9035 C   0  0  0  0  0  0  0  0  0  0  0  0
  145.5873  142.6032  154.9596 N   0  0  0  0  0  0  0  0  0  0  0  0
  144.3805  143.3747  154.9132 C   0  0  0  0  0  0  0  0  0  0  0  0
  144.3558  144.7649  154.2738 C   0  0  0  0  0  0  0  0  0  0  0  0
  143.2824  145.2072  155.2943 C   0  0  0  0  0  0  0  0  0  0  0  0
  143.4643  146.6160  155.8821 C   0  0  0  0  0  0  0  0  0  0  0  0
  143.1256  147.6090  154.9356 O   0  0  0  0  0  0  0  0  0  0  0  0
  141.8217  145.0373  154.8299 C   0  0  0  0  0  0  0  0  0  0  0  0
  141.7366  144.9152  153.4245 O   0  0  0  0  0  0  0  0  0  0  0  0
  143.8317  144.0579  156.1676 C   0  0  0  0  0  0  0  0  0  0  0  0
  150.4455  140.9136  155.8047 C   0  0  1  0  0  0  0  0  0  0  0  0
  150.7872  142.0344  156.8192 C   0  0  0  0  0  0  0  0  0  0  0  0
  152.4643  140.6062  155.1314 H   0  0  0  0  0  0  0  0  0  0  0  0
  150.2060  141.3831  154.8492 H   0  0  0  0  0  0  0  0  0  0  0  0
  152.6189  144.2985  159.5738 H   0  0  0  0  0  0  0  0  0  0  0  0
  152.2946  144.0520  157.8655 H   0  0  0  0  0  0  0  0  0  0  0  0
  153.5137  143.0774  158.6841 H   0  0  0  0  0  0  0  0  0  0  0  0
  151.6583  142.0482  160.1195 H   0  0  0  0  0  0  0  0  0  0  0  0
  150.5089  143.0654  159.2873 H   0  0  0  0  0  0  0  0  0  0  0  0
  153.3037  141.2908  157.5409 H   0  0  0  0  0  0  0  0  0  0  0  0
  152.8262  140.2569  158.8741 H   0  0  0  0  0  0  0  0  0  0  0  0
  153.1484  138.9315  156.7852 H   0  0  0  0  0  0  0  0  0  0  0  0
  151.5285  138.8131  157.4239 H   0  0  0  0  0  0  0  0  0  0  0  0
  150.0851  137.4256  154.2418 H   0  0  0  0  0  0  0  0  0  0  0  0
  150.4676  137.5694  155.9370 H   0  0  0  0  0  0  0  0  0  0  0  0
  148.7267  139.4685  154.2708 H   0  0  0  0  0  0  0  0  0  0  0  0
  148.1803  138.4218  155.5704 H   0  0  0  0  0  0  0  0  0  0  0  0
  146.3993  141.4330  159.2183 H   0  0  0  0  0  0  0  0  0  0  0  0
  146.2201  142.6432  152.8932 H   0  0  0  0  0  0  0  0  0  0  0  0
  143.6257  142.7286  154.4619 H   0  0  0  0  0  0  0  0  0  0  0  0
  145.3036  145.2934  154.3931 H   0  0  0  0  0  0  0  0  0  0  0  0
  144.0372  144.7721  153.2310 H   0  0  0  0  0  0  0  0  0  0  0  0
  142.8257  146.7572  156.7545 H   0  0  0  0  0  0  0  0  0  0  0  0
  144.4865  146.7831  156.2225 H   0  0  0  0  0  0  0  0  0  0  0  0
  142.4843  148.1858  155.3217 H   0  0  0  0  0  0  0  0  0  0  0  0
  141.3696  144.1471  155.2673 H   0  0  0  0  0  0  0  0  0  0  0  0
  141.2021  145.8764  155.1468 H   0  0  0  0  0  0  0  0  0  0  0  0
  142.2153  144.1443  153.1607 H   0  0  0  0  0  0  0  0  0  0  0  0
  143.0729  143.4839  156.7004 H   0  0  0  0  0  0  0  0  0  0  0  0
  144.6225  144.3839  156.8462 H   0  0  0  0  0  0  0  0  0  0  0  0
  149.9280  142.6855  156.9745 H   0  0  0  0  0  0  0  0  0  0  0  0
  151.5652  142.6744  156.3997 H   0  0  0  0  0  0  0  0  0  0  0  0
  150.5596  140.8486  158.4503 H   0  0  0  0  0  0  0  0  0  0  0  0
  1  2  1  0  0  0  0
  1 32  1  0  0  0  0
  1 33  1  0  0  0  0
  1 34  1  0  0  0  0
  2  3  1  0  0  0  0
  2 35  1  0  0  0  0
  2 36  1  0  0  0  0
  3 29  1  0  0  0  0
  3  4  1  0  0  0  0
  3 60  1  0  0  0  0
  4  5  1  0  0  0  0
  4 37  1  0  0  0  0
  4 38  1  0  0  0  0
  5  6  1  0  0  0  0
  5 39  1  0  0  0  0
  5 40  1  0  0  0  0
  6 30  1  0  0  0  0
  6 28  1  0  0  0  0
  6  7  1  0  0  0  0
  7  8  1  0  0  0  0
  8  9  1  0  0  0  0
  8 41  1  0  0  0  0
  8 42  1  0  0  0  0
  9 10  1  0  0  0  0
  9 43  1  0  0  0  0
  9 44  1  0  0  0  0
 10 11  1  0  0  0  0
 10 28  1  0  0  0  0
 11 16  1  0  0  0  0
 11 12  2  0  0  0  0
 12 13  1  0  0  0  0
 13 14  2  0  0  0  0
 13 45  1  0  0  0  0
 14 15  1  0  0  0  0
 15 19  1  0  0  0  0
 15 16  2  0  0  0  0
 16 17  1  0  0  0  0
 17 18  2  0  0  0  0
 18 19  1  0  0  0  0
 18 46  1  0  0  0  0
 19 20  1  0  0  0  0
 20 27  1  0  0  0  0
 20 21  1  0  0  0  0
 20 47  1  0  0  0  0
 21 22  1  0  0  0  0
 21 48  1  0  0  0  0
 21 49  1  0  0  0  0
 22 23  1  0  0  0  0
 22 25  1  0  0  0  0
 22 27  1  0  0  0  0
 23 24  1  0  0  0  0
 23 50  1  0  0  0  0
 23 51  1  0  0  0  0
 24 52  1  0  0  0  0
 25 26  1  0  0  0  0
 25 53  1  0  0  0  0
 25 54  1  0  0  0  0
 26 55  1  0  0  0  0
 27 56  1  0  0  0  0
 27 57  1  0  0  0  0
 28 31  1  0  0  0  0
 28 29  1  0  0  0  0
 29 58  1  0  0  0  0
 29 59  1  0  0  0  0
M  CHG  1   3   1
M  END
> <s_m_source_file>
AV-unprocessed.smi

> <i_m_source_file_index>
16

> <i_lp_mmshare_version>
43012

> <i_f3d_flags>
0

> <s_epik_input>
W0NIM11bQ0gyXU4oW0NIMl1bQ0gyXTEpW0NIMl1bQ0BASF0oW0NAQEhdMTIpTihbQ0gyXVtDSDJdTzIpYyhuW2NIXW4zKWMoYzM0KW5bY0hdbjRbQ0hdKFtDSDJdNSlbQ0gyXUM1KFtDSDJdW09IXSlbQ0gyXVtPSF0=

> <s_epik_cmdline>
J2VwaWtfcHl0aG9uJywgJy1waCcsICc3LjAnLCAnLXRuJywgJzgnLCAnLW1hJywgJzIwMCcsICctbWV0YWxfYmluZGluZycsICctaW1hZScsICc8aW5maWxlLm1hZT4nLCAnLW9tYWUnLCAnPG91dGZpbGUubWFlPic=

> <r_lp_tautomer_probability>
1

> <r_epik_Ionization_Penalty>
0.0135603

> <r_epik_Ionization_Penalty_Charging>
0.0131385

> <r_epik_Ionization_Penalty_Neutral>
0.000421734

> <r_epik_State_Penalty>
0.0102091

> <r_epik_Charging_Adjusted_Penalty>
0.0233476

> <i_epik_Tot_Q>
1

> <i_epik_Tot_abs_Q>
1

> <r_epik_Metal_State_Penalty>
0.0103746

> <b_epik_Metal_Only>
0

> <s_lp_Force_Field>
OPLS_2005

> <r_lp_Energy>
60.5416

> <b_lp_Chiralities_Consistent>
1

> <s_lp_Variant>
AV-unprocessed.smi:16-2

> <Gold.Version>
5.8.1

> <Gold.Id.Protein>
6NUR|6NUR_protein|mol2

> <Gold.PLP.Fitness>
46.5549

> <Gold.PLP.PLP>
-46.0168

> <Gold.PLP.part.hbond>
-3.4282

> <Gold.PLP.part.metal>
0.0000

> <Gold.PLP.part.buried>
-8.8779

> <Gold.PLP.part.nonpolar>
-35.1346

> <Gold.PLP.part.repulsive>
0.4471

> <Gold.PLP.ligand.clash>
0.0000

> <Gold.PLP.ligand.torsion>
1.5742

> <Gold.PLP.Chemscore.Hbond>
1.0000

> <Gold.PLP.Chemscore.CHOScore>
0.0000

> <Gold.PLP.Chemscore.Metal>
0.0000

> <Gold.Chemscore.Hbonds>
donor molecule, donor type, donor heavy atom, donor atom, acceptor molecule, acceptor atom, score
      L1  H    26    55       P1 10174  1.00

> <Gold.PLP.Chemscore.Internal.Correction>
0.6867

> <Gold.Rescore>
     Score         DG    S(hbond)    S(metal)    S(lipo)     H(rot)  DE(clash)    DE(int)     intcor
      7.47     -11.90       0.98        0.00      99.69       3.33       1.93       2.50       ----

> <Gold.Chemscore.Fitness>
7.4702

> <Gold.Chemscore.DG>
-11.9011

> <Gold.Chemscore.ZeroCoef>
-5.4800

> <Gold.Chemscore.Hbond>
0.9790

> <Gold.Chemscore.Metal>
0.0000

> <Gold.Chemscore.Lipo>
99.6873

> <Gold.Chemscore.Internal_Hbond>
0.0000

> <Gold.Chemscore.DEClash>
1.9340

> <Gold.Chemscore.DEInternal>
2.4968

> <Gold.Chemscore.Rot>
3.3251

> <Gold.Chemscore.Internal.Correction>
   9.000000E+99

> <Gold.Chemscore.Hbonds>
donor molecule, donor type, donor heavy atom, donor atom, acceptor molecule, acceptor atom, score
      L1  H    26    55       P1 10174  0.97

> <Gold.Chemscore.Hbond.Weighted>
-3.2698

> <Gold.Chemscore.Metal.Weighted>
-0.0000

> <Gold.Chemscore.Lipo.Weighted>
-11.6634

> <Gold.Chemscore.Internal_Hbond.Weighted>
0.0000

> <Gold.Chemscore.DEClash.Weighted>
1.9340

> <Gold.Chemscore.DEInternal.Weighted>
2.4968

> <Gold.Chemscore.Rot.Weighted>
8.5122

> <Gold.Chemscore.Internal.Correction.Weighted>
   9.000000E+99

> <Gold.Protein.RotatedTorsions>
[ 6907 6896 6895 6894 ] final  -91.37 input  -60.11 | X-H torsion
[ 7974 7965 7964 7962 ] final   94.19 input  175.53 | X-H torsion
[ 8008 7997 7996 7995 ] final   27.97 input   59.86 | X-H torsion
[ 10167 10162 10161 10158 ] final   64.60 input  -65.29 | X-H torsion
[ 10718 10713 10712 10709 ] final   90.59 input   66.30 | X-H torsion
[ 10763 10752 10751 10750 ] final  -47.30 input  -60.55 | X-H torsion
[ 11005 11000 10999 10996 ] final -136.61 input  -57.11 | X-H torsion

> <Gold.Protein.ActiveResidues>
 VAL166  LYS551  ARG553  GLY616  TRP617  ASP618  TYR619  PRO620  LYS621  CYS622 
 ASP623  PHE694  ASN695  SER759  ASP760  ASP761  ALA762  ILE779  LEU786  VAL792 
 PHE793  MET794  SER795  GLU796  ALA797  LYS798  CYS799  TRP800  GLU811  SER814 

> <Gold.Protein.RotatedAtoms>
  150.6892  134.2287  159.4425 H   0  0  0  0  0  0  0  0  0  0  0  0  # atno 6907 bound_to 6896
  152.0239  134.9804  160.0580 H   0  0  0  0  0  0  0  0  0  0  0  0  # atno 6908 bound_to 6896
  152.1370  133.4407  159.4785 H   0  0  0  0  0  0  0  0  0  0  0  0  # atno 6909 bound_to 6896
  145.4689  139.2283  143.2946 H   0  0  0  0  0  0  0  0  0  0  0  0  # atno 7974 bound_to 7965
  155.0513  140.3180  155.4691 H   0  0  0  0  0  0  0  0  0  0  0  0  # atno 8008 bound_to 7997
  156.2834  140.2145  156.5582 H   0  0  0  0  0  0  0  0  0  0  0  0  # atno 8009 bound_to 7997
  154.7208  140.0490  157.0625 H   0  0  0  0  0  0  0  0  0  0  0  0  # atno 8010 bound_to 7997
  140.1204  144.4736  150.6924 H   0  0  0  0  0  0  0  0  0  0  0  0  # atno 10167 bound_to 10162
  157.6959  131.0376  150.3601 H   0  0  0  0  0  0  0  0  0  0  0  0  # atno 10718 bound_to 10713
  154.0591  135.6620  153.4809 H   0  0  0  0  0  0  0  0  0  0  0  0  # atno 10763 bound_to 10752
  153.0434  135.5130  154.7677 H   0  0  0  0  0  0  0  0  0  0  0  0  # atno 10764 bound_to 10752
  154.6707  135.3029  154.9712 H   0  0  0  0  0  0  0  0  0  0  0  0  # atno 10765 bound_to 10752
  140.8789  134.1957  157.4604 H   0  0  0  0  0  0  0  0  0  0  0  0  # atno 11005 bound_to 11000
  146.2408  140.5465  142.8935 LP  0  0  0  0  0  0  0  0  0  0  0  0  # atno 17320 bound_to 7965
  144.7957  140.6118  143.6511 LP  0  0  0  0  0  0  0  0  0  0  0  0  # atno 17321 bound_to 7965
  140.6875  143.2358  151.5221 LP  0  0  0  0  0  0  0  0  0  0  0  0  # atno 17342 bound_to 10162
  139.5571  144.2247  152.1631 LP  0  0  0  0  0  0  0  0  0  0  0  0  # atno 17343 bound_to 10162
  156.4038  130.3921  149.6940 LP  0  0  0  0  0  0  0  0  0  0  0  0  # atno 17370 bound_to 10713
  156.4248  130.7786  151.2805 LP  0  0  0  0  0  0  0  0  0  0  0  0  # atno 17371 bound_to 10713
  139.8718  134.9808  156.5091 LP  0  0  0  0  0  0  0  0  0  0  0  0  # atno 17394 bound_to 11000
  140.8485  133.8150  155.9145 LP  0  0  0  0  0  0  0  0  0  0  0  0  # atno 17395 bound_to 11000

$$$$
