AV-unprocessed.smi:2881|AV-procd|sdf|11065|dock9
  -GOLD-   2272015543D 1   1.00000     0.00000
 Structure written by MMmdl.
 40 42  0  0  0  0  0  0  0  0  1 V2000
  144.0563  132.8272  150.6471 C   0  0  0  0  0  0  0  0  0  0  0  0
  144.8895  134.0317  150.9725 C   0  0  0  0  0  0  0  0  0  0  0  0
  144.5138  135.4054  150.9066 C   0  0  0  0  0  0  0  0  0  0  0  0
  145.6315  136.0822  151.3086 C   0  0  0  0  0  0  0  0  0  0  0  0
  145.8971  137.5455  151.4661 C   0  0  0  0  0  0  0  0  0  0  0  0
  146.3397  137.8703  152.8928 C   0  0  0  0  0  0  0  0  0  0  0  0
  145.6027  137.6066  153.8425 O   0  0  0  0  0  0  0  0  0  0  0  0
  147.5451  138.4434  153.0289 N   0  0  0  0  0  0  0  0  0  0  0  0
  148.1668  138.7955  154.3029 C   0  0  2  0  0  0  0  0  0  0  0  0
  147.4429  139.9393  155.0575 C   0  0  2  0  0  0  0  0  0  0  0  0
  147.2221  141.1671  154.1479 C   0  0  0  0  0  0  0  0  0  0  0  0
  148.6512  141.7110  153.9649 C   0  0  0  0  0  0  0  0  0  0  0  0
  149.4973  140.7407  154.8127 C   0  0  1  0  0  0  0  0  0  0  0  0
  148.5508  140.4478  155.9712 C   0  0  0  0  0  0  0  0  0  0  0  0
  149.5903  139.3756  154.0921 C   0  0  1  0  0  0  0  0  0  0  0  0
  150.7072  138.4744  154.6525 C   0  0  0  0  0  0  0  0  0  0  0  0
  150.6342  137.1917  154.0664 O   0  0  0  0  0  0  0  0  0  0  0  0
  146.5824  135.1237  151.5779 N   0  0  0  0  0  0  0  0  0  0  0  0
  146.1406  133.8685  151.3761 N   0  0  0  0  0  0  0  0  0  0  0  0
  147.5235  135.3083  151.8950 H   0  0  0  0  0  0  0  0  0  0  0  0
  143.0157  133.1033  150.4754 H   0  0  0  0  0  0  0  0  0  0  0  0
  144.0759  132.1026  151.4614 H   0  0  0  0  0  0  0  0  0  0  0  0
  144.4207  132.3302  149.7479 H   0  0  0  0  0  0  0  0  0  0  0  0
  143.5650  135.8298  150.6130 H   0  0  0  0  0  0  0  0  0  0  0  0
  144.9968  138.1125  151.2269 H   0  0  0  0  0  0  0  0  0  0  0  0
  146.6663  137.8733  150.7655 H   0  0  0  0  0  0  0  0  0  0  0  0
  148.0853  138.6208  152.1947 H   0  0  0  0  0  0  0  0  0  0  0  0
  148.2095  137.9098  154.9403 H   0  0  0  0  0  0  0  0  0  0  0  0
  146.5397  139.6156  155.5759 H   0  0  0  0  0  0  0  0  0  0  0  0
  146.7388  140.9268  153.2011 H   0  0  0  0  0  0  0  0  0  0  0  0
  146.5980  141.9066  154.6514 H   0  0  0  0  0  0  0  0  0  0  0  0
  148.9599  141.7296  152.9190 H   0  0  0  0  0  0  0  0  0  0  0  0
  148.7237  142.7285  154.3508 H   0  0  0  0  0  0  0  0  0  0  0  0
  150.4639  141.1546  155.1013 H   0  0  0  0  0  0  0  0  0  0  0  0
  148.2715  141.3380  156.5380 H   0  0  0  0  0  0  0  0  0  0  0  0
  148.9236  139.6908  156.6627 H   0  0  0  0  0  0  0  0  0  0  0  0
  149.7969  139.5474  153.0338 H   0  0  0  0  0  0  0  0  0  0  0  0
  151.6856  138.8987  154.4262 H   0  0  0  0  0  0  0  0  0  0  0  0
  150.6397  138.3798  155.7365 H   0  0  0  0  0  0  0  0  0  0  0  0
  150.0115  137.2199  153.3561 H   0  0  0  0  0  0  0  0  0  0  0  0
  1 21  1  0  0  0  0
  1 22  1  0  0  0  0
  1 23  1  0  0  0  0
  1  2  1  0  0  0  0
  2 19  2  0  0  0  0
  2  3  1  0  0  0  0
  3  4  2  0  0  0  0
  3 24  1  0  0  0  0
  4 18  1  0  0  0  0
  4  5  1  0  0  0  0
  5  6  1  0  0  0  0
  5 25  1  0  0  0  0
  5 26  1  0  0  0  0
  6  7  2  0  0  0  0
  6  8  1  0  0  0  0
  8  9  1  0  0  0  0
  8 27  1  0  0  0  0
  9 15  1  0  0  0  0
  9 10  1  0  0  0  0
  9 28  1  0  0  0  0
 10 14  1  0  0  0  0
 10 11  1  0  0  0  0
 10 29  1  0  0  0  0
 11 12  1  0  0  0  0
 11 30  1  0  0  0  0
 11 31  1  0  0  0  0
 12 13  1  0  0  0  0
 12 32  1  0  0  0  0
 12 33  1  0  0  0  0
 13 14  1  0  0  0  0
 13 15  1  0  0  0  0
 13 34  1  0  0  0  0
 14 35  1  0  0  0  0
 14 36  1  0  0  0  0
 15 16  1  0  0  0  0
 15 37  1  0  0  0  0
 16 17  1  0  0  0  0
 16 38  1  0  0  0  0
 16 39  1  0  0  0  0
 17 40  1  0  0  0  0
 18 19  1  0  0  0  0
 18 20  1  0  0  0  0
M  END
> <s_m_source_file>
AV-unprocessed.smi

> <i_m_source_file_index>
2881

> <i_lp_mmshare_version>
43012

> <i_f3d_flags>
0

> <s_epik_input>
W0NIM11jMVtjSF1jKG5bbkhdMSlbQ0gyXUMoPU8pW05IXVtDQEhdKFtDQEBIXTIzKVtDQEhdKFtDSDJdW09IXSlbQ0BASF0oW0NIMl0zKVtDSDJdW0NIMl0y

> <s_epik_cmdline>
J2VwaWtfcHl0aG9uJywgJy1waCcsICc3LjAnLCAnLXRuJywgJzgnLCAnLW1hJywgJzIwMCcsICctbWV0YWxfYmluZGluZycsICctaW1hZScsICc8aW5maWxlLm1hZT4nLCAnLW9tYWUnLCAnPG91dGZpbGUubWFlPic=

> <r_lp_tautomer_probability>
0.5

> <r_epik_Ionization_Penalty>
0.00013396

> <r_epik_Ionization_Penalty_Charging>
0

> <r_epik_Ionization_Penalty_Neutral>
0.00013396

> <r_epik_State_Penalty>
0.41068

> <r_epik_Charging_Adjusted_Penalty>
0.41068

> <i_epik_Tot_Q>
0

> <i_epik_Tot_abs_Q>
0

> <r_epik_Metal_State_Penalty>
0.41066

> <b_epik_Metal_Only>
0

> <s_lp_Force_Field>
OPLS_2005

> <r_lp_Energy>
46.7591

> <b_lp_Chiralities_Consistent>
1

> <s_lp_Variant>
AV-unprocessed.smi:2881-11

> <Gold.Version>
5.8.1

> <Gold.Id.Protein>
6NUR|6NUR_protein|mol2

> <Gold.PLP.Fitness>
38.4761

> <Gold.PLP.PLP>
-31.7236

> <Gold.PLP.part.hbond>
-4.4388

> <Gold.PLP.part.metal>
0.0000

> <Gold.PLP.part.buried>
1.2518

> <Gold.PLP.part.nonpolar>
-30.0355

> <Gold.PLP.part.repulsive>
0.4208

> <Gold.PLP.ligand.clash>
0.0000

> <Gold.PLP.ligand.torsion>
0.0554

> <Gold.PLP.Chemscore.Hbond>
2.2785

> <Gold.PLP.Chemscore.CHOScore>
0.0000

> <Gold.PLP.Chemscore.Metal>
0.0000

> <Gold.Chemscore.Hbonds>
donor molecule, donor type, donor heavy atom, donor atom, acceptor molecule, acceptor atom, score
      L1  H     8    27       P1  7957  0.32
      L1  H    17    40       P1  7948  0.97
      L1  H    18    20       P1  7948  1.00

> <Gold.PLP.Chemscore.Internal.Correction>
0.0277

> <Gold.Rescore>
     Score         DG    S(hbond)    S(metal)    S(lipo)     H(rot)  DE(clash)    DE(int)     intcor
     13.59     -15.93       1.94        0.00      83.69       2.28       2.23       0.11       ----

> <Gold.Chemscore.Fitness>
13.5936

> <Gold.Chemscore.DG>
-15.9328

> <Gold.Chemscore.ZeroCoef>
-5.4800

> <Gold.Chemscore.Hbond>
1.9420

> <Gold.Chemscore.Metal>
0.0000

> <Gold.Chemscore.Lipo>
83.6909

> <Gold.Chemscore.Internal_Hbond>
0.0000

> <Gold.Chemscore.DEClash>
2.2320

> <Gold.Chemscore.DEInternal>
0.1071

> <Gold.Chemscore.Rot>
2.2755

> <Gold.Chemscore.Internal.Correction>
   9.000000E+99

> <Gold.Chemscore.Hbonds>
donor molecule, donor type, donor heavy atom, donor atom, acceptor molecule, acceptor atom, score
      L1  H     8    27       P1  7957  0.28
      L1  H    17    40       P1  7948  0.22
      L1  H    18    20       P1  7948  0.93

> <Gold.Chemscore.Hbond.Weighted>
-6.4862

> <Gold.Chemscore.Metal.Weighted>
-0.0000

> <Gold.Chemscore.Lipo.Weighted>
-9.7918

> <Gold.Chemscore.Internal_Hbond.Weighted>
0.0000

> <Gold.Chemscore.DEClash.Weighted>
2.2320

> <Gold.Chemscore.DEInternal.Weighted>
0.1071

> <Gold.Chemscore.Rot.Weighted>
5.8252

> <Gold.Chemscore.Internal.Correction.Weighted>
   9.000000E+99

> <Gold.Protein.RotatedTorsions>
[ 6907 6896 6895 6894 ] final -113.43 input  -60.11 | X-H torsion
[ 7974 7965 7964 7962 ] final  162.29 input  175.53 | X-H torsion
[ 8008 7997 7996 7995 ] final  156.73 input   59.86 | X-H torsion
[ 10167 10162 10161 10158 ] final -118.46 input  -65.29 | X-H torsion
[ 10718 10713 10712 10709 ] final  102.80 input   66.30 | X-H torsion
[ 10763 10752 10751 10750 ] final  -25.02 input  -60.55 | X-H torsion
[ 11005 11000 10999 10996 ] final  170.71 input  -57.11 | X-H torsion

> <Gold.Protein.ActiveResidues>
 VAL166  LYS551  ARG553  GLY616  TRP617  ASP618  TYR619  PRO620  LYS621  CYS622 
 ASP623  PHE694  ASN695  SER759  ASP760  ASP761  ALA762  ILE779  LEU786  VAL792 
 PHE793  MET794  SER795  GLU796  ALA797  LYS798  CYS799  TRP800  GLU811  SER814 

> <Gold.Protein.RotatedAtoms>
  150.7828  133.8946  159.3323 H   0  0  0  0  0  0  0  0  0  0  0  0  # atno 6907 bound_to 6896
  151.6805  135.0960  160.0224 H   0  0  0  0  0  0  0  0  0  0  0  0  # atno 6908 bound_to 6896
  152.3884  133.6606  159.6253 H   0  0  0  0  0  0  0  0  0  0  0  0  # atno 6909 bound_to 6896
  144.7644  139.8018  143.6320 H   0  0  0  0  0  0  0  0  0  0  0  0  # atno 7974 bound_to 7965
  156.2405  140.1904  156.7000 H   0  0  0  0  0  0  0  0  0  0  0  0  # atno 8008 bound_to 7997
  154.6189  140.0611  156.9616 H   0  0  0  0  0  0  0  0  0  0  0  0  # atno 8009 bound_to 7997
  155.1894  140.3283  155.4364 H   0  0  0  0  0  0  0  0  0  0  0  0  # atno 8010 bound_to 7997
  140.0572  143.5003  152.2051 H   0  0  0  0  0  0  0  0  0  0  0  0  # atno 10167 bound_to 10162
  157.6791  131.0762  150.5459 H   0  0  0  0  0  0  0  0  0  0  0  0  # atno 10718 bound_to 10713
  153.6931  135.6960  153.5084 H   0  0  0  0  0  0  0  0  0  0  0  0  # atno 10763 bound_to 10752
  153.2398  135.4310  155.0685 H   0  0  0  0  0  0  0  0  0  0  0  0  # atno 10764 bound_to 10752
  154.8367  135.3505  154.6472 H   0  0  0  0  0  0  0  0  0  0  0  0  # atno 10765 bound_to 10752
  140.3112  134.7515  157.3993 H   0  0  0  0  0  0  0  0  0  0  0  0  # atno 11005 bound_to 11000
  146.1738  139.4899  142.9910 LP  0  0  0  0  0  0  0  0  0  0  0  0  # atno 17320 bound_to 7965
  145.6517  141.0261  143.1757 LP  0  0  0  0  0  0  0  0  0  0  0  0  # atno 17321 bound_to 7965
  139.5916  144.7552  151.3387 LP  0  0  0  0  0  0  0  0  0  0  0  0  # atno 17342 bound_to 10162
  140.7189  143.7190  150.7710 LP  0  0  0  0  0  0  0  0  0  0  0  0  # atno 17343 bound_to 10162
  156.5764  130.4293  149.5996 LP  0  0  0  0  0  0  0  0  0  0  0  0  # atno 17370 bound_to 10713
  156.2697  130.7010  151.1804 LP  0  0  0  0  0  0  0  0  0  0  0  0  # atno 17371 bound_to 10713
  140.1023  134.5456  155.8342 LP  0  0  0  0  0  0  0  0  0  0  0  0  # atno 17394 bound_to 11000
  141.2107  133.6698  156.6532 LP  0  0  0  0  0  0  0  0  0  0  0  0  # atno 17395 bound_to 11000

$$$$
