AV-unprocessed.smi:1697|AV-procd|sdf|6810|dock7
  -GOLD-   22720 7583D 1   1.00000     0.00000
 Structure written by MMmdl.
 55 57  0  0  0  0  0  0  0  0  3 V2000
  142.1218  137.7248  153.8001 C   0  0  0  0  0  0  0  0  0  0  0  0
  143.1710  137.2397  152.7979 C   0  0  0  0  0  0  0  0  0  0  0  0
  144.2654  136.6865  153.5142 O   0  0  0  0  0  0  0  0  0  0  0  0
  145.3687  136.2988  152.7029 C   0  0  2  0  0  0  0  0  0  0  0  0
  146.4661  135.6128  153.5376 C   0  0  0  0  0  0  0  0  0  0  0  0
  147.0910  136.5853  154.5519 C   0  0  0  0  0  0  0  0  0  0  0  0
  147.6430  137.7880  153.8725 N   0  3  2  0  0  0  0  0  0  0  0  0
  148.3696  138.7044  154.7899 C   0  0  0  0  0  0  0  0  0  0  0  0
  149.8959  138.4828  154.7777 C   0  0  1  0  0  0  0  0  0  0  0  0
  150.4614  139.2332  153.7208 O   0  0  0  0  0  0  0  0  0  0  0  0
  150.5464  138.9167  156.1059 C   0  0  0  0  0  0  0  0  0  0  0  0
  150.4093  140.3564  156.3649 N   0  0  0  0  0  0  0  0  0  0  0  0
  149.6395  141.2912  155.7435 C   0  0  0  0  0  0  0  0  0  0  0  0
  149.8684  142.4850  156.3583 N   0  3  0  0  0  0  0  0  0  0  0  0
  150.7925  142.3088  157.3908 C   0  0  0  0  0  0  0  0  0  0  0  0
  151.3364  143.2153  158.2933 C   0  0  0  0  0  0  0  0  0  0  0  0
  152.2633  142.7118  159.2343 C   0  0  0  0  0  0  0  0  0  0  0  0
  152.8773  143.6763  160.2346 C   0  0  0  0  0  0  0  0  0  0  0  0
  152.6159  141.3373  159.2487 C   0  0  0  0  0  0  0  0  0  0  0  0
  153.6135  140.8070  160.2646 C   0  0  0  0  0  0  0  0  0  0  0  0
  152.0509  140.4310  158.3231 C   0  0  0  0  0  0  0  0  0  0  0  0
  151.1413  140.9444  157.4020 C   0  0  0  0  0  0  0  0  0  0  0  0
  146.5985  138.4954  153.0873 C   0  0  0  0  0  0  0  0  0  0  0  0
  145.9462  137.5637  152.0498 C   0  0  0  0  0  0  0  0  0  0  0  0
  141.2639  138.1589  153.2862 H   0  0  0  0  0  0  0  0  0  0  0  0
  142.5348  138.4860  154.4624 H   0  0  0  0  0  0  0  0  0  0  0  0
  141.7613  136.9019  154.4176 H   0  0  0  0  0  0  0  0  0  0  0  0
  142.7245  136.5001  152.1339 H   0  0  0  0  0  0  0  0  0  0  0  0
  143.5078  138.0752  152.1827 H   0  0  0  0  0  0  0  0  0  0  0  0
  145.0251  135.6286  151.9132 H   0  0  0  0  0  0  0  0  0  0  0  0
  146.0765  134.7354  154.0525 H   0  0  0  0  0  0  0  0  0  0  0  0
  147.2459  135.2434  152.8701 H   0  0  0  0  0  0  0  0  0  0  0  0
  146.3452  136.8904  155.2880 H   0  0  0  0  0  0  0  0  0  0  0  0
  147.8726  136.0595  155.0980 H   0  0  0  0  0  0  0  0  0  0  0  0
  148.1714  139.7400  154.5083 H   0  0  0  0  0  0  0  0  0  0  0  0
  147.9742  138.5846  155.7999 H   0  0  0  0  0  0  0  0  0  0  0  0
  150.1263  137.4326  154.6055 H   0  0  0  0  0  0  0  0  0  0  0  0
  149.8352  139.2755  153.0135 H   0  0  0  0  0  0  0  0  0  0  0  0
  150.0927  138.3867  156.9449 H   0  0  0  0  0  0  0  0  0  0  0  0
  151.6082  138.6673  156.1210 H   0  0  0  0  0  0  0  0  0  0  0  0
  148.9710  141.1190  154.9118 H   0  0  0  0  0  0  0  0  0  0  0  0
  151.0628  144.2603  158.2771 H   0  0  0  0  0  0  0  0  0  0  0  0
  153.9576  143.7324  160.0976 H   0  0  0  0  0  0  0  0  0  0  0  0
  152.6732  143.3531  161.2555 H   0  0  0  0  0  0  0  0  0  0  0  0
  152.4734  144.6826  160.1184 H   0  0  0  0  0  0  0  0  0  0  0  0
  153.7917  139.7397  160.1296 H   0  0  0  0  0  0  0  0  0  0  0  0
  153.2431  140.9566  161.2792 H   0  0  0  0  0  0  0  0  0  0  0  0
  154.5707  141.3192  160.1659 H   0  0  0  0  0  0  0  0  0  0  0  0
  152.3182  139.3849  158.3349 H   0  0  0  0  0  0  0  0  0  0  0  0
  145.8421  138.8957  153.7644 H   0  0  0  0  0  0  0  0  0  0  0  0
  147.0407  139.3470  152.5690 H   0  0  0  0  0  0  0  0  0  0  0  0
  146.6894  137.2788  151.3038 H   0  0  0  0  0  0  0  0  0  0  0  0
  145.1618  138.0965  151.5110 H   0  0  0  0  0  0  0  0  0  0  0  0
  148.3259  137.4634  153.2023 H   0  0  0  0  0  0  0  0  0  0  0  0
  149.4226  143.3541  156.0927 H   0  0  0  0  0  0  0  0  0  0  0  0
  1  2  1  0  0  0  0
  1 25  1  0  0  0  0
  1 26  1  0  0  0  0
  1 27  1  0  0  0  0
  2  3  1  0  0  0  0
  2 28  1  0  0  0  0
  2 29  1  0  0  0  0
  3  4  1  0  0  0  0
  4 24  1  0  0  0  0
  4  5  1  0  0  0  0
  4 30  1  0  0  0  0
  5  6  1  0  0  0  0
  5 31  1  0  0  0  0
  5 32  1  0  0  0  0
  6  7  1  0  0  0  0
  6 33  1  0  0  0  0
  6 34  1  0  0  0  0
  7  8  1  0  0  0  0
  7 23  1  0  0  0  0
  7 54  1  0  0  0  0
  8  9  1  0  0  0  0
  8 35  1  0  0  0  0
  8 36  1  0  0  0  0
  9 10  1  0  0  0  0
  9 11  1  0  0  0  0
  9 37  1  0  0  0  0
 10 38  1  0  0  0  0
 11 12  1  0  0  0  0
 11 39  1  0  0  0  0
 11 40  1  0  0  0  0
 12 22  1  0  0  0  0
 12 13  1  0  0  0  0
 13 14  2  0  0  0  0
 13 41  1  0  0  0  0
 14 15  1  0  0  0  0
 14 55  1  0  0  0  0
 15 22  2  0  0  0  0
 15 16  1  0  0  0  0
 16 17  2  0  0  0  0
 16 42  1  0  0  0  0
 17 18  1  0  0  0  0
 17 19  1  0  0  0  0
 18 43  1  0  0  0  0
 18 44  1  0  0  0  0
 18 45  1  0  0  0  0
 19 20  1  0  0  0  0
 19 21  2  0  0  0  0
 20 46  1  0  0  0  0
 20 47  1  0  0  0  0
 20 48  1  0  0  0  0
 21 22  1  0  0  0  0
 21 49  1  0  0  0  0
 23 24  1  0  0  0  0
 23 50  1  0  0  0  0
 23 51  1  0  0  0  0
 24 52  1  0  0  0  0
 24 53  1  0  0  0  0
M  CHG  1   7   1
M  CHG  1  14   1
M  END
> <s_m_source_file>
AV-unprocessed.smi

> <i_m_source_file_index>
1697

> <i_lp_mmshare_version>
43012

> <i_f3d_flags>
0

> <s_epik_input>
W0NIM11bQ0gyXU9bQ0hdMVtDSDJdW0NIMl1OKFtDSDJdW0NIMl0xKVtDSDJdW0NASF0oW09IXSlbQ0gyXW4oW2NIXW4yKWMoYzIzKVtjSF1jKFtDSDNdKWMoW2NIXTMpW0NIM10=

> <s_epik_cmdline>
J2VwaWtfcHl0aG9uJywgJy1waCcsICc3LjAnLCAnLXRuJywgJzgnLCAnLW1hJywgJzIwMCcsICctbWV0YWxfYmluZGluZycsICctaW1hZScsICc8aW5maWxlLm1hZT4nLCAnLW9tYWUnLCAnPG91dGZpbGUubWFlPic=

> <r_epik_Ionization_Penalty>
1.20016

> <r_epik_Ionization_Penalty_Charging>
1.20016

> <r_epik_Ionization_Penalty_Neutral>
1.70998e-06

> <r_epik_State_Penalty>
1.27959

> <r_epik_Charging_Adjusted_Penalty>
2.47975

> <i_epik_Tot_Q>
2

> <i_epik_Tot_abs_Q>
2

> <r_epik_Metal_State_Penalty>
5.29682

> <b_epik_Metal_Only>
0

> <s_lp_Force_Field>
OPLS_2005

> <r_lp_Energy>
32.2175

> <b_lp_Chiralities_Consistent>
1

> <s_lp_Variant>
AV-unprocessed.smi:1697-8

> <Gold.Version>
5.8.1

> <Gold.Id.Protein>
6NUR|6NUR_protein|mol2

> <Gold.PLP.Fitness>
54.1502

> <Gold.PLP.PLP>
-38.6811

> <Gold.PLP.part.hbond>
-4.0000

> <Gold.PLP.part.metal>
0.0000

> <Gold.PLP.part.buried>
-1.3218

> <Gold.PLP.part.nonpolar>
-34.1611

> <Gold.PLP.part.repulsive>
0.1784

> <Gold.PLP.ligand.clash>
0.0000

> <Gold.PLP.ligand.torsion>
1.0042

> <Gold.PLP.Chemscore.Hbond>
5.8080

> <Gold.PLP.Chemscore.CHOScore>
0.0000

> <Gold.PLP.Chemscore.Metal>
0.0000

> <Gold.Chemscore.Hbonds>
donor molecule, donor type, donor heavy atom, donor atom, acceptor molecule, acceptor atom, score
      L1  H     7    54       P1  7948  2.00
      L1  H    10    38       P1  7957  0.82
      L1  H    14    55       P1  8028  2.00
      P1  H  7989  7998       L1    10  0.96

> <Gold.PLP.Chemscore.Internal.Correction>
0.0534

> <Gold.Rescore>
     Score         DG    S(hbond)    S(metal)    S(lipo)     H(rot)  DE(clash)    DE(int)     intcor
     20.47     -23.96       3.26        0.00     116.41       2.35       1.28       2.22       ----

> <Gold.Chemscore.Fitness>
20.4668

> <Gold.Chemscore.DG>
-23.9647

> <Gold.Chemscore.ZeroCoef>
-5.4800

> <Gold.Chemscore.Hbond>
3.2553

> <Gold.Chemscore.Metal>
0.0000

> <Gold.Chemscore.Lipo>
116.4078

> <Gold.Chemscore.Internal_Hbond>
0.0000

> <Gold.Chemscore.DEClash>
1.2828

> <Gold.Chemscore.DEInternal>
2.2151

> <Gold.Chemscore.Rot>
2.3468

> <Gold.Chemscore.Internal.Correction>
   9.000000E+99

> <Gold.Chemscore.Hbonds>
donor molecule, donor type, donor heavy atom, donor atom, acceptor molecule, acceptor atom, score
      L1  H     7    54       P1  7948  0.97
      L1  H    10    38       P1  7957  0.76
      L1  H    14    55       P1  8028  0.93
      P1  H  7989  7998       L1    10  0.39

> <Gold.Chemscore.Hbond.Weighted>
-10.8727

> <Gold.Chemscore.Metal.Weighted>
-0.0000

> <Gold.Chemscore.Lipo.Weighted>
-13.6197

> <Gold.Chemscore.Internal_Hbond.Weighted>
0.0000

> <Gold.Chemscore.DEClash.Weighted>
1.2828

> <Gold.Chemscore.DEInternal.Weighted>
2.2151

> <Gold.Chemscore.Rot.Weighted>
6.0077

> <Gold.Chemscore.Internal.Correction.Weighted>
   9.000000E+99

> <Gold.Protein.RotatedTorsions>
[ 6907 6896 6895 6894 ] final -113.13 input  -60.11 | X-H torsion
[ 7974 7965 7964 7962 ] final  109.16 input  175.53 | X-H torsion
[ 8008 7997 7996 7995 ] final -140.42 input   59.86 | X-H torsion
[ 10167 10162 10161 10158 ] final   13.10 input  -65.29 | X-H torsion
[ 10718 10713 10712 10709 ] final  141.41 input   66.30 | X-H torsion
[ 10763 10752 10751 10750 ] final -113.72 input  -60.55 | X-H torsion
[ 11005 11000 10999 10996 ] final   52.80 input  -57.11 | X-H torsion

> <Gold.Protein.ActiveResidues>
 VAL166  LYS551  ARG553  GLY616  TRP617  ASP618  TYR619  PRO620  LYS621  CYS622 
 ASP623  PHE694  ASN695  SER759  ASP760  ASP761  ALA762  ILE779  LEU786  VAL792 
 PHE793  MET794  SER795  GLU796  ALA797  LYS798  CYS799  TRP800  GLU811  SER814 

> <Gold.Protein.RotatedAtoms>
  150.7807  133.8990  159.3335 H   0  0  0  0  0  0  0  0  0  0  0  0  # atno 6907 bound_to 6896
  151.6853  135.0953  160.0233 H   0  0  0  0  0  0  0  0  0  0  0  0  # atno 6908 bound_to 6896
  152.3857  133.6569  159.6232 H   0  0  0  0  0  0  0  0  0  0  0  0  # atno 6909 bound_to 6896
  145.2714  139.2665  143.3964 H   0  0  0  0  0  0  0  0  0  0  0  0  # atno 7974 bound_to 7965
  155.4610  140.0546  157.2991 H   0  0  0  0  0  0  0  0  0  0  0  0  # atno 8008 bound_to 7997
  154.4737  140.2051  155.9885 H   0  0  0  0  0  0  0  0  0  0  0  0  # atno 8009 bound_to 7997
  156.1098  140.3206  155.8061 H   0  0  0  0  0  0  0  0  0  0  0  0  # atno 8010 bound_to 7997
  140.6024  143.8576  150.6979 H   0  0  0  0  0  0  0  0  0  0  0  0  # atno 10167 bound_to 10162
  157.3923  131.1006  151.0634 H   0  0  0  0  0  0  0  0  0  0  0  0  # atno 10718 bound_to 10713
  154.8409  135.4444  154.1394 H   0  0  0  0  0  0  0  0  0  0  0  0  # atno 10763 bound_to 10752
  153.2583  135.6933  153.7611 H   0  0  0  0  0  0  0  0  0  0  0  0  # atno 10764 bound_to 10752
  153.6897  135.3389  155.3174 H   0  0  0  0  0  0  0  0  0  0  0  0  # atno 10765 bound_to 10752
  140.0819  134.5327  155.8938 H   0  0  0  0  0  0  0  0  0  0  0  0  # atno 11005 bound_to 11000
  146.3245  140.3157  142.8630 LP  0  0  0  0  0  0  0  0  0  0  0  0  # atno 17320 bound_to 7965
  144.9332  140.7998  143.5676 LP  0  0  0  0  0  0  0  0  0  0  0  0  # atno 17321 bound_to 7965
  140.2126  143.3872  152.1706 LP  0  0  0  0  0  0  0  0  0  0  0  0  # atno 17342 bound_to 10162
  139.5301  144.7149  151.5088 LP  0  0  0  0  0  0  0  0  0  0  0  0  # atno 17343 bound_to 10162
  157.1663  130.6247  149.5626 LP  0  0  0  0  0  0  0  0  0  0  0  0  # atno 17370 bound_to 10713
  155.9801  130.4800  150.6756 LP  0  0  0  0  0  0  0  0  0  0  0  0  # atno 17371 bound_to 10713
  141.2049  133.6643  156.6152 LP  0  0  0  0  0  0  0  0  0  0  0  0  # atno 17394 bound_to 11000
  140.3475  134.7797  157.4443 LP  0  0  0  0  0  0  0  0  0  0  0  0  # atno 17395 bound_to 11000

$$$$
