AV-unprocessed.smi:227|AV-procd|sdf|1732|dock10
  -GOLD-   2262020223D 1   1.00000     0.00000
 Structure written by MMmdl.
 54 58  0  0  0  0  0  0  0  0  1 V2000
  150.6397  140.4828  154.8515 O   0  0  0  0  0  0  0  0  0  0  0  0
  151.1273  141.0145  156.0662 C   0  0  0  0  0  0  0  0  0  0  0  0
  150.6199  140.2035  157.2837 C   0  0  1  0  0  0  0  0  0  0  0  0
  150.7415  138.6739  157.0724 C   0  0  0  0  0  0  0  0  0  0  0  0
  150.1116  137.9021  158.1294 N   0  0  0  0  0  0  0  0  0  0  0  0
  150.6221  137.6665  159.3846 C   0  0  0  0  0  0  0  0  0  0  0  0
  149.8640  136.9481  160.1663 N   0  0  0  0  0  0  0  0  0  0  0  0
  148.7492  136.6550  159.3887 C   0  0  0  0  0  0  0  0  0  0  0  0
  147.5486  135.9196  159.6054 C   0  0  0  0  0  0  0  0  0  0  0  0
  147.2595  135.2885  160.7726 N   0  0  0  0  0  0  0  0  0  0  0  0
  147.8943  135.6427  162.0303 C   0  0  2  0  0  0  0  0  0  0  0  0
  147.4696  134.4695  162.9337 C   0  0  0  0  0  0  0  0  0  0  0  0
  146.0693  134.1445  162.3771 C   0  0  0  0  0  0  0  0  0  0  0  0
  145.9073  135.2423  161.3092 C   0  0  1  0  0  0  0  0  0  0  0  0
  145.7087  136.5930  162.0479 C   0  0  2  0  0  0  0  0  0  0  0  0
  144.9406  137.7024  161.2959 C   0  0  0  0  0  0  0  0  0  0  0  0
  145.6276  138.2211  160.1782 O   0  0  0  0  0  0  0  0  0  0  0  0
  147.1543  136.9249  162.4670 C   0  0  0  0  0  0  0  0  0  0  0  0
  146.6464  135.8835  158.5890 N   0  0  0  0  0  0  0  0  0  0  0  0
  146.9102  136.4900  157.4286 C   0  0  0  0  0  0  0  0  0  0  0  0
  147.9910  137.1894  157.0800 N   0  0  0  0  0  0  0  0  0  0  0  0
  148.8900  137.2518  158.1031 C   0  0  0  0  0  0  0  0  0  0  0  0
  151.2867  140.6538  158.6082 C   0  0  2  0  0  0  0  0  0  0  0  0
  151.3575  142.1576  158.8096 C   0  0  0  0  0  0  0  0  0  0  0  0
  152.4258  142.2854  159.8891 C   0  0  0  0  0  0  0  0  0  0  0  0
  153.3380  141.2196  159.6523 O   0  0  0  0  0  0  0  0  0  0  0  0
  152.7694  140.2875  158.7373 C   0  0  0  0  0  0  0  0  0  0  0  0
  150.3941  139.5815  154.9943 H   0  0  0  0  0  0  0  0  0  0  0  0
  152.2165  141.0216  156.0304 H   0  0  0  0  0  0  0  0  0  0  0  0
  150.8256  142.0594  156.1374 H   0  0  0  0  0  0  0  0  0  0  0  0
  149.5550  140.4234  157.3725 H   0  0  0  0  0  0  0  0  0  0  0  0
  150.3013  138.3857  156.1171 H   0  0  0  0  0  0  0  0  0  0  0  0
  151.7886  138.3742  157.0297 H   0  0  0  0  0  0  0  0  0  0  0  0
  151.5786  138.0528  159.7055 H   0  0  0  0  0  0  0  0  0  0  0  0
  148.9773  135.7624  161.9793 H   0  0  0  0  0  0  0  0  0  0  0  0
  148.1377  133.6164  162.8097 H   0  0  0  0  0  0  0  0  0  0  0  0
  147.4544  134.7402  163.9901 H   0  0  0  0  0  0  0  0  0  0  0  0
  146.0630  133.1561  161.9154 H   0  0  0  0  0  0  0  0  0  0  0  0
  145.2898  134.1612  163.1396 H   0  0  0  0  0  0  0  0  0  0  0  0
  145.1166  135.0137  160.5965 H   0  0  0  0  0  0  0  0  0  0  0  0
  145.1235  136.4078  162.9500 H   0  0  0  0  0  0  0  0  0  0  0  0
  143.9737  137.3241  160.9629 H   0  0  0  0  0  0  0  0  0  0  0  0
  144.7361  138.5299  161.9756 H   0  0  0  0  0  0  0  0  0  0  0  0
  145.4361  137.6793  159.4280 H   0  0  0  0  0  0  0  0  0  0  0  0
  147.2495  137.1239  163.5349 H   0  0  0  0  0  0  0  0  0  0  0  0
  147.5406  137.7934  161.9331 H   0  0  0  0  0  0  0  0  0  0  0  0
  146.1456  136.4021  156.6711 H   0  0  0  0  0  0  0  0  0  0  0  0
  150.7483  140.2222  159.4538 H   0  0  0  0  0  0  0  0  0  0  0  0
  151.6889  142.6516  157.8950 H   0  0  0  0  0  0  0  0  0  0  0  0
  150.4077  142.5989  159.1126 H   0  0  0  0  0  0  0  0  0  0  0  0
  152.9264  143.2536  159.8701 H   0  0  0  0  0  0  0  0  0  0  0  0
  151.9845  142.1513  160.8774 H   0  0  0  0  0  0  0  0  0  0  0  0
  152.9162  139.2636  159.0814 H   0  0  0  0  0  0  0  0  0  0  0  0
  153.2808  140.3980  157.7801 H   0  0  0  0  0  0  0  0  0  0  0  0
  1  2  1  0  0  0  0
  1 28  1  0  0  0  0
  2  3  1  0  0  0  0
  2 29  1  0  0  0  0
  2 30  1  0  0  0  0
  3  4  1  0  0  0  0
  3 23  1  0  0  0  0
  3 31  1  0  0  0  0
  4  5  1  0  0  0  0
  4 32  1  0  0  0  0
  4 33  1  0  0  0  0
  5 22  1  0  0  0  0
  5  6  1  0  0  0  0
  6  7  2  0  0  0  0
  6 34  1  0  0  0  0
  7  8  1  0  0  0  0
  8 22  2  0  0  0  0
  8  9  1  0  0  0  0
  9 10  1  0  0  0  0
  9 19  2  0  0  0  0
 10 14  1  0  0  0  0
 10 11  1  0  0  0  0
 11 18  1  0  0  0  0
 11 12  1  0  0  0  0
 11 35  1  0  0  0  0
 12 13  1  0  0  0  0
 12 36  1  0  0  0  0
 12 37  1  0  0  0  0
 13 14  1  0  0  0  0
 13 38  1  0  0  0  0
 13 39  1  0  0  0  0
 14 15  1  0  0  0  0
 14 40  1  0  0  0  0
 15 16  1  0  0  0  0
 15 18  1  0  0  0  0
 15 41  1  0  0  0  0
 16 17  1  0  0  0  0
 16 42  1  0  0  0  0
 16 43  1  0  0  0  0
 17 44  1  0  0  0  0
 18 45  1  0  0  0  0
 18 46  1  0  0  0  0
 19 20  1  0  0  0  0
 20 21  2  0  0  0  0
 20 47  1  0  0  0  0
 21 22  1  0  0  0  0
 23 27  1  0  0  0  0
 23 24  1  0  0  0  0
 23 48  1  0  0  0  0
 24 25  1  0  0  0  0
 24 49  1  0  0  0  0
 24 50  1  0  0  0  0
 25 26  1  0  0  0  0
 25 51  1  0  0  0  0
 25 52  1  0  0  0  0
 26 27  1  0  0  0  0
 27 53  1  0  0  0  0
 27 54  1  0  0  0  0
M  END
> <s_m_source_file>
AV-unprocessed.smi

> <i_m_source_file_index>
227

> <i_lp_mmshare_version>
43012

> <i_f3d_flags>
0

> <s_epik_input>
W0NIMl0xT1tDSDJdW0NIMl1bQ0BIXTFbQ0BIXShbQ0gyXVtPSF0pW0NIMl1uKFtjSF1uMiljKGMyMyluW2NIXW5jM04oW0NASF00NSlbQ0BASF0oW0NIMl1bQ0gyXTQpW0NASF0oW0NIMl01KVtDSDJdW09IXQ==

> <s_epik_cmdline>
J2VwaWtfcHl0aG9uJywgJy1waCcsICc3LjAnLCAnLXRuJywgJzgnLCAnLW1hJywgJzIwMCcsICctbWV0YWxfYmluZGluZycsICctaW1hZScsICc8aW5maWxlLm1hZT4nLCAnLW9tYWUnLCAnPG91dGZpbGUubWFlPic=

> <r_lp_tautomer_probability>
1

> <r_epik_Ionization_Penalty>
0.0055791

> <r_epik_Ionization_Penalty_Charging>
0

> <r_epik_Ionization_Penalty_Neutral>
0.0055791

> <r_epik_State_Penalty>
0.00401299

> <r_epik_Charging_Adjusted_Penalty>
0.00401299

> <i_epik_Tot_Q>
0

> <i_epik_Tot_abs_Q>
0

> <r_epik_Metal_State_Penalty>
-0

> <b_epik_Metal_Only>
0

> <s_lp_Force_Field>
OPLS_2005

> <r_lp_Energy>
91.5057

> <b_lp_Chiralities_Consistent>
1

> <s_lp_Variant>
AV-unprocessed.smi:227-6

> <Gold.Version>
5.8.1

> <Gold.Id.Protein>
6NUR|6NUR_protein|mol2

> <Gold.PLP.Fitness>
46.8585

> <Gold.PLP.PLP>
-42.2770

> <Gold.PLP.part.hbond>
-3.4198

> <Gold.PLP.part.metal>
0.0000

> <Gold.PLP.part.buried>
-5.9560

> <Gold.PLP.part.nonpolar>
-33.1192

> <Gold.PLP.part.repulsive>
0.0000

> <Gold.PLP.ligand.clash>
0.0000

> <Gold.PLP.ligand.torsion>
1.0773

> <Gold.PLP.Chemscore.Hbond>
2.1977

> <Gold.PLP.Chemscore.CHOScore>
0.0000

> <Gold.PLP.Chemscore.Metal>
0.0000

> <Gold.Chemscore.Hbonds>
donor molecule, donor type, donor heavy atom, donor atom, acceptor molecule, acceptor atom, score
      P1  H  6896  6908       L1     7  0.27
      P1  H  6931  6943       L1     7  0.13
      P1  H  6934  6947       L1    17  0.74
      P1  H  7989  7998       L1     1  1.00

> <Gold.PLP.Chemscore.Internal.Correction>
0.1432

> <Gold.Rescore>
     Score         DG    S(hbond)    S(metal)    S(lipo)     H(rot)  DE(clash)    DE(int)     intcor
     11.10     -13.35       1.73        0.00      96.87       3.61       0.00       2.24       ----

> <Gold.Chemscore.Fitness>
11.0993

> <Gold.Chemscore.DG>
-13.3464

> <Gold.Chemscore.ZeroCoef>
-5.4800

> <Gold.Chemscore.Hbond>
1.7265

> <Gold.Chemscore.Metal>
0.0000

> <Gold.Chemscore.Lipo>
96.8725

> <Gold.Chemscore.Internal_Hbond>
0.0000

> <Gold.Chemscore.DEClash>
0.0033

> <Gold.Chemscore.DEInternal>
2.2438

> <Gold.Chemscore.Rot>
3.6071

> <Gold.Chemscore.Internal.Correction>
   9.000000E+99

> <Gold.Chemscore.Hbonds>
donor molecule, donor type, donor heavy atom, donor atom, acceptor molecule, acceptor atom, score
      P1  H  6896  6908       L1     7  0.01
      P1  H  6931  6943       L1     7  0.05
      P1  H  6934  6947       L1    17  0.33
      P1  H  7989  7998       L1     1  0.80

> <Gold.Chemscore.Hbond.Weighted>
-5.7665

> <Gold.Chemscore.Metal.Weighted>
-0.0000

> <Gold.Chemscore.Lipo.Weighted>
-11.3341

> <Gold.Chemscore.Internal_Hbond.Weighted>
0.0000

> <Gold.Chemscore.DEClash.Weighted>
0.0033

> <Gold.Chemscore.DEInternal.Weighted>
2.2438

> <Gold.Chemscore.Rot.Weighted>
9.2342

> <Gold.Chemscore.Internal.Correction.Weighted>
   9.000000E+99

> <Gold.Protein.RotatedTorsions>
[ 6907 6896 6895 6894 ] final -159.07 input  -60.11 | X-H torsion
[ 7974 7965 7964 7962 ] final   -2.26 input  175.53 | X-H torsion
[ 8008 7997 7996 7995 ] final  153.72 input   59.86 | X-H torsion
[ 10167 10162 10161 10158 ] final  -29.52 input  -65.29 | X-H torsion
[ 10718 10713 10712 10709 ] final  -72.82 input   66.30 | X-H torsion
[ 10763 10752 10751 10750 ] final   77.93 input  -60.55 | X-H torsion
[ 11005 11000 10999 10996 ] final  -50.83 input  -57.11 | X-H torsion

> <Gold.Protein.ActiveResidues>
 VAL166  LYS551  ARG553  GLY616  TRP617  ASP618  TYR619  PRO620  LYS621  CYS622 
 ASP623  PHE694  ASN695  SER759  ASP760  ASP761  ALA762  ILE779  LEU786  VAL792 
 PHE793  MET794  SER795  GLU796  ALA797  LYS798  CYS799  TRP800  GLU811  SER814 

> <Gold.Protein.RotatedAtoms>
  151.3279  133.4013  159.2659 H   0  0  0  0  0  0  0  0  0  0  0  0  # atno 6907 bound_to 6896
  150.9980  134.9300  159.7948 H   0  0  0  0  0  0  0  0  0  0  0  0  # atno 6908 bound_to 6896
  152.5267  134.3244  159.9212 H   0  0  0  0  0  0  0  0  0  0  0  0  # atno 6909 bound_to 6896
  146.2407  140.1544  142.8333 H   0  0  0  0  0  0  0  0  0  0  0  0  # atno 7974 bound_to 7965
  156.2567  140.1986  156.6534 H   0  0  0  0  0  0  0  0  0  0  0  0  # atno 8008 bound_to 7997
  154.6519  140.0571  156.9990 H   0  0  0  0  0  0  0  0  0  0  0  0  # atno 8009 bound_to 7997
  155.1405  140.3242  155.4456 H   0  0  0  0  0  0  0  0  0  0  0  0  # atno 8010 bound_to 7997
  140.7259  143.3922  151.1410 H   0  0  0  0  0  0  0  0  0  0  0  0  # atno 10167 bound_to 10162
  156.0305  130.4380  150.2649 H   0  0  0  0  0  0  0  0  0  0  0  0  # atno 10718 bound_to 10713
  153.0835  135.4896  154.8551 H   0  0  0  0  0  0  0  0  0  0  0  0  # atno 10763 bound_to 10752
  154.7181  135.3034  154.9093 H   0  0  0  0  0  0  0  0  0  0  0  0  # atno 10764 bound_to 10752
  153.9766  135.6795  153.4801 H   0  0  0  0  0  0  0  0  0  0  0  0  # atno 10765 bound_to 10752
  141.0837  133.6647  156.3788 H   0  0  0  0  0  0  0  0  0  0  0  0  # atno 11005 bound_to 11000
  145.0141  140.8739  143.5206 LP  0  0  0  0  0  0  0  0  0  0  0  0  # atno 17320 bound_to 7965
  145.1582  139.2474  143.5405 LP  0  0  0  0  0  0  0  0  0  0  0  0  # atno 17321 bound_to 7965
  139.7529  143.8752  152.3081 LP  0  0  0  0  0  0  0  0  0  0  0  0  # atno 17342 bound_to 10162
  139.8611  144.7116  150.9098 LP  0  0  0  0  0  0  0  0  0  0  0  0  # atno 17343 bound_to 10162
  157.0752  131.0128  151.3176 LP  0  0  0  0  0  0  0  0  0  0  0  0  # atno 17370 bound_to 10713
  157.4969  130.7856  149.7565 LP  0  0  0  0  0  0  0  0  0  0  0  0  # atno 17371 bound_to 10713
  140.5410  134.6120  157.5380 LP  0  0  0  0  0  0  0  0  0  0  0  0  # atno 17394 bound_to 11000
  139.9654  134.7382  156.0150 LP  0  0  0  0  0  0  0  0  0  0  0  0  # atno 17395 bound_to 11000

$$$$
