AV-unprocessed.smi:1703|AV-procd|sdf|6861|dock10
  -GOLD-   22720 8 53D 1   1.00000     0.00000
 Structure written by MMmdl.
 49 51  0  0  0  0  0  0  0  0  2 V2000
  147.7134  136.3669  162.4686 C   0  0  0  0  0  0  0  0  0  0  0  0
  147.4675  136.2605  160.9597 C   0  0  2  0  0  0  0  0  0  0  0  0
  148.7343  136.5756  160.1435 C   0  0  0  0  0  0  0  0  0  0  0  0
  148.4304  136.5453  158.6931 N   0  3  2  0  0  0  0  0  0  0  0  0
  149.6230  136.7265  157.8268 C   0  0  0  0  0  0  0  0  0  0  0  0
  150.3418  138.0635  158.0932 C   0  0  1  0  0  0  0  0  0  0  0  0
  151.4285  137.8271  158.9685 O   0  0  0  0  0  0  0  0  0  0  0  0
  150.8585  138.7071  156.7906 C   0  0  0  0  0  0  0  0  0  0  0  0
  150.8082  140.1632  156.8230 N   0  0  0  0  0  0  0  0  0  0  0  0
  150.1302  140.9971  155.9944 C   0  0  0  0  0  0  0  0  0  0  0  0
  149.2993  140.4924  154.8548 C   0  0  0  0  0  0  0  0  0  0  0  0
  149.8555  140.8037  153.5954 O   0  0  0  0  0  0  0  0  0  0  0  0
  150.2529  142.2992  156.2534 N   0  0  0  0  0  0  0  0  0  0  0  0
  151.0936  142.3137  157.3489 C   0  0  0  0  0  0  0  0  0  0  0  0
  151.6055  143.3966  158.0990 C   0  0  0  0  0  0  0  0  0  0  0  0
  152.4607  143.1641  159.1959 C   0  0  0  0  0  0  0  0  0  0  0  0
  152.8171  141.8487  159.5568 C   0  0  0  0  0  0  0  0  0  0  0  0
  152.3186  140.7554  158.8225 C   0  0  0  0  0  0  0  0  0  0  0  0
  151.4632  140.9924  157.7295 C   0  0  0  0  0  0  0  0  0  0  0  0
  147.3412  137.4987  158.3769 C   0  0  0  0  0  0  0  0  0  0  0  0
  146.0911  137.2128  159.2322 C   0  0  1  0  0  0  0  0  0  0  0  0
  145.3262  135.9493  158.7987 C   0  0  0  0  0  0  0  0  0  0  0  0
  146.4387  137.1861  160.6169 O   0  0  0  0  0  0  0  0  0  0  0  0
  148.4888  135.6710  162.7902 H   0  0  0  0  0  0  0  0  0  0  0  0
  146.8066  136.1346  163.0278 H   0  0  0  0  0  0  0  0  0  0  0  0
  148.0283  137.3725  162.7482 H   0  0  0  0  0  0  0  0  0  0  0  0
  147.1362  135.2447  160.7439 H   0  0  0  0  0  0  0  0  0  0  0  0
  149.1249  137.5577  160.4145 H   0  0  0  0  0  0  0  0  0  0  0  0
  149.5087  135.8484  160.3853 H   0  0  0  0  0  0  0  0  0  0  0  0
  150.3304  135.9133  157.9985 H   0  0  0  0  0  0  0  0  0  0  0  0
  149.3239  136.6519  156.7801 H   0  0  0  0  0  0  0  0  0  0  0  0
  149.6647  138.7615  158.5835 H   0  0  0  0  0  0  0  0  0  0  0  0
  152.1212  138.4369  158.7637 H   0  0  0  0  0  0  0  0  0  0  0  0
  151.8879  138.4009  156.5991 H   0  0  0  0  0  0  0  0  0  0  0  0
  150.2794  138.3530  155.9378 H   0  0  0  0  0  0  0  0  0  0  0  0
  149.1709  139.4137  154.9379 H   0  0  0  0  0  0  0  0  0  0  0  0
  148.3030  140.9320  154.9130 H   0  0  0  0  0  0  0  0  0  0  0  0
  149.6652  140.0956  152.9994 H   0  0  0  0  0  0  0  0  0  0  0  0
  151.3387  144.4080  157.8304 H   0  0  0  0  0  0  0  0  0  0  0  0
  152.8453  143.9995  159.7626 H   0  0  0  0  0  0  0  0  0  0  0  0
  153.4728  141.6797  160.3984 H   0  0  0  0  0  0  0  0  0  0  0  0
  152.5899  139.7478  159.0986 H   0  0  0  0  0  0  0  0  0  0  0  0
  147.6927  138.5146  158.5645 H   0  0  0  0  0  0  0  0  0  0  0  0
  147.0856  137.4432  157.3179 H   0  0  0  0  0  0  0  0  0  0  0  0
  145.4060  138.0521  159.1094 H   0  0  0  0  0  0  0  0  0  0  0  0
  144.9587  136.0520  157.7775 H   0  0  0  0  0  0  0  0  0  0  0  0
  144.4632  135.7774  159.4424 H   0  0  0  0  0  0  0  0  0  0  0  0
  145.9490  135.0556  158.8284 H   0  0  0  0  0  0  0  0  0  0  0  0
  148.0691  135.6249  158.4844 H   0  0  0  0  0  0  0  0  0  0  0  0
  1  2  1  0  0  0  0
  1 24  1  0  0  0  0
  1 25  1  0  0  0  0
  1 26  1  0  0  0  0
  2 23  1  0  0  0  0
  2  3  1  0  0  0  0
  2 27  1  0  0  0  0
  3  4  1  0  0  0  0
  3 28  1  0  0  0  0
  3 29  1  0  0  0  0
  4  5  1  0  0  0  0
  4 20  1  0  0  0  0
  4 49  1  0  0  0  0
  5  6  1  0  0  0  0
  5 30  1  0  0  0  0
  5 31  1  0  0  0  0
  6  7  1  0  0  0  0
  6  8  1  0  0  0  0
  6 32  1  0  0  0  0
  7 33  1  0  0  0  0
  8  9  1  0  0  0  0
  8 34  1  0  0  0  0
  8 35  1  0  0  0  0
  9 19  1  0  0  0  0
  9 10  1  0  0  0  0
 10 11  1  0  0  0  0
 10 13  2  0  0  0  0
 11 12  1  0  0  0  0
 11 36  1  0  0  0  0
 11 37  1  0  0  0  0
 12 38  1  0  0  0  0
 13 14  1  0  0  0  0
 14 19  2  0  0  0  0
 14 15  1  0  0  0  0
 15 16  2  0  0  0  0
 15 39  1  0  0  0  0
 16 17  1  0  0  0  0
 16 40  1  0  0  0  0
 17 18  2  0  0  0  0
 17 41  1  0  0  0  0
 18 19  1  0  0  0  0
 18 42  1  0  0  0  0
 20 21  1  0  0  0  0
 20 43  1  0  0  0  0
 20 44  1  0  0  0  0
 21 22  1  0  0  0  0
 21 23  1  0  0  0  0
 21 45  1  0  0  0  0
 22 46  1  0  0  0  0
 22 47  1  0  0  0  0
 22 48  1  0  0  0  0
M  CHG  1   4   1
M  END
> <s_m_source_file>
AV-unprocessed.smi

> <i_m_source_file_index>
1703

> <i_lp_mmshare_version>
43012

> <i_f3d_flags>
0

> <s_epik_input>
W0NIM11bQ0BASF0xW0NIMl1OKFtDSDJdW0NASF0oTzEpW0NIM10pW0NIMl1bQ0BIXShbT0hdKVtDSDJdbihjKG4yKVtDSDJdW09IXSljKGMyMylbY0hdW2NIXVtjSF1bY0hdMw==

> <s_epik_cmdline>
J2VwaWtfcHl0aG9uJywgJy1waCcsICc3LjAnLCAnLXRuJywgJzgnLCAnLW1hJywgJzIwMCcsICctbWV0YWxfYmluZGluZycsICctaW1hZScsICc8aW5maWxlLm1hZT4nLCAnLW9tYWUnLCAnPG91dGZpbGUubWFlPic=

> <r_epik_Ionization_Penalty>
0.655661

> <r_epik_Ionization_Penalty_Charging>
0.608065

> <r_epik_Ionization_Penalty_Neutral>
0.0475963

> <r_epik_State_Penalty>
0.695267

> <r_epik_Charging_Adjusted_Penalty>
1.30333

> <i_epik_Tot_Q>
1

> <i_epik_Tot_abs_Q>
1

> <r_epik_Metal_State_Penalty>
0.653591

> <b_epik_Metal_Only>
0

> <s_lp_Force_Field>
OPLS_2005

> <r_lp_Energy>
24.4185

> <b_lp_Chiralities_Consistent>
1

> <s_lp_Variant>
AV-unprocessed.smi:1703-9

> <Gold.Version>
5.8.1

> <Gold.Id.Protein>
6NUR|6NUR_protein|mol2

> <Gold.PLP.Fitness>
44.3121

> <Gold.PLP.PLP>
-37.3381

> <Gold.PLP.part.hbond>
-3.7463

> <Gold.PLP.part.metal>
0.0000

> <Gold.PLP.part.buried>
-4.8697

> <Gold.PLP.part.nonpolar>
-30.6052

> <Gold.PLP.part.repulsive>
2.0238

> <Gold.PLP.ligand.clash>
0.0000

> <Gold.PLP.ligand.torsion>
1.0651

> <Gold.PLP.Chemscore.Hbond>
3.0240

> <Gold.PLP.Chemscore.CHOScore>
0.0000

> <Gold.PLP.Chemscore.Metal>
0.0000

> <Gold.Chemscore.Hbonds>
donor molecule, donor type, donor heavy atom, donor atom, acceptor molecule, acceptor atom, score
      L1  H    12    38       P1  7957  0.62
      P1  H  6934  6947       L1    23  1.00
      P1  H  7989  7998       L1    12  0.38
      P1  H  8011  8017       L1    12  0.98

> <Gold.PLP.Chemscore.Internal.Correction>
0.0322

> <Gold.Rescore>
     Score         DG    S(hbond)    S(metal)    S(lipo)     H(rot)  DE(clash)    DE(int)     intcor
     13.51     -15.94       1.93        0.00      99.24       2.96       1.32       1.12       ----

> <Gold.Chemscore.Fitness>
13.5090

> <Gold.Chemscore.DG>
-15.9423

> <Gold.Chemscore.ZeroCoef>
-5.4800

> <Gold.Chemscore.Hbond>
1.9257

> <Gold.Chemscore.Metal>
0.0000

> <Gold.Chemscore.Lipo>
99.2381

> <Gold.Chemscore.Internal_Hbond>
0.0000

> <Gold.Chemscore.DEClash>
1.3165

> <Gold.Chemscore.DEInternal>
1.1169

> <Gold.Chemscore.Rot>
2.9611

> <Gold.Chemscore.Internal.Correction>
   9.000000E+99

> <Gold.Chemscore.Hbonds>
donor molecule, donor type, donor heavy atom, donor atom, acceptor molecule, acceptor atom, score
      L1  H    12    38       P1  7957  0.62
      P1  H  6934  6947       L1    23  0.25
      P1  H  7989  7998       L1    12  0.11
      P1  H  8011  8017       L1    12  0.26

> <Gold.Chemscore.Hbond.Weighted>
-6.4318

> <Gold.Chemscore.Metal.Weighted>
-0.0000

> <Gold.Chemscore.Lipo.Weighted>
-11.6109

> <Gold.Chemscore.Internal_Hbond.Weighted>
0.0000

> <Gold.Chemscore.DEClash.Weighted>
1.3165

> <Gold.Chemscore.DEInternal.Weighted>
1.1169

> <Gold.Chemscore.Rot.Weighted>
7.5803

> <Gold.Chemscore.Internal.Correction.Weighted>
   9.000000E+99

> <Gold.Protein.RotatedTorsions>
[ 6907 6896 6895 6894 ] final  -82.15 input  -60.11 | X-H torsion
[ 7974 7965 7964 7962 ] final   90.90 input  175.53 | X-H torsion
[ 8008 7997 7996 7995 ] final  -19.33 input   59.86 | X-H torsion
[ 10167 10162 10161 10158 ] final   -7.04 input  -65.29 | X-H torsion
[ 10718 10713 10712 10709 ] final   22.26 input   66.30 | X-H torsion
[ 10763 10752 10751 10750 ] final  -74.01 input  -60.55 | X-H torsion
[ 11005 11000 10999 10996 ] final -158.40 input  -57.11 | X-H torsion

> <Gold.Protein.ActiveResidues>
 VAL166  LYS551  ARG553  GLY616  TRP617  ASP618  TYR619  PRO620  LYS621  CYS622 
 ASP623  PHE694  ASN695  SER759  ASP760  ASP761  ALA762  ILE779  LEU786  VAL792 
 PHE793  MET794  SER795  GLU796  ALA797  LYS798  CYS799  TRP800  GLU811  SER814 

> <Gold.Protein.RotatedAtoms>
  150.6901  134.3709  159.4991 H   0  0  0  0  0  0  0  0  0  0  0  0  # atno 6907 bound_to 6896
  152.1525  134.8974  160.0556 H   0  0  0  0  0  0  0  0  0  0  0  0  # atno 6908 bound_to 6896
  152.0067  133.3811  159.4240 H   0  0  0  0  0  0  0  0  0  0  0  0  # atno 6909 bound_to 6896
  145.5129  139.2277  143.2714 H   0  0  0  0  0  0  0  0  0  0  0  0  # atno 7974 bound_to 7965
  154.4844  140.2091  155.9690 H   0  0  0  0  0  0  0  0  0  0  0  0  # atno 8008 bound_to 7997
  156.1214  140.3213  155.8182 H   0  0  0  0  0  0  0  0  0  0  0  0  # atno 8009 bound_to 7997
  155.4462  140.0513  157.2996 H   0  0  0  0  0  0  0  0  0  0  0  0  # atno 8010 bound_to 7997
  140.7016  143.6126  150.8689 H   0  0  0  0  0  0  0  0  0  0  0  0  # atno 10167 bound_to 10162
  157.1498  130.6669  149.6008 H   0  0  0  0  0  0  0  0  0  0  0  0  # atno 10718 bound_to 10713
  154.4672  135.5878  153.6296 H   0  0  0  0  0  0  0  0  0  0  0  0  # atno 10763 bound_to 10752
  152.9830  135.6058  154.3412 H   0  0  0  0  0  0  0  0  0  0  0  0  # atno 10764 bound_to 10752
  154.3290  135.2842  155.2460 H   0  0  0  0  0  0  0  0  0  0  0  0  # atno 10765 bound_to 10752
  140.6540  134.4420  157.5235 H   0  0  0  0  0  0  0  0  0  0  0  0  # atno 11005 bound_to 11000
  146.2155  140.5937  142.9040 LP  0  0  0  0  0  0  0  0  0  0  0  0  # atno 17320 bound_to 7965
  144.7717  140.5653  143.6665 LP  0  0  0  0  0  0  0  0  0  0  0  0  # atno 17321 bound_to 7965
  139.9848  143.5911  152.2930 LP  0  0  0  0  0  0  0  0  0  0  0  0  # atno 17342 bound_to 10162
  139.6545  144.7662  151.2083 LP  0  0  0  0  0  0  0  0  0  0  0  0  # atno 17343 bound_to 10162
  155.9772  130.4748  150.6582 LP  0  0  0  0  0  0  0  0  0  0  0  0  # atno 17370 bound_to 10713
  157.4231  131.0839  151.1112 LP  0  0  0  0  0  0  0  0  0  0  0  0  # atno 17371 bound_to 10713
  139.9036  134.8500  156.1796 LP  0  0  0  0  0  0  0  0  0  0  0  0  # atno 17394 bound_to 11000
  141.0515  133.6886  156.1781 LP  0  0  0  0  0  0  0  0  0  0  0  0  # atno 17395 bound_to 11000

$$$$
