AV-unprocessed.smi:421|AV-procd|sdf|2535|dock3
  -GOLD-   2262022493D 1   1.00000     0.00000
 Structure written by MMmdl.
 43 45  0  0  0  0  0  0  0  0  1 V2000
  153.9642  139.7446  160.3592 C   0  0  0  0  0  0  0  0  0  0  0  0
  153.1902  140.8371  159.7821 N   0  0  0  0  0  0  0  0  0  0  0  0
  152.6692  140.8931  158.5343 C   0  0  0  0  0  0  0  0  0  0  0  0
  152.7588  140.0198  157.6714 O   0  0  0  0  0  0  0  0  0  0  0  0
  152.0261  142.0773  158.4007 N   0  0  0  0  0  0  0  0  0  0  0  0
  151.3019  142.5446  157.2199 C   0  0  0  0  0  0  0  0  0  0  0  0
  150.1097  141.6259  156.8835 C   0  0  1  0  0  0  0  0  0  0  0  0
  148.8890  142.2922  157.1339 O   0  0  0  0  0  0  0  0  0  0  0  0
  150.0971  141.1614  155.4180 C   0  0  0  0  0  0  0  0  0  0  0  0
  149.0482  140.2282  155.2094 O   0  0  0  0  0  0  0  0  0  0  0  0
  148.2446  140.5484  154.0870 C   0  0  0  0  0  0  0  0  0  0  0  0
  147.0700  141.4197  154.4825 C   0  0  0  0  0  0  0  0  0  0  0  0
  146.8477  142.6525  153.8336 C   0  0  0  0  0  0  0  0  0  0  0  0
  145.7536  143.4589  154.2035 C   0  0  0  0  0  0  0  0  0  0  0  0
  144.8783  143.0351  155.2223 C   0  0  0  0  0  0  0  0  0  0  0  0
  145.0964  141.8038  155.8703 C   0  0  0  0  0  0  0  0  0  0  0  0
  146.1903  140.9969  155.5007 C   0  0  0  0  0  0  0  0  0  0  0  0
  152.1368  142.7976  159.5993 C   0  0  0  0  0  0  0  0  0  0  0  0
  151.6427  144.0601  159.9722 C   0  0  0  0  0  0  0  0  0  0  0  0
  151.9335  144.5069  161.2827 C   0  0  0  0  0  0  0  0  0  0  0  0
  152.6929  143.7043  162.1733 C   0  0  0  0  0  0  0  0  0  0  0  0
  153.1766  142.4368  161.7729 C   0  0  0  0  0  0  0  0  0  0  0  0
  152.8720  142.0170  160.4666 C   0  0  0  0  0  0  0  0  0  0  0  0
  153.8612  138.8249  159.7819 H   0  0  0  0  0  0  0  0  0  0  0  0
  153.6322  139.5362  161.3767 H   0  0  0  0  0  0  0  0  0  0  0  0
  155.0209  140.0103  160.3911 H   0  0  0  0  0  0  0  0  0  0  0  0
  150.9809  143.5794  157.3431 H   0  0  0  0  0  0  0  0  0  0  0  0
  152.0004  142.5527  156.3814 H   0  0  0  0  0  0  0  0  0  0  0  0
  150.1326  140.7366  157.5147 H   0  0  0  0  0  0  0  0  0  0  0  0
  148.7860  142.9759  156.4895 H   0  0  0  0  0  0  0  0  0  0  0  0
  149.9330  142.0251  154.7717 H   0  0  0  0  0  0  0  0  0  0  0  0
  151.0620  140.7331  155.1406 H   0  0  0  0  0  0  0  0  0  0  0  0
  148.8394  141.0755  153.3391 H   0  0  0  0  0  0  0  0  0  0  0  0
  147.8768  139.6344  153.6176 H   0  0  0  0  0  0  0  0  0  0  0  0
  147.5141  142.9828  153.0501 H   0  0  0  0  0  0  0  0  0  0  0  0
  145.5858  144.4026  153.7055 H   0  0  0  0  0  0  0  0  0  0  0  0
  144.0397  143.6539  155.5059 H   0  0  0  0  0  0  0  0  0  0  0  0
  144.4249  141.4782  156.6510 H   0  0  0  0  0  0  0  0  0  0  0  0
  146.3528  140.0527  155.9995 H   0  0  0  0  0  0  0  0  0  0  0  0
  151.0634  144.6669  159.2924 H   0  0  0  0  0  0  0  0  0  0  0  0
  151.5726  145.4710  161.6094 H   0  0  0  0  0  0  0  0  0  0  0  0
  152.9031  144.0649  163.1694 H   0  0  0  0  0  0  0  0  0  0  0  0
  153.7538  141.8196  162.4455 H   0  0  0  0  0  0  0  0  0  0  0  0
  1  2  1  0  0  0  0
  1 24  1  0  0  0  0
  1 25  1  0  0  0  0
  1 26  1  0  0  0  0
  2 23  1  0  0  0  0
  2  3  1  0  0  0  0
  3  4  2  0  0  0  0
  3  5  1  0  0  0  0
  5  6  1  0  0  0  0
  5 18  1  0  0  0  0
  6  7  1  0  0  0  0
  6 27  1  0  0  0  0
  6 28  1  0  0  0  0
  7  8  1  0  0  0  0
  7  9  1  0  0  0  0
  7 29  1  0  0  0  0
  8 30  1  0  0  0  0
  9 10  1  0  0  0  0
  9 31  1  0  0  0  0
  9 32  1  0  0  0  0
 10 11  1  0  0  0  0
 11 12  1  0  0  0  0
 11 33  1  0  0  0  0
 11 34  1  0  0  0  0
 12 17  1  0  0  0  0
 12 13  2  0  0  0  0
 13 14  1  0  0  0  0
 13 35  1  0  0  0  0
 14 15  2  0  0  0  0
 14 36  1  0  0  0  0
 15 16  1  0  0  0  0
 15 37  1  0  0  0  0
 16 17  2  0  0  0  0
 16 38  1  0  0  0  0
 17 39  1  0  0  0  0
 18 23  2  0  0  0  0
 18 19  1  0  0  0  0
 19 20  2  0  0  0  0
 19 40  1  0  0  0  0
 20 21  1  0  0  0  0
 20 41  1  0  0  0  0
 21 22  2  0  0  0  0
 21 42  1  0  0  0  0
 22 23  1  0  0  0  0
 22 43  1  0  0  0  0
M  END
> <s_m_source_file>
AV-unprocessed.smi

> <i_m_source_file_index>
421

> <i_lp_mmshare_version>
43012

> <i_f3d_flags>
0

> <s_epik_input>
W2NIXTFbY0hdW2NIXVtjSF1jKGMxMiluKFtDSDNdKWMoPU8pbjJbQ0gyXVtDQEhdKFtPSF0pW0NIMl1PW0NIMl1jM1tjSF1bY0hdW2NIXVtjSF1bY0hdMw==

> <s_epik_cmdline>
J2VwaWtfcHl0aG9uJywgJy1waCcsICc3LjAnLCAnLXRuJywgJzgnLCAnLW1hJywgJzIwMCcsICctbWV0YWxfYmluZGluZycsICctaW1hZScsICc8aW5maWxlLm1hZT4nLCAnLW9tYWUnLCAnPG91dGZpbGUubWFlPic=

> <r_lp_tautomer_probability>
1

> <r_epik_Ionization_Penalty>
1.0795e-06

> <r_epik_Ionization_Penalty_Charging>
2.82452e-09

> <r_epik_Ionization_Penalty_Neutral>
1.07667e-06

> <r_epik_State_Penalty>
-0

> <r_epik_Charging_Adjusted_Penalty>
2.82452e-09

> <i_epik_Tot_Q>
0

> <i_epik_Tot_abs_Q>
0

> <r_epik_Metal_State_Penalty>
-0

> <b_epik_Metal_Only>
0

> <s_lp_Force_Field>
OPLS_2005

> <r_lp_Energy>
47.6123

> <b_lp_Chiralities_Consistent>
1

> <s_lp_Variant>
AV-unprocessed.smi:421-2

> <Gold.Version>
5.8.1

> <Gold.Id.Protein>
6NUR|6NUR_protein|mol2

> <Gold.PLP.Fitness>
56.4050

> <Gold.PLP.PLP>
-52.8485

> <Gold.PLP.part.hbond>
-2.0000

> <Gold.PLP.part.metal>
0.0000

> <Gold.PLP.part.buried>
-6.0178

> <Gold.PLP.part.nonpolar>
-44.2825

> <Gold.PLP.part.repulsive>
0.0669

> <Gold.PLP.ligand.clash>
0.0000

> <Gold.PLP.ligand.torsion>
1.3034

> <Gold.PLP.Chemscore.Hbond>
2.0000

> <Gold.PLP.Chemscore.CHOScore>
0.0000

> <Gold.PLP.Chemscore.Metal>
0.0000

> <Gold.Chemscore.Hbonds>
donor molecule, donor type, donor heavy atom, donor atom, acceptor molecule, acceptor atom, score
      L1  H     8    30       P1  8028  1.00
      P1  H  7997  8010       L1     4  1.00

> <Gold.PLP.Chemscore.Internal.Correction>
0.1634

> <Gold.Rescore>
     Score         DG    S(hbond)    S(metal)    S(lipo)     H(rot)  DE(clash)    DE(int)     intcor
     19.79     -21.84       1.86        0.00     135.13       2.21       0.71       1.33       ----

> <Gold.Chemscore.Fitness>
19.7939

> <Gold.Chemscore.DG>
-21.8375

> <Gold.Chemscore.ZeroCoef>
-5.4800

> <Gold.Chemscore.Hbond>
1.8592

> <Gold.Chemscore.Metal>
0.0000

> <Gold.Chemscore.Lipo>
135.1285

> <Gold.Chemscore.Internal_Hbond>
0.0000

> <Gold.Chemscore.DEClash>
0.7113

> <Gold.Chemscore.DEInternal>
1.3323

> <Gold.Chemscore.Rot>
2.2119

> <Gold.Chemscore.Internal.Correction>
   9.000000E+99

> <Gold.Chemscore.Hbonds>
donor molecule, donor type, donor heavy atom, donor atom, acceptor molecule, acceptor atom, score
      L1  H     8    30       P1  8028  0.96
      P1  H  7997  8010       L1     4  0.80

> <Gold.Chemscore.Hbond.Weighted>
-6.2098

> <Gold.Chemscore.Metal.Weighted>
-0.0000

> <Gold.Chemscore.Lipo.Weighted>
-15.8100

> <Gold.Chemscore.Internal_Hbond.Weighted>
0.0000

> <Gold.Chemscore.DEClash.Weighted>
0.7113

> <Gold.Chemscore.DEInternal.Weighted>
1.3323

> <Gold.Chemscore.Rot.Weighted>
5.6623

> <Gold.Chemscore.Internal.Correction.Weighted>
   9.000000E+99

> <Gold.Protein.RotatedTorsions>
[ 6907 6896 6895 6894 ] final   23.12 input  -60.11 | X-H torsion
[ 7974 7965 7964 7962 ] final -112.55 input  175.53 | X-H torsion
[ 8008 7997 7996 7995 ] final   53.69 input   59.86 | X-H torsion
[ 10167 10162 10161 10158 ] final  -94.37 input  -65.29 | X-H torsion
[ 10718 10713 10712 10709 ] final -150.17 input   66.30 | X-H torsion
[ 10763 10752 10751 10750 ] final  115.32 input  -60.55 | X-H torsion
[ 11005 11000 10999 10996 ] final   -3.31 input  -57.11 | X-H torsion

> <Gold.Protein.ActiveResidues>
 VAL166  LYS551  ARG553  GLY616  TRP617  ASP618  TYR619  PRO620  LYS621  CYS622 
 ASP623  PHE694  ASN695  SER759  ASP760  ASP761  ALA762  ILE779  LEU786  VAL792 
 PHE793  MET794  SER795  GLU796  ALA797  LYS798  CYS799  TRP800  GLU811  SER814 

> <Gold.Protein.RotatedAtoms>
  151.9376  135.0228  160.0533 H   0  0  0  0  0  0  0  0  0  0  0  0  # atno 6907 bound_to 6896
  152.2065  133.4874  159.5095 H   0  0  0  0  0  0  0  0  0  0  0  0  # atno 6908 bound_to 6896
  150.6966  134.1440  159.4158 H   0  0  0  0  0  0  0  0  0  0  0  0  # atno 6909 bound_to 6896
  145.1427  140.8786  143.3692 H   0  0  0  0  0  0  0  0  0  0  0  0  # atno 7974 bound_to 7965
  155.4725  140.3465  155.4328 H   0  0  0  0  0  0  0  0  0  0  0  0  # atno 8008 bound_to 7997
  156.1091  140.1456  156.9392 H   0  0  0  0  0  0  0  0  0  0  0  0  # atno 8009 bound_to 7997
  154.4744  140.0890  156.7205 H   0  0  0  0  0  0  0  0  0  0  0  0  # atno 8010 bound_to 7997
  140.3151  143.3082  152.0107 H   0  0  0  0  0  0  0  0  0  0  0  0  # atno 10167 bound_to 10162
  156.4426  130.8129  151.2359 H   0  0  0  0  0  0  0  0  0  0  0  0  # atno 10718 bound_to 10713
  153.5205  135.3599  155.2629 H   0  0  0  0  0  0  0  0  0  0  0  0  # atno 10763 bound_to 10752
  154.8735  135.4044  154.3266 H   0  0  0  0  0  0  0  0  0  0  0  0  # atno 10764 bound_to 10752
  153.3935  135.7072  153.6544 H   0  0  0  0  0  0  0  0  0  0  0  0  # atno 10765 bound_to 10752
  140.6679  133.9262  155.8476 H   0  0  0  0  0  0  0  0  0  0  0  0  # atno 11005 bound_to 11000
  145.0515  139.3178  143.5926 LP  0  0  0  0  0  0  0  0  0  0  0  0  # atno 17320 bound_to 7965
  146.3503  139.9925  142.8684 LP  0  0  0  0  0  0  0  0  0  0  0  0  # atno 17321 bound_to 7965
  139.4885  144.6355  151.6985 LP  0  0  0  0  0  0  0  0  0  0  0  0  # atno 17342 bound_to 10162
  140.5534  144.0388  150.6137 LP  0  0  0  0  0  0  0  0  0  0  0  0  # atno 17343 bound_to 10162
  157.7506  131.0163  150.3540 LP  0  0  0  0  0  0  0  0  0  0  0  0  # atno 17370 bound_to 10713
  156.3901  130.3896  149.7036 LP  0  0  0  0  0  0  0  0  0  0  0  0  # atno 17371 bound_to 10713
  141.0414  134.0615  157.3897 LP  0  0  0  0  0  0  0  0  0  0  0  0  # atno 17394 bound_to 11000
  139.8991  135.0157  156.7180 LP  0  0  0  0  0  0  0  0  0  0  0  0  # atno 17395 bound_to 11000

$$$$
