AV-unprocessed.smi:730|AV-procd|sdf|3524|dock2
  -GOLD-   22720 0513D 1   1.00000     0.00000
 Structure written by MMmdl.
 40 41  0  0  0  0  0  0  0  0  1 V2000
  151.2989  143.2750  157.1474 C   0  0  0  0  0  0  0  0  0  0  0  0
  150.7021  141.9425  157.6428 C   0  0  0  0  0  0  0  0  0  0  0  0
  151.6585  141.3414  158.6899 C   0  0  0  0  0  0  0  0  0  0  0  0
  149.3437  142.2360  158.3068 C   0  0  0  0  0  0  0  0  0  0  0  0
  150.5190  140.9811  156.5015 C   0  0  0  0  0  0  0  0  0  0  0  0
  149.4596  140.2370  156.0571 C   0  0  0  0  0  0  0  0  0  0  0  0
  149.9902  139.5542  154.9310 C   0  0  0  0  0  0  0  0  0  0  0  0
  149.1865  138.6626  154.1756 N   0  0  0  0  0  0  0  0  0  0  0  0
  147.8533  138.5070  154.2399 C   0  0  0  0  0  0  0  0  0  0  0  0
  147.1004  139.1298  154.9892 O   0  0  0  0  0  0  0  0  0  0  0  0
  147.4301  137.5732  153.3764 N   0  0  0  0  0  0  0  0  0  0  0  0
  146.0370  137.1633  153.1971 C   0  0  2  0  0  0  0  0  0  0  0  0
  145.8071  135.7122  153.6728 C   0  0  0  0  0  0  0  0  0  0  0  0
  145.1165  134.9826  152.5171 C   0  0  0  0  0  0  0  0  0  0  0  0
  145.5709  135.7307  151.2678 C   0  0  0  0  0  0  0  0  0  0  0  0
  145.6009  137.1934  151.7134 C   0  0  2  0  0  0  0  0  0  0  0  0
  146.4238  137.9712  150.8638 O   0  0  0  0  0  0  0  0  0  0  0  0
  151.2598  139.8496  154.7033 N   0  0  0  0  0  0  0  0  0  0  0  0
  151.6040  140.7631  155.7057 O   0  0  0  0  0  0  0  0  0  0  0  0
  151.4343  143.9802  157.9681 H   0  0  0  0  0  0  0  0  0  0  0  0
  150.6510  143.7527  156.4113 H   0  0  0  0  0  0  0  0  0  0  0  0
  152.2738  143.1264  156.6816 H   0  0  0  0  0  0  0  0  0  0  0  0
  152.6353  141.1244  158.2557 H   0  0  0  0  0  0  0  0  0  0  0  0
  151.2680  140.4090  159.0994 H   0  0  0  0  0  0  0  0  0  0  0  0
  151.8144  142.0239  159.5260 H   0  0  0  0  0  0  0  0  0  0  0  0
  149.4473  142.9391  159.1339 H   0  0  0  0  0  0  0  0  0  0  0  0
  148.8899  141.3282  158.7061 H   0  0  0  0  0  0  0  0  0  0  0  0
  148.6400  142.6676  157.5941 H   0  0  0  0  0  0  0  0  0  0  0  0
  148.4638  140.1897  156.4725 H   0  0  0  0  0  0  0  0  0  0  0  0
  149.6799  138.0798  153.5159 H   0  0  0  0  0  0  0  0  0  0  0  0
  148.1144  137.1101  152.7961 H   0  0  0  0  0  0  0  0  0  0  0  0
  145.3963  137.8470  153.7574 H   0  0  0  0  0  0  0  0  0  0  0  0
  146.7576  135.2200  153.8858 H   0  0  0  0  0  0  0  0  0  0  0  0
  145.2148  135.6714  154.5874 H   0  0  0  0  0  0  0  0  0  0  0  0
  145.3628  133.9210  152.4846 H   0  0  0  0  0  0  0  0  0  0  0  0
  144.0341  135.0699  152.6217 H   0  0  0  0  0  0  0  0  0  0  0  0
  146.5730  135.3986  150.9909 H   0  0  0  0  0  0  0  0  0  0  0  0
  144.9144  135.5634  150.4135 H   0  0  0  0  0  0  0  0  0  0  0  0
  144.5866  137.5915  151.6568 H   0  0  0  0  0  0  0  0  0  0  0  0
  145.8679  138.5097  150.3214 H   0  0  0  0  0  0  0  0  0  0  0  0
  1  2  1  0  0  0  0
  1 20  1  0  0  0  0
  1 21  1  0  0  0  0
  1 22  1  0  0  0  0
  2  3  1  0  0  0  0
  2  4  1  0  0  0  0
  2  5  1  0  0  0  0
  3 23  1  0  0  0  0
  3 24  1  0  0  0  0
  3 25  1  0  0  0  0
  4 26  1  0  0  0  0
  4 27  1  0  0  0  0
  4 28  1  0  0  0  0
  5 19  1  0  0  0  0
  5  6  2  0  0  0  0
  6  7  1  0  0  0  0
  6 29  1  0  0  0  0
  7  8  1  0  0  0  0
  7 18  2  0  0  0  0
  8  9  1  0  0  0  0
  8 30  1  0  0  0  0
  9 10  2  0  0  0  0
  9 11  1  0  0  0  0
 11 12  1  0  0  0  0
 11 31  1  0  0  0  0
 12 16  1  0  0  0  0
 12 13  1  0  0  0  0
 12 32  1  0  0  0  0
 13 14  1  0  0  0  0
 13 33  1  0  0  0  0
 13 34  1  0  0  0  0
 14 15  1  0  0  0  0
 14 35  1  0  0  0  0
 14 36  1  0  0  0  0
 15 16  1  0  0  0  0
 15 37  1  0  0  0  0
 15 38  1  0  0  0  0
 16 17  1  0  0  0  0
 16 39  1  0  0  0  0
 17 40  1  0  0  0  0
 18 19  1  0  0  0  0
M  END
> <s_m_source_file>
AV-unprocessed.smi

> <i_m_source_file_index>
730

> <i_lp_mmshare_version>
43012

> <i_f3d_flags>
0

> <s_epik_input>
W0NIM11DKFtDSDNdKShbQ0gzXSljMVtjSF1jKG5vMSlbTkhdQyg9TylbTkhdW0NAQEhdMltDSDJdW0NIMl1bQ0gyXVtDQEhdMltPSF0=

> <s_epik_cmdline>
J2VwaWtfcHl0aG9uJywgJy1waCcsICc3LjAnLCAnLXRuJywgJzgnLCAnLW1hJywgJzIwMCcsICctbWV0YWxfYmluZGluZycsICctaW1hZScsICc8aW5maWxlLm1hZT4nLCAnLW9tYWUnLCAnPG91dGZpbGUubWFlPic=

> <r_lp_tautomer_probability>
1

> <r_epik_Ionization_Penalty>
2.23071e-05

> <r_epik_Ionization_Penalty_Charging>
0

> <r_epik_Ionization_Penalty_Neutral>
2.23071e-05

> <r_epik_State_Penalty>
-0

> <r_epik_Charging_Adjusted_Penalty>
0

> <i_epik_Tot_Q>
0

> <i_epik_Tot_abs_Q>
0

> <r_epik_Metal_State_Penalty>
-0

> <b_epik_Metal_Only>
0

> <s_lp_Force_Field>
OPLS_2005

> <r_lp_Energy>
21.1431

> <b_lp_Chiralities_Consistent>
1

> <s_lp_Variant>
AV-unprocessed.smi:730-3

> <Gold.Version>
5.8.1

> <Gold.Id.Protein>
6NUR|6NUR_protein|mol2

> <Gold.PLP.Fitness>
36.1905

> <Gold.PLP.PLP>
-26.3682

> <Gold.PLP.part.hbond>
-5.4987

> <Gold.PLP.part.metal>
0.0000

> <Gold.PLP.part.buried>
-2.8639

> <Gold.PLP.part.nonpolar>
-18.5059

> <Gold.PLP.part.repulsive>
0.2023

> <Gold.PLP.ligand.clash>
0.0000

> <Gold.PLP.ligand.torsion>
0.2936

> <Gold.PLP.Chemscore.Hbond>
3.4684

> <Gold.PLP.Chemscore.CHOScore>
0.0000

> <Gold.PLP.Chemscore.Metal>
0.0000

> <Gold.Chemscore.Hbonds>
donor molecule, donor type, donor heavy atom, donor atom, acceptor molecule, acceptor atom, score
      L1  H    11    31       P1  7948  0.99
      L1  H    17    40       P1 10171  0.75
      P1  H  7954  7966       L1    17  1.00
      P1  H  7989  7998       L1    18  0.70

> <Gold.PLP.Chemscore.Internal.Correction>
0.0044

> <Gold.Rescore>
     Score         DG    S(hbond)    S(metal)    S(lipo)     H(rot)  DE(clash)    DE(int)     intcor
     12.76     -14.76       2.14        0.00      55.76       1.71       0.29       1.71       ----

> <Gold.Chemscore.Fitness>
12.7572

> <Gold.Chemscore.DG>
-14.7572

> <Gold.Chemscore.ZeroCoef>
-5.4800

> <Gold.Chemscore.Hbond>
2.1370

> <Gold.Chemscore.Metal>
0.0000

> <Gold.Chemscore.Lipo>
55.7578

> <Gold.Chemscore.Internal_Hbond>
0.0000

> <Gold.Chemscore.DEClash>
0.2920

> <Gold.Chemscore.DEInternal>
1.7081

> <Gold.Chemscore.Rot>
1.7125

> <Gold.Chemscore.Internal.Correction>
   9.000000E+99

> <Gold.Chemscore.Hbonds>
donor molecule, donor type, donor heavy atom, donor atom, acceptor molecule, acceptor atom, score
      L1  H    11    31       P1  7948  0.92
      L1  H    17    40       P1 10171  0.72
      P1  H  7954  7966       L1    17  0.47
      P1  H  7989  7998       L1    18  0.07

> <Gold.Chemscore.Hbond.Weighted>
-7.1376

> <Gold.Chemscore.Metal.Weighted>
-0.0000

> <Gold.Chemscore.Lipo.Weighted>
-6.5237

> <Gold.Chemscore.Internal_Hbond.Weighted>
0.0000

> <Gold.Chemscore.DEClash.Weighted>
0.2920

> <Gold.Chemscore.DEInternal.Weighted>
1.7081

> <Gold.Chemscore.Rot.Weighted>
4.3841

> <Gold.Chemscore.Internal.Correction.Weighted>
   9.000000E+99

> <Gold.Protein.RotatedTorsions>
[ 6907 6896 6895 6894 ] final -149.29 input  -60.11 | X-H torsion
[ 7974 7965 7964 7962 ] final   45.30 input  175.53 | X-H torsion
[ 8008 7997 7996 7995 ] final -141.18 input   59.86 | X-H torsion
[ 10167 10162 10161 10158 ] final   75.70 input  -65.29 | X-H torsion
[ 10718 10713 10712 10709 ] final   71.90 input   66.30 | X-H torsion
[ 10763 10752 10751 10750 ] final  -52.53 input  -60.55 | X-H torsion
[ 11005 11000 10999 10996 ] final   70.66 input  -57.11 | X-H torsion

> <Gold.Protein.ActiveResidues>
 VAL166  LYS551  ARG553  GLY616  TRP617  ASP618  TYR619  PRO620  LYS621  CYS622 
 ASP623  PHE694  ASN695  SER759  ASP760  ASP761  ALA762  ILE779  LEU786  VAL792 
 PHE793  MET794  SER795  GLU796  ALA797  LYS798  CYS799  TRP800  GLU811  SER814 

> <Gold.Protein.RotatedAtoms>
  151.1821  133.4719  159.2593 H   0  0  0  0  0  0  0  0  0  0  0  0  # atno 6907 bound_to 6896
  151.1249  135.0099  159.8565 H   0  0  0  0  0  0  0  0  0  0  0  0  # atno 6908 bound_to 6896
  152.5457  134.1729  159.8657 H   0  0  0  0  0  0  0  0  0  0  0  0  # atno 6909 bound_to 6896
  146.0492  139.4979  142.9729 H   0  0  0  0  0  0  0  0  0  0  0  0  # atno 7974 bound_to 7965
  155.4735  140.0555  157.2976 H   0  0  0  0  0  0  0  0  0  0  0  0  # atno 8008 bound_to 7997
  154.4689  140.2031  156.0000 H   0  0  0  0  0  0  0  0  0  0  0  0  # atno 8009 bound_to 7997
  156.1021  140.3217  155.7961 H   0  0  0  0  0  0  0  0  0  0  0  0  # atno 8010 bound_to 7997
  140.0001  144.5692  150.7744 H   0  0  0  0  0  0  0  0  0  0  0  0  # atno 10167 bound_to 10162
  157.6474  130.9551  150.0854 H   0  0  0  0  0  0  0  0  0  0  0  0  # atno 10718 bound_to 10713
  154.1442  135.6500  153.4949 H   0  0  0  0  0  0  0  0  0  0  0  0  # atno 10763 bound_to 10752
  153.0157  135.5323  154.6874 H   0  0  0  0  0  0  0  0  0  0  0  0  # atno 10764 bound_to 10752
  154.6143  135.2957  155.0368 H   0  0  0  0  0  0  0  0  0  0  0  0  # atno 10765 bound_to 10752
  139.9586  134.7101  156.0697 H   0  0  0  0  0  0  0  0  0  0  0  0  # atno 11005 bound_to 11000
  145.6754  141.0205  143.1635 LP  0  0  0  0  0  0  0  0  0  0  0  0  # atno 17320 bound_to 7965
  144.7113  139.8359  143.7413 LP  0  0  0  0  0  0  0  0  0  0  0  0  # atno 17321 bound_to 7965
  140.7422  143.2828  151.3548 LP  0  0  0  0  0  0  0  0  0  0  0  0  # atno 17342 bound_to 10162
  139.6277  144.0781  152.2449 LP  0  0  0  0  0  0  0  0  0  0  0  0  # atno 17343 bound_to 10162
  156.1818  130.3650  149.9025 LP  0  0  0  0  0  0  0  0  0  0  0  0  # atno 17370 bound_to 10713
  156.6976  130.8920  151.3595 LP  0  0  0  0  0  0  0  0  0  0  0  0  # atno 17371 bound_to 10713
  141.1260  133.6599  156.3338 LP  0  0  0  0  0  0  0  0  0  0  0  0  # atno 17394 bound_to 11000
  140.5553  134.5988  157.5419 LP  0  0  0  0  0  0  0  0  0  0  0  0  # atno 17395 bound_to 11000

$$$$
