#       Name:                AV-unprocessed.smi:2999
#       Creating user name   scv26
#       Creation time:       Fri Mar 27 16:34:30 2020


#       File generated by GOLD software.
#

@<TRIPOS>MOLECULE
AV-unprocessed.smi:2999
    43    45     1
SMALL
NO_CHARGES


@<TRIPOS>ATOM
      1 ****        -1.2285   2.0226  -0.9208 O.2            1 S1                 0.0000
      2 ****        -1.7115   1.1427  -1.6334 C.2            1 S1                 0.0000
      3 ****        -0.9893   0.1431  -2.1593 N.am           1 S1                 0.0000
      4 ****         0.4474  -0.0353  -1.9763 C.3            1 S1                 0.0000
      5 ****         0.7895  -0.5811  -0.5781 C.3            1 S1                 0.0000
      6 ****         2.3143  -0.6895  -0.3638 C.3            1 S1                 0.0000
      7 ****         2.6366  -1.3089   0.9442 N.4            1 S1                 1.0000
      8 ****         2.4670  -0.3862   2.0912 C.3            1 S1                 0.0000
      9 ****         3.6610   0.5082   2.3294 C.3            1 S1                 0.0000
     10 ****         3.4058  -0.6722   3.2399 C.3            1 S1                 0.0000
     11 ****         1.9194  -2.5947   1.1133 C.3            1 S1                 0.0000
     12 ****         0.4120  -2.4332   0.8452 C.3            1 S1                 0.0000
     13 ****         0.2168  -1.8792  -0.4500 O.3            1 S1                 0.0000
     14 ****        -3.0035   1.0492  -1.9862 N.am           1 S1                 0.0000
     15 ****        -4.0689   1.9036  -1.6092 C.2            1 S1                 0.0000
     16 ****        -5.2903   1.6611  -2.0882 N.2            1 S1                 0.0000
     17 ****        -6.2294   2.5862  -1.6232 C.2            1 S1                 0.0000
     18 ****        -5.7013   3.5325  -0.7803 C.2            1 S1                 0.0000
     19 ****        -3.9910   3.3031  -0.5356 S.3            1 S1                 0.0000
     20 ****        -1.4648  -0.5403  -2.7308 H              1 S1                 0.0000
     21 ****         0.8089  -0.7192  -2.7446 H              1 S1                 0.0000
     22 ****         0.9541   0.9162  -2.1466 H              1 S1                 0.0000
     23 ****         0.3615   0.0795   0.1774 H              1 S1                 0.0000
     24 ****         2.7520  -1.3057  -1.1503 H              1 S1                 0.0000
     25 ****         2.7864   0.2908  -0.4399 H              1 S1                 0.0000
     26 ****         1.4606  -0.0213   2.2864 H              1 S1                 0.0000
     27 ****         4.5038   0.4392   1.6438 H              1 S1                 0.0000
     28 ****         3.4719   1.5001   2.7349 H              1 S1                 0.0000
     29 ****         3.0490  -0.4577   4.2452 H              1 S1                 0.0000
     30 ****         4.0770  -1.5252   3.1568 H              1 S1                 0.0000
     31 ****         2.3364  -3.3155   0.4087 H              1 S1                 0.0000
     32 ****         2.0941  -2.9994   2.1109 H              1 S1                 0.0000
     33 ****        -0.0806  -3.4046   0.8892 H              1 S1                 0.0000
     34 ****        -0.0625  -1.8053   1.6007 H              1 S1                 0.0000
     35 ****        -3.2557   0.2811  -2.5907 H              1 S1                 0.0000
     36 ****        -7.2569   2.4962  -1.9430 H              1 S1                 0.0000
     37 ****        -6.2126   4.3478  -0.2907 H              1 S1                 0.0000
     38 ****         3.6220  -1.5304   0.9223 H              1 S1                 0.0000
     39 ****        -0.2513   2.0139  -0.7086 LP             1 S1                 0.0000
     40 ****        -1.8134   2.7461  -0.5540 LP             1 S1                 0.0000
     41 ****         0.6389  -2.4843  -1.1249 LP             1 S1                 0.0000
     42 ****        -0.7653  -1.8157  -0.6273 LP             1 S1                 0.0000
     43 ****        -5.5083   0.9064  -2.7070 LP             1 S1                 0.0000
@<TRIPOS>BOND
    1    1    2 2     
    2    2    3 am    
    3    2   14 am    
    4    3    4 1     
    5    3   20 1     
    6    4    5 1     
    7    4   21 1     
    8    4   22 1     
    9    5   13 1     
   10    5    6 1     
   11    5   23 1     
   12    6    7 1     
   13    6   24 1     
   14    6   25 1     
   15    7    8 1     
   16    7   11 1     
   17    7   38 1     
   18    8   10 1     
   19    8    9 1     
   20    8   26 1     
   21    9   10 1     
   22    9   27 1     
   23    9   28 1     
   24   10   29 1     
   25   10   30 1     
   26   11   12 1     
   27   11   31 1     
   28   11   32 1     
   29   12   13 1     
   30   12   33 1     
   31   12   34 1     
   32   14   15 1     
   33   14   35 1     
   34   15   19 1     
   35   15   16 2     
   36   16   17 1     
   37   17   18 2     
   38   17   36 1     
   39   18   19 1     
   40   18   37 1     
   41    1   39 1     
   42    1   40 1     
   43   13   41 1     
   44   13   42 1     
   45   16   43 1     
@<TRIPOS>SUBSTRUCTURE
      1 S1             1
@<TRIPOS>SET
LONE_PAIRS      STATIC     ATOMS    <user>   **** ""
5 39 40 41 42 43
DONOR_HYDROGENS      STATIC     ATOMS    <user>   **** ""
3 20 38 35
ATOM$BLUE        STATIC     ATOMS    COLORGROUP SYSTEM
5 39 40 41 42 43
ATOM$RED        STATIC     ATOMS    COLORGROUP SYSTEM
3 20 38 35
