AV-unprocessed.smi:3137|AV-procd|sdf|11953|dock2
  -GOLD-   2272017353D 1   1.00000     0.00000
 Structure written by MMmdl.
 40 40  0  0  0  0  0  0  0  0  2 V2000
  148.1165  145.1418  161.3318 C   0  0  0  0  0  0  0  0  0  0  0  0
  146.6839  144.7621  160.9449 C   0  0  0  0  0  0  0  0  0  0  0  0
  146.6149  144.3812  159.5411 N   0  0  0  0  0  0  0  0  0  0  0  0
  146.2513  143.1671  159.1036 C   0  0  0  0  0  0  0  0  0  0  0  0
  145.9400  142.2452  159.8580 O   0  0  0  0  0  0  0  0  0  0  0  0
  146.2459  142.9668  157.5847 C   0  0  0  0  0  0  0  0  0  0  0  0
  147.1950  141.8478  157.1236 C   0  0  0  0  0  0  0  0  0  0  0  0
  148.5731  142.3584  156.9620 N   0  3  0  0  0  0  0  0  0  0  0  0
  149.5562  141.3957  156.4115 C   0  0  1  0  0  0  0  0  0  0  0  0
  149.1849  141.0844  154.9550 C   0  0  0  0  0  0  0  0  0  0  0  0
  151.0027  141.9375  156.4914 C   0  0  0  0  0  0  0  0  0  0  0  0
  151.3244  142.5640  157.7609 N   0  0  0  0  0  0  0  0  0  0  0  0
  151.2980  143.9034  158.0881 C   0  0  0  0  0  0  0  0  0  0  0  0
  151.6879  144.0154  159.3926 C   0  0  0  0  0  0  0  0  0  0  0  0
  151.8181  145.2552  160.2295 C   0  0  0  0  0  0  0  0  0  0  0  0
  151.9510  142.6698  159.7767 C   0  0  0  0  0  0  0  0  0  0  0  0
  151.7376  141.8054  158.7981 N   0  0  0  0  0  0  0  0  0  0  0  0
  148.1706  145.4267  162.3826 H   0  0  0  0  0  0  0  0  0  0  0  0
  148.4753  145.9849  160.7409 H   0  0  0  0  0  0  0  0  0  0  0  0
  148.8017  144.3072  161.1787 H   0  0  0  0  0  0  0  0  0  0  0  0
  146.3396  143.9337  161.5657 H   0  0  0  0  0  0  0  0  0  0  0  0
  146.0144  145.6036  161.1278 H   0  0  0  0  0  0  0  0  0  0  0  0
  146.8604  145.0862  158.8611 H   0  0  0  0  0  0  0  0  0  0  0  0
  145.2298  142.7440  157.2554 H   0  0  0  0  0  0  0  0  0  0  0  0
  146.5280  143.9106  157.1172 H   0  0  0  0  0  0  0  0  0  0  0  0
  147.1863  141.0360  157.8486 H   0  0  0  0  0  0  0  0  0  0  0  0
  146.8516  141.4354  156.1738 H   0  0  0  0  0  0  0  0  0  0  0  0
  148.5205  143.1322  156.3151 H   0  0  0  0  0  0  0  0  0  0  0  0
  149.4820  140.4566  156.9620 H   0  0  0  0  0  0  0  0  0  0  0  0
  149.8630  140.3460  154.5261 H   0  0  0  0  0  0  0  0  0  0  0  0
  149.2300  141.9782  154.3318 H   0  0  0  0  0  0  0  0  0  0  0  0
  148.1751  140.6787  154.8848 H   0  0  0  0  0  0  0  0  0  0  0  0
  151.7132  141.1227  156.3449 H   0  0  0  0  0  0  0  0  0  0  0  0
  151.1870  142.6531  155.6888 H   0  0  0  0  0  0  0  0  0  0  0  0
  151.0014  144.6593  157.3759 H   0  0  0  0  0  0  0  0  0  0  0  0
  151.8637  145.0226  161.2938 H   0  0  0  0  0  0  0  0  0  0  0  0
  150.9743  145.9300  160.0851 H   0  0  0  0  0  0  0  0  0  0  0  0
  152.7222  145.8124  159.9836 H   0  0  0  0  0  0  0  0  0  0  0  0
  152.2900  142.2980  160.7325 H   0  0  0  0  0  0  0  0  0  0  0  0
  148.9128  142.7070  157.8470 H   0  0  0  0  0  0  0  0  0  0  0  0
  1  2  1  0  0  0  0
  1 18  1  0  0  0  0
  1 19  1  0  0  0  0
  1 20  1  0  0  0  0
  2  3  1  0  0  0  0
  2 21  1  0  0  0  0
  2 22  1  0  0  0  0
  3  4  1  0  0  0  0
  3 23  1  0  0  0  0
  4  5  2  0  0  0  0
  4  6  1  0  0  0  0
  6  7  1  0  0  0  0
  6 24  1  0  0  0  0
  6 25  1  0  0  0  0
  7  8  1  0  0  0  0
  7 26  1  0  0  0  0
  7 27  1  0  0  0  0
  8  9  1  0  0  0  0
  8 28  1  0  0  0  0
  8 40  1  0  0  0  0
  9 10  1  0  0  0  0
  9 11  1  0  0  0  0
  9 29  1  0  0  0  0
 10 30  1  0  0  0  0
 10 31  1  0  0  0  0
 10 32  1  0  0  0  0
 11 12  1  0  0  0  0
 11 33  1  0  0  0  0
 11 34  1  0  0  0  0
 12 17  1  0  0  0  0
 12 13  1  0  0  0  0
 13 14  2  0  0  0  0
 13 35  1  0  0  0  0
 14 15  1  0  0  0  0
 14 16  1  0  0  0  0
 15 36  1  0  0  0  0
 15 37  1  0  0  0  0
 15 38  1  0  0  0  0
 16 17  2  0  0  0  0
 16 39  1  0  0  0  0
M  CHG  1   8   1
M  END
> <s_m_source_file>
AV-unprocessed.smi

> <i_m_source_file_index>
3137

> <i_lp_mmshare_version>
43012

> <i_f3d_flags>
0

> <s_epik_input>
W0NIM11bQ0gyXVtOSF1DKD1PKVtDSDJdW0NIMl1bTkhdW0NASF0oW0NIM10pW0NIMl1uMVtjSF1jKFtDSDNdKVtjSF1uMQ==

> <s_epik_cmdline>
J2VwaWtfcHl0aG9uJywgJy1waCcsICc3LjAnLCAnLXRuJywgJzgnLCAnLW1hJywgJzIwMCcsICctbWV0YWxfYmluZGluZycsICctaW1hZScsICc8aW5maWxlLm1hZT4nLCAnLW9tYWUnLCAnPG91dGZpbGUubWFlPic=

> <r_lp_tautomer_probability>
1

> <r_epik_Ionization_Penalty>
0.00598586

> <r_epik_Ionization_Penalty_Charging>
0.00597743

> <r_epik_Ionization_Penalty_Neutral>
8.43172e-06

> <r_epik_State_Penalty>
0.00439883

> <r_epik_Charging_Adjusted_Penalty>
0.0103763

> <i_epik_Tot_Q>
1

> <i_epik_Tot_abs_Q>
1

> <r_epik_Metal_State_Penalty>
-0

> <b_epik_Metal_Only>
0

> <s_lp_Force_Field>
OPLS_2005

> <r_lp_Energy>
6.05872

> <b_lp_Chiralities_Consistent>
1

> <s_lp_Variant>
AV-unprocessed.smi:3137-2

> <Gold.Version>
5.8.1

> <Gold.Id.Protein>
6NUR|6NUR_protein|mol2

> <Gold.PLP.Fitness>
52.8225

> <Gold.PLP.PLP>
-38.9742

> <Gold.PLP.part.hbond>
-3.0000

> <Gold.PLP.part.metal>
0.0000

> <Gold.PLP.part.buried>
-6.4348

> <Gold.PLP.part.nonpolar>
-30.5690

> <Gold.PLP.part.repulsive>
0.0736

> <Gold.PLP.ligand.clash>
0.0000

> <Gold.PLP.ligand.torsion>
0.6312

> <Gold.PLP.Chemscore.Hbond>
4.0000

> <Gold.PLP.Chemscore.CHOScore>
0.9926

> <Gold.PLP.Chemscore.Metal>
0.0000

> <Gold.Chemscore.Hbonds>
donor molecule, donor type, donor heavy atom, donor atom, acceptor molecule, acceptor atom, score
      L1  H     3    23       P1  8029  0.93
      L1  H     8    28       P1  8028  2.00
      P1  H  6934  6946       L1     5  1.00
      L1  C    13    35       P1  8028  0.61

> <Gold.PLP.Chemscore.Internal.Correction>
0.1328

> <Gold.Rescore>
     Score         DG    S(hbond)    S(metal)    S(lipo)     H(rot)  DE(clash)    DE(int)     intcor
     18.46     -18.87       2.90        0.00      81.76       2.30       0.01       0.40       ----

> <Gold.Chemscore.Fitness>
18.4622

> <Gold.Chemscore.DG>
-18.8685

> <Gold.Chemscore.ZeroCoef>
-5.4800

> <Gold.Chemscore.Hbond>
2.9044

> <Gold.Chemscore.Metal>
0.0000

> <Gold.Chemscore.Lipo>
81.7635

> <Gold.Chemscore.Internal_Hbond>
0.0000

> <Gold.Chemscore.DEClash>
0.0104

> <Gold.Chemscore.DEInternal>
0.3959

> <Gold.Chemscore.Rot>
2.2963

> <Gold.Chemscore.Internal.Correction>
   9.000000E+99

> <Gold.Chemscore.Hbonds>
donor molecule, donor type, donor heavy atom, donor atom, acceptor molecule, acceptor atom, score
      L1  H     3    23       P1  8029  0.88
      L1  H     8    28       P1  8028  0.87
      P1  H  6934  6946       L1     5  1.00

> <Gold.Chemscore.Hbond.Weighted>
-9.7008

> <Gold.Chemscore.Metal.Weighted>
-0.0000

> <Gold.Chemscore.Lipo.Weighted>
-9.5663

> <Gold.Chemscore.Internal_Hbond.Weighted>
0.0000

> <Gold.Chemscore.DEClash.Weighted>
0.0104

> <Gold.Chemscore.DEInternal.Weighted>
0.3959

> <Gold.Chemscore.Rot.Weighted>
5.8786

> <Gold.Chemscore.Internal.Correction.Weighted>
   9.000000E+99

> <Gold.Protein.RotatedTorsions>
[ 6907 6896 6895 6894 ] final  146.64 input  -60.11 | X-H torsion
[ 7974 7965 7964 7962 ] final  -17.68 input  175.53 | X-H torsion
[ 8008 7997 7996 7995 ] final  151.40 input   59.86 | X-H torsion
[ 10167 10162 10161 10158 ] final -154.26 input  -65.29 | X-H torsion
[ 10718 10713 10712 10709 ] final  -22.93 input   66.30 | X-H torsion
[ 10763 10752 10751 10750 ] final -160.73 input  -60.55 | X-H torsion
[ 11005 11000 10999 10996 ] final   70.69 input  -57.11 | X-H torsion

> <Gold.Protein.ActiveResidues>
 VAL166  LYS551  ARG553  GLY616  TRP617  ASP618  TYR619  PRO620  LYS621  CYS622 
 ASP623  PHE694  ASN695  SER759  ASP760  ASP761  ALA762  ILE779  LEU786  VAL792 
 PHE793  MET794  SER795  GLU796  ALA797  LYS798  CYS799  TRP800  GLU811  SER814 

> <Gold.Protein.RotatedAtoms>
  152.1653  133.4608  159.4881 H   0  0  0  0  0  0  0  0  0  0  0  0  # atno 6907 bound_to 6896
  150.6912  134.2021  159.4335 H   0  0  0  0  0  0  0  0  0  0  0  0  # atno 6908 bound_to 6896
  151.9925  134.9971  160.0612 H   0  0  0  0  0  0  0  0  0  0  0  0  # atno 6909 bound_to 6896
  146.1929  140.3814  142.8451 H   0  0  0  0  0  0  0  0  0  0  0  0  # atno 7974 bound_to 7965
  156.2675  140.2049  156.6170 H   0  0  0  0  0  0  0  0  0  0  0  0  # atno 8008 bound_to 7997
  154.6787  140.0542  157.0266 H   0  0  0  0  0  0  0  0  0  0  0  0  # atno 8009 bound_to 7997
  155.1032  140.3208  155.4544 H   0  0  0  0  0  0  0  0  0  0  0  0  # atno 8010 bound_to 7997
  139.7028  143.9235  152.2436 H   0  0  0  0  0  0  0  0  0  0  0  0  # atno 10167 bound_to 10162
  156.4979  130.4581  149.6718 H   0  0  0  0  0  0  0  0  0  0  0  0  # atno 10718 bound_to 10713
  154.7365  135.3058  154.8802 H   0  0  0  0  0  0  0  0  0  0  0  0  # atno 10763 bound_to 10752
  153.9629  135.6751  153.4749 H   0  0  0  0  0  0  0  0  0  0  0  0  # atno 10764 bound_to 10752
  153.0967  135.4932  154.8715 H   0  0  0  0  0  0  0  0  0  0  0  0  # atno 10765 bound_to 10752
  139.9584  134.7104  156.0701 H   0  0  0  0  0  0  0  0  0  0  0  0  # atno 11005 bound_to 11000
  144.8522  140.7018  143.6161 LP  0  0  0  0  0  0  0  0  0  0  0  0  # atno 17320 bound_to 7965
  145.3736  139.1653  143.4319 LP  0  0  0  0  0  0  0  0  0  0  0  0  # atno 17321 bound_to 7965
  139.9082  144.6872  150.8591 LP  0  0  0  0  0  0  0  0  0  0  0  0  # atno 17342 bound_to 10162
  140.7714  143.3463  151.2105 LP  0  0  0  0  0  0  0  0  0  0  0  0  # atno 17343 bound_to 10162
  156.3362  130.7358  151.2295 LP  0  0  0  0  0  0  0  0  0  0  0  0  # atno 17370 bound_to 10713
  157.7466  131.0416  150.4655 LP  0  0  0  0  0  0  0  0  0  0  0  0  # atno 17371 bound_to 10713
  141.1258  133.6599  156.3333 LP  0  0  0  0  0  0  0  0  0  0  0  0  # atno 17394 bound_to 11000
  140.5556  134.5984  157.5420 LP  0  0  0  0  0  0  0  0  0  0  0  0  # atno 17395 bound_to 11000

$$$$
