#       Name:                AV-unprocessed.smi:2530
#       Creating user name   scv26
#       Creation time:       Fri Mar 27 14:00:14 2020


#       File generated by GOLD software.
#

@<TRIPOS>MOLECULE
AV-unprocessed.smi:2530
    49    51     1
SMALL
NO_CHARGES


@<TRIPOS>ATOM
      1 ****        -2.2659  -2.4071   1.3585 C.3            1 S1                 0.0000
      2 ****        -2.2178  -0.8939   1.3143 C.ar           1 S1                 0.0000
      3 ****        -3.2298  -0.1699   0.6588 C.ar           1 S1                 0.0000
      4 ****        -3.1673   1.2340   0.6082 C.ar           1 S1                 0.0000
      5 ****        -2.0943   1.9333   1.2025 C.ar           1 S1                 0.0000
      6 ****        -2.0863   3.4493   1.0887 C.3            1 S1                 0.0000
      7 ****        -1.0691   1.2066   1.8719 C.ar           1 S1                 0.0000
      8 ****         0.1563   1.8649   2.5167 C.3            1 S1                 0.0000
      9 ****        -0.1571   2.9756   3.3307 O.3            1 S1                 0.0000
     10 ****         1.2679   2.2582   1.5109 C.3            1 S1                 0.0000
     11 ****         1.5956   1.1756   0.5655 N.am           1 S1                 0.0000
     12 ****         1.0430   1.2681  -0.7275 C.2            1 S1                 0.0000
     13 ****         1.2165   0.3370  -1.6101 N.2            1 S1                 0.0000
     14 ****         1.9708  -0.7981  -1.2884 C.2            1 S1                 0.0000
     15 ****         2.1655  -1.8769  -2.3469 C.3            1 S1                 0.0000
     16 ****         2.0144  -1.4721  -3.8256 C.3            1 S1                 0.0000
     17 ****         1.2902  -2.8062  -4.0439 C.3            1 S1                 0.0000
     18 ****         0.9567  -2.8006  -2.5472 C.3            1 S1                 0.0000
     19 ****         2.5532  -0.9121  -0.0719 C.2            1 S1                 0.0000
     20 ****         2.3737   0.1217   0.9471 C.2            1 S1                 0.0000
     21 ****         2.8717   0.0395   2.0698 O.2            1 S1                 0.0000
     22 ****        -1.1502  -0.2042   1.9191 C.ar           1 S1                 0.0000
     23 ****        -3.2889  -2.7698   1.2544 H              1 S1                 0.0000
     24 ****        -1.8702  -2.7788   2.3040 H              1 S1                 0.0000
     25 ****        -1.6685  -2.8244   0.5477 H              1 S1                 0.0000
     26 ****        -4.0539  -0.6873   0.1895 H              1 S1                 0.0000
     27 ****        -3.9517   1.7748   0.0988 H              1 S1                 0.0000
     28 ****        -2.2944   3.9073   2.0555 H              1 S1                 0.0000
     29 ****        -2.8495   3.7960   0.3913 H              1 S1                 0.0000
     30 ****        -1.1290   3.8164   0.7245 H              1 S1                 0.0000
     31 ****         0.5853   1.1362   3.2054 H              1 S1                 0.0000
     32 ****        -0.7179   2.6821   4.0326 H              1 S1                 0.0000
     33 ****         0.9793   3.1592   0.9692 H              1 S1                 0.0000
     34 ****         2.1654   2.5534   2.0574 H              1 S1                 0.0000
     35 ****         0.4541   2.1652  -0.9254 H              1 S1                 0.0000
     36 ****         3.0827  -2.4475  -2.1862 H              1 S1                 0.0000
     37 ****         1.3575  -0.6212  -4.0099 H              1 S1                 0.0000
     38 ****         2.9553  -1.3742  -4.3678 H              1 S1                 0.0000
     39 ****         0.4245  -2.7544  -4.7047 H              1 S1                 0.0000
     40 ****         1.9669  -3.6153  -4.3238 H              1 S1                 0.0000
     41 ****         1.0381  -3.7710  -2.0568 H              1 S1                 0.0000
     42 ****         0.0021  -2.3177  -2.3306 H              1 S1                 0.0000
     43 ****         3.1489  -1.7826   0.1620 H              1 S1                 0.0000
     44 ****        -0.3719  -0.7703   2.4102 H              1 S1                 0.0000
     45 ****        -0.6304   3.6694   2.7879 LP             1 S1                 0.0000
     46 ****         0.6827   3.3645   3.7095 LP             1 S1                 0.0000
     47 ****         0.8124   0.4283  -2.5202 LP             1 S1                 0.0000
     48 ****         2.7116   0.7624   2.7420 LP             1 S1                 0.0000
     49 ****         3.4363  -0.7502   2.3098 LP             1 S1                 0.0000
@<TRIPOS>BOND
    1    1    2 1     
    2    1   23 1     
    3    1   24 1     
    4    1   25 1     
    5    2   22 ar    
    6    2    3 ar    
    7    3    4 ar    
    8    3   26 1     
    9    4    5 ar    
   10    4   27 1     
   11    5    6 1     
   12    5    7 ar    
   13    6   28 1     
   14    6   29 1     
   15    6   30 1     
   16    7    8 1     
   17    7   22 ar    
   18    8    9 1     
   19    8   10 1     
   20    8   31 1     
   21    9   32 1     
   22   10   11 1     
   23   10   33 1     
   24   10   34 1     
   25   11   20 am    
   26   11   12 1     
   27   12   13 2     
   28   12   35 1     
   29   13   14 1     
   30   14   15 1     
   31   14   19 2     
   32   15   18 1     
   33   15   16 1     
   34   15   36 1     
   35   16   17 1     
   36   16   37 1     
   37   16   38 1     
   38   17   18 1     
   39   17   39 1     
   40   17   40 1     
   41   18   41 1     
   42   18   42 1     
   43   19   20 1     
   44   19   43 1     
   45   20   21 2     
   46   22   44 1     
   47    9   45 1     
   48    9   46 1     
   49   13   47 1     
   50   21   48 1     
   51   21   49 1     
@<TRIPOS>SUBSTRUCTURE
      1 S1             1
@<TRIPOS>SET
LONE_PAIRS      STATIC     ATOMS    <user>   **** ""
5 45 46 47 48 49
DONOR_HYDROGENS      STATIC     ATOMS    <user>   **** ""
1 32
ATOM$BLUE        STATIC     ATOMS    COLORGROUP SYSTEM
5 45 46 47 48 49
ATOM$RED        STATIC     ATOMS    COLORGROUP SYSTEM
1 32
