AV-unprocessed.smi:1587|AV-procd|sdf|6387|dock9
  -GOLD-   22720 7 23D 1   1.00000     0.00000
 Structure written by MMmdl.
 36 37  0  0  0  0  0  0  0  0  1 V2000
  144.5999  136.6830  152.8595 O   0  0  0  0  0  0  0  0  0  0  0  0
  145.7877  136.5747  152.5534 C   0  0  0  0  0  0  0  0  0  0  0  0
  146.7200  137.4807  152.8825 N   0  0  0  0  0  0  0  0  0  0  0  0
  146.4700  138.7001  153.6415 C   0  0  0  0  0  0  0  0  0  0  0  0
  147.5684  139.7514  153.3947 C   0  0  0  0  0  0  0  0  0  0  0  0
  148.6533  139.7498  154.3741 N   0  0  0  0  0  0  0  0  0  0  0  0
  149.7524  138.8644  153.9947 C   0  0  0  0  0  0  0  0  0  0  0  0
  150.8995  138.8997  155.0200 C   0  0  0  0  0  0  0  0  0  0  0  0
  151.3564  140.2381  155.1844 O   0  0  0  0  0  0  0  0  0  0  0  0
  150.3217  141.1221  155.6029 C   0  0  0  0  0  0  0  0  0  0  0  0
  149.1778  141.0967  154.5746 C   0  0  0  0  0  0  0  0  0  0  0  0
  146.3230  135.5546  151.8596 N   0  0  0  0  0  0  0  0  0  0  0  0
  145.6645  134.4154  151.3242 C   0  0  0  0  0  0  0  0  0  0  0  0
  146.5201  133.4251  150.7904 C   0  0  0  0  0  0  0  0  0  0  0  0
  145.9650  132.2567  150.2332 C   0  0  0  0  0  0  0  0  0  0  0  0
  144.5666  132.1083  150.2237 C   0  0  0  0  0  0  0  0  0  0  0  0
  143.7867  133.1418  150.7744 C   0  0  0  0  0  0  0  0  0  0  0  0
  144.3165  134.2625  151.3089 N   0  0  0  0  0  0  0  0  0  0  0  0
  147.6716  137.3146  152.5900 H   0  0  0  0  0  0  0  0  0  0  0  0
  145.4890  139.1047  153.3866 H   0  0  0  0  0  0  0  0  0  0  0  0
  146.4295  138.4218  154.6940 H   0  0  0  0  0  0  0  0  0  0  0  0
  147.9781  139.6242  152.3914 H   0  0  0  0  0  0  0  0  0  0  0  0
  147.0975  140.7356  153.4016 H   0  0  0  0  0  0  0  0  0  0  0  0
  149.3996  137.8376  153.9057 H   0  0  0  0  0  0  0  0  0  0  0  0
  150.1368  139.1502  153.0143 H   0  0  0  0  0  0  0  0  0  0  0  0
  150.5704  138.5004  155.9806 H   0  0  0  0  0  0  0  0  0  0  0  0
  151.7293  138.2787  154.6823 H   0  0  0  0  0  0  0  0  0  0  0  0
  149.9604  140.8303  156.5904 H   0  0  0  0  0  0  0  0  0  0  0  0
  150.7282  142.1291  155.6947 H   0  0  0  0  0  0  0  0  0  0  0  0
  149.5378  141.4986  153.6261 H   0  0  0  0  0  0  0  0  0  0  0  0
  148.3794  141.7594  154.9102 H   0  0  0  0  0  0  0  0  0  0  0  0
  147.3174  135.5984  151.6935 H   0  0  0  0  0  0  0  0  0  0  0  0
  147.5926  133.5545  150.8062 H   0  0  0  0  0  0  0  0  0  0  0  0
  146.6015  131.4881  149.8205 H   0  0  0  0  0  0  0  0  0  0  0  0
  144.1035  131.2267  149.8056 H   0  0  0  0  0  0  0  0  0  0  0  0
  142.7094  133.0676  150.7860 H   0  0  0  0  0  0  0  0  0  0  0  0
  1  2  2  0  0  0  0
  2  3  1  0  0  0  0
  2 12  1  0  0  0  0
  3  4  1  0  0  0  0
  3 19  1  0  0  0  0
  4  5  1  0  0  0  0
  4 20  1  0  0  0  0
  4 21  1  0  0  0  0
  5  6  1  0  0  0  0
  5 22  1  0  0  0  0
  5 23  1  0  0  0  0
  6 11  1  0  0  0  0
  6  7  1  0  0  0  0
  7  8  1  0  0  0  0
  7 24  1  0  0  0  0
  7 25  1  0  0  0  0
  8  9  1  0  0  0  0
  8 26  1  0  0  0  0
  8 27  1  0  0  0  0
  9 10  1  0  0  0  0
 10 11  1  0  0  0  0
 10 28  1  0  0  0  0
 10 29  1  0  0  0  0
 11 30  1  0  0  0  0
 11 31  1  0  0  0  0
 12 13  1  0  0  0  0
 12 32  1  0  0  0  0
 13 18  1  0  0  0  0
 13 14  2  0  0  0  0
 14 15  1  0  0  0  0
 14 33  1  0  0  0  0
 15 16  2  0  0  0  0
 15 34  1  0  0  0  0
 16 17  1  0  0  0  0
 16 35  1  0  0  0  0
 17 18  2  0  0  0  0
 17 36  1  0  0  0  0
M  END
> <s_m_source_file>
AV-unprocessed.smi

> <i_m_source_file_index>
1587

> <i_lp_mmshare_version>
43012

> <i_f3d_flags>
0

> <s_epik_input>
bjFbY0hdW2NIXVtjSF1bY0hdYzFbTkhdQyg9TylbTkhdW0NIMl1bQ0gyXU4yW0NIMl1bQ0gyXU9bQ0gyXVtDSDJdMg==

> <s_epik_cmdline>
J2VwaWtfcHl0aG9uJywgJy1waCcsICc3LjAnLCAnLXRuJywgJzgnLCAnLW1hJywgJzIwMCcsICctbWV0YWxfYmluZGluZycsICctaW1hZScsICc8aW5maWxlLm1hZT4nLCAnLW9tYWUnLCAnPG91dGZpbGUubWFlPic=

> <r_epik_Ionization_Penalty>
0.266037

> <r_epik_Ionization_Penalty_Charging>
0

> <r_epik_Ionization_Penalty_Neutral>
0.266037

> <r_epik_State_Penalty>
0.257924

> <r_epik_Charging_Adjusted_Penalty>
0.257924

> <i_epik_Tot_Q>
0

> <i_epik_Tot_abs_Q>
0

> <r_epik_Metal_State_Penalty>
0.257923

> <b_epik_Metal_Only>
0

> <s_lp_Force_Field>
OPLS_2005

> <r_lp_Energy>
22.0776

> <b_lp_Chiralities_Consistent>
1

> <s_lp_Variant>
AV-unprocessed.smi:1587-1

> <Gold.Version>
5.8.1

> <Gold.Id.Protein>
6NUR|6NUR_protein|mol2

> <Gold.PLP.Fitness>
43.1448

> <Gold.PLP.PLP>
-32.7367

> <Gold.PLP.part.hbond>
-3.0000

> <Gold.PLP.part.metal>
0.0000

> <Gold.PLP.part.buried>
-3.4609

> <Gold.PLP.part.nonpolar>
-26.9793

> <Gold.PLP.part.repulsive>
0.5395

> <Gold.PLP.ligand.clash>
0.0000

> <Gold.PLP.ligand.torsion>
0.8016

> <Gold.PLP.Chemscore.Hbond>
3.0000

> <Gold.PLP.Chemscore.CHOScore>
1.0000

> <Gold.PLP.Chemscore.Metal>
0.0000

> <Gold.Chemscore.Hbonds>
donor molecule, donor type, donor heavy atom, donor atom, acceptor molecule, acceptor atom, score
      L1  H     3    19       P1  7948  1.00
      L1  H    12    32       P1  7948  1.00
      P1  H  7989  7998       L1     9  1.00
      L1  C    17    36       P1 10186  1.00

> <Gold.PLP.Chemscore.Internal.Correction>
0.0113

> <Gold.Rescore>
     Score         DG    S(hbond)    S(metal)    S(lipo)     H(rot)  DE(clash)    DE(int)     intcor
     15.93     -18.24       2.36        0.00      75.56       1.55       0.25       2.06       ----

> <Gold.Chemscore.Fitness>
15.9320

> <Gold.Chemscore.DG>
-18.2419

> <Gold.Chemscore.ZeroCoef>
-5.4800

> <Gold.Chemscore.Hbond>
2.3608

> <Gold.Chemscore.Metal>
0.0000

> <Gold.Chemscore.Lipo>
75.5617

> <Gold.Chemscore.Internal_Hbond>
0.0000

> <Gold.Chemscore.DEClash>
0.2464

> <Gold.Chemscore.DEInternal>
2.0635

> <Gold.Chemscore.Rot>
1.5484

> <Gold.Chemscore.Internal.Correction>
   9.000000E+99

> <Gold.Chemscore.Hbonds>
donor molecule, donor type, donor heavy atom, donor atom, acceptor molecule, acceptor atom, score
      L1  H     3    19       P1  7948  0.95
      L1  H    12    32       P1  7948  0.99
      P1  H  7989  7998       L1     9  0.14

> <Gold.Chemscore.Hbond.Weighted>
-7.8851

> <Gold.Chemscore.Metal.Weighted>
-0.0000

> <Gold.Chemscore.Lipo.Weighted>
-8.8407

> <Gold.Chemscore.Internal_Hbond.Weighted>
0.0000

> <Gold.Chemscore.DEClash.Weighted>
0.2464

> <Gold.Chemscore.DEInternal.Weighted>
2.0635

> <Gold.Chemscore.Rot.Weighted>
3.9639

> <Gold.Chemscore.Internal.Correction.Weighted>
   9.000000E+99

> <Gold.Protein.RotatedTorsions>
[ 6907 6896 6895 6894 ] final   15.82 input  -60.11 | X-H torsion
[ 7974 7965 7964 7962 ] final   31.44 input  175.53 | X-H torsion
[ 8008 7997 7996 7995 ] final  126.57 input   59.86 | X-H torsion
[ 10167 10162 10161 10158 ] final -161.83 input  -65.29 | X-H torsion
[ 10718 10713 10712 10709 ] final  -72.63 input   66.30 | X-H torsion
[ 10763 10752 10751 10750 ] final   60.07 input  -60.55 | X-H torsion
[ 11005 11000 10999 10996 ] final  122.31 input  -57.11 | X-H torsion

> <Gold.Protein.ActiveResidues>
 VAL166  LYS551  ARG553  GLY616  TRP617  ASP618  TYR619  PRO620  LYS621  CYS622 
 ASP623  PHE694  ASN695  SER759  ASP760  ASP761  ALA762  ILE779  LEU786  VAL792 
 PHE793  MET794  SER795  GLU796  ALA797  LYS798  CYS799  TRP800  GLU811  SER814 

> <Gold.Protein.RotatedAtoms>
  151.8242  135.0642  160.0428 H   0  0  0  0  0  0  0  0  0  0  0  0  # atno 6907 bound_to 6896
  152.2929  133.5574  159.5577 H   0  0  0  0  0  0  0  0  0  0  0  0  # atno 6908 bound_to 6896
  150.7238  134.0319  159.3778 H   0  0  0  0  0  0  0  0  0  0  0  0  # atno 6909 bound_to 6896
  146.1550  139.6656  142.9073 H   0  0  0  0  0  0  0  0  0  0  0  0  # atno 7974 bound_to 7965
  156.2867  140.2689  156.2132 H   0  0  0  0  0  0  0  0  0  0  0  0  # atno 8008 bound_to 7997
  155.0243  140.0386  157.2467 H   0  0  0  0  0  0  0  0  0  0  0  0  # atno 8009 bound_to 7997
  154.7409  140.2725  155.6379 H   0  0  0  0  0  0  0  0  0  0  0  0  # atno 8010 bound_to 7997
  139.6436  144.0213  152.2111 H   0  0  0  0  0  0  0  0  0  0  0  0  # atno 10167 bound_to 10162
  156.0312  130.4376  150.2622 H   0  0  0  0  0  0  0  0  0  0  0  0  # atno 10718 bound_to 10713
  152.9911  135.5549  154.5815 H   0  0  0  0  0  0  0  0  0  0  0  0  # atno 10763 bound_to 10752
  154.5195  135.2807  155.1276 H   0  0  0  0  0  0  0  0  0  0  0  0  # atno 10764 bound_to 10752
  154.2635  135.6376  153.5336 H   0  0  0  0  0  0  0  0  0  0  0  0  # atno 10765 bound_to 10752
  139.9263  134.9641  156.8089 H   0  0  0  0  0  0  0  0  0  0  0  0  # atno 11005 bound_to 11000
  145.4731  141.0436  143.2687 LP  0  0  0  0  0  0  0  0  0  0  0  0  # atno 17320 bound_to 7965
  144.7951  139.6250  143.7096 LP  0  0  0  0  0  0  0  0  0  0  0  0  # atno 17321 bound_to 7965
  139.9909  144.6362  150.7815 LP  0  0  0  0  0  0  0  0  0  0  0  0  # atno 17342 bound_to 10162
  140.7503  143.2954  151.3219 LP  0  0  0  0  0  0  0  0  0  0  0  0  # atno 17343 bound_to 10162
  157.0724  131.0120  151.3185 LP  0  0  0  0  0  0  0  0  0  0  0  0  # atno 17370 bound_to 10713
  157.4989  130.7868  149.7584 LP  0  0  0  0  0  0  0  0  0  0  0  0  # atno 17371 bound_to 10713
  140.6328  133.9890  155.7670 LP  0  0  0  0  0  0  0  0  0  0  0  0  # atno 17394 bound_to 11000
  141.0822  134.0045  157.3368 LP  0  0  0  0  0  0  0  0  0  0  0  0  # atno 17395 bound_to 11000

$$$$
