AV-unprocessed.smi:2035|AV-procd|sdf|8271|dock4
  -GOLD-   2272010543D 1   1.00000     0.00000
 Structure written by MMmdl.
 35 36  0  0  0  0  0  0  0  0  2 V2000
  147.3413  132.0410  153.0340 O   0  0  0  0  0  0  0  0  0  0  0  0
  147.8822  133.0998  152.7152 C   0  0  0  0  0  0  0  0  0  0  0  0
  147.3181  134.0624  151.9655 N   0  0  0  0  0  0  0  0  0  0  0  0
  146.0164  134.0814  151.3960 C   0  0  0  0  0  0  0  0  0  0  0  0
  145.3153  132.8577  151.3181 C   0  0  0  0  0  0  0  0  0  0  0  0
  144.0164  132.8344  150.7704 C   0  0  0  0  0  0  0  0  0  0  0  0
  143.4490  133.9804  150.3365 N   0  3  0  0  0  0  0  0  0  0  0  0
  144.0726  135.1762  150.4065 C   0  0  0  0  0  0  0  0  0  0  0  0
  145.3733  135.2616  150.9438 C   0  0  0  0  0  0  0  0  0  0  0  0
  149.1178  133.4472  153.1030 N   0  0  0  0  0  0  0  0  0  0  0  0
  150.0064  132.6433  153.9424 C   0  0  2  0  0  0  0  0  0  0  0  0
  149.8814  131.1397  153.5842 C   0  0  0  0  0  0  0  0  0  0  0  0
  150.2570  130.1423  154.6999 C   0  0  0  0  0  0  0  0  0  0  0  0
  151.6524  130.3411  155.3255 C   0  0  0  0  0  0  0  0  0  0  0  0
  151.9614  131.7428  155.9037 C   0  0  0  0  0  0  0  0  0  0  0  0
  150.7786  132.5128  156.2869 N   0  0  0  0  0  0  0  0  0  0  0  0
  149.8481  132.9818  155.4374 C   0  0  0  0  0  0  0  0  0  0  0  0
  148.8889  133.6415  155.8357 O   0  0  0  0  0  0  0  0  0  0  0  0
  147.8530  134.9121  151.8596 H   0  0  0  0  0  0  0  0  0  0  0  0
  145.7694  131.9410  151.6662 H   0  0  0  0  0  0  0  0  0  0  0  0
  143.4188  131.9404  150.6681 H   0  0  0  0  0  0  0  0  0  0  0  0
  143.5143  136.0246  150.0383 H   0  0  0  0  0  0  0  0  0  0  0  0
  145.8478  136.2290  151.0093 H   0  0  0  0  0  0  0  0  0  0  0  0
  149.4846  134.3348  152.7910 H   0  0  0  0  0  0  0  0  0  0  0  0
  151.0207  132.9550  153.6899 H   0  0  0  0  0  0  0  0  0  0  0  0
  148.8541  130.9238  153.2870 H   0  0  0  0  0  0  0  0  0  0  0  0
  150.4895  130.9359  152.7020 H   0  0  0  0  0  0  0  0  0  0  0  0
  149.5016  130.1773  155.4859 H   0  0  0  0  0  0  0  0  0  0  0  0
  150.1964  129.1311  154.2967 H   0  0  0  0  0  0  0  0  0  0  0  0
  151.7596  129.6085  156.1262 H   0  0  0  0  0  0  0  0  0  0  0  0
  152.4195  130.0850  154.5940 H   0  0  0  0  0  0  0  0  0  0  0  0
  152.6037  131.6410  156.7788 H   0  0  0  0  0  0  0  0  0  0  0  0
  152.5455  132.3213  155.1873 H   0  0  0  0  0  0  0  0  0  0  0  0
  150.6675  132.7205  157.2690 H   0  0  0  0  0  0  0  0  0  0  0  0
  142.5077  133.9424  149.9441 H   0  0  0  0  0  0  0  0  0  0  0  0
  1  2  2  0  0  0  0
  2  3  1  0  0  0  0
  2 10  1  0  0  0  0
  3  4  1  0  0  0  0
  3 19  1  0  0  0  0
  4  9  1  0  0  0  0
  4  5  2  0  0  0  0
  5  6  1  0  0  0  0
  5 20  1  0  0  0  0
  6  7  2  0  0  0  0
  6 21  1  0  0  0  0
  7  8  1  0  0  0  0
  7 35  1  0  0  0  0
  8  9  2  0  0  0  0
  8 22  1  0  0  0  0
  9 23  1  0  0  0  0
 10 11  1  0  0  0  0
 10 24  1  0  0  0  0
 11 17  1  0  0  0  0
 11 12  1  0  0  0  0
 11 25  1  0  0  0  0
 12 13  1  0  0  0  0
 12 26  1  0  0  0  0
 12 27  1  0  0  0  0
 13 14  1  0  0  0  0
 13 28  1  0  0  0  0
 13 29  1  0  0  0  0
 14 15  1  0  0  0  0
 14 30  1  0  0  0  0
 14 31  1  0  0  0  0
 15 16  1  0  0  0  0
 15 32  1  0  0  0  0
 15 33  1  0  0  0  0
 16 17  1  0  0  0  0
 16 34  1  0  0  0  0
 17 18  2  0  0  0  0
M  CHG  1   7   1
M  END
> <s_m_source_file>
AV-unprocessed.smi

> <i_m_source_file_index>
2035

> <i_lp_mmshare_version>
43012

> <i_f3d_flags>
0

> <s_epik_input>
W2NIXTFbY0hdbltjSF1bY0hdYzFbTkhdQyg9TylbTkhdW0NAQEhdMltDSDJdW0NIMl1bQ0gyXVtDSDJdW05IXUMyPU8=

> <s_epik_cmdline>
J2VwaWtfcHl0aG9uJywgJy1waCcsICc3LjAnLCAnLXRuJywgJzgnLCAnLW1hJywgJzIwMCcsICctbWV0YWxfYmluZGluZycsICctaW1hZScsICc8aW5maWxlLm1hZT4nLCAnLW9tYWUnLCAnPG91dGZpbGUubWFlPic=

> <r_epik_Ionization_Penalty>
1.10339

> <r_epik_Ionization_Penalty_Charging>
1.10337

> <r_epik_Ionization_Penalty_Neutral>
1.85869e-05

> <r_epik_State_Penalty>
1.16071

> <r_epik_Charging_Adjusted_Penalty>
2.26408

> <i_epik_Tot_Q>
1

> <i_epik_Tot_abs_Q>
1

> <r_epik_Metal_State_Penalty>
1.24751

> <b_epik_Metal_Only>
0

> <s_lp_Force_Field>
OPLS_2005

> <r_lp_Energy>
25.3939

> <b_lp_Chiralities_Consistent>
1

> <s_lp_Variant>
AV-unprocessed.smi:2035-3

> <Gold.Version>
5.8.1

> <Gold.Id.Protein>
6NUR|6NUR_protein|mol2

> <Gold.PLP.Fitness>
38.3531

> <Gold.PLP.PLP>
-29.7979

> <Gold.PLP.part.hbond>
-3.0000

> <Gold.PLP.part.metal>
0.0000

> <Gold.PLP.part.buried>
-3.5353

> <Gold.PLP.part.nonpolar>
-23.2425

> <Gold.PLP.part.repulsive>
0.2473

> <Gold.PLP.ligand.clash>
0.0000

> <Gold.PLP.ligand.torsion>
0.4058

> <Gold.PLP.Chemscore.Hbond>
3.1048

> <Gold.PLP.Chemscore.CHOScore>
0.0000

> <Gold.PLP.Chemscore.Metal>
0.0000

> <Gold.Chemscore.Hbonds>
donor molecule, donor type, donor heavy atom, donor atom, acceptor molecule, acceptor atom, score
      L1  H     3    19       P1  7948  1.00
      L1  H     7    35       P1 10186  2.00

> <Gold.PLP.Chemscore.Internal.Correction>
0.0523

> <Gold.Rescore>
     Score         DG    S(hbond)    S(metal)    S(lipo)     H(rot)  DE(clash)    DE(int)     intcor
     12.72     -16.05       1.94        0.00      56.75       1.00       0.03       3.30       ----

> <Gold.Chemscore.Fitness>
12.7246

> <Gold.Chemscore.DG>
-16.0526

> <Gold.Chemscore.ZeroCoef>
-5.4800

> <Gold.Chemscore.Hbond>
1.9441

> <Gold.Chemscore.Metal>
0.0000

> <Gold.Chemscore.Lipo>
56.7464

> <Gold.Chemscore.Internal_Hbond>
0.0000

> <Gold.Chemscore.DEClash>
0.0291

> <Gold.Chemscore.DEInternal>
3.2988

> <Gold.Chemscore.Rot>
1.0000

> <Gold.Chemscore.Internal.Correction>
   9.000000E+99

> <Gold.Chemscore.Hbonds>
donor molecule, donor type, donor heavy atom, donor atom, acceptor molecule, acceptor atom, score
      L1  H     3    19       P1  7948  0.50
      L1  H     7    35       P1 10186  0.98

> <Gold.Chemscore.Hbond.Weighted>
-6.4933

> <Gold.Chemscore.Metal.Weighted>
-0.0000

> <Gold.Chemscore.Lipo.Weighted>
-6.6393

> <Gold.Chemscore.Internal_Hbond.Weighted>
0.0000

> <Gold.Chemscore.DEClash.Weighted>
0.0291

> <Gold.Chemscore.DEInternal.Weighted>
3.2988

> <Gold.Chemscore.Rot.Weighted>
2.5600

> <Gold.Chemscore.Internal.Correction.Weighted>
   9.000000E+99

> <Gold.Protein.RotatedTorsions>
[ 6907 6896 6895 6894 ] final  142.19 input  -60.11 | X-H torsion
[ 7974 7965 7964 7962 ] final  136.01 input  175.53 | X-H torsion
[ 8008 7997 7996 7995 ] final -140.15 input   59.86 | X-H torsion
[ 10167 10162 10161 10158 ] final   46.20 input  -65.29 | X-H torsion
[ 10718 10713 10712 10709 ] final    3.31 input   66.30 | X-H torsion
[ 10763 10752 10751 10750 ] final -168.96 input  -60.55 | X-H torsion
[ 11005 11000 10999 10996 ] final -160.81 input  -57.11 | X-H torsion

> <Gold.Protein.ActiveResidues>
 VAL166  LYS551  ARG553  GLY616  TRP617  ASP618  TYR619  PRO620  LYS621  CYS622 
 ASP623  PHE694  ASN695  SER759  ASP760  ASP761  ALA762  ILE779  LEU786  VAL792 
 PHE793  MET794  SER795  GLU796  ALA797  LYS798  CYS799  TRP800  GLU811  SER814 

> <Gold.Protein.RotatedAtoms>
  152.2218  133.4989  159.5166 H   0  0  0  0  0  0  0  0  0  0  0  0  # atno 6907 bound_to 6896
  150.7014  134.1333  159.4086 H   0  0  0  0  0  0  0  0  0  0  0  0  # atno 6908 bound_to 6896
  151.9253  135.0280  160.0576 H   0  0  0  0  0  0  0  0  0  0  0  0  # atno 6909 bound_to 6896
  144.9607  139.4714  143.5481 H   0  0  0  0  0  0  0  0  0  0  0  0  # atno 7974 bound_to 7965
  155.4566  140.0542  157.2995 H   0  0  0  0  0  0  0  0  0  0  0  0  # atno 8008 bound_to 7997
  154.4755  140.2059  155.9845 H   0  0  0  0  0  0  0  0  0  0  0  0  # atno 8009 bound_to 7997
  156.1124  140.3202  155.8096 H   0  0  0  0  0  0  0  0  0  0  0  0  # atno 8010 bound_to 7997
  140.3164  144.2759  150.6190 H   0  0  0  0  0  0  0  0  0  0  0  0  # atno 10167 bound_to 10162
  156.8760  130.5636  149.5655 H   0  0  0  0  0  0  0  0  0  0  0  0  # atno 10718 bound_to 10713
  154.6573  135.2920  154.9911 H   0  0  0  0  0  0  0  0  0  0  0  0  # atno 10763 bound_to 10752
  154.0983  135.6580  153.4868 H   0  0  0  0  0  0  0  0  0  0  0  0  # atno 10764 bound_to 10752
  153.0410  135.5236  154.7508 H   0  0  0  0  0  0  0  0  0  0  0  0  # atno 10765 bound_to 10752
  140.6273  134.4687  157.5227 H   0  0  0  0  0  0  0  0  0  0  0  0  # atno 11005 bound_to 11000
  146.3352  139.8754  142.8833 LP  0  0  0  0  0  0  0  0  0  0  0  0  # atno 17320 bound_to 7965
  145.2705  141.0107  143.3775 LP  0  0  0  0  0  0  0  0  0  0  0  0  # atno 17321 bound_to 7965
  140.5523  143.2204  151.7906 LP  0  0  0  0  0  0  0  0  0  0  0  0  # atno 17342 bound_to 10162
  139.4883  144.4460  151.9709 LP  0  0  0  0  0  0  0  0  0  0  0  0  # atno 17343 bound_to 10162
  156.0702  130.5736  150.9368 LP  0  0  0  0  0  0  0  0  0  0  0  0  # atno 17370 bound_to 10713
  157.6168  131.0932  150.8695 LP  0  0  0  0  0  0  0  0  0  0  0  0  # atno 17371 bound_to 10713
  139.9129  134.8306  156.1464 LP  0  0  0  0  0  0  0  0  0  0  0  0  # atno 17394 bound_to 11000
  141.0700  133.6801  156.2121 LP  0  0  0  0  0  0  0  0  0  0  0  0  # atno 17395 bound_to 11000

$$$$
