AV-unprocessed.smi:912|AV-procd|sdf|4146|dock3
  -GOLD-   22720 2 53D 1   1.00000     0.00000
 Structure written by MMmdl.
 26 26  0  0  0  0  0  0  0  0  3 V2000
  147.8321  138.9517  153.6682 C   0  0  0  0  0  0  0  0  0  0  0  0
  149.2547  138.5780  153.4927 N   0  3  0  0  0  0  0  0  0  0  0  0
  150.0836  138.3725  154.7180 C   0  0  1  0  0  0  0  0  0  0  0  0
  149.7054  137.0215  155.3810 C   0  0  0  0  0  0  0  0  0  0  0  0
  151.5852  138.4064  154.3097 C   0  0  0  0  0  0  0  0  0  0  0  0
  151.9822  137.3095  153.6257 N   0  5  0  0  0  0  0  0  0  0  0  0
  152.2865  139.3689  154.6180 O   0  0  0  0  0  0  0  0  0  0  0  0
  149.8237  139.5051  155.7363 C   0  0  0  0  0  0  0  0  0  0  0  0
  150.0560  140.8722  155.4364 C   0  0  0  0  0  0  0  0  0  0  0  0
  149.7862  141.8447  156.4202 C   0  0  0  0  0  0  0  0  0  0  0  0
  149.3065  141.5512  157.6457 N   0  0  0  0  0  0  0  0  0  0  0  0
  149.0815  140.2536  157.9354 C   0  0  0  0  0  0  0  0  0  0  0  0
  149.3188  139.2054  157.0253 C   0  0  0  0  0  0  0  0  0  0  0  0
  147.3378  138.9462  152.6970 H   0  0  0  0  0  0  0  0  0  0  0  0
  147.7292  139.9551  154.0807 H   0  0  0  0  0  0  0  0  0  0  0  0
  147.3029  138.2500  154.3128 H   0  0  0  0  0  0  0  0  0  0  0  0
  149.2841  137.7076  152.9803 H   0  0  0  0  0  0  0  0  0  0  0  0
  150.2484  136.8552  156.3117 H   0  0  0  0  0  0  0  0  0  0  0  0
  149.9270  136.1670  154.7413 H   0  0  0  0  0  0  0  0  0  0  0  0
  148.6418  136.9867  155.6196 H   0  0  0  0  0  0  0  0  0  0  0  0
  151.5341  137.0908  152.7282 H   0  0  0  0  0  0  0  0  0  0  0  0
  150.4378  141.1994  154.4816 H   0  0  0  0  0  0  0  0  0  0  0  0
  149.9598  142.8905  156.2139 H   0  0  0  0  0  0  0  0  0  0  0  0
  148.6990  140.0432  158.9232 H   0  0  0  0  0  0  0  0  0  0  0  0
  149.1207  138.1857  157.3222 H   0  0  0  0  0  0  0  0  0  0  0  0
  149.6983  139.2921  152.9343 H   0  0  0  0  0  0  0  0  0  0  0  0
  1  2  1  0  0  0  0
  1 14  1  0  0  0  0
  1 15  1  0  0  0  0
  1 16  1  0  0  0  0
  2  3  1  0  0  0  0
  2 17  1  0  0  0  0
  2 26  1  0  0  0  0
  3  4  1  0  0  0  0
  3  5  1  0  0  0  0
  3  8  1  0  0  0  0
  4 18  1  0  0  0  0
  4 19  1  0  0  0  0
  4 20  1  0  0  0  0
  5  6  1  0  0  0  0
  5  7  2  0  0  0  0
  6 21  1  0  0  0  0
  8 13  1  0  0  0  0
  8  9  2  0  0  0  0
  9 10  1  0  0  0  0
  9 22  1  0  0  0  0
 10 11  2  0  0  0  0
 10 23  1  0  0  0  0
 11 12  1  0  0  0  0
 12 13  2  0  0  0  0
 12 24  1  0  0  0  0
 13 25  1  0  0  0  0
M  CHG  1   2   1
M  CHG  1   6  -1
M  END
> <s_m_source_file>
AV-unprocessed.smi

> <i_m_source_file_index>
912

> <i_lp_mmshare_version>
43012

> <i_f3d_flags>
0

> <s_epik_input>
W0NIM11bTkhdW0NAQF0oW0NIM10pKEMoPU8pW05IMl0pYzFbY0hdW2NIXW5bY0hdW2NIXTE=

> <s_epik_cmdline>
J2VwaWtfcHl0aG9uJywgJy1waCcsICc3LjAnLCAnLXRuJywgJzgnLCAnLW1hJywgJzIwMCcsICctbWV0YWxfYmluZGluZycsICctaW1hZScsICc8aW5maWxlLm1hZT4nLCAnLW9tYWUnLCAnPG91dGZpbGUubWFlPic=

> <r_epik_Ionization_Penalty>
6.88213

> <r_epik_Ionization_Penalty_Charging>
6.88153

> <r_epik_Ionization_Penalty_Neutral>
0.000601258

> <r_epik_State_Penalty>
7.02604

> <r_epik_Charging_Adjusted_Penalty>
13.9076

> <i_epik_Tot_Q>
0

> <i_epik_Tot_abs_Q>
2

> <r_epik_Metal_State_Penalty>
3.10652

> <b_epik_Metal_Only>
1

> <s_lp_Force_Field>
OPLS_2005

> <r_lp_Energy>
7.69215

> <b_lp_Chiralities_Consistent>
1

> <s_lp_Variant>
AV-unprocessed.smi:912-7

> <Gold.Version>
5.8.1

> <Gold.Id.Protein>
6NUR|6NUR_protein|mol2

> <Gold.PLP.Fitness>
40.7592

> <Gold.PLP.PLP>
-19.4352

> <Gold.PLP.part.hbond>
-5.0000

> <Gold.PLP.part.metal>
0.0000

> <Gold.PLP.part.buried>
-2.6342

> <Gold.PLP.part.nonpolar>
-12.2050

> <Gold.PLP.part.repulsive>
0.2120

> <Gold.PLP.ligand.clash>
0.0000

> <Gold.PLP.ligand.torsion>
0.5504

> <Gold.PLP.Chemscore.Hbond>
6.4720

> <Gold.PLP.Chemscore.CHOScore>
1.0000

> <Gold.PLP.Chemscore.Metal>
0.0000

> <Gold.Chemscore.Hbonds>
donor molecule, donor type, donor heavy atom, donor atom, acceptor molecule, acceptor atom, score
      L1  H     2    17       P1  7948  2.00
      L1  H     2    26       P1  7957  0.80
      L1  H     6    21       P1  7949  1.00
      P1  H  7989  7998       L1     7  0.75
      P1  H 10752 10764       L1     6  2.00
      L1  C    10    23       P1  8028  1.00

> <Gold.PLP.Chemscore.Internal.Correction>
0.0089

> <Gold.Rescore>
     Score         DG    S(hbond)    S(metal)    S(lipo)     H(rot)  DE(clash)    DE(int)     intcor
     16.47     -18.57       4.05        0.00      35.86       1.80       0.11       1.99       ----

> <Gold.Chemscore.Fitness>
16.4677

> <Gold.Chemscore.DG>
-18.5732

> <Gold.Chemscore.ZeroCoef>
-5.4800

> <Gold.Chemscore.Hbond>
4.0462

> <Gold.Chemscore.Metal>
0.0000

> <Gold.Chemscore.Lipo>
35.8644

> <Gold.Chemscore.Internal_Hbond>
0.0000

> <Gold.Chemscore.DEClash>
0.1135

> <Gold.Chemscore.DEInternal>
1.9919

> <Gold.Chemscore.Rot>
1.8037

> <Gold.Chemscore.Internal.Correction>
   9.000000E+99

> <Gold.Chemscore.Hbonds>
donor molecule, donor type, donor heavy atom, donor atom, acceptor molecule, acceptor atom, score
      L1  H     2    17       P1  7948  0.97
      L1  H     2    26       P1  7957  0.79
      L1  H     6    21       P1  7949  0.90
      P1  H  7989  7998       L1     7  0.41
      P1  H 10752 10764       L1     6  0.52

> <Gold.Chemscore.Hbond.Weighted>
-13.5144

> <Gold.Chemscore.Metal.Weighted>
-0.0000

> <Gold.Chemscore.Lipo.Weighted>
-4.1961

> <Gold.Chemscore.Internal_Hbond.Weighted>
0.0000

> <Gold.Chemscore.DEClash.Weighted>
0.1135

> <Gold.Chemscore.DEInternal.Weighted>
1.9919

> <Gold.Chemscore.Rot.Weighted>
4.6174

> <Gold.Chemscore.Internal.Correction.Weighted>
   9.000000E+99

> <Gold.Protein.RotatedTorsions>
[ 6907 6896 6895 6894 ] final  105.28 input  -60.11 | X-H torsion
[ 7974 7965 7964 7962 ] final   34.57 input  175.53 | X-H torsion
[ 8008 7997 7996 7995 ] final -155.76 input   59.86 | X-H torsion
[ 10167 10162 10161 10158 ] final  169.48 input  -65.29 | X-H torsion
[ 10718 10713 10712 10709 ] final   45.12 input   66.30 | X-H torsion
[ 10763 10752 10751 10750 ] final  -86.66 input  -60.55 | X-H torsion
[ 11005 11000 10999 10996 ] final   32.36 input  -57.11 | X-H torsion

> <Gold.Protein.ActiveResidues>
 VAL166  LYS551  ARG553  GLY616  TRP617  ASP618  TYR619  PRO620  LYS621  CYS622 
 ASP623  PHE694  ASN695  SER759  ASP760  ASP761  ALA762  ILE779  LEU786  VAL792 
 PHE793  MET794  SER795  GLU796  ALA797  LYS798  CYS799  TRP800  GLU811  SER814 

> <Gold.Protein.RotatedAtoms>
  152.5236  133.9551  159.7690 H   0  0  0  0  0  0  0  0  0  0  0  0  # atno 6907 bound_to 6896
  150.9853  133.6196  159.2723 H   0  0  0  0  0  0  0  0  0  0  0  0  # atno 6908 bound_to 6896
  151.3358  135.0858  159.9407 H   0  0  0  0  0  0  0  0  0  0  0  0  # atno 6909 bound_to 6896
  146.1344  139.6253  142.9205 H   0  0  0  0  0  0  0  0  0  0  0  0  # atno 7974 bound_to 7965
  155.7068  140.0773  157.2387 H   0  0  0  0  0  0  0  0  0  0  0  0  # atno 8008 bound_to 7997
  154.4064  140.1637  156.2306 H   0  0  0  0  0  0  0  0  0  0  0  0  # atno 8009 bound_to 7997
  155.9318  140.3390  155.6258 H   0  0  0  0  0  0  0  0  0  0  0  0  # atno 8010 bound_to 7997
  139.4993  144.3701  151.9734 H   0  0  0  0  0  0  0  0  0  0  0  0  # atno 10167 bound_to 10162
  157.4341  130.8042  149.7631 H   0  0  0  0  0  0  0  0  0  0  0  0  # atno 10718 bound_to 10713
  154.6249  135.5441  153.7616 H   0  0  0  0  0  0  0  0  0  0  0  0  # atno 10763 bound_to 10752
  153.0256  135.6422  154.1386 H   0  0  0  0  0  0  0  0  0  0  0  0  # atno 10764 bound_to 10752
  154.1319  135.2913  155.3163 H   0  0  0  0  0  0  0  0  0  0  0  0  # atno 10765 bound_to 10752
  140.2743  134.3046  155.7819 H   0  0  0  0  0  0  0  0  0  0  0  0  # atno 11005 bound_to 11000
  145.5189  141.0432  143.2446 LP  0  0  0  0  0  0  0  0  0  0  0  0  # atno 17320 bound_to 7965
  144.7724  139.6705  143.7189 LP  0  0  0  0  0  0  0  0  0  0  0  0  # atno 17321 bound_to 7965
  140.3137  144.3508  150.6027 LP  0  0  0  0  0  0  0  0  0  0  0  0  # atno 17342 bound_to 10162
  140.5778  143.2175  151.7483 LP  0  0  0  0  0  0  0  0  0  0  0  0  # atno 17343 bound_to 10162
  155.9924  130.3931  150.2943 LP  0  0  0  0  0  0  0  0  0  0  0  0  # atno 17370 bound_to 10713
  157.1103  131.0219  151.3051 LP  0  0  0  0  0  0  0  0  0  0  0  0  # atno 17371 bound_to 10713
  141.2173  133.7486  156.9382 LP  0  0  0  0  0  0  0  0  0  0  0  0  # atno 17394 bound_to 11000
  140.1344  134.9335  157.2381 LP  0  0  0  0  0  0  0  0  0  0  0  0  # atno 17395 bound_to 11000

$$$$
