AV-unprocessed.smi:2410|AV-procd|sdf|9528|dock9
  -GOLD-   2272013163D 1   1.00000     0.00000
 Structure written by MMmdl.
 47 49  0  0  0  0  0  0  0  0  2 V2000
  152.2587  145.0497  160.0340 C   0  0  0  0  0  0  0  0  0  0  0  0
  151.9688  143.7010  159.3976 C   0  0  0  0  0  0  0  0  0  0  0  0
  151.1736  143.6630  158.2295 C   0  0  0  0  0  0  0  0  0  0  0  0
  150.9284  142.4148  157.6690 C   0  0  0  0  0  0  0  0  0  0  0  0
  150.1981  142.0445  156.5370 N   0  3  0  0  0  0  0  0  0  0  0  0
  150.2488  140.6915  156.3854 C   0  0  0  0  0  0  0  0  0  0  0  0
  150.9999  140.1940  157.4050 N   0  0  0  0  0  0  0  0  0  0  0  0
  151.3794  138.8115  157.7204 C   0  0  0  0  0  0  0  0  0  0  0  0
  150.4537  138.1725  158.7739 C   0  0  2  0  0  0  0  0  0  0  0  0
  151.1847  137.1724  159.4565 O   0  0  0  0  0  0  0  0  0  0  0  0
  149.2018  137.5337  158.1335 C   0  0  0  0  0  0  0  0  0  0  0  0
  148.7433  136.3549  158.8862 N   0  0  0  0  0  0  0  0  0  0  0  0
  148.9061  135.1106  158.2564 C   0  0  0  0  0  0  0  0  0  0  0  0
  148.5402  134.0090  158.8257 N   0  0  0  0  0  0  0  0  0  0  0  0
  147.9706  134.0390  160.1022 C   0  0  0  0  0  0  0  0  0  0  0  0
  147.5713  132.6902  160.6740 C   0  0  0  0  0  0  0  0  0  0  0  0
  147.7964  135.2115  160.7714 C   0  0  0  0  0  0  0  0  0  0  0  0
  147.1822  135.3061  162.1625 C   0  0  0  0  0  0  0  0  0  0  0  0
  148.2148  136.4729  160.1391 C   0  0  0  0  0  0  0  0  0  0  0  0
  148.1071  137.5688  160.6945 O   0  0  0  0  0  0  0  0  0  0  0  0
  151.4430  141.2314  158.2316 C   0  0  0  0  0  0  0  0  0  0  0  0
  152.2261  141.2496  159.3831 C   0  0  0  0  0  0  0  0  0  0  0  0
  152.4882  142.5092  159.9670 C   0  0  0  0  0  0  0  0  0  0  0  0
  153.3444  142.5606  161.2210 C   0  0  0  0  0  0  0  0  0  0  0  0
  151.8072  145.8641  159.4665 H   0  0  0  0  0  0  0  0  0  0  0  0
  153.3330  145.2306  160.0777 H   0  0  0  0  0  0  0  0  0  0  0  0
  151.8589  145.0884  161.0476 H   0  0  0  0  0  0  0  0  0  0  0  0
  150.7754  144.5660  157.7905 H   0  0  0  0  0  0  0  0  0  0  0  0
  149.7821  140.1186  155.5971 H   0  0  0  0  0  0  0  0  0  0  0  0
  151.3653  138.2408  156.7909 H   0  0  0  0  0  0  0  0  0  0  0  0
  152.4143  138.8170  158.0656 H   0  0  0  0  0  0  0  0  0  0  0  0
  150.1620  138.9344  159.4974 H   0  0  0  0  0  0  0  0  0  0  0  0
  151.9875  137.5530  159.7784 H   0  0  0  0  0  0  0  0  0  0  0  0
  148.3861  138.2592  158.1208 H   0  0  0  0  0  0  0  0  0  0  0  0
  149.3744  137.3144  157.0777 H   0  0  0  0  0  0  0  0  0  0  0  0
  149.3613  135.1410  157.2650 H   0  0  0  0  0  0  0  0  0  0  0  0
  146.4997  132.6615  160.8731 H   0  0  0  0  0  0  0  0  0  0  0  0
  148.1055  132.4961  161.6045 H   0  0  0  0  0  0  0  0  0  0  0  0
  147.8041  131.8806  159.9809 H   0  0  0  0  0  0  0  0  0  0  0  0
  147.8875  135.7669  162.8549 H   0  0  0  0  0  0  0  0  0  0  0  0
  146.9039  134.3378  162.5753 H   0  0  0  0  0  0  0  0  0  0  0  0
  146.2825  135.9219  162.1350 H   0  0  0  0  0  0  0  0  0  0  0  0
  152.6233  140.3419  159.8142 H   0  0  0  0  0  0  0  0  0  0  0  0
  153.6346  141.5613  161.5475 H   0  0  0  0  0  0  0  0  0  0  0  0
  152.7997  143.0321  162.0393 H   0  0  0  0  0  0  0  0  0  0  0  0
  154.2566  143.1288  161.0377 H   0  0  0  0  0  0  0  0  0  0  0  0
  149.7030  142.6669  155.9110 H   0  0  0  0  0  0  0  0  0  0  0  0
  1  2  1  0  0  0  0
  1 25  1  0  0  0  0
  1 26  1  0  0  0  0
  1 27  1  0  0  0  0
  2 23  1  0  0  0  0
  2  3  2  0  0  0  0
  3  4  1  0  0  0  0
  3 28  1  0  0  0  0
  4 21  2  0  0  0  0
  4  5  1  0  0  0  0
  5  6  2  0  0  0  0
  5 47  1  0  0  0  0
  6  7  1  0  0  0  0
  6 29  1  0  0  0  0
  7  8  1  0  0  0  0
  7 21  1  0  0  0  0
  8  9  1  0  0  0  0
  8 30  1  0  0  0  0
  8 31  1  0  0  0  0
  9 10  1  0  0  0  0
  9 11  1  0  0  0  0
  9 32  1  0  0  0  0
 10 33  1  0  0  0  0
 11 12  1  0  0  0  0
 11 34  1  0  0  0  0
 11 35  1  0  0  0  0
 12 19  1  0  0  0  0
 12 13  1  0  0  0  0
 13 14  2  0  0  0  0
 13 36  1  0  0  0  0
 14 15  1  0  0  0  0
 15 16  1  0  0  0  0
 15 17  2  0  0  0  0
 16 37  1  0  0  0  0
 16 38  1  0  0  0  0
 16 39  1  0  0  0  0
 17 18  1  0  0  0  0
 17 19  1  0  0  0  0
 18 40  1  0  0  0  0
 18 41  1  0  0  0  0
 18 42  1  0  0  0  0
 19 20  2  0  0  0  0
 21 22  1  0  0  0  0
 22 23  2  0  0  0  0
 22 43  1  0  0  0  0
 23 24  1  0  0  0  0
 24 44  1  0  0  0  0
 24 45  1  0  0  0  0
 24 46  1  0  0  0  0
M  CHG  1   5   1
M  END
> <s_m_source_file>
AV-unprocessed.smi

> <i_m_source_file_index>
2410

> <i_lp_mmshare_version>
43012

> <i_f3d_flags>
0

> <s_epik_input>
W0NIM11jKFtjSF0xKWMoW0NIM10pW2NIXWMoYzEyKW4oW2NIXW4yKVtDSDJdW0NASF0oW09IXSlbQ0gyXW4zW2NIXW5jKFtDSDNdKWMoW0NIM10pYzM9Tw==

> <s_epik_cmdline>
J2VwaWtfcHl0aG9uJywgJy1waCcsICc3LjAnLCAnLXRuJywgJzgnLCAnLW1hJywgJzIwMCcsICctbWV0YWxfYmluZGluZycsICctaW1hZScsICc8aW5maWxlLm1hZT4nLCAnLW9tYWUnLCAnPG91dGZpbGUubWFlPic=

> <r_lp_tautomer_probability>
1

> <r_epik_Ionization_Penalty>
1.03571

> <r_epik_Ionization_Penalty_Charging>
1.03568

> <r_epik_Ionization_Penalty_Neutral>
3.18232e-05

> <r_epik_State_Penalty>
1.08724

> <r_epik_Charging_Adjusted_Penalty>
2.12292

> <i_epik_Tot_Q>
1

> <i_epik_Tot_abs_Q>
1

> <r_epik_Metal_State_Penalty>
1.18374

> <b_epik_Metal_Only>
0

> <s_lp_Force_Field>
OPLS_2005

> <r_lp_Energy>
24.5371

> <b_lp_Chiralities_Consistent>
1

> <s_lp_Variant>
AV-unprocessed.smi:2410-3

> <Gold.Version>
5.8.1

> <Gold.Id.Protein>
6NUR|6NUR_protein|mol2

> <Gold.PLP.Fitness>
55.2518

> <Gold.PLP.PLP>
-44.7839

> <Gold.PLP.part.hbond>
-4.0212

> <Gold.PLP.part.metal>
0.0000

> <Gold.PLP.part.buried>
-5.9783

> <Gold.PLP.part.nonpolar>
-34.7734

> <Gold.PLP.part.repulsive>
0.0212

> <Gold.PLP.ligand.clash>
0.0000

> <Gold.PLP.ligand.torsion>
1.1269

> <Gold.PLP.Chemscore.Hbond>
4.2350

> <Gold.PLP.Chemscore.CHOScore>
0.0000

> <Gold.PLP.Chemscore.Metal>
0.0000

> <Gold.Chemscore.Hbonds>
donor molecule, donor type, donor heavy atom, donor atom, acceptor molecule, acceptor atom, score
      L1  H     5    47       P1  8028  0.93
      P1  H  6896  6907       L1    10  0.71
      P1  H  6931  6943       L1    20  0.64
      P1  H  6934  6947       L1    20  0.61

> <Gold.PLP.Chemscore.Internal.Correction>
0.0168

> <Gold.Rescore>
     Score         DG    S(hbond)    S(metal)    S(lipo)     H(rot)  DE(clash)    DE(int)     intcor
     20.29     -21.72       2.80        0.00     111.59       2.41       0.33       1.10       ----

> <Gold.Chemscore.Fitness>
20.2895

> <Gold.Chemscore.DG>
-21.7236

> <Gold.Chemscore.ZeroCoef>
-5.4800

> <Gold.Chemscore.Hbond>
2.7978

> <Gold.Chemscore.Metal>
0.0000

> <Gold.Chemscore.Lipo>
111.5909

> <Gold.Chemscore.Internal_Hbond>
0.0000

> <Gold.Chemscore.DEClash>
0.3308

> <Gold.Chemscore.DEInternal>
1.1033

> <Gold.Chemscore.Rot>
2.4052

> <Gold.Chemscore.Internal.Correction>
   9.000000E+99

> <Gold.Chemscore.Hbonds>
donor molecule, donor type, donor heavy atom, donor atom, acceptor molecule, acceptor atom, score
      L1  H     5    47       P1  8028  0.46
      P1  H  6896  6907       L1    10  0.56
      P1  H  6931  6943       L1    20  0.64
      P1  H  6934  6947       L1    20  0.60

> <Gold.Chemscore.Hbond.Weighted>
-9.3447

> <Gold.Chemscore.Metal.Weighted>
-0.0000

> <Gold.Chemscore.Lipo.Weighted>
-13.0561

> <Gold.Chemscore.Internal_Hbond.Weighted>
0.0000

> <Gold.Chemscore.DEClash.Weighted>
0.3308

> <Gold.Chemscore.DEInternal.Weighted>
1.1033

> <Gold.Chemscore.Rot.Weighted>
6.1573

> <Gold.Chemscore.Internal.Correction.Weighted>
   9.000000E+99

> <Gold.Protein.RotatedTorsions>
[ 6907 6896 6895 6894 ] final  -30.86 input  -60.11 | X-H torsion
[ 7974 7965 7964 7962 ] final  148.47 input  175.53 | X-H torsion
[ 8008 7997 7996 7995 ] final   -0.79 input   59.86 | X-H torsion
[ 10167 10162 10161 10158 ] final -157.81 input  -65.29 | X-H torsion
[ 10718 10713 10712 10709 ] final  137.72 input   66.30 | X-H torsion
[ 10763 10752 10751 10750 ] final  -64.21 input  -60.55 | X-H torsion
[ 11005 11000 10999 10996 ] final -124.60 input  -57.11 | X-H torsion

> <Gold.Protein.ActiveResidues>
 VAL166  LYS551  ARG553  GLY616  TRP617  ASP618  TYR619  PRO620  LYS621  CYS622 
 ASP623  PHE694  ASN695  SER759  ASP760  ASP761  ALA762  ILE779  LEU786  VAL792 
 PHE793  MET794  SER795  GLU796  ALA797  LYS798  CYS799  TRP800  GLU811  SER814 

> <Gold.Protein.RotatedAtoms>
  151.0998  134.9966  159.8442 H   0  0  0  0  0  0  0  0  0  0  0  0  # atno 6907 bound_to 6896
  152.5436  134.1964  159.8704 H   0  0  0  0  0  0  0  0  0  0  0  0  # atno 6908 bound_to 6896
  151.2006  133.4569  159.2629 H   0  0  0  0  0  0  0  0  0  0  0  0  # atno 6909 bound_to 6896
  144.8512  139.6157  143.5973 H   0  0  0  0  0  0  0  0  0  0  0  0  # atno 7974 bound_to 7965
  154.6541  140.2575  155.7181 H   0  0  0  0  0  0  0  0  0  0  0  0  # atno 8008 bound_to 7997
  156.2588  140.2862  156.0907 H   0  0  0  0  0  0  0  0  0  0  0  0  # atno 8009 bound_to 7997
  155.1407  140.0380  157.2788 H   0  0  0  0  0  0  0  0  0  0  0  0  # atno 8010 bound_to 7997
  139.6741  143.9693  152.2301 H   0  0  0  0  0  0  0  0  0  0  0  0  # atno 10167 bound_to 10162
  157.4330  131.1050  151.0229 H   0  0  0  0  0  0  0  0  0  0  0  0  # atno 10718 bound_to 10713
  154.3266  135.6185  153.5532 H   0  0  0  0  0  0  0  0  0  0  0  0  # atno 10763 bound_to 10752
  152.9815  135.5737  154.5009 H   0  0  0  0  0  0  0  0  0  0  0  0  # atno 10764 bound_to 10752
  154.4688  135.2858  155.1635 H   0  0  0  0  0  0  0  0  0  0  0  0  # atno 10765 bound_to 10752
  140.9828  134.0649  157.3745 H   0  0  0  0  0  0  0  0  0  0  0  0  # atno 11005 bound_to 11000
  146.2786  139.6817  142.9245 LP  0  0  0  0  0  0  0  0  0  0  0  0  # atno 17320 bound_to 7965
  145.4497  141.0427  143.2811 LP  0  0  0  0  0  0  0  0  0  0  0  0  # atno 17321 bound_to 7965
  139.9466  144.6648  150.8214 LP  0  0  0  0  0  0  0  0  0  0  0  0  # atno 17342 bound_to 10162
  140.7629  143.3210  151.2623 LP  0  0  0  0  0  0  0  0  0  0  0  0  # atno 17343 bound_to 10162
  157.1119  130.6025  149.5484 LP  0  0  0  0  0  0  0  0  0  0  0  0  # atno 17370 bound_to 10713
  155.9920  130.4977  150.7322 LP  0  0  0  0  0  0  0  0  0  0  0  0  # atno 17371 bound_to 10713
  139.8957  135.0142  156.7018 LP  0  0  0  0  0  0  0  0  0  0  0  0  # atno 17394 bound_to 11000
  140.7160  133.9182  155.8115 LP  0  0  0  0  0  0  0  0  0  0  0  0  # atno 17395 bound_to 11000

$$$$
