#       Name:                AV-unprocessed.smi:1867
#       Creating user name   scv26
#       Creation time:       Fri Mar 27 09:28:20 2020


#       File generated by GOLD software.
#

@<TRIPOS>MOLECULE
AV-unprocessed.smi:1867
    55    58     1
SMALL
NO_CHARGES


@<TRIPOS>ATOM
      1 ****        -0.6879   2.7012   0.4772 O.2            1 S1                 0.0000
      2 ****        -0.9297   1.5035   0.3471 C.2            1 S1                 0.0000
      3 ****         0.0073   0.5447   0.2098 N.am           1 S1                 0.0000
      4 ****         1.4183   0.7001   0.1650 C.ar           1 S1                 0.0000
      5 ****         2.1153   1.7571   0.8001 C.ar           1 S1                 0.0000
      6 ****         3.5208   1.8190   0.7046 C.ar           1 S1                 0.0000
      7 ****         4.2214   0.8253  -0.0193 C.ar           1 S1                 0.0000
      8 ****         5.6224   0.8278  -0.1588 N.pl3          1 S1                 0.0000
      9 ****         6.2926  -0.0689  -1.0875 C.3            1 S1                 0.0000
     10 ****         7.7520   0.3835  -1.0762 C.3            1 S1                 0.0000
     11 ****         7.6452   1.8899  -0.8381 C.3            1 S1                 0.0000
     12 ****         6.4000   2.0428   0.0434 C.3            1 S1                 0.0000
     13 ****         3.5124  -0.1787  -0.5889 N.pl3          1 S1                 1.0000
     14 ****         2.1674  -0.2779  -0.5201 C.ar           1 S1                 0.0000
     15 ****        -2.1956   1.0527   0.2981 N.am           1 S1                 0.0000
     16 ****        -3.4361   1.8206   0.4126 C.3            1 S1                 0.0000
     17 ****        -3.7575   2.3014   1.8424 C.3            1 S1                 0.0000
     18 ****        -5.2832   2.1415   1.9977 C.3            1 S1                 0.0000
     19 ****        -5.7663   1.6999   0.6757 N.4            1 S1                 1.0000
     20 ****        -7.0409   0.9496   0.6393 C.3            1 S1                 0.0000
     21 ****        -7.4100   0.6435  -0.8266 C.3            1 S1                 0.0000
     22 ****        -6.2578  -0.0586  -1.5743 C.3            1 S1                 0.0000
     23 ****        -4.9382   0.7232  -1.4230 C.3            1 S1                 0.0000
     24 ****        -4.6510   0.9583   0.0688 C.3            1 S1                 0.0000
     25 ****        -0.3346  -0.3867   0.0242 H              1 S1                 0.0000
     26 ****         1.6000   2.5148   1.3704 H              1 S1                 0.0000
     27 ****         4.0445   2.6256   1.1960 H              1 S1                 0.0000
     28 ****         6.1915  -1.1122  -0.7863 H              1 S1                 0.0000
     29 ****         5.8616   0.0486  -2.0829 H              1 S1                 0.0000
     30 ****         8.2788  -0.0854  -0.2437 H              1 S1                 0.0000
     31 ****         8.2820   0.1324  -1.9955 H              1 S1                 0.0000
     32 ****         8.5407   2.3140  -0.3829 H              1 S1                 0.0000
     33 ****         7.4824   2.3973  -1.7901 H              1 S1                 0.0000
     34 ****         5.8435   2.9415  -0.2247 H              1 S1                 0.0000
     35 ****         6.6778   2.1118   1.0957 H              1 S1                 0.0000
     36 ****         1.7341  -1.1298  -1.0241 H              1 S1                 0.0000
     37 ****        -2.3077   0.0639   0.1236 H              1 S1                 0.0000
     38 ****        -3.4084   2.6781  -0.2629 H              1 S1                 0.0000
     39 ****        -3.2454   1.6951   2.5912 H              1 S1                 0.0000
     40 ****        -3.4433   3.3354   1.9884 H              1 S1                 0.0000
     41 ****        -5.5042   1.3834   2.7508 H              1 S1                 0.0000
     42 ****        -5.7713   3.0692   2.2980 H              1 S1                 0.0000
     43 ****        -6.9446   0.0247   1.2101 H              1 S1                 0.0000
     44 ****        -7.8273   1.5397   1.1108 H              1 S1                 0.0000
     45 ****        -8.3095   0.0283  -0.8650 H              1 S1                 0.0000
     46 ****        -7.6532   1.5753  -1.3387 H              1 S1                 0.0000
     47 ****        -6.1298  -1.0664  -1.1768 H              1 S1                 0.0000
     48 ****        -6.5087  -0.1727  -2.6292 H              1 S1                 0.0000
     49 ****        -4.1194   0.1705  -1.8847 H              1 S1                 0.0000
     50 ****        -5.0095   1.6768  -1.9479 H              1 S1                 0.0000
     51 ****        -4.5603  -0.0053   0.5765 H              1 S1                 0.0000
     52 ****        -5.8918   2.5339   0.1201 H              1 S1                 0.0000
     53 ****         4.0225  -0.8987  -1.1010 H              1 S1                 0.0000
     54 ****         0.2592   3.0220   0.4862 LP             1 S1                 0.0000
     55 ****        -1.4382   3.3551   0.5741 LP             1 S1                 0.0000
@<TRIPOS>BOND
    1    1    2 2     
    2    2    3 am    
    3    2   15 am    
    4    3    4 1     
    5    3   25 1     
    6    4   14 ar    
    7    4    5 ar    
    8    5    6 ar    
    9    5   26 1     
   10    6    7 ar    
   11    6   27 1     
   12    7    8 1     
   13    7   13 ar    
   14    8   12 1     
   15    8    9 1     
   16    9   10 1     
   17    9   28 1     
   18    9   29 1     
   19   10   11 1     
   20   10   30 1     
   21   10   31 1     
   22   11   12 1     
   23   11   32 1     
   24   11   33 1     
   25   12   34 1     
   26   12   35 1     
   27   13   14 ar    
   28   13   53 1     
   29   14   36 1     
   30   15   16 1     
   31   15   37 1     
   32   16   24 1     
   33   16   17 1     
   34   16   38 1     
   35   17   18 1     
   36   17   39 1     
   37   17   40 1     
   38   18   19 1     
   39   18   41 1     
   40   18   42 1     
   41   19   24 1     
   42   19   20 1     
   43   19   52 1     
   44   20   21 1     
   45   20   43 1     
   46   20   44 1     
   47   21   22 1     
   48   21   45 1     
   49   21   46 1     
   50   22   23 1     
   51   22   47 1     
   52   22   48 1     
   53   23   24 1     
   54   23   49 1     
   55   23   50 1     
   56   24   51 1     
   57    1   54 1     
   58    1   55 1     
@<TRIPOS>SUBSTRUCTURE
      1 S1             1
@<TRIPOS>SET
LONE_PAIRS      STATIC     ATOMS    <user>   **** ""
2 54 55
DONOR_HYDROGENS      STATIC     ATOMS    <user>   **** ""
4 25 53 37 52
ATOM$BLUE        STATIC     ATOMS    COLORGROUP SYSTEM
2 54 55
ATOM$RED        STATIC     ATOMS    COLORGROUP SYSTEM
4 25 53 37 52
