#       Name:                AV-unprocessed.smi:77
#       Creating user name   scv26
#       Creation time:       Thu Mar 26 17:12:18 2020


#       File generated by GOLD software.
#

@<TRIPOS>MOLECULE
AV-unprocessed.smi:77
    66    70     1
SMALL
NO_CHARGES


@<TRIPOS>ATOM
      1 ****        -3.7719  -0.4577   0.1664 O.2            1 S1                 0.0000
      2 ****        -3.6625  -1.4125  -0.6048 C.2            1 S1                 0.0000
      3 ****        -2.9407  -1.2642  -1.9508 C.3            1 S1                 0.0000
      4 ****        -2.5512   0.1203  -2.2482 N.pl3          1 S1                 0.0000
      5 ****        -1.2249   0.4334  -2.1910 C.ar           1 S1                 0.0000
      6 ****        -0.6882   1.2141  -3.1685 N.ar           1 S1                 0.0000
      7 ****         0.6063   1.5411  -3.1511 C.ar           1 S1                 0.0000
      8 ****         1.5386   1.2027  -2.2608 N.ar           1 S1                 0.0000
      9 ****         1.0148   0.4241  -1.2722 C.ar           1 S1                 0.0000
     10 ****        -0.3401  -0.0039  -1.1589 C.ar           1 S1                 0.0000
     11 ****        -0.4861  -0.7731  -0.0089 N.2            1 S1                 0.0000
     12 ****         0.7054  -0.8007   0.5209 C.2            1 S1                 0.0000
     13 ****         1.6670  -0.1034  -0.1714 N.pl3          1 S1                 0.0000
     14 ****         3.0676   0.0318   0.1904 C.3            1 S1                 0.0000
     15 ****         3.3083   0.9926   1.3826 C.3            1 S1                 0.0000
     16 ****         2.7409   2.4058   1.0887 C.3            1 S1                 0.0000
     17 ****         2.5688   3.1601   2.2700 O.3            1 S1                 0.0000
     18 ****         4.8199   1.0248   1.7422 C.3            1 S1                 0.0000
     19 ****         5.1932   1.8274   2.9771 C.3            1 S1                 0.0000
     20 ****         6.5822   1.2927   3.3028 C.3            1 S1                 0.0000
     21 ****         6.5521  -0.0808   2.9371 O.3            1 S1                 0.0000
     22 ****         5.4187  -0.3386   2.1139 C.3            1 S1                 0.0000
     23 ****        -3.3963   0.8570  -3.1881 C.3            1 S1                 0.0000
     24 ****        -3.6506   2.3303  -2.9544 C.3            1 S1                 0.0000
     25 ****        -4.7599   1.3296  -2.7374 C.3            1 S1                 0.0000
     26 ****        -4.1477  -2.6335  -0.3379 N.am           1 S1                 0.0000
     27 ****        -4.8451  -3.0069   0.8498 C.3            1 S1                 0.0000
     28 ****        -4.6948  -4.4334   1.3319 C.3            1 S1                 0.0000
     29 ****        -5.9911  -3.9858   0.7152 C.3            1 S1                 0.0000
     30 ****        -2.0808  -1.9353  -1.9756 H              1 S1                 0.0000
     31 ****        -3.6102  -1.6199  -2.7357 H              1 S1                 0.0000
     32 ****         0.9417   2.1641  -3.9670 H              1 S1                 0.0000
     33 ****         0.9160  -1.3301   1.4388 H              1 S1                 0.0000
     34 ****         3.4349  -0.9686   0.4189 H              1 S1                 0.0000
     35 ****         3.6253   0.3706  -0.6836 H              1 S1                 0.0000
     36 ****         2.7627   0.5855   2.2357 H              1 S1                 0.0000
     37 ****         3.3865   2.9473   0.3968 H              1 S1                 0.0000
     38 ****         1.7576   2.3558   0.6240 H              1 S1                 0.0000
     39 ****         2.2046   4.0009   2.0385 H              1 S1                 0.0000
     40 ****         5.3803   1.4254   0.8956 H              1 S1                 0.0000
     41 ****         5.1983   2.9044   2.8079 H              1 S1                 0.0000
     42 ****         4.5067   1.6103   3.7969 H              1 S1                 0.0000
     43 ****         7.3351   1.7979   2.6963 H              1 S1                 0.0000
     44 ****         6.8471   1.4237   4.3522 H              1 S1                 0.0000
     45 ****         4.7075  -0.9295   2.6926 H              1 S1                 0.0000
     46 ****         5.7038  -0.9203   1.2369 H              1 S1                 0.0000
     47 ****        -3.3235   0.5443  -4.2283 H              1 S1                 0.0000
     48 ****        -3.2101   2.7885  -2.0709 H              1 S1                 0.0000
     49 ****        -3.7140   2.9724  -3.8303 H              1 S1                 0.0000
     50 ****        -5.5648   1.3039  -3.4688 H              1 S1                 0.0000
     51 ****        -5.0598   1.1362  -1.7098 H              1 S1                 0.0000
     52 ****        -4.0098  -3.3565  -1.0292 H              1 S1                 0.0000
     53 ****        -4.9486  -2.2515   1.6277 H              1 S1                 0.0000
     54 ****        -4.0671  -5.1049   0.7490 H              1 S1                 0.0000
     55 ****        -4.6816  -4.6003   2.4071 H              1 S1                 0.0000
     56 ****        -6.8438  -3.8526   1.3780 H              1 S1                 0.0000
     57 ****        -6.2293  -4.3576  -0.2798 H              1 S1                 0.0000
     58 ****        -3.3870   0.4316  -0.0810 LP             1 S1                 0.0000
     59 ****        -4.2455  -0.5720   1.0397 LP             1 S1                 0.0000
     60 ****        -1.2712   1.5472  -3.9095 LP             1 S1                 0.0000
     61 ****         2.4971   1.4834  -2.3114 LP             1 S1                 0.0000
     62 ****        -1.3185  -1.2077   0.3348 LP             1 S1                 0.0000
     63 ****         3.4525   3.2878   2.7205 LP             1 S1                 0.0000
     64 ****         1.9456   2.6812   2.8883 LP             1 S1                 0.0000
     65 ****         6.4971  -0.6425   3.7626 LP             1 S1                 0.0000
     66 ****         7.3859  -0.3083   2.4341 LP             1 S1                 0.0000
@<TRIPOS>BOND
    1    1    2 2     
    2    2    3 1     
    3    2   26 am    
    4    3    4 1     
    5    3   30 1     
    6    3   31 1     
    7    4    5 1     
    8    4   23 1     
    9    5   10 ar    
   10    5    6 ar    
   11    6    7 ar    
   12    7    8 ar    
   13    7   32 1     
   14    8    9 ar    
   15    9   13 1     
   16    9   10 ar    
   17   10   11 1     
   18   11   12 2     
   19   12   13 1     
   20   12   33 1     
   21   13   14 1     
   22   14   15 1     
   23   14   34 1     
   24   14   35 1     
   25   15   16 1     
   26   15   18 1     
   27   15   36 1     
   28   16   17 1     
   29   16   37 1     
   30   16   38 1     
   31   17   39 1     
   32   18   22 1     
   33   18   19 1     
   34   18   40 1     
   35   19   20 1     
   36   19   41 1     
   37   19   42 1     
   38   20   21 1     
   39   20   43 1     
   40   20   44 1     
   41   21   22 1     
   42   22   45 1     
   43   22   46 1     
   44   23   25 1     
   45   23   24 1     
   46   23   47 1     
   47   24   25 1     
   48   24   48 1     
   49   24   49 1     
   50   25   50 1     
   51   25   51 1     
   52   26   27 1     
   53   26   52 1     
   54   27   29 1     
   55   27   28 1     
   56   27   53 1     
   57   28   29 1     
   58   28   54 1     
   59   28   55 1     
   60   29   56 1     
   61   29   57 1     
   62    1   58 1     
   63    1   59 1     
   64    6   60 1     
   65    8   61 1     
   66   11   62 1     
   67   17   63 1     
   68   17   64 1     
   69   21   65 1     
   70   21   66 1     
@<TRIPOS>SUBSTRUCTURE
      1 S1             1
@<TRIPOS>SET
LONE_PAIRS      STATIC     ATOMS    <user>   **** ""
9 58 59 60 61 62 63 64 65 66
DONOR_HYDROGENS      STATIC     ATOMS    <user>   **** ""
2 39 52
ATOM$BLUE        STATIC     ATOMS    COLORGROUP SYSTEM
9 58 59 60 61 62 63 64 65 66
ATOM$RED        STATIC     ATOMS    COLORGROUP SYSTEM
2 39 52
