AV-unprocessed.smi:1703|AV-procd|sdf|6872|dock10
  -GOLD-   22720 8 73D 1   1.00000     0.00000
 Structure written by MMmdl.
 49 51  0  0  0  0  0  0  0  0  2 V2000
  147.8273  136.2710  162.1116 C   0  0  0  0  0  0  0  0  0  0  0  0
  147.7096  136.1651  160.5875 C   0  0  1  0  0  0  0  0  0  0  0  0
  148.9795  136.6601  159.8727 C   0  0  0  0  0  0  0  0  0  0  0  0
  148.8974  136.4859  158.4277 N   0  0  0  0  0  0  0  0  0  0  0  0
  150.0985  137.0065  157.7721 C   0  0  0  0  0  0  0  0  0  0  0  0
  150.4096  138.4923  158.0395 C   0  0  1  0  0  0  0  0  0  0  0  0
  151.2030  138.5783  159.2066 O   0  0  0  0  0  0  0  0  0  0  0  0
  151.1616  139.1328  156.8567 C   0  0  0  0  0  0  0  0  0  0  0  0
  150.8940  140.5747  156.7202 N   0  0  0  0  0  0  0  0  0  0  0  0
  150.0635  141.2373  155.8634 C   0  0  0  0  0  0  0  0  0  0  0  0
  149.1834  140.6371  154.8165 C   0  0  0  0  0  0  0  0  0  0  0  0
  149.5418  141.0447  153.5146 O   0  0  0  0  0  0  0  0  0  0  0  0
  150.1726  142.5667  156.1425 N   0  3  0  0  0  0  0  0  0  0  0  0
  151.0783  142.7586  157.1861 C   0  0  0  0  0  0  0  0  0  0  0  0
  151.5112  143.9232  157.8126 C   0  0  0  0  0  0  0  0  0  0  0  0
  152.4459  143.7699  158.8574 C   0  0  0  0  0  0  0  0  0  0  0  0
  152.9125  142.4966  159.2432 C   0  0  0  0  0  0  0  0  0  0  0  0
  152.4676  141.3234  158.5991 C   0  0  0  0  0  0  0  0  0  0  0  0
  151.5449  141.4830  157.5649 C   0  0  0  0  0  0  0  0  0  0  0  0
  148.6606  135.0727  158.1353 C   0  0  0  0  0  0  0  0  0  0  0  0
  147.4168  134.5145  158.8559 C   0  0  2  0  0  0  0  0  0  0  0  0
  146.0908  134.9929  158.2400 C   0  0  0  0  0  0  0  0  0  0  0  0
  147.4840  134.7968  160.2544 O   0  0  0  0  0  0  0  0  0  0  0  0
  147.9917  137.3032  162.4219 H   0  0  0  0  0  0  0  0  0  0  0  0
  148.6580  135.6721  162.4858 H   0  0  0  0  0  0  0  0  0  0  0  0
  146.9171  135.9191  162.5976 H   0  0  0  0  0  0  0  0  0  0  0  0
  146.8551  136.7622  160.2677 H   0  0  0  0  0  0  0  0  0  0  0  0
  149.1329  137.7140  160.1085 H   0  0  0  0  0  0  0  0  0  0  0  0
  149.8486  136.1255  160.2599 H   0  0  0  0  0  0  0  0  0  0  0  0
  150.9638  136.4216  158.0880 H   0  0  0  0  0  0  0  0  0  0  0  0
  150.0126  136.8455  156.6963 H   0  0  0  0  0  0  0  0  0  0  0  0
  149.4931  139.0553  158.2067 H   0  0  0  0  0  0  0  0  0  0  0  0
  150.9957  137.8400  159.7599 H   0  0  0  0  0  0  0  0  0  0  0  0
  152.2364  138.9691  156.9350 H   0  0  0  0  0  0  0  0  0  0  0  0
  150.8561  138.6580  155.9242 H   0  0  0  0  0  0  0  0  0  0  0  0
  149.2421  139.5499  154.8747 H   0  0  0  0  0  0  0  0  0  0  0  0
  148.1455  140.9106  155.0062 H   0  0  0  0  0  0  0  0  0  0  0  0
  149.4570  140.3043  152.9330 H   0  0  0  0  0  0  0  0  0  0  0  0
  151.1523  144.8994  157.5210 H   0  0  0  0  0  0  0  0  0  0  0  0
  152.8103  144.6458  159.3744 H   0  0  0  0  0  0  0  0  0  0  0  0
  153.6255  142.4166  160.0510 H   0  0  0  0  0  0  0  0  0  0  0  0
  152.8272  140.3535  158.9090 H   0  0  0  0  0  0  0  0  0  0  0  0
  148.5432  134.9127  157.0646 H   0  0  0  0  0  0  0  0  0  0  0  0
  149.5323  134.4907  158.4390 H   0  0  0  0  0  0  0  0  0  0  0  0
  147.4361  133.4284  158.7627 H   0  0  0  0  0  0  0  0  0  0  0  0
  146.0047  134.6647  157.2040 H   0  0  0  0  0  0  0  0  0  0  0  0
  146.0047  136.0792  158.2448 H   0  0  0  0  0  0  0  0  0  0  0  0
  145.2393  134.5871  158.7864 H   0  0  0  0  0  0  0  0  0  0  0  0
  149.6586  143.2887  155.6543 H   0  0  0  0  0  0  0  0  0  0  0  0
  1  2  1  0  0  0  0
  1 24  1  0  0  0  0
  1 25  1  0  0  0  0
  1 26  1  0  0  0  0
  2 23  1  0  0  0  0
  2  3  1  0  0  0  0
  2 27  1  0  0  0  0
  3  4  1  0  0  0  0
  3 28  1  0  0  0  0
  3 29  1  0  0  0  0
  4  5  1  0  0  0  0
  4 20  1  0  0  0  0
  5  6  1  0  0  0  0
  5 30  1  0  0  0  0
  5 31  1  0  0  0  0
  6  7  1  0  0  0  0
  6  8  1  0  0  0  0
  6 32  1  0  0  0  0
  7 33  1  0  0  0  0
  8  9  1  0  0  0  0
  8 34  1  0  0  0  0
  8 35  1  0  0  0  0
  9 19  1  0  0  0  0
  9 10  1  0  0  0  0
 10 11  1  0  0  0  0
 10 13  2  0  0  0  0
 11 12  1  0  0  0  0
 11 36  1  0  0  0  0
 11 37  1  0  0  0  0
 12 38  1  0  0  0  0
 13 14  1  0  0  0  0
 13 49  1  0  0  0  0
 14 19  2  0  0  0  0
 14 15  1  0  0  0  0
 15 16  2  0  0  0  0
 15 39  1  0  0  0  0
 16 17  1  0  0  0  0
 16 40  1  0  0  0  0
 17 18  2  0  0  0  0
 17 41  1  0  0  0  0
 18 19  1  0  0  0  0
 18 42  1  0  0  0  0
 20 21  1  0  0  0  0
 20 43  1  0  0  0  0
 20 44  1  0  0  0  0
 21 22  1  0  0  0  0
 21 23  1  0  0  0  0
 21 45  1  0  0  0  0
 22 46  1  0  0  0  0
 22 47  1  0  0  0  0
 22 48  1  0  0  0  0
M  CHG  1  13   1
M  END
> <s_m_source_file>
AV-unprocessed.smi

> <i_m_source_file_index>
1703

> <i_lp_mmshare_version>
43012

> <i_f3d_flags>
0

> <s_epik_input>
W0NIM11bQ0BASF0xW0NIMl1OKFtDSDJdW0NASF0oTzEpW0NIM10pW0NIMl1bQ0BIXShbT0hdKVtDSDJdbihjKG4yKVtDSDJdW09IXSljKGMyMylbY0hdW2NIXVtjSF1bY0hdMw==

> <s_epik_cmdline>
J2VwaWtfcHl0aG9uJywgJy1waCcsICc3LjAnLCAnLXRuJywgJzgnLCAnLW1hJywgJzIwMCcsICctbWV0YWxfYmluZGluZycsICctaW1hZScsICc8aW5maWxlLm1hZT4nLCAnLW9tYWUnLCAnPG91dGZpbGUubWFlPic=

> <r_epik_Ionization_Penalty>
1.7682

> <r_epik_Ionization_Penalty_Charging>
1.55298

> <r_epik_Ionization_Penalty_Neutral>
0.215215

> <r_epik_State_Penalty>
1.83821

> <r_epik_Charging_Adjusted_Penalty>
3.39119

> <i_epik_Tot_Q>
1

> <i_epik_Tot_abs_Q>
1

> <r_epik_Metal_State_Penalty>
5.89206

> <b_epik_Metal_Only>
0

> <s_lp_Force_Field>
OPLS_2005

> <r_lp_Energy>
35.5587

> <b_lp_Chiralities_Consistent>
1

> <s_lp_Variant>
AV-unprocessed.smi:1703-20

> <Gold.Version>
5.8.1

> <Gold.Id.Protein>
6NUR|6NUR_protein|mol2

> <Gold.PLP.Fitness>
51.9246

> <Gold.PLP.PLP>
-42.2939

> <Gold.PLP.part.hbond>
-4.0131

> <Gold.PLP.part.metal>
0.0000

> <Gold.PLP.part.buried>
-5.4829

> <Gold.PLP.part.nonpolar>
-32.8774

> <Gold.PLP.part.repulsive>
0.1139

> <Gold.PLP.ligand.clash>
0.0000

> <Gold.PLP.ligand.torsion>
0.9808

> <Gold.PLP.Chemscore.Hbond>
3.8540

> <Gold.PLP.Chemscore.CHOScore>
0.0000

> <Gold.PLP.Chemscore.Metal>
0.0000

> <Gold.Chemscore.Hbonds>
donor molecule, donor type, donor heavy atom, donor atom, acceptor molecule, acceptor atom, score
      L1  H    12    38       P1  7957  0.70
      L1  H    13    49       P1  8028  2.00
      P1  H  7989  7998       L1    12  0.13
      P1  H  8011  8017       L1    12  1.00

> <Gold.PLP.Chemscore.Internal.Correction>
0.0304

> <Gold.Rescore>
     Score         DG    S(hbond)    S(metal)    S(lipo)     H(rot)  DE(clash)    DE(int)     intcor
     15.55     -17.82       2.27        0.00     105.36       2.96       0.08       2.19       ----

> <Gold.Chemscore.Fitness>
15.5525

> <Gold.Chemscore.DG>
-17.8240

> <Gold.Chemscore.ZeroCoef>
-5.4800

> <Gold.Chemscore.Hbond>
2.2702

> <Gold.Chemscore.Metal>
0.0000

> <Gold.Chemscore.Lipo>
105.3636

> <Gold.Chemscore.Internal_Hbond>
0.0000

> <Gold.Chemscore.DEClash>
0.0841

> <Gold.Chemscore.DEInternal>
2.1875

> <Gold.Chemscore.Rot>
2.9555

> <Gold.Chemscore.Internal.Correction>
   9.000000E+99

> <Gold.Chemscore.Hbonds>
donor molecule, donor type, donor heavy atom, donor atom, acceptor molecule, acceptor atom, score
      L1  H    12    38       P1  7957  0.70
      L1  H    13    49       P1  8028  0.95
      P1  H  8011  8017       L1    12  0.29

> <Gold.Chemscore.Hbond.Weighted>
-7.5825

> <Gold.Chemscore.Metal.Weighted>
-0.0000

> <Gold.Chemscore.Lipo.Weighted>
-12.3275

> <Gold.Chemscore.Internal_Hbond.Weighted>
0.0000

> <Gold.Chemscore.DEClash.Weighted>
0.0841

> <Gold.Chemscore.DEInternal.Weighted>
2.1875

> <Gold.Chemscore.Rot.Weighted>
7.5660

> <Gold.Chemscore.Internal.Correction.Weighted>
   9.000000E+99

> <Gold.Protein.RotatedTorsions>
[ 6907 6896 6895 6894 ] final  -77.75 input  -60.11 | X-H torsion
[ 7974 7965 7964 7962 ] final -143.55 input  175.53 | X-H torsion
[ 8008 7997 7996 7995 ] final -126.95 input   59.86 | X-H torsion
[ 10167 10162 10161 10158 ] final -101.25 input  -65.29 | X-H torsion
[ 10718 10713 10712 10709 ] final  106.83 input   66.30 | X-H torsion
[ 10763 10752 10751 10750 ] final  152.63 input  -60.55 | X-H torsion
[ 11005 11000 10999 10996 ] final   12.40 input  -57.11 | X-H torsion

> <Gold.Protein.ActiveResidues>
 VAL166  LYS551  ARG553  GLY616  TRP617  ASP618  TYR619  PRO620  LYS621  CYS622 
 ASP623  PHE694  ASN695  SER759  ASP760  ASP761  ALA762  ILE779  LEU786  VAL792 
 PHE793  MET794  SER795  GLU796  ALA797  LYS798  CYS799  TRP800  GLU811  SER814 

> <Gold.Protein.RotatedAtoms>
  150.6990  134.4375  159.5276 H   0  0  0  0  0  0  0  0  0  0  0  0  # atno 6907 bound_to 6896
  152.2091  134.8515  160.0508 H   0  0  0  0  0  0  0  0  0  0  0  0  # atno 6908 bound_to 6896
  151.9407  133.3602  159.4001 H   0  0  0  0  0  0  0  0  0  0  0  0  # atno 6909 bound_to 6896
  144.8361  140.5821  143.5483 H   0  0  0  0  0  0  0  0  0  0  0  0  # atno 7974 bound_to 7965
  155.2382  140.0427  157.2971 H   0  0  0  0  0  0  0  0  0  0  0  0  # atno 8008 bound_to 7997
  154.5845  140.2410  155.7976 H   0  0  0  0  0  0  0  0  0  0  0  0  # atno 8009 bound_to 7997
  156.2216  140.2968  155.9976 H   0  0  0  0  0  0  0  0  0  0  0  0  # atno 8010 bound_to 7997
  140.2433  143.3524  152.0782 H   0  0  0  0  0  0  0  0  0  0  0  0  # atno 10167 bound_to 10162
  157.6653  131.0859  150.6066 H   0  0  0  0  0  0  0  0  0  0  0  0  # atno 10718 bound_to 10713
  154.1231  135.2831  155.3203 H   0  0  0  0  0  0  0  0  0  0  0  0  # atno 10763 bound_to 10752
  154.6409  135.5402  153.7792 H   0  0  0  0  0  0  0  0  0  0  0  0  # atno 10764 bound_to 10752
  153.0306  135.6486  154.1384 H   0  0  0  0  0  0  0  0  0  0  0  0  # atno 10765 bound_to 10752
  140.4924  134.0827  155.7774 H   0  0  0  0  0  0  0  0  0  0  0  0  # atno 11005 bound_to 11000
  145.4791  139.1497  143.3772 LP  0  0  0  0  0  0  0  0  0  0  0  0  # atno 17320 bound_to 7965
  146.2660  140.4927  142.8834 LP  0  0  0  0  0  0  0  0  0  0  0  0  # atno 17321 bound_to 7965
  139.5070  144.6824  151.5974 LP  0  0  0  0  0  0  0  0  0  0  0  0  # atno 17342 bound_to 10162
  140.6097  143.9459  150.6444 LP  0  0  0  0  0  0  0  0  0  0  0  0  # atno 17343 bound_to 10162
  156.6367  130.4447  149.5767 LP  0  0  0  0  0  0  0  0  0  0  0  0  # atno 17370 bound_to 10713
  156.2240  130.6754  151.1397 LP  0  0  0  0  0  0  0  0  0  0  0  0  # atno 17371 bound_to 10713
  141.1477  133.9025  157.2174 LP  0  0  0  0  0  0  0  0  0  0  0  0  # atno 17394 bound_to 11000
  139.9761  135.0113  156.9635 LP  0  0  0  0  0  0  0  0  0  0  0  0  # atno 17395 bound_to 11000

$$$$
