AV-unprocessed.smi:2708|AV-procd|sdf|10459|dock3
  -GOLD-   2272014493D 1   1.00000     0.00000
 Structure written by MMmdl.
 35 35  0  0  0  0  0  0  0  0  2 V2000
  149.5853  139.0867  158.0025 C   0  0  0  0  0  0  0  0  0  0  0  0
  150.5586  137.9518  158.3651 C   0  0  1  0  0  0  0  0  0  0  0  0
  151.5915  138.5000  159.2412 N   0  0  0  0  0  0  0  0  0  0  0  0
  152.6980  139.1470  158.8405 C   0  0  0  0  0  0  0  0  0  0  0  0
  152.9686  139.3711  157.6605 O   0  0  0  0  0  0  0  0  0  0  0  0
  153.6431  139.6210  159.9452 C   0  0  0  0  0  0  0  0  0  0  0  0
  153.2517  140.9960  160.4026 C   0  0  0  0  0  0  0  0  0  0  0  0
  153.4300  141.5288  161.6542 C   0  0  0  0  0  0  0  0  0  0  0  0
  152.8434  143.1651  161.7521 S   0  0  0  0  0  0  0  0  0  0  0  0
  152.3579  143.0722  160.0551 C   0  0  0  0  0  0  0  0  0  0  0  0
  151.7205  144.1949  159.2725 C   0  0  0  0  0  0  0  0  0  0  0  0
  150.3500  143.7405  158.7336 C   0  0  0  0  0  0  0  0  0  0  0  0
  152.5903  144.5999  158.0626 C   0  0  0  0  0  0  0  0  0  0  0  0
  151.5660  145.4379  160.1704 C   0  0  0  0  0  0  0  0  0  0  0  0
  152.6346  141.8810  159.5126 N   0  0  0  0  0  0  0  0  0  0  0  0
  149.7717  136.8482  159.0901 C   0  0  0  0  0  0  0  0  0  0  0  0
  149.7893  135.7093  158.5742 O   0  0  0  0  0  0  0  0  0  0  0  0
  149.1636  137.1576  160.1398 O   0  5  0  0  0  0  0  0  0  0  0  0
  151.0086  137.5522  157.4541 H   0  0  0  0  0  0  0  0  0  0  0  0
  148.7808  138.7275  157.3596 H   0  0  0  0  0  0  0  0  0  0  0  0
  150.1015  139.8816  157.4630 H   0  0  0  0  0  0  0  0  0  0  0  0
  149.1301  139.5334  158.8881 H   0  0  0  0  0  0  0  0  0  0  0  0
  151.4629  138.3557  160.2320 H   0  0  0  0  0  0  0  0  0  0  0  0
  153.6200  138.9129  160.7748 H   0  0  0  0  0  0  0  0  0  0  0  0
  154.6661  139.6174  159.5671 H   0  0  0  0  0  0  0  0  0  0  0  0
  153.8766  141.0609  162.5189 H   0  0  0  0  0  0  0  0  0  0  0  0
  149.8710  144.5266  158.1490 H   0  0  0  0  0  0  0  0  0  0  0  0
  149.6687  143.4774  159.5438 H   0  0  0  0  0  0  0  0  0  0  0  0
  150.4482  142.8649  158.0910 H   0  0  0  0  0  0  0  0  0  0  0  0
  152.7258  143.7702  157.3677 H   0  0  0  0  0  0  0  0  0  0  0  0
  153.5791  144.9394  158.3739 H   0  0  0  0  0  0  0  0  0  0  0  0
  152.1331  145.4156  157.5011 H   0  0  0  0  0  0  0  0  0  0  0  0
  151.1224  146.2711  159.6242 H   0  0  0  0  0  0  0  0  0  0  0  0
  152.5306  145.7714  160.5552 H   0  0  0  0  0  0  0  0  0  0  0  0
  150.9228  145.2346  161.0275 H   0  0  0  0  0  0  0  0  0  0  0  0
  1  2  1  0  0  0  0
  1 20  1  0  0  0  0
  1 21  1  0  0  0  0
  1 22  1  0  0  0  0
  2 19  1  0  0  0  0
  2  3  1  0  0  0  0
  2 16  1  0  0  0  0
  3  4  1  0  0  0  0
  3 23  1  0  0  0  0
  4  5  2  0  0  0  0
  4  6  1  0  0  0  0
  6  7  1  0  0  0  0
  6 24  1  0  0  0  0
  6 25  1  0  0  0  0
  7 15  1  0  0  0  0
  7  8  2  0  0  0  0
  8  9  1  0  0  0  0
  8 26  1  0  0  0  0
  9 10  1  0  0  0  0
 10 11  1  0  0  0  0
 10 15  2  0  0  0  0
 11 12  1  0  0  0  0
 11 13  1  0  0  0  0
 11 14  1  0  0  0  0
 12 27  1  0  0  0  0
 12 28  1  0  0  0  0
 12 29  1  0  0  0  0
 13 30  1  0  0  0  0
 13 31  1  0  0  0  0
 13 32  1  0  0  0  0
 14 33  1  0  0  0  0
 14 34  1  0  0  0  0
 14 35  1  0  0  0  0
 16 17  2  0  0  0  0
 16 18  1  0  0  0  0
M  CHG  1  18  -1
M  END
> <s_m_source_file>
AV-unprocessed.smi

> <i_m_source_file_index>
2708

> <i_lp_mmshare_version>
43012

> <i_f3d_flags>
0

> <s_epik_input>
Tz1DKFtPSF0pW0NASF0oW0NIM10pW05IXUMoPU8pW0NIMl1jMVtjSF1zYyhuMSlDKFtDSDNdKShbQ0gzXSlbQ0gzXQ==

> <s_epik_cmdline>
J2VwaWtfcHl0aG9uJywgJy1waCcsICc3LjAnLCAnLXRuJywgJzgnLCAnLW1hJywgJzIwMCcsICctbWV0YWxfYmluZGluZycsICctaW1hZScsICc8aW5maWxlLm1hZT4nLCAnLW9tYWUnLCAnPG91dGZpbGUubWFlPic=

> <r_lp_tautomer_probability>
1

> <r_epik_Ionization_Penalty>
0.000214174

> <r_epik_Ionization_Penalty_Charging>
0.000167453

> <r_epik_Ionization_Penalty_Neutral>
4.67216e-05

> <r_epik_State_Penalty>
-0

> <r_epik_Charging_Adjusted_Penalty>
0.000167453

> <i_epik_Tot_Q>
-1

> <i_epik_Tot_abs_Q>
1

> <r_epik_Metal_State_Penalty>
-0

> <b_epik_Metal_Only>
0

> <s_lp_Force_Field>
OPLS_2005

> <r_lp_Energy>
-5.21837

> <b_lp_Chiralities_Consistent>
1

> <s_lp_Variant>
AV-unprocessed.smi:2708-2

> <Gold.Version>
5.8.1

> <Gold.Id.Protein>
6NUR|6NUR_protein|mol2

> <Gold.PLP.Fitness>
50.5812

> <Gold.PLP.PLP>
-40.9008

> <Gold.PLP.part.hbond>
-3.0104

> <Gold.PLP.part.metal>
0.0000

> <Gold.PLP.part.buried>
-6.7464

> <Gold.PLP.part.nonpolar>
-32.7637

> <Gold.PLP.part.repulsive>
0.1413

> <Gold.PLP.ligand.clash>
0.0000

> <Gold.PLP.ligand.torsion>
1.0771

> <Gold.PLP.Chemscore.Hbond>
3.9280

> <Gold.PLP.Chemscore.CHOScore>
0.0000

> <Gold.PLP.Chemscore.Metal>
0.0000

> <Gold.Chemscore.Hbonds>
donor molecule, donor type, donor heavy atom, donor atom, acceptor molecule, acceptor atom, score
      P1  H  6896  6908       L1    17  2.00
      P1  H  6931  6943       L1    18  0.90
      P1  H  7997  8010       L1     5  0.94

> <Gold.PLP.Chemscore.Internal.Correction>
0.0506

> <Gold.Rescore>
     Score         DG    S(hbond)    S(metal)    S(lipo)     H(rot)  DE(clash)    DE(int)     intcor
     19.13     -20.32       2.43        0.00     106.65       2.25       0.06       1.14       ----

> <Gold.Chemscore.Fitness>
19.1285

> <Gold.Chemscore.DG>
-20.3204

> <Gold.Chemscore.ZeroCoef>
-5.4800

> <Gold.Chemscore.Hbond>
2.4302

> <Gold.Chemscore.Metal>
0.0000

> <Gold.Chemscore.Lipo>
106.6492

> <Gold.Chemscore.Internal_Hbond>
0.0000

> <Gold.Chemscore.DEClash>
0.0553

> <Gold.Chemscore.DEInternal>
1.1366

> <Gold.Chemscore.Rot>
2.2478

> <Gold.Chemscore.Internal.Correction>
   9.000000E+99

> <Gold.Chemscore.Hbonds>
donor molecule, donor type, donor heavy atom, donor atom, acceptor molecule, acceptor atom, score
      P1  H  6896  6908       L1    17  0.85
      P1  H  6931  6943       L1    18  0.43
      P1  H  7997  8010       L1     5  0.89

> <Gold.Chemscore.Hbond.Weighted>
-8.1169

> <Gold.Chemscore.Metal.Weighted>
-0.0000

> <Gold.Chemscore.Lipo.Weighted>
-12.4780

> <Gold.Chemscore.Internal_Hbond.Weighted>
0.0000

> <Gold.Chemscore.DEClash.Weighted>
0.0553

> <Gold.Chemscore.DEInternal.Weighted>
1.1366

> <Gold.Chemscore.Rot.Weighted>
5.7544

> <Gold.Chemscore.Internal.Correction.Weighted>
   9.000000E+99

> <Gold.Protein.RotatedTorsions>
[ 6907 6896 6895 6894 ] final  164.31 input  -60.11 | X-H torsion
[ 7974 7965 7964 7962 ] final -104.13 input  175.53 | X-H torsion
[ 8008 7997 7996 7995 ] final   23.09 input   59.86 | X-H torsion
[ 10167 10162 10161 10158 ] final  136.63 input  -65.29 | X-H torsion
[ 10718 10713 10712 10709 ] final   77.97 input   66.30 | X-H torsion
[ 10763 10752 10751 10750 ] final  -93.27 input  -60.55 | X-H torsion
[ 11005 11000 10999 10996 ] final   42.78 input  -57.11 | X-H torsion

> <Gold.Protein.ActiveResidues>
 VAL166  LYS551  ARG553  GLY616  TRP617  ASP618  TYR619  PRO620  LYS621  CYS622 
 ASP623  PHE694  ASN695  SER759  ASP760  ASP761  ALA762  ILE779  LEU786  VAL792 
 PHE793  MET794  SER795  GLU796  ALA797  LYS798  CYS799  TRP800  GLU811  SER814 

> <Gold.Protein.RotatedAtoms>
  151.9118  133.3563  159.3865 H   0  0  0  0  0  0  0  0  0  0  0  0  # atno 6907 bound_to 6896
  150.7056  134.4724  159.5441 H   0  0  0  0  0  0  0  0  0  0  0  0  # atno 6908 bound_to 6896
  152.2332  134.8302  160.0521 H   0  0  0  0  0  0  0  0  0  0  0  0  # atno 6909 bound_to 6896
  145.2471  140.9225  143.3116 H   0  0  0  0  0  0  0  0  0  0  0  0  # atno 7974 bound_to 7965
  154.9756  140.3095  155.4968 H   0  0  0  0  0  0  0  0  0  0  0  0  # atno 8008 bound_to 7997
  156.2960  140.2276  156.4791 H   0  0  0  0  0  0  0  0  0  0  0  0  # atno 8009 bound_to 7997
  154.7836  140.0444  157.1135 H   0  0  0  0  0  0  0  0  0  0  0  0  # atno 8010 bound_to 7997
  139.5173  144.6454  151.5453 H   0  0  0  0  0  0  0  0  0  0  0  0  # atno 10167 bound_to 10162
  157.6729  130.9846  150.1719 H   0  0  0  0  0  0  0  0  0  0  0  0  # atno 10718 bound_to 10713
  154.6943  135.5200  153.8436 H   0  0  0  0  0  0  0  0  0  0  0  0  # atno 10763 bound_to 10752
  153.0655  135.6583  154.0373 H   0  0  0  0  0  0  0  0  0  0  0  0  # atno 10764 bound_to 10752
  154.0242  135.2991  155.3356 H   0  0  0  0  0  0  0  0  0  0  0  0  # atno 10765 bound_to 10752
  140.1706  134.4226  155.8259 H   0  0  0  0  0  0  0  0  0  0  0  0  # atno 11005 bound_to 11000
  144.9536  139.4055  143.6390 LP  0  0  0  0  0  0  0  0  0  0  0  0  # atno 17320 bound_to 7965
  146.3313  139.8556  142.8865 LP  0  0  0  0  0  0  0  0  0  0  0  0  # atno 17321 bound_to 7965
  140.6237  143.9209  150.6547 LP  0  0  0  0  0  0  0  0  0  0  0  0  # atno 17342 bound_to 10162
  140.2491  143.3606  152.1421 LP  0  0  0  0  0  0  0  0  0  0  0  0  # atno 17343 bound_to 10162
  156.2471  130.3696  149.8273 LP  0  0  0  0  0  0  0  0  0  0  0  0  # atno 17370 bound_to 10713
  156.6056  130.8565  151.3442 LP  0  0  0  0  0  0  0  0  0  0  0  0  # atno 17371 bound_to 10713
  141.2217  133.6954  156.7757 LP  0  0  0  0  0  0  0  0  0  0  0  0  # atno 17394 bound_to 11000
  140.2382  134.8634  157.3546 LP  0  0  0  0  0  0  0  0  0  0  0  0  # atno 17395 bound_to 11000

$$$$
