#       Name:                AV-unprocessed.smi:1071
#       Creating user name   scv26
#       Creation time:       Fri Mar 27 03:20:05 2020


#       File generated by GOLD software.
#

@<TRIPOS>MOLECULE
AV-unprocessed.smi:1071
    54    55     1
SMALL
NO_CHARGES


@<TRIPOS>ATOM
      1 ****        -8.7409   2.6903   0.2441 C.3            1 S1                 0.0000
      2 ****        -7.4066   2.4468   0.6543 O.3            1 S1                 0.0000
      3 ****        -6.7173   1.5775  -0.2286 C.3            1 S1                 0.0000
      4 ****        -5.2939   1.3620   0.2927 C.3            1 S1                 0.0000
      5 ****        -4.6014   0.5049  -0.6101 O.3            1 S1                 0.0000
      6 ****        -3.2891   0.1797  -0.3341 C.ar           1 S1                 0.0000
      7 ****        -2.5982  -0.6543  -1.2352 C.ar           1 S1                 0.0000
      8 ****        -1.2578  -0.9894  -0.9636 C.ar           1 S1                 0.0000
      9 ****        -0.6463  -0.4702   0.2022 C.ar           1 S1                 0.0000
     10 ****         0.6899  -0.7476   0.5981 N.am           1 S1                 0.0000
     11 ****         1.7455  -1.0796  -0.1711 C.2            1 S1                 0.0000
     12 ****         1.6635  -1.3337  -1.3721 O.2            1 S1                 0.0000
     13 ****         2.8870  -1.2264   0.5463 N.am           1 S1                 0.0000
     14 ****         3.3401  -0.1724   1.4682 C.3            1 S1                 0.0000
     15 ****         4.3235   0.7536   0.7214 C.3            1 S1                 0.0000
     16 ****         5.4687  -0.0172   0.2309 N.3            1 S1                 0.0000
     17 ****         6.3736   0.8584  -0.4989 C.3            1 S1                 0.0000
     18 ****         5.0311  -1.1120  -0.6393 C.3            1 S1                 0.0000
     19 ****         4.0561  -2.0285   0.1308 C.3            1 S1                 0.0000
     20 ****         3.7293  -3.3231  -0.6425 C.3            1 S1                 0.0000
     21 ****        -1.4298   0.3419   1.0477 C.ar           1 S1                 0.0000
     22 ****        -2.7141   0.6683   0.7924 N.ar           1 S1                 0.0000
     23 ****        -9.2239   3.3648   0.9511 H              1 S1                 0.0000
     24 ****        -9.3186   1.7656   0.2137 H              1 S1                 0.0000
     25 ****        -8.7728   3.1563  -0.7417 H              1 S1                 0.0000
     26 ****        -7.2379   0.6210  -0.2980 H              1 S1                 0.0000
     27 ****        -6.6857   2.0106  -1.2295 H              1 S1                 0.0000
     28 ****        -4.7818   2.3229   0.3689 H              1 S1                 0.0000
     29 ****        -5.3311   0.9169   1.2884 H              1 S1                 0.0000
     30 ****        -3.0890  -1.0345  -2.1189 H              1 S1                 0.0000
     31 ****        -0.7367  -1.6453  -1.6433 H              1 S1                 0.0000
     32 ****         0.8994  -0.5642   1.5685 H              1 S1                 0.0000
     33 ****         2.5211   0.4252   1.8703 H              1 S1                 0.0000
     34 ****         3.8249  -0.6220   2.3362 H              1 S1                 0.0000
     35 ****         3.8174   1.2459  -0.1109 H              1 S1                 0.0000
     36 ****         4.6749   1.5376   1.3934 H              1 S1                 0.0000
     37 ****         7.2458   0.3036  -0.8463 H              1 S1                 0.0000
     38 ****         6.7274   1.6645   0.1447 H              1 S1                 0.0000
     39 ****         5.8830   1.3027  -1.3662 H              1 S1                 0.0000
     40 ****         4.5546  -0.7173  -1.5384 H              1 S1                 0.0000
     41 ****         5.9029  -1.6833  -0.9607 H              1 S1                 0.0000
     42 ****         4.5549  -2.3614   1.0431 H              1 S1                 0.0000
     43 ****         4.6171  -3.9506  -0.7240 H              1 S1                 0.0000
     44 ****         3.3897  -3.1289  -1.6593 H              1 S1                 0.0000
     45 ****         2.9639  -3.9081  -0.1316 H              1 S1                 0.0000
     46 ****        -1.0123   0.7499   1.9567 H              1 S1                 0.0000
     47 ****        -7.4213   2.0335   1.5648 LP             1 S1                 0.0000
     48 ****        -6.9185   3.3187   0.6919 LP             1 S1                 0.0000
     49 ****        -4.6133   0.9486  -1.5062 LP             1 S1                 0.0000
     50 ****        -5.1145  -0.3522  -0.6557 LP             1 S1                 0.0000
     51 ****         0.7756  -1.2999  -1.8308 LP             1 S1                 0.0000
     52 ****         2.4848  -1.5740  -1.8895 LP             1 S1                 0.0000
     53 ****         5.9433  -0.4112   1.0180 LP             1 S1                 0.0000
     54 ****        -3.2283   1.2552   1.4178 LP             1 S1                 0.0000
@<TRIPOS>BOND
    1    1    2 1     
    2    1   23 1     
    3    1   24 1     
    4    1   25 1     
    5    2    3 1     
    6    3    4 1     
    7    3   26 1     
    8    3   27 1     
    9    4    5 1     
   10    4   28 1     
   11    4   29 1     
   12    5    6 1     
   13    6   22 ar    
   14    6    7 ar    
   15    7    8 ar    
   16    7   30 1     
   17    8    9 ar    
   18    8   31 1     
   19    9   10 1     
   20    9   21 ar    
   21   10   11 am    
   22   10   32 1     
   23   11   12 2     
   24   11   13 am    
   25   13   19 1     
   26   13   14 1     
   27   14   15 1     
   28   14   33 1     
   29   14   34 1     
   30   15   16 1     
   31   15   35 1     
   32   15   36 1     
   33   16   17 1     
   34   16   18 1     
   35   17   37 1     
   36   17   38 1     
   37   17   39 1     
   38   18   19 1     
   39   18   40 1     
   40   18   41 1     
   41   19   20 1     
   42   19   42 1     
   43   20   43 1     
   44   20   44 1     
   45   20   45 1     
   46   21   22 ar    
   47   21   46 1     
   48    2   47 1     
   49    2   48 1     
   50    5   49 1     
   51    5   50 1     
   52   12   51 1     
   53   12   52 1     
   54   16   53 1     
   55   22   54 1     
@<TRIPOS>SUBSTRUCTURE
      1 S1             1
@<TRIPOS>SET
LONE_PAIRS      STATIC     ATOMS    <user>   **** ""
8 47 48 49 50 51 52 53 54
DONOR_HYDROGENS      STATIC     ATOMS    <user>   **** ""
1 32
ATOM$BLUE        STATIC     ATOMS    COLORGROUP SYSTEM
8 47 48 49 50 51 52 53 54
ATOM$RED        STATIC     ATOMS    COLORGROUP SYSTEM
1 32
