AV-unprocessed.smi:1285|AV-procd|sdf|5373|dock6
  -GOLD-   22720 4513D 1   1.00000     0.00000
 Structure written by MMmdl.
 47 48  0  0  0  0  0  0  0  0  2 V2000
  144.2277  133.3775  151.0956 C   0  0  0  0  0  0  0  0  0  0  0  0
  144.8896  134.7459  151.3387 C   0  0  0  0  0  0  0  0  0  0  0  0
  145.8237  134.8422  152.5834 C   0  0  1  0  0  0  0  0  0  0  0  0
  145.0063  134.5108  153.8592 C   0  0  0  0  0  0  0  0  0  0  0  0
  146.9638  133.7820  152.4635 C   0  0  0  0  0  0  0  0  0  0  0  0
  148.0679  133.9894  153.4015 N   0  0  0  0  0  0  0  0  0  0  0  0
  148.5403  133.0812  154.2705 C   0  0  0  0  0  0  0  0  0  0  0  0
  148.0670  131.9504  154.3841 O   0  0  0  0  0  0  0  0  0  0  0  0
  149.7247  133.5273  155.1422 C   0  0  1  0  0  0  0  0  0  0  0  0
  150.0518  135.0255  154.9804 C   0  0  0  0  0  0  0  0  0  0  0  0
  149.4935  133.1634  156.5343 N   0  0  0  0  0  0  0  0  0  0  0  0
  150.2209  132.4021  157.3546 C   0  0  0  0  0  0  0  0  0  0  0  0
  149.6883  132.2447  158.5580 N   0  0  0  0  0  0  0  0  0  0  0  0
  148.5475  132.9796  158.4003 C   0  0  0  0  0  0  0  0  0  0  0  0
  148.3773  133.5435  157.2047 N   0  0  0  0  0  0  0  0  0  0  0  0
  146.4175  136.2248  152.7086 N   0  3  0  0  0  0  0  0  0  0  0  0
  145.7295  137.2959  151.9341 C   0  0  0  0  0  0  0  0  0  0  0  0
  146.5569  138.5908  151.9600 C   0  0  0  0  0  0  0  0  0  0  0  0
  146.7506  139.0017  153.3061 O   0  0  0  0  0  0  0  0  0  0  0  0
  147.4703  138.0325  154.0553 C   0  0  0  0  0  0  0  0  0  0  0  0
  146.6859  136.7096  154.0926 C   0  0  0  0  0  0  0  0  0  0  0  0
  143.6096  133.4105  150.1983 H   0  0  0  0  0  0  0  0  0  0  0  0
  143.5775  133.0858  151.9201 H   0  0  0  0  0  0  0  0  0  0  0  0
  144.9640  132.5882  150.9472 H   0  0  0  0  0  0  0  0  0  0  0  0
  145.4448  134.9974  150.4354 H   0  0  0  0  0  0  0  0  0  0  0  0
  144.0936  135.4862  151.4136 H   0  0  0  0  0  0  0  0  0  0  0  0
  144.7743  133.4477  153.9267 H   0  0  0  0  0  0  0  0  0  0  0  0
  144.0509  135.0354  153.8824 H   0  0  0  0  0  0  0  0  0  0  0  0
  145.5506  134.7734  154.7668 H   0  0  0  0  0  0  0  0  0  0  0  0
  146.5702  132.7706  152.5757 H   0  0  0  0  0  0  0  0  0  0  0  0
  147.3913  133.7983  151.4610 H   0  0  0  0  0  0  0  0  0  0  0  0
  148.5299  134.8864  153.3654 H   0  0  0  0  0  0  0  0  0  0  0  0
  150.6019  132.9705  154.8080 H   0  0  0  0  0  0  0  0  0  0  0  0
  150.2651  135.2715  153.9395 H   0  0  0  0  0  0  0  0  0  0  0  0
  150.9309  135.2961  155.5657 H   0  0  0  0  0  0  0  0  0  0  0  0
  149.2296  135.6627  155.3083 H   0  0  0  0  0  0  0  0  0  0  0  0
  151.1582  131.9502  157.0649 H   0  0  0  0  0  0  0  0  0  0  0  0
  147.8175  133.0964  159.1877 H   0  0  0  0  0  0  0  0  0  0  0  0
  145.5791  137.0058  150.8958 H   0  0  0  0  0  0  0  0  0  0  0  0
  144.7449  137.4960  152.3574 H   0  0  0  0  0  0  0  0  0  0  0  0
  147.5185  138.4504  151.4635 H   0  0  0  0  0  0  0  0  0  0  0  0
  146.0333  139.3818  151.4227 H   0  0  0  0  0  0  0  0  0  0  0  0
  148.4616  137.8842  153.6237 H   0  0  0  0  0  0  0  0  0  0  0  0
  147.6183  138.4089  155.0677 H   0  0  0  0  0  0  0  0  0  0  0  0
  145.7491  136.8549  154.6307 H   0  0  0  0  0  0  0  0  0  0  0  0
  147.2785  135.9977  154.6638 H   0  0  0  0  0  0  0  0  0  0  0  0
  147.3309  136.1383  152.2863 H   0  0  0  0  0  0  0  0  0  0  0  0
  1  2  1  0  0  0  0
  1 22  1  0  0  0  0
  1 23  1  0  0  0  0
  1 24  1  0  0  0  0
  2  3  1  0  0  0  0
  2 25  1  0  0  0  0
  2 26  1  0  0  0  0
  3  4  1  0  0  0  0
  3  5  1  0  0  0  0
  3 16  1  0  0  0  0
  4 27  1  0  0  0  0
  4 28  1  0  0  0  0
  4 29  1  0  0  0  0
  5  6  1  0  0  0  0
  5 30  1  0  0  0  0
  5 31  1  0  0  0  0
  6  7  1  0  0  0  0
  6 32  1  0  0  0  0
  7  8  2  0  0  0  0
  7  9  1  0  0  0  0
  9 10  1  0  0  0  0
  9 11  1  0  0  0  0
  9 33  1  0  0  0  0
 10 34  1  0  0  0  0
 10 35  1  0  0  0  0
 10 36  1  0  0  0  0
 11 15  1  0  0  0  0
 11 12  1  0  0  0  0
 12 13  2  0  0  0  0
 12 37  1  0  0  0  0
 13 14  1  0  0  0  0
 14 15  2  0  0  0  0
 14 38  1  0  0  0  0
 16 21  1  0  0  0  0
 16 17  1  0  0  0  0
 16 47  1  0  0  0  0
 17 18  1  0  0  0  0
 17 39  1  0  0  0  0
 17 40  1  0  0  0  0
 18 19  1  0  0  0  0
 18 41  1  0  0  0  0
 18 42  1  0  0  0  0
 19 20  1  0  0  0  0
 20 21  1  0  0  0  0
 20 43  1  0  0  0  0
 20 44  1  0  0  0  0
 21 45  1  0  0  0  0
 21 46  1  0  0  0  0
M  CHG  1  16   1
M  END
> <s_m_source_file>
AV-unprocessed.smi

> <i_m_source_file_index>
1285

> <i_lp_mmshare_version>
43012

> <i_f3d_flags>
0

> <s_epik_input>
W0NIMl0xW0NIMl1PW0NIMl1bQ0gyXU4xW0NAQF0oW0NIM10pKFtDSDJdW0NIM10pW0NIMl1bTkhdQyg9TylbQ0BIXShbQ0gzXSluMltjSF1uW2NIXW4y

> <s_epik_cmdline>
J2VwaWtfcHl0aG9uJywgJy1waCcsICc3LjAnLCAnLXRuJywgJzgnLCAnLW1hJywgJzIwMCcsICctbWV0YWxfYmluZGluZycsICctaW1hZScsICc8aW5maWxlLm1hZT4nLCAnLW9tYWUnLCAnPG91dGZpbGUubWFlPic=

> <r_lp_tautomer_probability>
1

> <r_epik_Ionization_Penalty>
0.569304

> <r_epik_Ionization_Penalty_Charging>
0.569295

> <r_epik_Ionization_Penalty_Neutral>
8.22697e-06

> <r_epik_State_Penalty>
0.581114

> <r_epik_Charging_Adjusted_Penalty>
1.15041

> <i_epik_Tot_Q>
1

> <i_epik_Tot_abs_Q>
1

> <r_epik_Metal_State_Penalty>
0.581117

> <b_epik_Metal_Only>
0

> <s_lp_Force_Field>
OPLS_2005

> <r_lp_Energy>
40.9155

> <b_lp_Chiralities_Consistent>
1

> <s_lp_Variant>
AV-unprocessed.smi:1285-7

> <Gold.Version>
5.8.1

> <Gold.Id.Protein>
6NUR|6NUR_protein|mol2

> <Gold.PLP.Fitness>
34.5880

> <Gold.PLP.PLP>
-27.5104

> <Gold.PLP.part.hbond>
-3.0000

> <Gold.PLP.part.metal>
0.0000

> <Gold.PLP.part.buried>
0.3112

> <Gold.PLP.part.nonpolar>
-24.4797

> <Gold.PLP.part.repulsive>
0.2962

> <Gold.PLP.ligand.clash>
0.4020

> <Gold.PLP.ligand.torsion>
2.0142

> <Gold.PLP.Chemscore.Hbond>
3.7360

> <Gold.PLP.Chemscore.CHOScore>
0.0000

> <Gold.PLP.Chemscore.Metal>
0.0000

> <Gold.Chemscore.Hbonds>
donor molecule, donor type, donor heavy atom, donor atom, acceptor molecule, acceptor atom, score
      L1  H     6    32       P1  7948  0.67
      L1  H    16    47       P1  7948  2.00
      P1  H  6896  6907       L1    13  0.22

> <Gold.PLP.Chemscore.Internal.Correction>
0.3000

> <Gold.Rescore>
     Score         DG    S(hbond)    S(metal)    S(lipo)     H(rot)  DE(clash)    DE(int)     intcor
      9.09     -11.68       2.13        0.00      52.51       2.76       0.41       2.18       ----

> <Gold.Chemscore.Fitness>
9.0880

> <Gold.Chemscore.DG>
-11.6781

> <Gold.Chemscore.ZeroCoef>
-5.4800

> <Gold.Chemscore.Hbond>
2.1308

> <Gold.Chemscore.Metal>
0.0000

> <Gold.Chemscore.Lipo>
52.5111

> <Gold.Chemscore.Internal_Hbond>
0.0000

> <Gold.Chemscore.DEClash>
0.4057

> <Gold.Chemscore.DEInternal>
2.1843

> <Gold.Chemscore.Rot>
2.7589

> <Gold.Chemscore.Internal.Correction>
   9.000000E+99

> <Gold.Chemscore.Hbonds>
donor molecule, donor type, donor heavy atom, donor atom, acceptor molecule, acceptor atom, score
      L1  H     6    32       P1  7948  0.44
      L1  H    16    47       P1  7948  1.00

> <Gold.Chemscore.Hbond.Weighted>
-7.1170

> <Gold.Chemscore.Metal.Weighted>
-0.0000

> <Gold.Chemscore.Lipo.Weighted>
-6.1438

> <Gold.Chemscore.Internal_Hbond.Weighted>
0.0000

> <Gold.Chemscore.DEClash.Weighted>
0.4057

> <Gold.Chemscore.DEInternal.Weighted>
2.1843

> <Gold.Chemscore.Rot.Weighted>
7.0627

> <Gold.Chemscore.Internal.Correction.Weighted>
   9.000000E+99

> <Gold.Protein.RotatedTorsions>
[ 6907 6896 6895 6894 ] final -159.32 input  -60.11 | X-H torsion
[ 7974 7965 7964 7962 ] final  149.40 input  175.53 | X-H torsion
[ 8008 7997 7996 7995 ] final   25.18 input   59.86 | X-H torsion
[ 10167 10162 10161 10158 ] final  -72.11 input  -65.29 | X-H torsion
[ 10718 10713 10712 10709 ] final -140.94 input   66.30 | X-H torsion
[ 10763 10752 10751 10750 ] final  141.70 input  -60.55 | X-H torsion
[ 11005 11000 10999 10996 ] final -123.03 input  -57.11 | X-H torsion

> <Gold.Protein.ActiveResidues>
 VAL166  LYS551  ARG553  GLY616  TRP617  ASP618  TYR619  PRO620  LYS621  CYS622 
 ASP623  PHE694  ASN695  SER759  ASP760  ASP761  ALA762  ILE779  LEU786  VAL792 
 PHE793  MET794  SER795  GLU796  ALA797  LYS798  CYS799  TRP800  GLU811  SER814 

> <Gold.Protein.RotatedAtoms>
  151.3317  133.3998  159.2662 H   0  0  0  0  0  0  0  0  0  0  0  0  # atno 6907 bound_to 6896
  150.9950  134.9276  159.7931 H   0  0  0  0  0  0  0  0  0  0  0  0  # atno 6908 bound_to 6896
  152.5258  134.3282  159.9225 H   0  0  0  0  0  0  0  0  0  0  0  0  # atno 6909 bound_to 6896
  144.8441  139.6275  143.6003 H   0  0  0  0  0  0  0  0  0  0  0  0  # atno 7974 bound_to 7965
  155.0077  140.3133  155.4842 H   0  0  0  0  0  0  0  0  0  0  0  0  # atno 8008 bound_to 7997
  156.2914  140.2220  156.5131 H   0  0  0  0  0  0  0  0  0  0  0  0  # atno 8009 bound_to 7997
  154.7562  140.0462  157.0923 H   0  0  0  0  0  0  0  0  0  0  0  0  # atno 8010 bound_to 7997
  140.5219  143.2331  151.7415 H   0  0  0  0  0  0  0  0  0  0  0  0  # atno 10167 bound_to 10162
  156.3282  130.7571  151.1684 H   0  0  0  0  0  0  0  0  0  0  0  0  # atno 10718 bound_to 10713
  153.9436  135.2977  155.3441 H   0  0  0  0  0  0  0  0  0  0  0  0  # atno 10763 bound_to 10752
  154.7464  135.5001  153.9214 H   0  0  0  0  0  0  0  0  0  0  0  0  # atno 10764 bound_to 10752
  153.1030  135.6739  153.9745 H   0  0  0  0  0  0  0  0  0  0  0  0  # atno 10765 bound_to 10752
  140.9950  134.0484  157.3608 H   0  0  0  0  0  0  0  0  0  0  0  0  # atno 11005 bound_to 11000
  146.2729  139.6679  142.9283 LP  0  0  0  0  0  0  0  0  0  0  0  0  # atno 17320 bound_to 7965
  145.4633  141.0433  143.2739 LP  0  0  0  0  0  0  0  0  0  0  0  0  # atno 17321 bound_to 7965
  139.4926  144.4242  151.9944 LP  0  0  0  0  0  0  0  0  0  0  0  0  # atno 17342 bound_to 10162
  140.3339  144.3283  150.5981 LP  0  0  0  0  0  0  0  0  0  0  0  0  # atno 17343 bound_to 10162
  157.7425  131.0488  150.5017 LP  0  0  0  0  0  0  0  0  0  0  0  0  # atno 17370 bound_to 10713
  156.5179  130.4155  149.6266 LP  0  0  0  0  0  0  0  0  0  0  0  0  # atno 17371 bound_to 10713
  139.9010  135.0164  156.7270 LP  0  0  0  0  0  0  0  0  0  0  0  0  # atno 17394 bound_to 11000
  140.6979  133.9332  155.8006 LP  0  0  0  0  0  0  0  0  0  0  0  0  # atno 17395 bound_to 11000

$$$$
