AV-unprocessed.smi:3341|AV-procd|sdf|12884|dock7
  -GOLD-   2272019293D 1   1.00000     0.00000
 Structure written by MMmdl.
 46 47  0  0  0  0  0  0  0  0  2 V2000
  151.5417  142.6963  157.7740 C   0  0  0  0  0  0  0  0  0  0  0  0
  151.8344  141.1959  157.8906 C   0  0  0  0  0  0  0  0  0  0  0  0
  151.5233  140.4917  156.6622 N   0  0  0  0  0  0  0  0  0  0  0  0
  150.3532  140.5286  155.9298 C   0  0  0  0  0  0  0  0  0  0  0  0
  150.5599  139.7025  154.8614 C   0  0  0  0  0  0  0  0  0  0  0  0
  149.6854  139.3747  153.7945 N   0  0  0  0  0  0  0  0  0  0  0  0
  148.3904  139.0295  153.8792 C   0  0  0  0  0  0  0  0  0  0  0  0
  147.7468  138.9404  154.9250 O   0  0  0  0  0  0  0  0  0  0  0  0
  147.8684  138.7860  152.6686 N   0  0  0  0  0  0  0  0  0  0  0  0
  146.4832  138.4033  152.4196 C   0  0  0  0  0  0  0  0  0  0  0  0
  146.0406  137.2467  153.3369 C   0  0  0  0  0  0  0  0  0  0  0  0
  146.2891  135.9161  152.7271 N   0  3  2  0  0  0  0  0  0  0  0  0
  145.4920  135.7065  151.4911 C   0  0  0  0  0  0  0  0  0  0  0  0
  145.8840  134.3941  150.7944 C   0  0  0  0  0  0  0  0  0  0  0  0
  145.7428  133.2002  151.7486 C   0  0  0  0  0  0  0  0  0  0  0  0
  146.5175  133.4377  153.0580 C   0  0  1  0  0  0  0  0  0  0  0  0
  148.0405  133.3049  152.8833 C   0  0  0  0  0  0  0  0  0  0  0  0
  146.1183  134.7896  153.6851 C   0  0  0  0  0  0  0  0  0  0  0  0
  151.8780  139.1984  155.0115 C   0  0  0  0  0  0  0  0  0  0  0  0
  152.4544  139.6806  156.1019 N   0  0  0  0  0  0  0  0  0  0  0  0
  151.7738  143.2101  158.7070 H   0  0  0  0  0  0  0  0  0  0  0  0
  150.4901  142.8754  157.5479 H   0  0  0  0  0  0  0  0  0  0  0  0
  152.1381  143.1550  156.9849 H   0  0  0  0  0  0  0  0  0  0  0  0
  152.8848  141.0315  158.1351 H   0  0  0  0  0  0  0  0  0  0  0  0
  151.2484  140.7600  158.7005 H   0  0  0  0  0  0  0  0  0  0  0  0
  149.5066  141.1265  156.2326 H   0  0  0  0  0  0  0  0  0  0  0  0
  150.0889  139.4119  152.8697 H   0  0  0  0  0  0  0  0  0  0  0  0
  148.4686  138.8838  151.8624 H   0  0  0  0  0  0  0  0  0  0  0  0
  145.8295  139.2674  152.5519 H   0  0  0  0  0  0  0  0  0  0  0  0
  146.4114  138.1185  151.3707 H   0  0  0  0  0  0  0  0  0  0  0  0
  146.5345  137.3086  154.3081 H   0  0  0  0  0  0  0  0  0  0  0  0
  144.9719  137.3527  153.5296 H   0  0  0  0  0  0  0  0  0  0  0  0
  144.4290  135.7009  151.7378 H   0  0  0  0  0  0  0  0  0  0  0  0
  145.6532  136.5351  150.8004 H   0  0  0  0  0  0  0  0  0  0  0  0
  145.2586  134.2402  149.9146 H   0  0  0  0  0  0  0  0  0  0  0  0
  146.9096  134.4623  150.4304 H   0  0  0  0  0  0  0  0  0  0  0  0
  144.6868  133.0523  151.9786 H   0  0  0  0  0  0  0  0  0  0  0  0
  146.0800  132.2835  151.2635 H   0  0  0  0  0  0  0  0  0  0  0  0
  146.2205  132.6536  153.7557 H   0  0  0  0  0  0  0  0  0  0  0  0
  148.4442  134.0730  152.2237 H   0  0  0  0  0  0  0  0  0  0  0  0
  148.3034  132.3343  152.4619 H   0  0  0  0  0  0  0  0  0  0  0  0
  148.5524  133.3936  153.8419 H   0  0  0  0  0  0  0  0  0  0  0  0
  146.7103  134.9552  154.5846 H   0  0  0  0  0  0  0  0  0  0  0  0
  145.0759  134.7526  154.0054 H   0  0  0  0  0  0  0  0  0  0  0  0
  152.4250  138.5145  154.3797 H   0  0  0  0  0  0  0  0  0  0  0  0
  147.2569  135.9130  152.4379 H   0  0  0  0  0  0  0  0  0  0  0  0
  1  2  1  0  0  0  0
  1 21  1  0  0  0  0
  1 22  1  0  0  0  0
  1 23  1  0  0  0  0
  2  3  1  0  0  0  0
  2 24  1  0  0  0  0
  2 25  1  0  0  0  0
  3 20  1  0  0  0  0
  3  4  1  0  0  0  0
  4  5  2  0  0  0  0
  4 26  1  0  0  0  0
  5  6  1  0  0  0  0
  5 19  1  0  0  0  0
  6  7  1  0  0  0  0
  6 27  1  0  0  0  0
  7  8  2  0  0  0  0
  7  9  1  0  0  0  0
  9 10  1  0  0  0  0
  9 28  1  0  0  0  0
 10 11  1  0  0  0  0
 10 29  1  0  0  0  0
 10 30  1  0  0  0  0
 11 12  1  0  0  0  0
 11 31  1  0  0  0  0
 11 32  1  0  0  0  0
 12 18  1  0  0  0  0
 12 13  1  0  0  0  0
 12 46  1  0  0  0  0
 13 14  1  0  0  0  0
 13 33  1  0  0  0  0
 13 34  1  0  0  0  0
 14 15  1  0  0  0  0
 14 35  1  0  0  0  0
 14 36  1  0  0  0  0
 15 16  1  0  0  0  0
 15 37  1  0  0  0  0
 15 38  1  0  0  0  0
 16 17  1  0  0  0  0
 16 18  1  0  0  0  0
 16 39  1  0  0  0  0
 17 40  1  0  0  0  0
 17 41  1  0  0  0  0
 17 42  1  0  0  0  0
 18 43  1  0  0  0  0
 18 44  1  0  0  0  0
 19 20  2  0  0  0  0
 19 45  1  0  0  0  0
M  CHG  1  12   1
M  END
> <s_m_source_file>
AV-unprocessed.smi

> <i_m_source_file_index>
3341

> <i_lp_mmshare_version>
43012

> <i_f3d_flags>
0

> <s_epik_input>
W0NIM11bQ0gyXW4xW2NIXWMoW2NIXW4xKVtOSF1DKD1PKVtOSF1bQ0gyXVtDSDJdTjJbQ0gyXVtDSDJdW0NIMl1bQ0BASF0oW0NIM10pW0NIMl0y

> <s_epik_cmdline>
J2VwaWtfcHl0aG9uJywgJy1waCcsICc3LjAnLCAnLXRuJywgJzgnLCAnLW1hJywgJzIwMCcsICctbWV0YWxfYmluZGluZycsICctaW1hZScsICc8aW5maWxlLm1hZT4nLCAnLW9tYWUnLCAnPG91dGZpbGUubWFlPic=

> <r_lp_tautomer_probability>
1

> <r_epik_Ionization_Penalty>
0.00203389

> <r_epik_Ionization_Penalty_Charging>
0.00188267

> <r_epik_Ionization_Penalty_Neutral>
0.000151224

> <r_epik_State_Penalty>
0.0012808

> <r_epik_Charging_Adjusted_Penalty>
0.00316346

> <i_epik_Tot_Q>
1

> <i_epik_Tot_abs_Q>
1

> <r_epik_Metal_State_Penalty>
-0

> <b_epik_Metal_Only>
0

> <s_lp_Force_Field>
OPLS_2005

> <r_lp_Energy>
23.1402

> <b_lp_Chiralities_Consistent>
1

> <s_lp_Variant>
AV-unprocessed.smi:3341-2

> <Gold.Version>
5.8.1

> <Gold.Id.Protein>
6NUR|6NUR_protein|mol2

> <Gold.PLP.Fitness>
49.5658

> <Gold.PLP.PLP>
-37.1830

> <Gold.PLP.part.hbond>
-5.0000

> <Gold.PLP.part.metal>
0.0000

> <Gold.PLP.part.buried>
-2.5875

> <Gold.PLP.part.nonpolar>
-28.4835

> <Gold.PLP.part.repulsive>
0.2608

> <Gold.PLP.ligand.clash>
0.0000

> <Gold.PLP.ligand.torsion>
0.7450

> <Gold.PLP.Chemscore.Hbond>
4.6160

> <Gold.PLP.Chemscore.CHOScore>
0.0000

> <Gold.PLP.Chemscore.Metal>
0.0000

> <Gold.Chemscore.Hbonds>
donor molecule, donor type, donor heavy atom, donor atom, acceptor molecule, acceptor atom, score
      L1  H     6    27       P1  7957  0.78
      L1  H     9    28       P1  7957  0.83
      L1  H    12    46       P1  7948  2.00
      P1  H  7997  8010       L1    20  1.00

> <Gold.PLP.Chemscore.Internal.Correction>
0.0248

> <Gold.Rescore>
     Score         DG    S(hbond)    S(metal)    S(lipo)     H(rot)  DE(clash)    DE(int)     intcor
     21.03     -23.01       3.79        0.00      76.40       1.59       0.08       1.90       ----

> <Gold.Chemscore.Fitness>
21.0283

> <Gold.Chemscore.DG>
-23.0069

> <Gold.Chemscore.ZeroCoef>
-5.4800

> <Gold.Chemscore.Hbond>
3.7906

> <Gold.Chemscore.Metal>
0.0000

> <Gold.Chemscore.Lipo>
76.4016

> <Gold.Chemscore.Internal_Hbond>
0.0000

> <Gold.Chemscore.DEClash>
0.0793

> <Gold.Chemscore.DEInternal>
1.8993

> <Gold.Chemscore.Rot>
1.5909

> <Gold.Chemscore.Internal.Correction>
   9.000000E+99

> <Gold.Chemscore.Hbonds>
donor molecule, donor type, donor heavy atom, donor atom, acceptor molecule, acceptor atom, score
      L1  H     6    27       P1  7957  0.74
      L1  H     9    28       P1  7957  0.69
      L1  H    12    46       P1  7948  1.00
      P1  H  7997  8010       L1    20  0.96

> <Gold.Chemscore.Hbond.Weighted>
-12.6606

> <Gold.Chemscore.Metal.Weighted>
-0.0000

> <Gold.Chemscore.Lipo.Weighted>
-8.9390

> <Gold.Chemscore.Internal_Hbond.Weighted>
0.0000

> <Gold.Chemscore.DEClash.Weighted>
0.0793

> <Gold.Chemscore.DEInternal.Weighted>
1.8993

> <Gold.Chemscore.Rot.Weighted>
4.0728

> <Gold.Chemscore.Internal.Correction.Weighted>
   9.000000E+99

> <Gold.Protein.RotatedTorsions>
[ 6907 6896 6895 6894 ] final   41.58 input  -60.11 | X-H torsion
[ 7974 7965 7964 7962 ] final  135.08 input  175.53 | X-H torsion
[ 8008 7997 7996 7995 ] final   84.39 input   59.86 | X-H torsion
[ 10167 10162 10161 10158 ] final   22.49 input  -65.29 | X-H torsion
[ 10718 10713 10712 10709 ] final -172.36 input   66.30 | X-H torsion
[ 10763 10752 10751 10750 ] final   -3.35 input  -60.55 | X-H torsion
[ 11005 11000 10999 10996 ] final   -1.55 input  -57.11 | X-H torsion

> <Gold.Protein.ActiveResidues>
 VAL166  LYS551  ARG553  GLY616  TRP617  ASP618  TYR619  PRO620  LYS621  CYS622 
 ASP623  PHE694  ASN695  SER759  ASP760  ASP761  ALA762  ILE779  LEU786  VAL792 
 PHE793  MET794  SER795  GLU796  ALA797  LYS798  CYS799  TRP800  GLU811  SER814 

> <Gold.Protein.RotatedAtoms>
  152.1971  134.8621  160.0511 H   0  0  0  0  0  0  0  0  0  0  0  0  # atno 6907 bound_to 6896
  151.9488  133.3655  159.4000 H   0  0  0  0  0  0  0  0  0  0  0  0  # atno 6908 bound_to 6896
  150.6947  134.4286  159.5282 H   0  0  0  0  0  0  0  0  0  0  0  0  # atno 6909 bound_to 6896
  144.9699  139.4617  143.5438 H   0  0  0  0  0  0  0  0  0  0  0  0  # atno 7974 bound_to 7965
  155.9364  140.3411  155.6291 H   0  0  0  0  0  0  0  0  0  0  0  0  # atno 8008 bound_to 7997
  155.7094  140.0770  157.2396 H   0  0  0  0  0  0  0  0  0  0  0  0  # atno 8009 bound_to 7997
  154.4094  140.1625  156.2266 H   0  0  0  0  0  0  0  0  0  0  0  0  # atno 8010 bound_to 7997
  140.5344  143.9785  150.6483 H   0  0  0  0  0  0  0  0  0  0  0  0  # atno 10167 bound_to 10162
  156.7545  130.9390  151.3116 H   0  0  0  0  0  0  0  0  0  0  0  0  # atno 10718 bound_to 10713
  153.3702  135.6994  153.6644 H   0  0  0  0  0  0  0  0  0  0  0  0  # atno 10763 bound_to 10752
  153.5297  135.3595  155.2671 H   0  0  0  0  0  0  0  0  0  0  0  0  # atno 10764 bound_to 10752
  154.8680  135.4178  154.2978 H   0  0  0  0  0  0  0  0  0  0  0  0  # atno 10765 bound_to 10752
  140.6486  133.9425  155.8367 H   0  0  0  0  0  0  0  0  0  0  0  0  # atno 11005 bound_to 11000
  146.3379  139.8905  142.8810 LP  0  0  0  0  0  0  0  0  0  0  0  0  # atno 17320 bound_to 7965
  145.2574  141.0065  143.3846 LP  0  0  0  0  0  0  0  0  0  0  0  0  # atno 17321 bound_to 7965
  140.3169  143.3162  152.0823 LP  0  0  0  0  0  0  0  0  0  0  0  0  # atno 17342 bound_to 10162
  139.4966  144.6599  151.6487 LP  0  0  0  0  0  0  0  0  0  0  0  0  # atno 17343 bound_to 10162
  157.6762  130.9097  150.0157 LP  0  0  0  0  0  0  0  0  0  0  0  0  # atno 17370 bound_to 10713
  156.1380  130.3642  149.9627 LP  0  0  0  0  0  0  0  0  0  0  0  0  # atno 17371 bound_to 10713
  141.0554  134.0425  157.3730 LP  0  0  0  0  0  0  0  0  0  0  0  0  # atno 17394 bound_to 11000
  139.9054  135.0178  156.7461 LP  0  0  0  0  0  0  0  0  0  0  0  0  # atno 17395 bound_to 11000

$$$$
