AV-unprocessed.smi:3314|AV-procd|sdf|12733|dock5
  -GOLD-   2272019 73D 1   1.00000     0.00000
 Structure written by MMmdl.
 38 39  0  0  0  0  0  0  0  0  2 V2000
  151.9246  145.7965  159.7623 C   0  0  0  0  0  0  0  0  0  0  0  0
  151.9845  144.3658  159.2691 C   0  0  0  0  0  0  0  0  0  0  0  0
  152.7829  143.4078  159.9226 C   0  0  0  0  0  0  0  0  0  0  0  0
  152.7931  142.0935  159.4159 C   0  0  0  0  0  0  0  0  0  0  0  0
  153.6300  141.0134  160.0685 C   0  0  0  0  0  0  0  0  0  0  0  0
  152.0742  141.7139  158.3376 N   0  0  0  0  0  0  0  0  0  0  0  0
  151.3000  142.6280  157.7021 C   0  0  0  0  0  0  0  0  0  0  0  0
  150.5076  142.3307  156.5622 N   0  0  0  0  0  0  0  0  0  0  0  0
  150.3712  141.1525  155.9255 C   0  0  0  0  0  0  0  0  0  0  0  0
  150.9294  140.1074  156.2629 O   0  0  0  0  0  0  0  0  0  0  0  0
  149.4374  141.1735  154.7000 C   0  0  2  0  0  0  0  0  0  0  0  0
  148.0165  141.7219  154.9755 C   0  0  0  0  0  0  0  0  0  0  0  0
  147.2127  140.7656  155.7740 N   0  3  1  0  0  0  0  0  0  0  0  0
  145.8640  141.2796  156.0923 C   0  0  0  0  0  0  0  0  0  0  0  0
  147.1805  139.4352  155.1264 C   0  0  0  0  0  0  0  0  0  0  0  0
  148.6099  138.9212  154.8913 C   0  0  0  0  0  0  0  0  0  0  0  0
  149.3418  139.8708  154.1161 O   0  0  0  0  0  0  0  0  0  0  0  0
  151.2358  143.9685  158.1430 C   0  0  0  0  0  0  0  0  0  0  0  0
  152.5757  145.9470  160.6239 H   0  0  0  0  0  0  0  0  0  0  0  0
  150.9062  146.0519  160.0554 H   0  0  0  0  0  0  0  0  0  0  0  0
  152.2380  146.4819  158.9745 H   0  0  0  0  0  0  0  0  0  0  0  0
  153.3716  143.6728  160.7890 H   0  0  0  0  0  0  0  0  0  0  0  0
  154.1220  141.3835  160.9685 H   0  0  0  0  0  0  0  0  0  0  0  0
  154.3986  140.6623  159.3795 H   0  0  0  0  0  0  0  0  0  0  0  0
  153.0048  140.1651  160.3483 H   0  0  0  0  0  0  0  0  0  0  0  0
  149.9770  143.1046  156.1896 H   0  0  0  0  0  0  0  0  0  0  0  0
  149.9085  141.8220  153.9602 H   0  0  0  0  0  0  0  0  0  0  0  0
  148.0733  142.6801  155.4943 H   0  0  0  0  0  0  0  0  0  0  0  0
  147.5097  141.9122  154.0281 H   0  0  0  0  0  0  0  0  0  0  0  0
  145.2742  141.4220  155.1857 H   0  0  0  0  0  0  0  0  0  0  0  0
  145.9304  142.2362  156.6118 H   0  0  0  0  0  0  0  0  0  0  0  0
  145.3318  140.5840  156.7418 H   0  0  0  0  0  0  0  0  0  0  0  0
  146.6324  138.7315  155.7538 H   0  0  0  0  0  0  0  0  0  0  0  0
  146.6461  139.5022  154.1774 H   0  0  0  0  0  0  0  0  0  0  0  0
  149.1106  138.7168  155.8385 H   0  0  0  0  0  0  0  0  0  0  0  0
  148.5806  137.9768  154.3477 H   0  0  0  0  0  0  0  0  0  0  0  0
  150.6162  144.6880  157.6271 H   0  0  0  0  0  0  0  0  0  0  0  0
  147.6947  140.6498  156.6549 H   0  0  0  0  0  0  0  0  0  0  0  0
  1  2  1  0  0  0  0
  1 19  1  0  0  0  0
  1 20  1  0  0  0  0
  1 21  1  0  0  0  0
  2 18  1  0  0  0  0
  2  3  2  0  0  0  0
  3  4  1  0  0  0  0
  3 22  1  0  0  0  0
  4  5  1  0  0  0  0
  4  6  2  0  0  0  0
  5 23  1  0  0  0  0
  5 24  1  0  0  0  0
  5 25  1  0  0  0  0
  6  7  1  0  0  0  0
  7  8  1  0  0  0  0
  7 18  2  0  0  0  0
  8  9  1  0  0  0  0
  8 26  1  0  0  0  0
  9 10  2  0  0  0  0
  9 11  1  0  0  0  0
 11 17  1  0  0  0  0
 11 12  1  0  0  0  0
 11 27  1  0  0  0  0
 12 13  1  0  0  0  0
 12 28  1  0  0  0  0
 12 29  1  0  0  0  0
 13 14  1  0  0  0  0
 13 15  1  0  0  0  0
 13 38  1  0  0  0  0
 14 30  1  0  0  0  0
 14 31  1  0  0  0  0
 14 32  1  0  0  0  0
 15 16  1  0  0  0  0
 15 33  1  0  0  0  0
 15 34  1  0  0  0  0
 16 17  1  0  0  0  0
 16 35  1  0  0  0  0
 16 36  1  0  0  0  0
 18 37  1  0  0  0  0
M  CHG  1  13   1
M  END
> <s_m_source_file>
AV-unprocessed.smi

> <i_m_source_file_index>
3314

> <i_lp_mmshare_version>
43012

> <i_f3d_flags>
0

> <s_epik_input>
W0NIM11jMVtjSF1jKFtDSDNdKW5jKFtjSF0xKVtOSF1DKD1PKVtDQEBIXTJbQ0gyXU4oW0NIM10pW0NIMl1bQ0gyXU8y

> <s_epik_cmdline>
J2VwaWtfcHl0aG9uJywgJy1waCcsICc3LjAnLCAnLXRuJywgJzgnLCAnLW1hJywgJzIwMCcsICctbWV0YWxfYmluZGluZycsICctaW1hZScsICc8aW5maWxlLm1hZT4nLCAnLW9tYWUnLCAnPG91dGZpbGUubWFlPic=

> <r_epik_Ionization_Penalty>
0.32442

> <r_epik_Ionization_Penalty_Charging>
0.314023

> <r_epik_Ionization_Penalty_Neutral>
0.0103972

> <r_epik_State_Penalty>
0.29453

> <r_epik_Charging_Adjusted_Penalty>
0.608553

> <i_epik_Tot_Q>
1

> <i_epik_Tot_abs_Q>
1

> <r_epik_Metal_State_Penalty>
0.286909

> <b_epik_Metal_Only>
0

> <s_lp_Force_Field>
OPLS_2005

> <r_lp_Energy>
14.9445

> <b_lp_Chiralities_Consistent>
1

> <s_lp_Variant>
AV-unprocessed.smi:3314-3

> <Gold.Version>
5.8.1

> <Gold.Id.Protein>
6NUR|6NUR_protein|mol2

> <Gold.PLP.Fitness>
39.3862

> <Gold.PLP.PLP>
-36.4302

> <Gold.PLP.part.hbond>
-1.0000

> <Gold.PLP.part.metal>
0.0000

> <Gold.PLP.part.buried>
-4.1475

> <Gold.PLP.part.nonpolar>
-32.4670

> <Gold.PLP.part.repulsive>
1.2471

> <Gold.PLP.ligand.clash>
0.0000

> <Gold.PLP.ligand.torsion>
0.0327

> <Gold.PLP.Chemscore.Hbond>
1.0000

> <Gold.PLP.Chemscore.CHOScore>
0.0000

> <Gold.PLP.Chemscore.Metal>
0.0000

> <Gold.Chemscore.Hbonds>
donor molecule, donor type, donor heavy atom, donor atom, acceptor molecule, acceptor atom, score
      L1  H     8    26       P1  8028  1.00

> <Gold.PLP.Chemscore.Internal.Correction>
0.0214

> <Gold.Rescore>
     Score         DG    S(hbond)    S(metal)    S(lipo)     H(rot)  DE(clash)    DE(int)     intcor
     13.99     -16.90       1.00        0.00      91.11       1.00       0.39       2.53       ----

> <Gold.Chemscore.Fitness>
13.9866

> <Gold.Chemscore.DG>
-16.9047

> <Gold.Chemscore.ZeroCoef>
-5.4800

> <Gold.Chemscore.Hbond>
0.9953

> <Gold.Chemscore.Metal>
0.0000

> <Gold.Chemscore.Lipo>
91.1135

> <Gold.Chemscore.Internal_Hbond>
0.0000

> <Gold.Chemscore.DEClash>
0.3893

> <Gold.Chemscore.DEInternal>
2.5288

> <Gold.Chemscore.Rot>
1.0000

> <Gold.Chemscore.Internal.Correction>
   9.000000E+99

> <Gold.Chemscore.Hbonds>
donor molecule, donor type, donor heavy atom, donor atom, acceptor molecule, acceptor atom, score
      L1  H     8    26       P1  8028  0.94

> <Gold.Chemscore.Hbond.Weighted>
-3.3244

> <Gold.Chemscore.Metal.Weighted>
-0.0000

> <Gold.Chemscore.Lipo.Weighted>
-10.6603

> <Gold.Chemscore.Internal_Hbond.Weighted>
0.0000

> <Gold.Chemscore.DEClash.Weighted>
0.3893

> <Gold.Chemscore.DEInternal.Weighted>
2.5288

> <Gold.Chemscore.Rot.Weighted>
2.5600

> <Gold.Chemscore.Internal.Correction.Weighted>
   9.000000E+99

> <Gold.Protein.RotatedTorsions>
[ 6907 6896 6895 6894 ] final -135.89 input  -60.11 | X-H torsion
[ 7974 7965 7964 7962 ] final  101.75 input  175.53 | X-H torsion
[ 8008 7997 7996 7995 ] final  136.49 input   59.86 | X-H torsion
[ 10167 10162 10161 10158 ] final  -97.07 input  -65.29 | X-H torsion
[ 10718 10713 10712 10709 ] final   13.17 input   66.30 | X-H torsion
[ 10763 10752 10751 10750 ] final   63.49 input  -60.55 | X-H torsion
[ 11005 11000 10999 10996 ] final   37.49 input  -57.11 | X-H torsion

> <Gold.Protein.ActiveResidues>
 VAL166  LYS551  ARG553  GLY616  TRP617  ASP618  TYR619  PRO620  LYS621  CYS622 
 ASP623  PHE694  ASN695  SER759  ASP760  ASP761  ALA762  ILE779  LEU786  VAL792 
 PHE793  MET794  SER795  GLU796  ALA797  LYS798  CYS799  TRP800  GLU811  SER814 

> <Gold.Protein.RotatedAtoms>
  151.0034  133.6034  159.2691 H   0  0  0  0  0  0  0  0  0  0  0  0  # atno 6907 bound_to 6896
  151.3212  135.0818  159.9316 H   0  0  0  0  0  0  0  0  0  0  0  0  # atno 6908 bound_to 6896
  152.5280  133.9681  159.7803 H   0  0  0  0  0  0  0  0  0  0  0  0  # atno 6909 bound_to 6896
  145.3682  139.2403  143.3469 H   0  0  0  0  0  0  0  0  0  0  0  0  # atno 7974 bound_to 7965
  156.3004  140.2444  156.3754 H   0  0  0  0  0  0  0  0  0  0  0  0  # atno 8008 bound_to 7997
  154.8750  140.0414  157.1767 H   0  0  0  0  0  0  0  0  0  0  0  0  # atno 8009 bound_to 7997
  154.8755  140.2941  155.5460 H   0  0  0  0  0  0  0  0  0  0  0  0  # atno 8010 bound_to 7997
  140.2872  143.3244  152.0382 H   0  0  0  0  0  0  0  0  0  0  0  0  # atno 10167 bound_to 10162
  157.0208  130.6154  149.5721 H   0  0  0  0  0  0  0  0  0  0  0  0  # atno 10718 bound_to 10713
  153.0020  135.5427  154.6361 H   0  0  0  0  0  0  0  0  0  0  0  0  # atno 10763 bound_to 10752
  154.5627  135.2835  155.0906 H   0  0  0  0  0  0  0  0  0  0  0  0  # atno 10764 bound_to 10752
  154.2102  135.6468  153.5165 H   0  0  0  0  0  0  0  0  0  0  0  0  # atno 10765 bound_to 10752
  140.2220  134.3629  155.8000 H   0  0  0  0  0  0  0  0  0  0  0  0  # atno 11005 bound_to 11000
  146.2897  140.4328  142.8744 LP  0  0  0  0  0  0  0  0  0  0  0  0  # atno 17320 bound_to 7965
  144.8596  140.7120  143.6116 LP  0  0  0  0  0  0  0  0  0  0  0  0  # atno 17321 bound_to 7965
  139.4947  144.6550  151.6591 LP  0  0  0  0  0  0  0  0  0  0  0  0  # atno 17342 bound_to 10162
  140.5763  144.0023  150.6243 LP  0  0  0  0  0  0  0  0  0  0  0  0  # atno 17343 bound_to 10162
  156.0103  130.5194  150.7966 LP  0  0  0  0  0  0  0  0  0  0  0  0  # atno 17370 bound_to 10713
  157.5251  131.0933  151.0028 LP  0  0  0  0  0  0  0  0  0  0  0  0  # atno 17371 bound_to 10713
  141.2222  133.7199  156.8592 LP  0  0  0  0  0  0  0  0  0  0  0  0  # atno 17394 bound_to 11000
  140.1839  134.9013  157.2981 LP  0  0  0  0  0  0  0  0  0  0  0  0  # atno 17395 bound_to 11000

$$$$
