#       Name:                AV-unprocessed.smi:1239
#       Creating user name   scv26
#       Creation time:       Fri Mar 27 04:27:14 2020


#       File generated by GOLD software.
#

@<TRIPOS>MOLECULE
AV-unprocessed.smi:1239
    53    54     1
SMALL
NO_CHARGES


@<TRIPOS>ATOM
      1 ****        -1.7988   1.3029   2.7149 C.3            1 S1                 0.0000
      2 ****        -2.5260   0.5502   1.5714 C.3            1 S1                 0.0000
      3 ****        -2.0368  -0.9279   1.5501 C.3            1 S1                 0.0000
      4 ****        -0.5859  -1.0614   1.4467 N.am           1 S1                 0.0000
      5 ****         0.1294  -0.8542   0.3321 C.2            1 S1                 0.0000
      6 ****        -0.3724  -0.5402  -0.7470 O.2            1 S1                 0.0000
      7 ****         1.4402  -1.0490   0.5553 N.am           1 S1                 0.0000
      8 ****         2.5260  -0.9114  -0.3512 C.ar           1 S1                 0.0000
      9 ****         2.4813  -0.1578  -1.5465 C.ar           1 S1                 0.0000
     10 ****         3.6338  -0.0848  -2.3524 C.ar           1 S1                 0.0000
     11 ****         4.8110  -0.7606  -1.9458 C.ar           1 S1                 0.0000
     12 ****         5.9918  -0.7188  -2.7220 N.pl3          1 S1                 0.0000
     13 ****         7.1719  -1.4589  -2.2871 C.3            1 S1                 0.0000
     14 ****         6.0031  -0.0238  -4.0032 C.3            1 S1                 0.0000
     15 ****         4.8500  -1.4700  -0.7912 N.ar           1 S1                 0.0000
     16 ****         3.7440  -1.5368  -0.0220 C.ar           1 S1                 0.0000
     17 ****        -4.0001   0.6791   1.6497 N.3            1 S1                 0.0000
     18 ****        -4.6904  -0.0151   0.5561 C.3            1 S1                 0.0000
     19 ****        -6.2195   0.1467   0.6156 C.3            1 S1                 0.0000
     20 ****        -6.5579   1.5266   0.6092 O.3            1 S1                 0.0000
     21 ****        -5.9722   2.2235   1.6998 C.3            1 S1                 0.0000
     22 ****        -4.4417   2.0788   1.6446 C.3            1 S1                 0.0000
     23 ****        -0.7184   1.1680   2.6815 H              1 S1                 0.0000
     24 ****        -2.1416   0.9608   3.6919 H              1 S1                 0.0000
     25 ****        -1.9492   2.3801   2.6628 H              1 S1                 0.0000
     26 ****        -2.2028   1.0084   0.6354 H              1 S1                 0.0000
     27 ****        -2.3596  -1.4385   2.4578 H              1 S1                 0.0000
     28 ****        -2.4598  -1.4861   0.7161 H              1 S1                 0.0000
     29 ****        -0.0927  -1.3232   2.2877 H              1 S1                 0.0000
     30 ****         1.6875  -1.3813   1.4759 H              1 S1                 0.0000
     31 ****         1.5969   0.3765  -1.8565 H              1 S1                 0.0000
     32 ****         3.5912   0.4925  -3.2635 H              1 S1                 0.0000
     33 ****         6.9534  -2.5257  -2.2290 H              1 S1                 0.0000
     34 ****         7.4990  -1.1171  -1.3045 H              1 S1                 0.0000
     35 ****         8.0034  -1.3253  -2.9793 H              1 S1                 0.0000
     36 ****         5.7988   1.0381  -3.8642 H              1 S1                 0.0000
     37 ****         5.2505  -0.4409  -4.6730 H              1 S1                 0.0000
     38 ****         6.9715  -0.1136  -4.4955 H              1 S1                 0.0000
     39 ****         3.8361  -2.1142   0.8865 H              1 S1                 0.0000
     40 ****        -4.3242   0.3506  -0.4044 H              1 S1                 0.0000
     41 ****        -4.4875  -1.0834   0.5880 H              1 S1                 0.0000
     42 ****        -6.6842  -0.3367  -0.2438 H              1 S1                 0.0000
     43 ****        -6.6244  -0.3317   1.5089 H              1 S1                 0.0000
     44 ****        -6.2550   3.2746   1.6421 H              1 S1                 0.0000
     45 ****        -6.3632   1.8378   2.6426 H              1 S1                 0.0000
     46 ****        -4.0408   2.6126   2.5044 H              1 S1                 0.0000
     47 ****        -4.0635   2.5823   0.7535 H              1 S1                 0.0000
     48 ****        -1.3631  -0.4272  -0.8237 LP             1 S1                 0.0000
     49 ****         0.2105  -0.3981  -1.5470 LP             1 S1                 0.0000
     50 ****         5.6887  -1.9382  -0.5131 LP             1 S1                 0.0000
     51 ****        -4.2431   0.2513   2.5204 LP             1 S1                 0.0000
     52 ****        -7.5524   1.6153   0.6661 LP             1 S1                 0.0000
     53 ****        -6.2352   1.9341  -0.2450 LP             1 S1                 0.0000
@<TRIPOS>BOND
    1    1    2 1     
    2    1   23 1     
    3    1   24 1     
    4    1   25 1     
    5    2    3 1     
    6    2   17 1     
    7    2   26 1     
    8    3    4 1     
    9    3   27 1     
   10    3   28 1     
   11    4    5 am    
   12    4   29 1     
   13    5    6 2     
   14    5    7 am    
   15    7    8 1     
   16    7   30 1     
   17    8   16 ar    
   18    8    9 ar    
   19    9   10 ar    
   20    9   31 1     
   21   10   11 ar    
   22   10   32 1     
   23   11   12 1     
   24   11   15 ar    
   25   12   13 1     
   26   12   14 1     
   27   13   33 1     
   28   13   34 1     
   29   13   35 1     
   30   14   36 1     
   31   14   37 1     
   32   14   38 1     
   33   15   16 ar    
   34   16   39 1     
   35   17   22 1     
   36   17   18 1     
   37   18   19 1     
   38   18   40 1     
   39   18   41 1     
   40   19   20 1     
   41   19   42 1     
   42   19   43 1     
   43   20   21 1     
   44   21   22 1     
   45   21   44 1     
   46   21   45 1     
   47   22   46 1     
   48   22   47 1     
   49    6   48 1     
   50    6   49 1     
   51   15   50 1     
   52   17   51 1     
   53   20   52 1     
   54   20   53 1     
@<TRIPOS>SUBSTRUCTURE
      1 S1             1
@<TRIPOS>SET
LONE_PAIRS      STATIC     ATOMS    <user>   **** ""
6 48 49 50 51 52 53
DONOR_HYDROGENS      STATIC     ATOMS    <user>   **** ""
2 29 30
ATOM$BLUE        STATIC     ATOMS    COLORGROUP SYSTEM
6 48 49 50 51 52 53
ATOM$RED        STATIC     ATOMS    COLORGROUP SYSTEM
2 29 30
