AV-unprocessed.smi:1216|AV-procd|sdf|5101|dock5
  -GOLD-   22720 4153D 1   1.00000     0.00000
 Structure written by MMmdl.
 42 43  0  0  0  0  0  0  0  0  1 V2000
  146.8139  142.5856  158.4731 C   0  0  0  0  0  0  0  0  0  0  0  0
  147.5533  141.8154  157.3709 C   0  0  1  0  0  0  0  0  0  0  0  0
  146.7402  141.7927  156.0592 C   0  0  0  0  0  0  0  0  0  0  0  0
  147.3249  140.9278  155.0506 N   0  0  0  0  0  0  0  0  0  0  0  0
  148.5023  140.1980  155.1521 C   0  0  0  0  0  0  0  0  0  0  0  0
  148.6522  139.5264  153.9601 C   0  0  0  0  0  0  0  0  0  0  0  0
  147.5896  139.8315  153.1130 N   0  0  0  0  0  0  0  0  0  0  0  0
  146.8465  140.6679  153.8261 C   0  0  0  0  0  0  0  0  0  0  0  0
  148.8641  142.4289  157.1602 N   0  0  0  0  0  0  0  0  0  0  0  0
  150.0483  141.8687  157.4531 C   0  0  0  0  0  0  0  0  0  0  0  0
  150.1618  140.7442  157.9434 O   0  0  0  0  0  0  0  0  0  0  0  0
  151.2865  142.7084  157.1111 C   0  0  0  0  0  0  0  0  0  0  0  0
  152.0467  143.1318  158.2968 N   0  0  0  0  0  0  0  0  0  0  0  0
  152.2609  144.5785  158.4606 C   0  0  0  0  0  0  0  0  0  0  0  0
  151.4882  145.1939  159.6499 C   0  0  0  0  0  0  0  0  0  0  0  0
  151.2371  144.2633  160.8527 C   0  0  0  0  0  0  0  0  0  0  0  0
  152.4927  143.5570  161.4051 C   0  0  0  0  0  0  0  0  0  0  0  0
  153.3359  142.7505  160.3885 C   0  0  0  0  0  0  0  0  0  0  0  0
  152.5472  142.2280  159.1764 C   0  0  0  0  0  0  0  0  0  0  0  0
  152.4004  141.0124  159.0458 O   0  0  0  0  0  0  0  0  0  0  0  0
  145.8500  142.1261  158.6931 H   0  0  0  0  0  0  0  0  0  0  0  0
  146.6305  143.6204  158.1819 H   0  0  0  0  0  0  0  0  0  0  0  0
  147.3905  142.5966  159.3987 H   0  0  0  0  0  0  0  0  0  0  0  0
  147.6761  140.7902  157.7252 H   0  0  0  0  0  0  0  0  0  0  0  0
  145.7263  141.4401  156.2525 H   0  0  0  0  0  0  0  0  0  0  0  0
  146.6468  142.7988  155.6480 H   0  0  0  0  0  0  0  0  0  0  0  0
  149.1154  140.2122  156.0409 H   0  0  0  0  0  0  0  0  0  0  0  0
  149.4376  138.8538  153.6485 H   0  0  0  0  0  0  0  0  0  0  0  0
  145.9289  141.0974  153.4512 H   0  0  0  0  0  0  0  0  0  0  0  0
  148.8706  143.3537  156.7551 H   0  0  0  0  0  0  0  0  0  0  0  0
  151.9262  142.1237  156.4488 H   0  0  0  0  0  0  0  0  0  0  0  0
  150.9825  143.5770  156.5238 H   0  0  0  0  0  0  0  0  0  0  0  0
  153.3278  144.7728  158.5717 H   0  0  0  0  0  0  0  0  0  0  0  0
  151.9922  145.1115  157.5475 H   0  0  0  0  0  0  0  0  0  0  0  0
  152.0122  146.0900  159.9836 H   0  0  0  0  0  0  0  0  0  0  0  0
  150.5180  145.5385  159.2908 H   0  0  0  0  0  0  0  0  0  0  0  0
  150.7779  144.8422  161.6545 H   0  0  0  0  0  0  0  0  0  0  0  0
  150.4895  143.5165  160.5817 H   0  0  0  0  0  0  0  0  0  0  0  0
  153.1370  144.2998  161.8767 H   0  0  0  0  0  0  0  0  0  0  0  0
  152.1815  142.8891  162.2091 H   0  0  0  0  0  0  0  0  0  0  0  0
  154.1710  143.3535  160.0323 H   0  0  0  0  0  0  0  0  0  0  0  0
  153.8019  141.9079  160.9010 H   0  0  0  0  0  0  0  0  0  0  0  0
  1  2  1  0  0  0  0
  1 21  1  0  0  0  0
  1 22  1  0  0  0  0
  1 23  1  0  0  0  0
  2  3  1  0  0  0  0
  2  9  1  0  0  0  0
  2 24  1  0  0  0  0
  3  4  1  0  0  0  0
  3 25  1  0  0  0  0
  3 26  1  0  0  0  0
  4  8  1  0  0  0  0
  4  5  1  0  0  0  0
  5  6  2  0  0  0  0
  5 27  1  0  0  0  0
  6  7  1  0  0  0  0
  6 28  1  0  0  0  0
  7  8  2  0  0  0  0
  8 29  1  0  0  0  0
  9 10  1  0  0  0  0
  9 30  1  0  0  0  0
 10 11  2  0  0  0  0
 10 12  1  0  0  0  0
 12 13  1  0  0  0  0
 12 31  1  0  0  0  0
 12 32  1  0  0  0  0
 13 19  1  0  0  0  0
 13 14  1  0  0  0  0
 14 15  1  0  0  0  0
 14 33  1  0  0  0  0
 14 34  1  0  0  0  0
 15 16  1  0  0  0  0
 15 35  1  0  0  0  0
 15 36  1  0  0  0  0
 16 17  1  0  0  0  0
 16 37  1  0  0  0  0
 16 38  1  0  0  0  0
 17 18  1  0  0  0  0
 17 39  1  0  0  0  0
 17 40  1  0  0  0  0
 18 19  1  0  0  0  0
 18 41  1  0  0  0  0
 18 42  1  0  0  0  0
 19 20  2  0  0  0  0
M  END
> <s_m_source_file>
AV-unprocessed.smi

> <i_m_source_file_index>
1216

> <i_lp_mmshare_version>
43012

> <i_f3d_flags>
0

> <s_epik_input>
W2NIXTFuW2NIXVtjSF1uMVtDSDJdW0NAQEhdKFtDSDNdKVtOSF1DKD1PKVtDSDJdTjJbQ0gyXVtDSDJdW0NIMl1bQ0gyXVtDSDJdQzI9Tw==

> <s_epik_cmdline>
J2VwaWtfcHl0aG9uJywgJy1waCcsICc3LjAnLCAnLXRuJywgJzgnLCAnLW1hJywgJzIwMCcsICctbWV0YWxfYmluZGluZycsICctaW1hZScsICc8aW5maWxlLm1hZT4nLCAnLW9tYWUnLCAnPG91dGZpbGUubWFlPic=

> <r_lp_tautomer_probability>
1

> <r_epik_Ionization_Penalty>
0.623868

> <r_epik_Ionization_Penalty_Charging>
0.623868

> <r_epik_Ionization_Penalty_Neutral>
4.50838e-08

> <r_epik_State_Penalty>
0.640129

> <r_epik_Charging_Adjusted_Penalty>
1.264

> <i_epik_Tot_Q>
0

> <i_epik_Tot_abs_Q>
0

> <r_epik_Metal_State_Penalty>
0.307431

> <b_epik_Metal_Only>
0

> <s_lp_Force_Field>
OPLS_2005

> <r_lp_Energy>
20.3142

> <b_lp_Chiralities_Consistent>
1

> <s_lp_Variant>
AV-unprocessed.smi:1216-4

> <Gold.Version>
5.8.1

> <Gold.Id.Protein>
6NUR|6NUR_protein|mol2

> <Gold.PLP.Fitness>
46.4850

> <Gold.PLP.PLP>
-40.7119

> <Gold.PLP.part.hbond>
-1.0000

> <Gold.PLP.part.metal>
0.0000

> <Gold.PLP.part.buried>
-6.1220

> <Gold.PLP.part.nonpolar>
-33.9470

> <Gold.PLP.part.repulsive>
1.1638

> <Gold.PLP.ligand.clash>
0.0000

> <Gold.PLP.ligand.torsion>
0.1196

> <Gold.PLP.Chemscore.Hbond>
1.0000

> <Gold.PLP.Chemscore.CHOScore>
1.0000

> <Gold.PLP.Chemscore.Metal>
0.0000

> <Gold.Chemscore.Hbonds>
donor molecule, donor type, donor heavy atom, donor atom, acceptor molecule, acceptor atom, score
      L1  H     9    30       P1  8028  1.00
      L1  C     6    28       P1  7957  0.11
      L1  C     8    29       P1 10175  1.00

> <Gold.PLP.Chemscore.Internal.Correction>
0.0125

> <Gold.Rescore>
     Score         DG    S(hbond)    S(metal)    S(lipo)     H(rot)  DE(clash)    DE(int)     intcor
     11.23     -12.90       0.98        0.00      82.03       2.13       0.03       1.64       ----

> <Gold.Chemscore.Fitness>
11.2303

> <Gold.Chemscore.DG>
-12.9023

> <Gold.Chemscore.ZeroCoef>
-5.4800

> <Gold.Chemscore.Hbond>
0.9841

> <Gold.Chemscore.Metal>
0.0000

> <Gold.Chemscore.Lipo>
82.0328

> <Gold.Chemscore.Internal_Hbond>
0.0000

> <Gold.Chemscore.DEClash>
0.0329

> <Gold.Chemscore.DEInternal>
1.6391

> <Gold.Chemscore.Rot>
2.1338

> <Gold.Chemscore.Internal.Correction>
   9.000000E+99

> <Gold.Chemscore.Hbonds>
donor molecule, donor type, donor heavy atom, donor atom, acceptor molecule, acceptor atom, score
      L1  H     9    30       P1  8028  0.78

> <Gold.Chemscore.Hbond.Weighted>
-3.2869

> <Gold.Chemscore.Metal.Weighted>
-0.0000

> <Gold.Chemscore.Lipo.Weighted>
-9.5978

> <Gold.Chemscore.Internal_Hbond.Weighted>
0.0000

> <Gold.Chemscore.DEClash.Weighted>
0.0329

> <Gold.Chemscore.DEInternal.Weighted>
1.6391

> <Gold.Chemscore.Rot.Weighted>
5.4625

> <Gold.Chemscore.Internal.Correction.Weighted>
   9.000000E+99

> <Gold.Protein.RotatedTorsions>
[ 6907 6896 6895 6894 ] final -149.69 input  -60.11 | X-H torsion
[ 7974 7965 7964 7962 ] final -174.32 input  175.53 | X-H torsion
[ 8008 7997 7996 7995 ] final  -28.02 input   59.86 | X-H torsion
[ 10167 10162 10161 10158 ] final    4.58 input  -65.29 | X-H torsion
[ 10718 10713 10712 10709 ] final   61.61 input   66.30 | X-H torsion
[ 10763 10752 10751 10750 ] final -117.16 input  -60.55 | X-H torsion
[ 11005 11000 10999 10996 ] final   46.41 input  -57.11 | X-H torsion

> <Gold.Protein.ActiveResidues>
 VAL166  LYS551  ARG553  GLY616  TRP617  ASP618  TYR619  PRO620  LYS621  CYS622 
 ASP623  PHE694  ASN695  SER759  ASP760  ASP761  ALA762  ILE779  LEU786  VAL792 
 PHE793  MET794  SER795  GLU796  ALA797  LYS798  CYS799  TRP800  GLU811  SER814 

> <Gold.Protein.RotatedAtoms>
  151.1878  133.4686  159.2594 H   0  0  0  0  0  0  0  0  0  0  0  0  # atno 6907 bound_to 6896
  151.1194  135.0071  159.8541 H   0  0  0  0  0  0  0  0  0  0  0  0  # atno 6908 bound_to 6896
  152.5455  134.1790  159.8681 H   0  0  0  0  0  0  0  0  0  0  0  0  # atno 6909 bound_to 6896
  144.7132  140.1490  143.6386 H   0  0  0  0  0  0  0  0  0  0  0  0  # atno 7974 bound_to 7965
  154.4350  140.1856  156.1024 H   0  0  0  0  0  0  0  0  0  0  0  0  # atno 8008 bound_to 7997
  156.0281  140.3333  155.7085 H   0  0  0  0  0  0  0  0  0  0  0  0  # atno 8009 bound_to 7997
  155.5879  140.0628  157.2757 H   0  0  0  0  0  0  0  0  0  0  0  0  # atno 8010 bound_to 7997
  140.6527  143.7504  150.7602 H   0  0  0  0  0  0  0  0  0  0  0  0  # atno 10167 bound_to 10162
  157.5840  130.9004  149.9482 H   0  0  0  0  0  0  0  0  0  0  0  0  # atno 10718 bound_to 10713
  154.8545  135.4320  154.1935 H   0  0  0  0  0  0  0  0  0  0  0  0  # atno 10763 bound_to 10752
  153.2998  135.6968  153.7220 H   0  0  0  0  0  0  0  0  0  0  0  0  # atno 10764 bound_to 10752
  153.6354  135.3477  155.3029 H   0  0  0  0  0  0  0  0  0  0  0  0  # atno 10765 bound_to 10752
  140.1371  134.4630  155.8477 H   0  0  0  0  0  0  0  0  0  0  0  0  # atno 11005 bound_to 11000
  145.9134  139.2501  143.1424 LP  0  0  0  0  0  0  0  0  0  0  0  0  # atno 17320 bound_to 7965
  145.9693  140.8773  143.0170 LP  0  0  0  0  0  0  0  0  0  0  0  0  # atno 17321 bound_to 7965
  140.1158  143.4657  152.2343 LP  0  0  0  0  0  0  0  0  0  0  0  0  # atno 17342 bound_to 10162
  139.5745  144.7480  151.3802 LP  0  0  0  0  0  0  0  0  0  0  0  0  # atno 17343 bound_to 10162
  156.0888  130.3665  150.0435 LP  0  0  0  0  0  0  0  0  0  0  0  0  # atno 17370 bound_to 10713
  156.8570  130.9478  151.3621 LP  0  0  0  0  0  0  0  0  0  0  0  0  # atno 17371 bound_to 10713
  141.2180  133.6818  156.7178 LP  0  0  0  0  0  0  0  0  0  0  0  0  # atno 17394 bound_to 11000
  140.2768  134.8348  157.3897 LP  0  0  0  0  0  0  0  0  0  0  0  0  # atno 17395 bound_to 11000

$$$$
