AV-unprocessed.smi:94|AV-procd|sdf|851|dock4
  -GOLD-   2262017293D 1   1.00000     0.00000
 Structure written by MMmdl.
 53 55  0  0  0  0  0  0  0  0  1 V2000
  154.7127  139.7536  159.8154 C   0  0  0  0  0  0  0  0  0  0  0  0
  153.7994  140.2767  158.8624 O   0  0  0  0  0  0  0  0  0  0  0  0
  153.1791  141.4790  159.1362 C   0  0  0  0  0  0  0  0  0  0  0  0
  153.5426  142.3112  160.2263 C   0  0  0  0  0  0  0  0  0  0  0  0
  152.8780  143.5303  160.4547 C   0  0  0  0  0  0  0  0  0  0  0  0
  151.8463  143.9439  159.5930 C   0  0  0  0  0  0  0  0  0  0  0  0
  151.1248  145.2544  159.8320 C   0  0  0  0  0  0  0  0  0  0  0  0
  151.4811  143.1280  158.5074 C   0  0  0  0  0  0  0  0  0  0  0  0
  152.1296  141.8908  158.2770 C   0  0  0  0  0  0  0  0  0  0  0  0
  151.7116  141.0098  157.0966 C   0  0  2  0  0  0  0  0  0  0  0  0
  150.3670  141.4662  156.5136 C   0  0  0  0  0  0  0  0  0  0  0  0
  151.6137  139.6038  157.4764 N   0  0  0  0  0  0  0  0  0  0  0  0
  152.3854  138.5928  157.0450 C   0  0  0  0  0  0  0  0  0  0  0  0
  153.2094  138.7093  156.1392 O   0  0  0  0  0  0  0  0  0  0  0  0
  152.2488  137.2467  157.7784 C   0  0  0  0  0  0  0  0  0  0  0  0
  150.8859  136.6670  157.7040 N   0  0  0  0  0  0  0  0  0  0  0  0
  150.5475  135.9013  156.5598 C   0  0  0  0  0  0  0  0  0  0  0  0
  151.3433  135.7528  155.6316 O   0  0  0  0  0  0  0  0  0  0  0  0
  149.2217  135.2958  156.5763 C   0  0  0  0  0  0  0  0  0  0  0  0
  148.8234  134.5350  155.5427 F   0  0  0  0  0  0  0  0  0  0  0  0
  148.3905  135.4755  157.6225 C   0  0  0  0  0  0  0  0  0  0  0  0
  148.7209  136.2414  158.7237 N   0  0  0  0  0  0  0  0  0  0  0  0
  147.7434  136.3215  159.8759 C   0  0  2  0  0  0  0  0  0  0  0  0
  148.3974  136.1916  161.2598 C   0  0  0  0  0  0  0  0  0  0  0  0
  147.3240  135.4442  162.0211 C   0  0  0  0  0  0  0  0  0  0  0  0
  146.7481  134.5307  160.9442 C   0  0  0  0  0  0  0  0  0  0  0  0
  146.7988  135.2984  159.7445 O   0  0  0  0  0  0  0  0  0  0  0  0
  150.0015  136.8382  158.7968 C   0  0  0  0  0  0  0  0  0  0  0  0
  150.3537  137.4723  159.7921 O   0  0  0  0  0  0  0  0  0  0  0  0
  155.1046  138.8040  159.4521 H   0  0  0  0  0  0  0  0  0  0  0  0
  154.2252  139.5640  160.7726 H   0  0  0  0  0  0  0  0  0  0  0  0
  155.5601  140.4236  159.9663 H   0  0  0  0  0  0  0  0  0  0  0  0
  154.3329  142.0367  160.9079 H   0  0  0  0  0  0  0  0  0  0  0  0
  153.1660  144.1472  161.2931 H   0  0  0  0  0  0  0  0  0  0  0  0
  150.8147  145.7043  158.8883 H   0  0  0  0  0  0  0  0  0  0  0  0
  151.7686  145.9656  160.3504 H   0  0  0  0  0  0  0  0  0  0  0  0
  150.2353  145.0880  160.4397 H   0  0  0  0  0  0  0  0  0  0  0  0
  150.6923  143.4664  157.8519 H   0  0  0  0  0  0  0  0  0  0  0  0
  152.4626  141.1073  156.3114 H   0  0  0  0  0  0  0  0  0  0  0  0
  150.4185  142.4994  156.1690 H   0  0  0  0  0  0  0  0  0  0  0  0
  149.5701  141.4023  157.2555 H   0  0  0  0  0  0  0  0  0  0  0  0
  150.0798  140.8500  155.6611 H   0  0  0  0  0  0  0  0  0  0  0  0
  150.9523  139.3916  158.2091 H   0  0  0  0  0  0  0  0  0  0  0  0
  152.9960  136.5633  157.3731 H   0  0  0  0  0  0  0  0  0  0  0  0
  152.5522  137.3804  158.8182 H   0  0  0  0  0  0  0  0  0  0  0  0
  147.4239  134.9944  157.5882 H   0  0  0  0  0  0  0  0  0  0  0  0
  147.2230  137.2737  159.7652 H   0  0  0  0  0  0  0  0  0  0  0  0
  149.3162  135.6085  161.2198 H   0  0  0  0  0  0  0  0  0  0  0  0
  148.6254  137.1722  161.6779 H   0  0  0  0  0  0  0  0  0  0  0  0
  147.7093  134.8988  162.8830 H   0  0  0  0  0  0  0  0  0  0  0  0
  146.5594  136.1402  162.3689 H   0  0  0  0  0  0  0  0  0  0  0  0
  147.3634  133.6381  160.8295 H   0  0  0  0  0  0  0  0  0  0  0  0
  145.7307  134.2097  161.1678 H   0  0  0  0  0  0  0  0  0  0  0  0
  1  2  1  0  0  0  0
  1 30  1  0  0  0  0
  1 31  1  0  0  0  0
  1 32  1  0  0  0  0
  2  3  1  0  0  0  0
  3  9  1  0  0  0  0
  3  4  2  0  0  0  0
  4  5  1  0  0  0  0
  4 33  1  0  0  0  0
  5  6  2  0  0  0  0
  5 34  1  0  0  0  0
  6  7  1  0  0  0  0
  6  8  1  0  0  0  0
  7 35  1  0  0  0  0
  7 36  1  0  0  0  0
  7 37  1  0  0  0  0
  8  9  2  0  0  0  0
  8 38  1  0  0  0  0
  9 10  1  0  0  0  0
 10 11  1  0  0  0  0
 10 12  1  0  0  0  0
 10 39  1  0  0  0  0
 11 40  1  0  0  0  0
 11 41  1  0  0  0  0
 11 42  1  0  0  0  0
 12 13  1  0  0  0  0
 12 43  1  0  0  0  0
 13 14  2  0  0  0  0
 13 15  1  0  0  0  0
 15 16  1  0  0  0  0
 15 44  1  0  0  0  0
 15 45  1  0  0  0  0
 16 28  1  0  0  0  0
 16 17  1  0  0  0  0
 17 18  2  0  0  0  0
 17 19  1  0  0  0  0
 19 20  1  0  0  0  0
 19 21  2  0  0  0  0
 21 22  1  0  0  0  0
 21 46  1  0  0  0  0
 22 23  1  0  0  0  0
 22 28  1  0  0  0  0
 23 27  1  0  0  0  0
 23 24  1  0  0  0  0
 23 47  1  0  0  0  0
 24 25  1  0  0  0  0
 24 48  1  0  0  0  0
 24 49  1  0  0  0  0
 25 26  1  0  0  0  0
 25 50  1  0  0  0  0
 25 51  1  0  0  0  0
 26 27  1  0  0  0  0
 26 52  1  0  0  0  0
 26 53  1  0  0  0  0
 28 29  2  0  0  0  0
M  END
> <s_m_source_file>
AV-unprocessed.smi

> <i_m_source_file_index>
94

> <i_lp_mmshare_version>
43012

> <i_f3d_flags>
0

> <s_epik_input>
W0NIM11PYzFbY0hdW2NIXWMoW0NIM10pW2NIXWMxW0NASF0oW0NIM10pW05IXUMoPU8pW0NIMl1uMmMoPU8pYyhGKVtjSF1uKGMyPU8pW0NAQEhdM1tDSDJdW0NIMl1bQ0gyXU8z

> <s_epik_cmdline>
J2VwaWtfcHl0aG9uJywgJy1waCcsICc3LjAnLCAnLXRuJywgJzgnLCAnLW1hJywgJzIwMCcsICctbWV0YWxfYmluZGluZycsICctaW1hZScsICc8aW5maWxlLm1hZT4nLCAnLW9tYWUnLCAnPG91dGZpbGUubWFlPic=

> <r_lp_tautomer_probability>
1

> <r_epik_Ionization_Penalty>
3.37009e-08

> <r_epik_Ionization_Penalty_Charging>
3.59856e-09

> <r_epik_Ionization_Penalty_Neutral>
3.01024e-08

> <r_epik_State_Penalty>
-0

> <r_epik_Charging_Adjusted_Penalty>
3.59856e-09

> <i_epik_Tot_Q>
0

> <i_epik_Tot_abs_Q>
0

> <r_epik_Metal_State_Penalty>
-0

> <b_epik_Metal_Only>
0

> <s_epik_Chemistry_Notes>
This compound contains an acetal/aminal-like group ( X-CH(R)-Y where X, Y are N, S, or O) that may be acid/base labile, releasing an aldehyde.

> <s_lp_Force_Field>
OPLS_2005

> <r_lp_Energy>
26.0468

> <b_lp_Chiralities_Consistent>
1

> <s_lp_Variant>
AV-unprocessed.smi:94-1

> <Gold.Version>
5.8.1

> <Gold.Id.Protein>
6NUR|6NUR_protein|mol2

> <Gold.PLP.Fitness>
49.8616

> <Gold.PLP.PLP>
-46.5065

> <Gold.PLP.part.hbond>
-4.0000

> <Gold.PLP.part.metal>
0.0000

> <Gold.PLP.part.buried>
-6.7976

> <Gold.PLP.part.nonpolar>
-34.9819

> <Gold.PLP.part.repulsive>
0.1263

> <Gold.PLP.ligand.clash>
0.0000

> <Gold.PLP.ligand.torsion>
1.2964

> <Gold.PLP.Chemscore.Hbond>
1.9256

> <Gold.PLP.Chemscore.CHOScore>
0.0000

> <Gold.PLP.Chemscore.Metal>
0.0000

> <Gold.Chemscore.Hbonds>
donor molecule, donor type, donor heavy atom, donor atom, acceptor molecule, acceptor atom, score
      P1  H  7997  8008       L1     2  0.84
      P1  H  7997  8009       L1    14  0.05
      P1  H 10752 10764       L1    18  1.00

> <Gold.PLP.Chemscore.Internal.Correction>
0.1712

> <Gold.Rescore>
     Score         DG    S(hbond)    S(metal)    S(lipo)     H(rot)  DE(clash)    DE(int)     intcor
     15.77     -19.86       1.72        0.00     124.89       2.34       0.03       4.05       ----

> <Gold.Chemscore.Fitness>
15.7744

> <Gold.Chemscore.DG>
-19.8556

> <Gold.Chemscore.ZeroCoef>
-5.4800

> <Gold.Chemscore.Hbond>
1.7204

> <Gold.Chemscore.Metal>
0.0000

> <Gold.Chemscore.Lipo>
124.8890

> <Gold.Chemscore.Internal_Hbond>
0.0000

> <Gold.Chemscore.DEClash>
0.0309

> <Gold.Chemscore.DEInternal>
4.0503

> <Gold.Chemscore.Rot>
2.3370

> <Gold.Chemscore.Internal.Correction>
   9.000000E+99

> <Gold.Chemscore.Hbonds>
donor molecule, donor type, donor heavy atom, donor atom, acceptor molecule, acceptor atom, score
      P1  H  7997  8008       L1     2  0.18
      P1  H  7997  8009       L1    14  0.06
      P1  H 10752 10764       L1    18  1.00

> <Gold.Chemscore.Hbond.Weighted>
-5.7463

> <Gold.Chemscore.Metal.Weighted>
-0.0000

> <Gold.Chemscore.Lipo.Weighted>
-14.6120

> <Gold.Chemscore.Internal_Hbond.Weighted>
0.0000

> <Gold.Chemscore.DEClash.Weighted>
0.0309

> <Gold.Chemscore.DEInternal.Weighted>
4.0503

> <Gold.Chemscore.Rot.Weighted>
5.9827

> <Gold.Chemscore.Internal.Correction.Weighted>
   9.000000E+99

> <Gold.Protein.RotatedTorsions>
[ 6907 6896 6895 6894 ] final   93.83 input  -60.11 | X-H torsion
[ 7974 7965 7964 7962 ] final  119.40 input  175.53 | X-H torsion
[ 8008 7997 7996 7995 ] final -105.82 input   59.86 | X-H torsion
[ 10167 10162 10161 10158 ] final   70.48 input  -65.29 | X-H torsion
[ 10718 10713 10712 10709 ] final  -41.71 input   66.30 | X-H torsion
[ 10763 10752 10751 10750 ] final  -35.92 input  -60.55 | X-H torsion
[ 11005 11000 10999 10996 ] final -150.78 input  -57.11 | X-H torsion

> <Gold.Protein.ActiveResidues>
 VAL166  LYS551  ARG553  GLY616  TRP617  ASP618  TYR619  PRO620  LYS621  CYS622 
 ASP623  PHE694  ASN695  SER759  ASP760  ASP761  ALA762  ILE779  LEU786  VAL792 
 PHE793  MET794  SER795  GLU796  ALA797  LYS798  CYS799  TRP800  GLU811  SER814 

> <Gold.Protein.RotatedAtoms>
  152.5451  134.1288  159.8429 H   0  0  0  0  0  0  0  0  0  0  0  0  # atno 6907 bound_to 6896
  151.1336  133.5012  159.2606 H   0  0  0  0  0  0  0  0  0  0  0  0  # atno 6908 bound_to 6896
  151.1649  135.0301  159.8781 H   0  0  0  0  0  0  0  0  0  0  0  0  # atno 6909 bound_to 6896
  145.1436  139.3253  143.4603 H   0  0  0  0  0  0  0  0  0  0  0  0  # atno 7974 bound_to 7965
  154.9054  140.0411  157.1917 H   0  0  0  0  0  0  0  0  0  0  0  0  # atno 8008 bound_to 7997
  154.8401  140.2913  155.5644 H   0  0  0  0  0  0  0  0  0  0  0  0  # atno 8009 bound_to 7997
  156.2991  140.2484  156.3342 H   0  0  0  0  0  0  0  0  0  0  0  0  # atno 8010 bound_to 7997
  140.0564  144.5269  150.7325 H   0  0  0  0  0  0  0  0  0  0  0  0  # atno 10167 bound_to 10162
  156.2674  130.4203  149.8475 H   0  0  0  0  0  0  0  0  0  0  0  0  # atno 10718 bound_to 10713
  153.8712  135.6831  153.4774 H   0  0  0  0  0  0  0  0  0  0  0  0  # atno 10763 bound_to 10752
  153.1286  135.4708  154.9311 H   0  0  0  0  0  0  0  0  0  0  0  0  # atno 10764 bound_to 10752
  154.7713  135.3239  154.8134 H   0  0  0  0  0  0  0  0  0  0  0  0  # atno 10765 bound_to 10752
  140.7366  134.3562  157.5156 H   0  0  0  0  0  0  0  0  0  0  0  0  # atno 11005 bound_to 11000
  146.3502  140.1482  142.8593 LP  0  0  0  0  0  0  0  0  0  0  0  0  # atno 17320 bound_to 7965
  145.0506  140.9015  143.4998 LP  0  0  0  0  0  0  0  0  0  0  0  0  # atno 17321 bound_to 7965
  140.7192  143.2573  151.4333 LP  0  0  0  0  0  0  0  0  0  0  0  0  # atno 17342 bound_to 10162
  139.5921  144.1477  152.2100 LP  0  0  0  0  0  0  0  0  0  0  0  0  # atno 17343 bound_to 10162
  156.5969  130.8530  151.3422 LP  0  0  0  0  0  0  0  0  0  0  0  0  # atno 17370 bound_to 10713
  157.7272  130.9640  150.1689 LP  0  0  0  0  0  0  0  0  0  0  0  0  # atno 17371 bound_to 10713
  139.8815  134.9053  156.2897 LP  0  0  0  0  0  0  0  0  0  0  0  0  # atno 17394 bound_to 11000
  140.9874  133.7229  156.0763 LP  0  0  0  0  0  0  0  0  0  0  0  0  # atno 17395 bound_to 11000

$$$$
