AV-unprocessed.smi:290|AV-procd|sdf|2218|dock1
  -GOLD-   2262022 63D 1   1.00000     0.00000
 Structure written by MMmdl.
 59 62  0  0  0  0  0  0  0  0  2 V2000
  155.0098  140.9703  160.0546 C   0  0  0  0  0  0  0  0  0  0  0  0
  153.7899  141.2018  160.9599 C   0  0  1  0  0  0  0  0  0  0  0  0
  154.2331  141.8897  162.1256 O   0  0  0  0  0  0  0  0  0  0  0  0
  153.1529  142.6491  162.6364 C   0  0  0  0  0  0  0  0  0  0  0  0
  152.5355  143.2223  161.3701 C   0  0  0  0  0  0  0  0  0  0  0  0
  152.6328  142.0643  160.3786 C   0  0  2  0  0  0  0  0  0  0  0  0
  151.4366  141.3095  160.4782 O   0  0  0  0  0  0  0  0  0  0  0  0
  152.7952  142.5281  158.9071 C   0  0  0  0  0  0  0  0  0  0  0  0
  151.6366  142.2368  158.0764 N   0  0  0  0  0  0  0  0  0  0  0  0
  150.4076  142.8563  158.1218 C   0  0  0  0  0  0  0  0  0  0  0  0
  149.5265  142.4090  157.2689 N   0  0  0  0  0  0  0  0  0  0  0  0
  150.2040  141.4139  156.5743 C   0  0  0  0  0  0  0  0  0  0  0  0
  149.8593  140.5274  155.5150 C   0  0  0  0  0  0  0  0  0  0  0  0
  148.6511  140.4715  154.9142 N   0  0  0  0  0  0  0  0  0  0  0  0
  147.7650  141.5976  155.1853 C   0  0  0  0  0  0  0  0  0  0  0  0
  146.3251  141.0652  155.1210 C   0  0  0  0  0  0  0  0  0  0  0  0
  146.4450  139.5768  154.7488 C   0  0  1  0  0  0  0  0  0  0  0  0
  146.0450  139.2483  153.3435 N   0  3  1  0  0  0  0  0  0  0  0  0
  146.9198  139.9278  152.3561 C   0  0  0  0  0  0  0  0  0  0  0  0
  145.8543  137.7983  153.0489 C   0  0  0  0  0  0  0  0  0  0  0  0
  145.5321  137.5164  151.5702 C   0  0  0  0  0  0  0  0  0  0  0  0
  145.9812  136.2291  151.2048 O   0  0  0  0  0  0  0  0  0  0  0  0
  147.9019  139.2375  155.1098 C   0  0  1  0  0  0  0  0  0  0  0  0
  148.5179  138.0121  154.4100 C   0  0  0  0  0  0  0  0  0  0  0  0
  150.8038  139.6604  155.0761 N   0  0  0  0  0  0  0  0  0  0  0  0
  152.0179  139.6572  155.6355 C   0  0  0  0  0  0  0  0  0  0  0  0
  152.4835  140.4223  156.6254 N   0  0  0  0  0  0  0  0  0  0  0  0
  151.5326  141.2940  157.0692 C   0  0  0  0  0  0  0  0  0  0  0  0
  145.8085  138.9860  155.4093 H   0  0  0  0  0  0  0  0  0  0  0  0
  147.9107  139.0255  156.1800 H   0  0  0  0  0  0  0  0  0  0  0  0
  154.7386  140.4270  159.1493 H   0  0  0  0  0  0  0  0  0  0  0  0
  155.7642  140.3793  160.5744 H   0  0  0  0  0  0  0  0  0  0  0  0
  155.4775  141.9111  159.7633 H   0  0  0  0  0  0  0  0  0  0  0  0
  153.4124  140.2293  161.2819 H   0  0  0  0  0  0  0  0  0  0  0  0
  152.4522  141.9950  163.1577 H   0  0  0  0  0  0  0  0  0  0  0  0
  153.4932  143.4198  163.3281 H   0  0  0  0  0  0  0  0  0  0  0  0
  151.5211  143.5957  161.5177 H   0  0  0  0  0  0  0  0  0  0  0  0
  153.1499  144.0582  161.0333 H   0  0  0  0  0  0  0  0  0  0  0  0
  150.8367  141.6072  159.8113 H   0  0  0  0  0  0  0  0  0  0  0  0
  152.9724  143.6031  158.8628 H   0  0  0  0  0  0  0  0  0  0  0  0
  153.6647  142.0528  158.4516 H   0  0  0  0  0  0  0  0  0  0  0  0
  150.1821  143.6536  158.8152 H   0  0  0  0  0  0  0  0  0  0  0  0
  147.9619  142.0650  156.1506 H   0  0  0  0  0  0  0  0  0  0  0  0
  147.9233  142.3575  154.4197 H   0  0  0  0  0  0  0  0  0  0  0  0
  145.8737  141.1545  156.1098 H   0  0  0  0  0  0  0  0  0  0  0  0
  145.6985  141.6407  154.4401 H   0  0  0  0  0  0  0  0  0  0  0  0
  147.9272  139.5106  152.3712 H   0  0  0  0  0  0  0  0  0  0  0  0
  146.9931  140.9949  152.5680 H   0  0  0  0  0  0  0  0  0  0  0  0
  146.5301  139.8400  151.3432 H   0  0  0  0  0  0  0  0  0  0  0  0
  146.7475  137.2434  153.3369 H   0  0  0  0  0  0  0  0  0  0  0  0
  145.0383  137.3912  153.6429 H   0  0  0  0  0  0  0  0  0  0  0  0
  144.4703  137.6149  151.3482 H   0  0  0  0  0  0  0  0  0  0  0  0
  146.0461  138.2441  150.9419 H   0  0  0  0  0  0  0  0  0  0  0  0
  146.7400  136.0148  151.7270 H   0  0  0  0  0  0  0  0  0  0  0  0
  147.8874  137.1322  154.5379 H   0  0  0  0  0  0  0  0  0  0  0  0
  149.4970  137.7743  154.8266 H   0  0  0  0  0  0  0  0  0  0  0  0
  148.6524  138.1784  153.3418 H   0  0  0  0  0  0  0  0  0  0  0  0
  152.7162  138.9385  155.2324 H   0  0  0  0  0  0  0  0  0  0  0  0
  145.1324  139.6667  153.2294 H   0  0  0  0  0  0  0  0  0  0  0  0
  1  2  1  0  0  0  0
  1 31  1  0  0  0  0
  1 32  1  0  0  0  0
  1 33  1  0  0  0  0
  2  6  1  0  0  0  0
  2  3  1  0  0  0  0
  2 34  1  0  0  0  0
  3  4  1  0  0  0  0
  4  5  1  0  0  0  0
  4 35  1  0  0  0  0
  4 36  1  0  0  0  0
  5  6  1  0  0  0  0
  5 37  1  0  0  0  0
  5 38  1  0  0  0  0
  6  7  1  0  0  0  0
  6  8  1  0  0  0  0
  7 39  1  0  0  0  0
  8  9  1  0  0  0  0
  8 40  1  0  0  0  0
  8 41  1  0  0  0  0
  9 28  1  0  0  0  0
  9 10  1  0  0  0  0
 10 11  2  0  0  0  0
 10 42  1  0  0  0  0
 11 12  1  0  0  0  0
 12 28  2  0  0  0  0
 12 13  1  0  0  0  0
 13 14  1  0  0  0  0
 13 25  2  0  0  0  0
 14 23  1  0  0  0  0
 14 15  1  0  0  0  0
 15 16  1  0  0  0  0
 15 43  1  0  0  0  0
 15 44  1  0  0  0  0
 16 17  1  0  0  0  0
 16 45  1  0  0  0  0
 16 46  1  0  0  0  0
 17 29  1  0  0  0  0
 17 18  1  0  0  0  0
 17 23  1  0  0  0  0
 18 19  1  0  0  0  0
 18 20  1  0  0  0  0
 18 59  1  0  0  0  0
 19 47  1  0  0  0  0
 19 48  1  0  0  0  0
 19 49  1  0  0  0  0
 20 21  1  0  0  0  0
 20 50  1  0  0  0  0
 20 51  1  0  0  0  0
 21 22  1  0  0  0  0
 21 52  1  0  0  0  0
 21 53  1  0  0  0  0
 22 54  1  0  0  0  0
 23 30  1  0  0  0  0
 23 24  1  0  0  0  0
 24 55  1  0  0  0  0
 24 56  1  0  0  0  0
 24 57  1  0  0  0  0
 25 26  1  0  0  0  0
 26 27  2  0  0  0  0
 26 58  1  0  0  0  0
 27 28  1  0  0  0  0
M  CHG  1  18   1
M  END
> <s_m_source_file>
AV-unprocessed.smi

> <i_m_source_file_index>
290

> <i_lp_mmshare_version>
43012

> <i_f3d_flags>
0

> <s_epik_input>
W0NIMl0xW0NIMl1PW0NAQEhdKFtDSDNdKVtDQEBdMShbT0hdKVtDSDJdbihbY0hdbjIpYyhjMjMpbltjSF1uYzNONFtDSDJdW0NIMl1bQ0BIXShbQ0BIXTRbQ0gzXSlOKFtDSDNdKVtDSDJdW0NIMl1bT0hd

> <s_epik_cmdline>
J2VwaWtfcHl0aG9uJywgJy1waCcsICc3LjAnLCAnLXRuJywgJzgnLCAnLW1hJywgJzIwMCcsICctbWV0YWxfYmluZGluZycsICctaW1hZScsICc8aW5maWxlLm1hZT4nLCAnLW9tYWUnLCAnPG91dGZpbGUubWFlPic=

> <r_lp_tautomer_probability>
1

> <r_epik_Ionization_Penalty>
0.0036983

> <r_epik_Ionization_Penalty_Charging>
0.0032725

> <r_epik_Ionization_Penalty_Neutral>
0.000425798

> <r_epik_State_Penalty>
-0

> <r_epik_Charging_Adjusted_Penalty>
0.0032725

> <i_epik_Tot_Q>
1

> <i_epik_Tot_abs_Q>
1

> <r_epik_Metal_State_Penalty>
-0

> <b_epik_Metal_Only>
0

> <s_lp_Force_Field>
OPLS_2005

> <r_lp_Energy>
69.1694

> <b_lp_Chiralities_Consistent>
1

> <s_lp_Variant>
AV-unprocessed.smi:290-4

> <Gold.Version>
5.8.1

> <Gold.Id.Protein>
6NUR|6NUR_protein|mol2

> <Gold.PLP.Fitness>
50.0889

> <Gold.PLP.PLP>
-39.7909

> <Gold.PLP.part.hbond>
-6.4220

> <Gold.PLP.part.metal>
0.0000

> <Gold.PLP.part.buried>
10.7856

> <Gold.PLP.part.nonpolar>
-45.4909

> <Gold.PLP.part.repulsive>
2.2197

> <Gold.PLP.ligand.clash>
0.0388

> <Gold.PLP.ligand.torsion>
1.6917

> <Gold.PLP.Chemscore.Hbond>
4.3715

> <Gold.PLP.Chemscore.CHOScore>
0.0000

> <Gold.PLP.Chemscore.Metal>
0.0000

> <Gold.Chemscore.Hbonds>
donor molecule, donor type, donor heavy atom, donor atom, acceptor molecule, acceptor atom, score
      L1  H    18    59       P1 10175  2.00
      L1  H    22    54       P1  7948  0.51
      P1  H  7989  7998       L1    25  0.27
      P1  H  7997  8009       L1    27  0.96

> <Gold.PLP.Chemscore.Internal.Correction>
0.6058

> <Gold.Rescore>
     Score         DG    S(hbond)    S(metal)    S(lipo)     H(rot)  DE(clash)    DE(int)     intcor
      4.20     -17.64       2.48        0.00     113.28       3.67       6.98       6.45       ----

> <Gold.Chemscore.Fitness>
4.2046

> <Gold.Chemscore.DG>
-17.6361

> <Gold.Chemscore.ZeroCoef>
-5.4800

> <Gold.Chemscore.Hbond>
2.4809

> <Gold.Chemscore.Metal>
0.0000

> <Gold.Chemscore.Lipo>
113.2834

> <Gold.Chemscore.Internal_Hbond>
0.0000

> <Gold.Chemscore.DEClash>
6.9767

> <Gold.Chemscore.DEInternal>
6.4548

> <Gold.Chemscore.Rot>
3.6658

> <Gold.Chemscore.Internal.Correction>
   9.000000E+99

> <Gold.Chemscore.Hbonds>
donor molecule, donor type, donor heavy atom, donor atom, acceptor molecule, acceptor atom, score
      L1  H    18    59       P1 10175  1.00
      L1  H    22    54       P1  7948  0.50
      P1  H  7997  8009       L1    27  0.28

> <Gold.Chemscore.Hbond.Weighted>
-8.2864

> <Gold.Chemscore.Metal.Weighted>
-0.0000

> <Gold.Chemscore.Lipo.Weighted>
-13.2542

> <Gold.Chemscore.Internal_Hbond.Weighted>
0.0000

> <Gold.Chemscore.DEClash.Weighted>
6.9767

> <Gold.Chemscore.DEInternal.Weighted>
6.4548

> <Gold.Chemscore.Rot.Weighted>
9.3844

> <Gold.Chemscore.Internal.Correction.Weighted>
   9.000000E+99

> <Gold.Protein.RotatedTorsions>
[ 6907 6896 6895 6894 ] final   -5.73 input  -60.11 | X-H torsion
[ 7974 7965 7964 7962 ] final   97.35 input  175.53 | X-H torsion
[ 8008 7997 7996 7995 ] final -170.17 input   59.86 | X-H torsion
[ 10167 10162 10161 10158 ] final  129.63 input  -65.29 | X-H torsion
[ 10718 10713 10712 10709 ] final  161.15 input   66.30 | X-H torsion
[ 10763 10752 10751 10750 ] final  -81.45 input  -60.55 | X-H torsion
[ 11005 11000 10999 10996 ] final -154.92 input  -57.11 | X-H torsion

> <Gold.Protein.ActiveResidues>
 VAL166  LYS551  ARG553  GLY616  TRP617  ASP618  TYR619  PRO620  LYS621  CYS622 
 ASP623  PHE694  ASN695  SER759  ASP760  ASP761  ALA762  ILE779  LEU786  VAL792 
 PHE793  MET794  SER795  GLU796  ALA797  LYS798  CYS799  TRP800  GLU811  SER814 

> <Gold.Protein.RotatedAtoms>
  151.4769  135.1049  159.9766 H   0  0  0  0  0  0  0  0  0  0  0  0  # atno 6907 bound_to 6896
  152.4795  133.8214  159.7066 H   0  0  0  0  0  0  0  0  0  0  0  0  # atno 6908 bound_to 6896
  150.8856  133.7251  159.2946 H   0  0  0  0  0  0  0  0  0  0  0  0  # atno 6909 bound_to 6896
  145.4266  139.2315  143.3167 H   0  0  0  0  0  0  0  0  0  0  0  0  # atno 7974 bound_to 7965
  155.9148  140.1063  157.1252 H   0  0  0  0  0  0  0  0  0  0  0  0  # atno 8008 bound_to 7997
  154.4045  140.1267  156.4668 H   0  0  0  0  0  0  0  0  0  0  0  0  # atno 8009 bound_to 7997
  155.7267  140.3469  155.5043 H   0  0  0  0  0  0  0  0  0  0  0  0  # atno 8010 bound_to 7997
  139.5468  144.6780  151.4446 H   0  0  0  0  0  0  0  0  0  0  0  0  # atno 10167 bound_to 10162
  157.1405  131.0539  151.2329 H   0  0  0  0  0  0  0  0  0  0  0  0  # atno 10718 bound_to 10713
  154.5637  135.5626  153.7031 H   0  0  0  0  0  0  0  0  0  0  0  0  # atno 10763 bound_to 10752
  153.0026  135.6280  154.2209 H   0  0  0  0  0  0  0  0  0  0  0  0  # atno 10764 bound_to 10752
  154.2147  135.2872  155.2926 H   0  0  0  0  0  0  0  0  0  0  0  0  # atno 10765 bound_to 10752
  140.6921  134.4029  157.5218 H   0  0  0  0  0  0  0  0  0  0  0  0  # atno 11005 bound_to 11000
  146.2629  140.4998  142.8846 LP  0  0  0  0  0  0  0  0  0  0  0  0  # atno 17320 bound_to 7965
  144.8210  140.6550  143.6353 LP  0  0  0  0  0  0  0  0  0  0  0  0  # atno 17321 bound_to 7965
  140.6719  143.8274  150.7010 LP  0  0  0  0  0  0  0  0  0  0  0  0  # atno 17342 bound_to 10162
  140.1701  143.4202  152.2007 LP  0  0  0  0  0  0  0  0  0  0  0  0  # atno 17343 bound_to 10162
  157.4311  130.7491  149.6991 LP  0  0  0  0  0  0  0  0  0  0  0  0  # atno 17370 bound_to 10713
  155.9789  130.4045  150.3617 LP  0  0  0  0  0  0  0  0  0  0  0  0  # atno 17371 bound_to 10713
  139.8920  134.8765  156.2291 LP  0  0  0  0  0  0  0  0  0  0  0  0  # atno 17394 bound_to 11000
  141.0232  133.7029  156.1304 LP  0  0  0  0  0  0  0  0  0  0  0  0  # atno 17395 bound_to 11000

$$$$
