AV-unprocessed.smi:117|AV-procd|sdf|1129|dock3
  -GOLD-   2262018253D 1   1.00000     0.00000
 Structure written by MMmdl.
 53 55  0  0  0  0  0  0  0  0  1 V2000
  150.7539  144.5283  160.4234 C   0  0  0  0  0  0  0  0  0  0  0  0
  151.5613  143.2887  160.0758 C   0  0  0  0  0  0  0  0  0  0  0  0
  152.7085  142.9999  160.8427 C   0  0  0  0  0  0  0  0  0  0  0  0
  153.5007  141.8797  160.5438 C   0  0  0  0  0  0  0  0  0  0  0  0
  153.1504  141.0363  159.4763 C   0  0  0  0  0  0  0  0  0  0  0  0
  151.9907  141.2948  158.7062 C   0  0  0  0  0  0  0  0  0  0  0  0
  151.6252  140.4796  157.5956 N   0  0  0  0  0  0  0  0  0  0  0  0
  152.2958  139.4559  157.0349 C   0  0  0  0  0  0  0  0  0  0  0  0
  153.3888  139.0400  157.4213 O   0  0  0  0  0  0  0  0  0  0  0  0
  151.5847  138.7963  155.8448 C   0  0  0  0  0  0  0  0  0  0  0  0
  150.7475  137.6565  156.2137 N   0  0  0  0  0  0  0  0  0  0  0  0
  151.1202  136.3681  156.1617 C   0  0  0  0  0  0  0  0  0  0  0  0
  152.2398  136.0050  155.7988 O   0  0  0  0  0  0  0  0  0  0  0  0
  150.0624  135.3463  156.6051 C   0  0  0  0  0  0  0  0  0  0  0  0
  150.1049  134.0843  155.8343 N   0  0  0  0  0  0  0  0  0  0  0  0
  149.2463  133.9506  154.7150 C   0  0  0  0  0  0  0  0  0  0  0  0
  148.4719  134.8530  154.3928 O   0  0  0  0  0  0  0  0  0  0  0  0
  149.3551  132.6932  153.9844 C   0  0  0  0  0  0  0  0  0  0  0  0
  148.5865  132.4823  152.9024 F   0  0  0  0  0  0  0  0  0  0  0  0
  150.2194  131.7352  154.3768 C   0  0  0  0  0  0  0  0  0  0  0  0
  151.0378  131.8693  155.4809 N   0  0  0  0  0  0  0  0  0  0  0  0
  152.0142  130.7648  155.8135 C   0  0  2  0  0  0  0  0  0  0  0  0
  153.4905  131.1880  155.6938 C   0  0  0  0  0  0  0  0  0  0  0  0
  154.0434  130.2082  154.6718 C   0  0  0  0  0  0  0  0  0  0  0  0
  153.0485  129.0546  154.7345 C   0  0  0  0  0  0  0  0  0  0  0  0
  151.8033  129.7053  154.9320 O   0  0  0  0  0  0  0  0  0  0  0  0
  151.0177  133.0737  156.2222 C   0  0  0  0  0  0  0  0  0  0  0  0
  151.7785  133.2446  157.1761 O   0  0  0  0  0  0  0  0  0  0  0  0
  151.1924  142.4323  159.0039 C   0  0  0  0  0  0  0  0  0  0  0  0
  149.9528  142.7288  158.1627 C   0  0  0  0  0  0  0  0  0  0  0  0
  151.2477  145.1228  161.1926 H   0  0  0  0  0  0  0  0  0  0  0  0
  149.7695  144.2497  160.8000 H   0  0  0  0  0  0  0  0  0  0  0  0
  150.6280  145.1636  159.5462 H   0  0  0  0  0  0  0  0  0  0  0  0
  152.9941  143.6445  161.6612 H   0  0  0  0  0  0  0  0  0  0  0  0
  154.3859  141.6726  161.1270 H   0  0  0  0  0  0  0  0  0  0  0  0
  153.8002  140.2037  159.2564 H   0  0  0  0  0  0  0  0  0  0  0  0
  150.7003  140.6480  157.2275 H   0  0  0  0  0  0  0  0  0  0  0  0
  150.9899  139.5437  155.3168 H   0  0  0  0  0  0  0  0  0  0  0  0
  152.3396  138.4451  155.1410 H   0  0  0  0  0  0  0  0  0  0  0  0
  149.8082  137.8641  156.5191 H   0  0  0  0  0  0  0  0  0  0  0  0
  150.1934  135.1656  157.6728 H   0  0  0  0  0  0  0  0  0  0  0  0
  149.0732  135.8022  156.5354 H   0  0  0  0  0  0  0  0  0  0  0  0
  150.2646  130.8245  153.7975 H   0  0  0  0  0  0  0  0  0  0  0  0
  151.7694  130.4414  156.8265 H   0  0  0  0  0  0  0  0  0  0  0  0
  153.6056  132.2296  155.3923 H   0  0  0  0  0  0  0  0  0  0  0  0
  153.9695  131.0543  156.6643 H   0  0  0  0  0  0  0  0  0  0  0  0
  154.0319  130.6551  153.6775 H   0  0  0  0  0  0  0  0  0  0  0  0
  155.0656  129.8983  154.8892 H   0  0  0  0  0  0  0  0  0  0  0  0
  153.0466  128.4495  153.8277 H   0  0  0  0  0  0  0  0  0  0  0  0
  153.2590  128.4041  155.5850 H   0  0  0  0  0  0  0  0  0  0  0  0
  149.4063  141.8144  157.9303 H   0  0  0  0  0  0  0  0  0  0  0  0
  150.2443  143.2000  157.2238 H   0  0  0  0  0  0  0  0  0  0  0  0
  149.2447  143.3858  158.6647 H   0  0  0  0  0  0  0  0  0  0  0  0
  1  2  1  0  0  0  0
  1 31  1  0  0  0  0
  1 32  1  0  0  0  0
  1 33  1  0  0  0  0
  2 29  1  0  0  0  0
  2  3  2  0  0  0  0
  3  4  1  0  0  0  0
  3 34  1  0  0  0  0
  4  5  2  0  0  0  0
  4 35  1  0  0  0  0
  5  6  1  0  0  0  0
  5 36  1  0  0  0  0
  6  7  1  0  0  0  0
  6 29  2  0  0  0  0
  7  8  1  0  0  0  0
  7 37  1  0  0  0  0
  8  9  2  0  0  0  0
  8 10  1  0  0  0  0
 10 11  1  0  0  0  0
 10 38  1  0  0  0  0
 10 39  1  0  0  0  0
 11 12  1  0  0  0  0
 11 40  1  0  0  0  0
 12 13  2  0  0  0  0
 12 14  1  0  0  0  0
 14 15  1  0  0  0  0
 14 41  1  0  0  0  0
 14 42  1  0  0  0  0
 15 27  1  0  0  0  0
 15 16  1  0  0  0  0
 16 17  2  0  0  0  0
 16 18  1  0  0  0  0
 18 19  1  0  0  0  0
 18 20  2  0  0  0  0
 20 21  1  0  0  0  0
 20 43  1  0  0  0  0
 21 22  1  0  0  0  0
 21 27  1  0  0  0  0
 22 26  1  0  0  0  0
 22 23  1  0  0  0  0
 22 44  1  0  0  0  0
 23 24  1  0  0  0  0
 23 45  1  0  0  0  0
 23 46  1  0  0  0  0
 24 25  1  0  0  0  0
 24 47  1  0  0  0  0
 24 48  1  0  0  0  0
 25 26  1  0  0  0  0
 25 49  1  0  0  0  0
 25 50  1  0  0  0  0
 27 28  2  0  0  0  0
 29 30  1  0  0  0  0
 30 51  1  0  0  0  0
 30 52  1  0  0  0  0
 30 53  1  0  0  0  0
M  END
> <s_m_source_file>
AV-unprocessed.smi

> <i_m_source_file_index>
117

> <i_lp_mmshare_version>
43012

> <i_f3d_flags>
0

> <s_epik_input>
W0NIM11jMVtjSF1bY0hdW2NIXWMoYzFbQ0gzXSlbTkhdQyg9TylbQ0gyXVtOSF1DKD1PKVtDSDJdbjJjKD1PKWMoRilbY0hdbihjMj1PKVtDQEBIXTNbQ0gyXVtDSDJdW0NIMl1PMw==

> <s_epik_cmdline>
J2VwaWtfcHl0aG9uJywgJy1waCcsICc3LjAnLCAnLXRuJywgJzgnLCAnLW1hJywgJzIwMCcsICctbWV0YWxfYmluZGluZycsICctaW1hZScsICc8aW5maWxlLm1hZT4nLCAnLW9tYWUnLCAnPG91dGZpbGUubWFlPic=

> <r_lp_tautomer_probability>
1

> <r_epik_Ionization_Penalty>
1.58439e-06

> <r_epik_Ionization_Penalty_Charging>
4.14583e-09

> <r_epik_Ionization_Penalty_Neutral>
1.58025e-06

> <r_epik_State_Penalty>
-0

> <r_epik_Charging_Adjusted_Penalty>
4.14583e-09

> <i_epik_Tot_Q>
0

> <i_epik_Tot_abs_Q>
0

> <r_epik_Metal_State_Penalty>
-0

> <b_epik_Metal_Only>
0

> <s_epik_Chemistry_Notes>
This compound contains an acetal/aminal-like group ( X-CH(R)-Y where X, Y are N, S, or O) that may be acid/base labile, releasing an aldehyde.

> <s_lp_Force_Field>
OPLS_2005

> <r_lp_Energy>
28.8349

> <b_lp_Chiralities_Consistent>
1

> <s_lp_Variant>
AV-unprocessed.smi:117-1

> <Gold.Version>
5.8.1

> <Gold.Id.Protein>
6NUR|6NUR_protein|mol2

> <Gold.PLP.Fitness>
57.6424

> <Gold.PLP.PLP>
-51.8905

> <Gold.PLP.part.hbond>
-2.9049

> <Gold.PLP.part.metal>
0.0000

> <Gold.PLP.part.buried>
-6.5984

> <Gold.PLP.part.nonpolar>
-44.6811

> <Gold.PLP.part.repulsive>
1.9173

> <Gold.PLP.ligand.clash>
0.0000

> <Gold.PLP.ligand.torsion>
1.2624

> <Gold.PLP.Chemscore.Hbond>
2.7433

> <Gold.PLP.Chemscore.CHOScore>
0.0000

> <Gold.PLP.Chemscore.Metal>
0.0000

> <Gold.Chemscore.Hbonds>
donor molecule, donor type, donor heavy atom, donor atom, acceptor molecule, acceptor atom, score
      P1  H  6896  6907       L1    28  0.61
      P1  H  7997  8008       L1     9  1.00
      P1  H 10752 10764       L1    13  0.44

> <Gold.PLP.Chemscore.Internal.Correction>
0.0469

> <Gold.Rescore>
     Score         DG    S(hbond)    S(metal)    S(lipo)     H(rot)  DE(clash)    DE(int)     intcor
     18.11     -21.48       2.73        0.00     109.39       2.32       0.03       3.34       ----

> <Gold.Chemscore.Fitness>
18.1059

> <Gold.Chemscore.DG>
-21.4794

> <Gold.Chemscore.ZeroCoef>
-5.4800

> <Gold.Chemscore.Hbond>
2.7340

> <Gold.Chemscore.Metal>
0.0000

> <Gold.Chemscore.Lipo>
109.3878

> <Gold.Chemscore.Internal_Hbond>
0.0000

> <Gold.Chemscore.DEClash>
0.0310

> <Gold.Chemscore.DEInternal>
3.3425

> <Gold.Chemscore.Rot>
2.3166

> <Gold.Chemscore.Internal.Correction>
   9.000000E+99

> <Gold.Chemscore.Hbonds>
donor molecule, donor type, donor heavy atom, donor atom, acceptor molecule, acceptor atom, score
      P1  H  6896  6907       L1    28  0.57
      P1  H  7997  8008       L1     9  0.54
      P1  H 10752 10764       L1    13  0.43

> <Gold.Chemscore.Hbond.Weighted>
-9.1316

> <Gold.Chemscore.Metal.Weighted>
-0.0000

> <Gold.Chemscore.Lipo.Weighted>
-12.7984

> <Gold.Chemscore.Internal_Hbond.Weighted>
0.0000

> <Gold.Chemscore.DEClash.Weighted>
0.0310

> <Gold.Chemscore.DEInternal.Weighted>
3.3425

> <Gold.Chemscore.Rot.Weighted>
5.9306

> <Gold.Chemscore.Internal.Correction.Weighted>
   9.000000E+99

> <Gold.Protein.RotatedTorsions>
[ 6907 6896 6895 6894 ] final -161.25 input  -60.11 | X-H torsion
[ 7974 7965 7964 7962 ] final  131.47 input  175.53 | X-H torsion
[ 8008 7997 7996 7995 ] final  -72.38 input   59.86 | X-H torsion
[ 10167 10162 10161 10158 ] final   44.32 input  -65.29 | X-H torsion
[ 10718 10713 10712 10709 ] final  -12.70 input   66.30 | X-H torsion
[ 10763 10752 10751 10750 ] final  -22.08 input  -60.55 | X-H torsion
[ 11005 11000 10999 10996 ] final   63.88 input  -57.11 | X-H torsion

> <Gold.Protein.ActiveResidues>
 VAL166  LYS551  ARG553  GLY616  TRP617  ASP618  TYR619  PRO620  LYS621  CYS622 
 ASP623  PHE694  ASN695  SER759  ASP760  ASP761  ALA762  ILE779  LEU786  VAL792 
 PHE793  MET794  SER795  GLU796  ALA797  LYS798  CYS799  TRP800  GLU811  SER814 

> <Gold.Protein.RotatedAtoms>
  151.3617  133.3887  159.2690 H   0  0  0  0  0  0  0  0  0  0  0  0  # atno 6907 bound_to 6896
  150.9720  134.9092  159.7804 H   0  0  0  0  0  0  0  0  0  0  0  0  # atno 6908 bound_to 6896
  152.5188  134.3579  159.9327 H   0  0  0  0  0  0  0  0  0  0  0  0  # atno 6909 bound_to 6896
  145.0070  139.4257  143.5264 H   0  0  0  0  0  0  0  0  0  0  0  0  # atno 7974 bound_to 7965
  154.5162  140.0798  156.8085 H   0  0  0  0  0  0  0  0  0  0  0  0  # atno 8008 bound_to 7997
  155.3676  140.3421  155.4224 H   0  0  0  0  0  0  0  0  0  0  0  0  # atno 8009 bound_to 7997
  156.1630  140.1594  156.8567 H   0  0  0  0  0  0  0  0  0  0  0  0  # atno 8010 bound_to 7997
  140.3355  144.2535  150.6162 H   0  0  0  0  0  0  0  0  0  0  0  0  # atno 10167 bound_to 10162
  156.6409  130.4927  149.6095 H   0  0  0  0  0  0  0  0  0  0  0  0  # atno 10718 bound_to 10713
  153.6462  135.6983  153.5224 H   0  0  0  0  0  0  0  0  0  0  0  0  # atno 10763 bound_to 10752
  153.2743  135.4205  155.1017 H   0  0  0  0  0  0  0  0  0  0  0  0  # atno 10764 bound_to 10752
  154.8487  135.3586  154.6007 H   0  0  0  0  0  0  0  0  0  0  0  0  # atno 10765 bound_to 10752
  139.9995  134.6464  155.9954 H   0  0  0  0  0  0  0  0  0  0  0  0  # atno 11005 bound_to 11000
  146.3463  139.9492  142.8731 LP  0  0  0  0  0  0  0  0  0  0  0  0  # atno 17320 bound_to 7965
  145.2075  140.9881  143.4120 LP  0  0  0  0  0  0  0  0  0  0  0  0  # atno 17321 bound_to 7965
  140.5357  143.2233  151.8166 LP  0  0  0  0  0  0  0  0  0  0  0  0  # atno 17342 bound_to 10162
  139.4849  144.4664  151.9479 LP  0  0  0  0  0  0  0  0  0  0  0  0  # atno 17343 bound_to 10162
  156.2160  130.6708  151.1319 LP  0  0  0  0  0  0  0  0  0  0  0  0  # atno 17370 bound_to 10713
  157.7171  131.0703  150.6283 LP  0  0  0  0  0  0  0  0  0  0  0  0  # atno 17371 bound_to 10713
  141.1631  133.6538  156.4386 LP  0  0  0  0  0  0  0  0  0  0  0  0  # atno 17394 bound_to 11000
  140.4754  134.6714  157.5148 LP  0  0  0  0  0  0  0  0  0  0  0  0  # atno 17395 bound_to 11000

$$$$
