#       Name:                AV-unprocessed.smi:3054
#       Creating user name   scv26
#       Creation time:       Fri Mar 27 17:03:15 2020


#       File generated by GOLD software.
#

@<TRIPOS>MOLECULE
AV-unprocessed.smi:3054
    43    44     1
SMALL
NO_CHARGES


@<TRIPOS>ATOM
      1 ****        -1.1025   1.7575  -1.5216 C.3            1 S1                 0.0000
      2 ****        -1.6447   0.9483  -0.3330 C.3            1 S1                 0.0000
      3 ****        -1.1557  -0.5248  -0.2748 C.3            1 S1                 0.0000
      4 ****         0.3835  -0.6290  -0.1237 C.3            1 S1                 0.0000
      5 ****         0.8730   0.1327   1.0211 N.am           1 S1                 0.0000
      6 ****         2.0692   0.7322   1.0899 C.2            1 S1                 0.0000
      7 ****         2.9001   0.6989   0.1825 O.2            1 S1                 0.0000
      8 ****         2.2311   1.3634   2.2639 N.am           1 S1                 0.0000
      9 ****         3.3627   2.1016   2.6918 C.2            1 S1                 0.0000
     10 ****         4.5864   2.3573   2.0057 C.2            1 S1                 0.0000
     11 ****         5.4054   3.0928   2.7441 N.2            1 S1                 0.0000
     12 ****         4.7201   3.3082   3.8894 N.pl3          1 S1                 0.0000
     13 ****         3.4733   2.7230   3.8998 C.2            1 S1                 0.0000
     14 ****        -1.6515  -1.3069  -1.4461 N.4            1 S1                 1.0000
     15 ****        -1.1808  -2.7064  -1.5357 C.3            1 S1                 0.0000
     16 ****        -2.1615  -3.3931  -2.4788 C.3            1 S1                 0.0000
     17 ****        -3.4941  -2.7465  -2.1191 C.3            1 S1                 0.0000
     18 ****        -3.1277  -1.3468  -1.6064 C.3            1 S1                 0.0000
     19 ****         5.1129   3.8503   4.6458 H              1 S1                 0.0000
     20 ****        -1.5136   2.7672  -1.5166 H              1 S1                 0.0000
     21 ****        -1.3697   1.2995  -2.4740 H              1 S1                 0.0000
     22 ****        -0.0171   1.8501  -1.4837 H              1 S1                 0.0000
     23 ****        -1.3729   1.4628   0.5891 H              1 S1                 0.0000
     24 ****        -2.7336   0.9848  -0.3532 H              1 S1                 0.0000
     25 ****        -1.5964  -0.9773   0.6153 H              1 S1                 0.0000
     26 ****         0.6902  -1.6627   0.0360 H              1 S1                 0.0000
     27 ****         0.8682  -0.3020  -1.0452 H              1 S1                 0.0000
     28 ****         0.2563   0.2110   1.8166 H              1 S1                 0.0000
     29 ****         1.4667   1.3101   2.9210 H              1 S1                 0.0000
     30 ****         4.9089   2.0465   1.0233 H              1 S1                 0.0000
     31 ****         2.7981   2.7987   4.7394 H              1 S1                 0.0000
     32 ****        -0.1546  -2.7711  -1.8990 H              1 S1                 0.0000
     33 ****        -1.2272  -3.1758  -0.5513 H              1 S1                 0.0000
     34 ****        -1.9044  -3.1632  -3.5137 H              1 S1                 0.0000
     35 ****        -2.1711  -4.4777  -2.3659 H              1 S1                 0.0000
     36 ****        -4.1824  -2.7169  -2.9645 H              1 S1                 0.0000
     37 ****        -3.9740  -3.3152  -1.3213 H              1 S1                 0.0000
     38 ****        -3.6421  -1.1590  -0.6628 H              1 S1                 0.0000
     39 ****        -3.4328  -0.5728  -2.3113 H              1 S1                 0.0000
     40 ****        -1.2968  -0.8493  -2.2740 H              1 S1                 0.0000
     41 ****         2.6976   0.2048  -0.6630 LP             1 S1                 0.0000
     42 ****         3.7777   1.1659   0.2908 LP             1 S1                 0.0000
     43 ****         6.3221   3.4151   2.5077 LP             1 S1                 0.0000
@<TRIPOS>BOND
    1    1    2 1     
    2    1   20 1     
    3    1   21 1     
    4    1   22 1     
    5    2    3 1     
    6    2   23 1     
    7    2   24 1     
    8    3    4 1     
    9    3   14 1     
   10    3   25 1     
   11    4    5 1     
   12    4   26 1     
   13    4   27 1     
   14    5    6 am    
   15    5   28 1     
   16    6    7 2     
   17    6    8 am    
   18    8    9 1     
   19    8   29 1     
   20    9   13 2     
   21    9   10 1     
   22   10   11 2     
   23   10   30 1     
   24   11   12 1     
   25   12   19 1     
   26   12   13 1     
   27   13   31 1     
   28   14   18 1     
   29   14   15 1     
   30   14   40 1     
   31   15   16 1     
   32   15   32 1     
   33   15   33 1     
   34   16   17 1     
   35   16   34 1     
   36   16   35 1     
   37   17   18 1     
   38   17   36 1     
   39   17   37 1     
   40   18   38 1     
   41   18   39 1     
   42    7   41 1     
   43    7   42 1     
   44   11   43 1     
@<TRIPOS>SUBSTRUCTURE
      1 S1             1
@<TRIPOS>SET
LONE_PAIRS      STATIC     ATOMS    <user>   **** ""
3 41 42 43
DONOR_HYDROGENS      STATIC     ATOMS    <user>   **** ""
4 28 29 19 40
ATOM$BLUE        STATIC     ATOMS    COLORGROUP SYSTEM
3 41 42 43
ATOM$RED        STATIC     ATOMS    COLORGROUP SYSTEM
4 28 29 19 40
