AV-unprocessed.smi:1815|AV-procd|sdf|7354|dock3
  -GOLD-   22720 9 13D 1   1.00000     0.00000
 Structure written by MMmdl.
 40 41  0  0  0  0  0  0  0  0  2 V2000
  148.9052  141.4155  154.3295 C   0  0  0  0  0  0  0  0  0  0  0  0
  149.4437  140.0405  154.7391 C   0  0  1  0  0  0  0  0  0  0  0  0
  148.8653  138.9075  153.8672 C   0  0  0  0  0  0  0  0  0  0  0  0
  149.4590  137.5960  154.2253 N   0  3  2  0  0  0  0  0  0  0  0  0
  148.8969  137.0087  155.4705 C   0  0  0  0  0  0  0  0  0  0  0  0
  147.4524  136.5060  155.2827 C   0  0  0  0  0  0  0  0  0  0  0  0
  147.2773  135.8558  153.9886 N   0  0  0  0  0  0  0  0  0  0  0  0
  146.2745  135.0199  153.6814 C   0  0  0  0  0  0  0  0  0  0  0  0
  145.3855  134.7123  154.4760 O   0  0  0  0  0  0  0  0  0  0  0  0
  146.3798  134.5715  152.4182 N   0  0  0  0  0  0  0  0  0  0  0  0
  145.5222  133.6704  151.7332 C   0  0  0  0  0  0  0  0  0  0  0  0
  144.4506  134.0411  151.0224 N   0  0  0  0  0  0  0  0  0  0  0  0
  143.7909  132.9461  150.4581 C   0  0  0  0  0  0  0  0  0  0  0  0
  144.3780  131.7406  150.7521 C   0  0  0  0  0  0  0  0  0  0  0  0
  145.7922  131.9339  151.7532 S   0  0  0  0  0  0  0  0  0  0  0  0
  150.9419  137.6718  154.1830 C   0  0  0  0  0  0  0  0  0  0  0  0
  151.4780  138.8513  155.0233 C   0  0  1  0  0  0  0  0  0  0  0  0
  152.9947  139.0169  154.8763 C   0  0  0  0  0  0  0  0  0  0  0  0
  150.8593  140.0580  154.5894 O   0  0  0  0  0  0  0  0  0  0  0  0
  147.8200  141.4572  154.4260 H   0  0  0  0  0  0  0  0  0  0  0  0
  149.1591  141.6479  153.2948 H   0  0  0  0  0  0  0  0  0  0  0  0
  149.3246  142.2008  154.9589 H   0  0  0  0  0  0  0  0  0  0  0  0
  149.1931  139.8727  155.7879 H   0  0  0  0  0  0  0  0  0  0  0  0
  147.7781  138.8706  153.9459 H   0  0  0  0  0  0  0  0  0  0  0  0
  149.0875  139.1067  152.8177 H   0  0  0  0  0  0  0  0  0  0  0  0
  149.5350  136.2073  155.8427 H   0  0  0  0  0  0  0  0  0  0  0  0
  148.8924  137.7770  156.2448 H   0  0  0  0  0  0  0  0  0  0  0  0
  147.1785  135.8186  156.0851 H   0  0  0  0  0  0  0  0  0  0  0  0
  146.7440  137.3322  155.3267 H   0  0  0  0  0  0  0  0  0  0  0  0
  147.9653  136.0582  153.2776 H   0  0  0  0  0  0  0  0  0  0  0  0
  147.1684  134.9071  151.8850 H   0  0  0  0  0  0  0  0  0  0  0  0
  142.9082  133.1163  149.8595 H   0  0  0  0  0  0  0  0  0  0  0  0
  144.0654  130.7548  150.4411 H   0  0  0  0  0  0  0  0  0  0  0  0
  151.3933  136.7336  154.5032 H   0  0  0  0  0  0  0  0  0  0  0  0
  151.2385  137.8080  153.1418 H   0  0  0  0  0  0  0  0  0  0  0  0
  151.2550  138.6956  156.0796 H   0  0  0  0  0  0  0  0  0  0  0  0
  153.5214  138.1209  155.2056 H   0  0  0  0  0  0  0  0  0  0  0  0
  153.3557  139.8530  155.4756 H   0  0  0  0  0  0  0  0  0  0  0  0
  153.2727  139.2063  153.8391 H   0  0  0  0  0  0  0  0  0  0  0  0
  149.1814  136.9612  153.4902 H   0  0  0  0  0  0  0  0  0  0  0  0
  1  2  1  0  0  0  0
  1 20  1  0  0  0  0
  1 21  1  0  0  0  0
  1 22  1  0  0  0  0
  2 19  1  0  0  0  0
  2  3  1  0  0  0  0
  2 23  1  0  0  0  0
  3  4  1  0  0  0  0
  3 24  1  0  0  0  0
  3 25  1  0  0  0  0
  4  5  1  0  0  0  0
  4 16  1  0  0  0  0
  4 40  1  0  0  0  0
  5  6  1  0  0  0  0
  5 26  1  0  0  0  0
  5 27  1  0  0  0  0
  6  7  1  0  0  0  0
  6 28  1  0  0  0  0
  6 29  1  0  0  0  0
  7  8  1  0  0  0  0
  7 30  1  0  0  0  0
  8  9  2  0  0  0  0
  8 10  1  0  0  0  0
 10 11  1  0  0  0  0
 10 31  1  0  0  0  0
 11 15  1  0  0  0  0
 11 12  2  0  0  0  0
 12 13  1  0  0  0  0
 13 14  2  0  0  0  0
 13 32  1  0  0  0  0
 14 15  1  0  0  0  0
 14 33  1  0  0  0  0
 16 17  1  0  0  0  0
 16 34  1  0  0  0  0
 16 35  1  0  0  0  0
 17 18  1  0  0  0  0
 17 19  1  0  0  0  0
 17 36  1  0  0  0  0
 18 37  1  0  0  0  0
 18 38  1  0  0  0  0
 18 39  1  0  0  0  0
M  CHG  1   4   1
M  END
> <s_m_source_file>
AV-unprocessed.smi

> <i_m_source_file_index>
1815

> <i_lp_mmshare_version>
43012

> <i_f3d_flags>
0

> <s_epik_input>
W0NIM11bQ0BASF0xW0NIMl1OKFtDSDJdW0NASF0oTzEpW0NIM10pW0NIMl1bQ0gyXVtOSF1DKD1PKVtOSF1jMm5bY0hdW2NIXXMy

> <s_epik_cmdline>
J2VwaWtfcHl0aG9uJywgJy1waCcsICc3LjAnLCAnLXRuJywgJzgnLCAnLW1hJywgJzIwMCcsICctbWV0YWxfYmluZGluZycsICctaW1hZScsICc8aW5maWxlLm1hZT4nLCAnLW9tYWUnLCAnPG91dGZpbGUubWFlPic=

> <r_lp_tautomer_probability>
0.999

> <r_epik_Ionization_Penalty>
0.695838

> <r_epik_Ionization_Penalty_Charging>
0.695697

> <r_epik_Ionization_Penalty_Neutral>
0.000141198

> <r_epik_State_Penalty>
0.717972

> <r_epik_Charging_Adjusted_Penalty>
1.41367

> <i_epik_Tot_Q>
1

> <i_epik_Tot_abs_Q>
1

> <r_epik_Metal_State_Penalty>
0.756405

> <b_epik_Metal_Only>
0

> <s_lp_Force_Field>
OPLS_2005

> <r_lp_Energy>
15.0409

> <b_lp_Chiralities_Consistent>
1

> <s_lp_Variant>
AV-unprocessed.smi:1815-5

> <Gold.Version>
5.8.1

> <Gold.Id.Protein>
6NUR|6NUR_protein|mol2

> <Gold.PLP.Fitness>
48.1117

> <Gold.PLP.PLP>
-32.5533

> <Gold.PLP.part.hbond>
-3.9722

> <Gold.PLP.part.metal>
0.0000

> <Gold.PLP.part.buried>
-0.2570

> <Gold.PLP.part.nonpolar>
-27.9454

> <Gold.PLP.part.repulsive>
0.3426

> <Gold.PLP.ligand.clash>
0.0000

> <Gold.PLP.ligand.torsion>
1.1010

> <Gold.PLP.Chemscore.Hbond>
4.9120

> <Gold.PLP.Chemscore.CHOScore>
1.0000

> <Gold.PLP.Chemscore.Metal>
0.0000

> <Gold.Chemscore.Hbonds>
donor molecule, donor type, donor heavy atom, donor atom, acceptor molecule, acceptor atom, score
      L1  H     4    40       P1  7948  2.00
      L1  H     7    30       P1  7948  1.00
      L1  H    10    31       P1  7948  0.61
      P1  H  7989  7998       L1    19  1.00
      L1  C    13    32       P1 10186  1.00

> <Gold.PLP.Chemscore.Internal.Correction>
0.0243

> <Gold.Rescore>
     Score         DG    S(hbond)    S(metal)    S(lipo)     H(rot)  DE(clash)    DE(int)     intcor
     20.00     -21.49       3.44        0.00      74.35       1.64       0.47       1.02       ----

> <Gold.Chemscore.Fitness>
19.9997

> <Gold.Chemscore.DG>
-21.4880

> <Gold.Chemscore.ZeroCoef>
-5.4800

> <Gold.Chemscore.Hbond>
3.4442

> <Gold.Chemscore.Metal>
0.0000

> <Gold.Chemscore.Lipo>
74.3476

> <Gold.Chemscore.Internal_Hbond>
0.0000

> <Gold.Chemscore.DEClash>
0.4701

> <Gold.Chemscore.DEInternal>
1.0181

> <Gold.Chemscore.Rot>
1.6385

> <Gold.Chemscore.Internal.Correction>
   9.000000E+99

> <Gold.Chemscore.Hbonds>
donor molecule, donor type, donor heavy atom, donor atom, acceptor molecule, acceptor atom, score
      L1  H     4    40       P1  7948  0.99
      L1  H     7    30       P1  7948  1.00
      L1  H    10    31       P1  7948  0.53
      P1  H  7989  7998       L1    19  0.89

> <Gold.Chemscore.Hbond.Weighted>
-11.5038

> <Gold.Chemscore.Metal.Weighted>
-0.0000

> <Gold.Chemscore.Lipo.Weighted>
-8.6987

> <Gold.Chemscore.Internal_Hbond.Weighted>
0.0000

> <Gold.Chemscore.DEClash.Weighted>
0.4701

> <Gold.Chemscore.DEInternal.Weighted>
1.0181

> <Gold.Chemscore.Rot.Weighted>
4.1945

> <Gold.Chemscore.Internal.Correction.Weighted>
   9.000000E+99

> <Gold.Protein.RotatedTorsions>
[ 6907 6896 6895 6894 ] final   49.75 input  -60.11 | X-H torsion
[ 7974 7965 7964 7962 ] final  163.13 input  175.53 | X-H torsion
[ 8008 7997 7996 7995 ] final   40.45 input   59.86 | X-H torsion
[ 10167 10162 10161 10158 ] final  -81.66 input  -65.29 | X-H torsion
[ 10718 10713 10712 10709 ] final  168.08 input   66.30 | X-H torsion
[ 10763 10752 10751 10750 ] final   -3.40 input  -60.55 | X-H torsion
[ 11005 11000 10999 10996 ] final    9.98 input  -57.11 | X-H torsion

> <Gold.Protein.ActiveResidues>
 VAL166  LYS551  ARG553  GLY616  TRP617  ASP618  TYR619  PRO620  LYS621  CYS622 
 ASP623  PHE694  ASN695  SER759  ASP760  ASP761  ALA762  ILE779  LEU786  VAL792 
 PHE793  MET794  SER795  GLU796  ALA797  LYS798  CYS799  TRP800  GLU811  SER814 

> <Gold.Protein.RotatedAtoms>
  152.2943  134.7686  160.0371 H   0  0  0  0  0  0  0  0  0  0  0  0  # atno 6907 bound_to 6896
  151.8221  133.3391  159.3595 H   0  0  0  0  0  0  0  0  0  0  0  0  # atno 6908 bound_to 6896
  150.7244  134.5493  159.5831 H   0  0  0  0  0  0  0  0  0  0  0  0  # atno 6909 bound_to 6896
  144.7604  139.8138  143.6334 H   0  0  0  0  0  0  0  0  0  0  0  0  # atno 7974 bound_to 7965
  155.2533  140.3354  155.4280 H   0  0  0  0  0  0  0  0  0  0  0  0  # atno 8008 bound_to 7997
  156.2206  140.1807  156.7529 H   0  0  0  0  0  0  0  0  0  0  0  0  # atno 8009 bound_to 7997
  154.5820  140.0652  156.9102 H   0  0  0  0  0  0  0  0  0  0  0  0  # atno 8010 bound_to 7997
  140.4391  143.2521  151.8651 H   0  0  0  0  0  0  0  0  0  0  0  0  # atno 10167 bound_to 10162
  157.0423  131.0290  151.2709 H   0  0  0  0  0  0  0  0  0  0  0  0  # atno 10718 bound_to 10713
  153.3709  135.6994  153.6639 H   0  0  0  0  0  0  0  0  0  0  0  0  # atno 10763 bound_to 10752
  153.5289  135.3596  155.2667 H   0  0  0  0  0  0  0  0  0  0  0  0  # atno 10764 bound_to 10752
  154.8681  135.4176  154.2986 H   0  0  0  0  0  0  0  0  0  0  0  0  # atno 10765 bound_to 10752
  140.5196  134.0572  155.7841 H   0  0  0  0  0  0  0  0  0  0  0  0  # atno 11005 bound_to 11000
  146.1661  139.4792  142.9957 LP  0  0  0  0  0  0  0  0  0  0  0  0  # atno 17320 bound_to 7965
  145.6639  141.0234  143.1694 LP  0  0  0  0  0  0  0  0  0  0  0  0  # atno 17321 bound_to 7965
  139.4788  144.5249  151.8749 LP  0  0  0  0  0  0  0  0  0  0  0  0  # atno 17342 bound_to 10162
  140.4339  144.2079  150.5888 LP  0  0  0  0  0  0  0  0  0  0  0  0  # atno 17343 bound_to 10162
  157.5095  130.7929  149.7689 LP  0  0  0  0  0  0  0  0  0  0  0  0  # atno 17370 bound_to 10713
  156.0034  130.3868  150.2520 LP  0  0  0  0  0  0  0  0  0  0  0  0  # atno 17371 bound_to 10713
  141.1341  133.9251  157.2471 LP  0  0  0  0  0  0  0  0  0  0  0  0  # atno 17394 bound_to 11000
  139.9613  135.0153  156.9269 LP  0  0  0  0  0  0  0  0  0  0  0  0  # atno 17395 bound_to 11000

$$$$
