AV-unprocessed.smi:3019|AV-procd|sdf|11496|dock2
  -GOLD-   2272016433D 1   1.00000     0.00000
 Structure written by MMmdl.
 29 30  0  0  0  0  0  0  0  0  2 V2000
  152.7563  142.3510  161.8878 C   0  0  0  0  0  0  0  0  0  0  0  0
  152.9704  143.0246  160.5254 C   0  0  0  0  0  0  0  0  0  0  0  0
  152.1548  144.3135  160.3562 C   0  0  0  0  0  0  0  0  0  0  0  0
  152.7324  142.0578  159.3814 C   0  0  0  0  0  0  0  0  0  0  0  0
  153.3055  140.8494  159.2335 N   0  5  0  0  0  0  0  0  0  0  0  0
  152.8779  140.2852  158.1226 N   0  0  0  0  0  0  0  0  0  0  0  0
  152.0146  141.1617  157.5856 C   0  0  0  0  0  0  0  0  0  0  0  0
  151.2930  140.9700  156.2663 C   0  0  1  0  0  0  0  0  0  0  0  0
  151.6028  139.5840  155.6651 C   0  0  0  0  0  0  0  0  0  0  0  0
  150.8965  139.3999  154.3974 N   0  0  0  0  0  0  0  0  0  0  0  0
  149.4606  139.6172  154.5561 C   0  0  0  0  0  0  0  0  0  0  0  0
  149.1968  140.9989  155.1785 C   0  0  0  0  0  0  0  0  0  0  0  0
  149.8807  141.0976  156.4227 O   0  0  0  0  0  0  0  0  0  0  0  0
  151.9216  142.2613  158.3476 N   0  0  0  0  0  0  0  0  0  0  0  0
  153.4007  141.4782  161.9978 H   0  0  0  0  0  0  0  0  0  0  0  0
  151.7243  142.0197  162.0060 H   0  0  0  0  0  0  0  0  0  0  0  0
  152.9826  143.0356  162.7051 H   0  0  0  0  0  0  0  0  0  0  0  0
  154.0228  143.3069  160.4743 H   0  0  0  0  0  0  0  0  0  0  0  0
  152.3864  144.8007  159.4088 H   0  0  0  0  0  0  0  0  0  0  0  0
  152.3704  145.0228  161.1555 H   0  0  0  0  0  0  0  0  0  0  0  0
  151.0840  144.1075  160.3723 H   0  0  0  0  0  0  0  0  0  0  0  0
  151.6439  141.7521  155.5902 H   0  0  0  0  0  0  0  0  0  0  0  0
  152.6767  139.4757  155.5103 H   0  0  0  0  0  0  0  0  0  0  0  0
  151.3081  138.8052  156.3695 H   0  0  0  0  0  0  0  0  0  0  0  0
  148.9608  139.5388  153.5904 H   0  0  0  0  0  0  0  0  0  0  0  0
  149.0364  138.8410  155.1941 H   0  0  0  0  0  0  0  0  0  0  0  0
  149.5132  141.7988  154.5070 H   0  0  0  0  0  0  0  0  0  0  0  0
  148.1291  141.1331  155.3525 H   0  0  0  0  0  0  0  0  0  0  0  0
  151.0628  138.4605  154.0515 H   0  0  0  0  0  0  0  0  0  0  0  0
  1  2  1  0  0  0  0
  1 15  1  0  0  0  0
  1 16  1  0  0  0  0
  1 17  1  0  0  0  0
  2  3  1  0  0  0  0
  2  4  1  0  0  0  0
  2 18  1  0  0  0  0
  3 19  1  0  0  0  0
  3 20  1  0  0  0  0
  3 21  1  0  0  0  0
  4 14  2  0  0  0  0
  4  5  1  0  0  0  0
  5  6  1  0  0  0  0
  6  7  2  0  0  0  0
  7  8  1  0  0  0  0
  7 14  1  0  0  0  0
  8 13  1  0  0  0  0
  8  9  1  0  0  0  0
  8 22  1  0  0  0  0
  9 10  1  0  0  0  0
  9 23  1  0  0  0  0
  9 24  1  0  0  0  0
 10 11  1  0  0  0  0
 10 29  1  0  0  0  0
 11 12  1  0  0  0  0
 11 25  1  0  0  0  0
 11 26  1  0  0  0  0
 12 13  1  0  0  0  0
 12 27  1  0  0  0  0
 12 28  1  0  0  0  0
M  CHG  1   5  -1
M  END
> <s_m_source_file>
AV-unprocessed.smi

> <i_m_source_file_index>
3019

> <i_lp_mmshare_version>
43012

> <i_f3d_flags>
0

> <s_epik_input>
W0NIM11bQ0hdKFtDSDNdKWMxbltuSF1jKG4xKVtDQEBIXTJbQ0gyXVtOSF1bQ0gyXVtDSDJdTzI=

> <s_epik_cmdline>
J2VwaWtfcHl0aG9uJywgJy1waCcsICc3LjAnLCAnLXRuJywgJzgnLCAnLW1hJywgJzIwMCcsICctbWV0YWxfYmluZGluZycsICctaW1hZScsICc8aW5maWxlLm1hZT4nLCAnLW9tYWUnLCAnPG91dGZpbGUubWFlPic=

> <r_lp_tautomer_probability>
0.948284

> <r_epik_Ionization_Penalty>
17.5852

> <r_epik_Ionization_Penalty_Charging>
16.0119

> <r_epik_Ionization_Penalty_Neutral>
1.5733

> <r_epik_State_Penalty>
6.64574

> <r_epik_Charging_Adjusted_Penalty>
22.6576

> <i_epik_Tot_Q>
-1

> <i_epik_Tot_abs_Q>
1

> <r_epik_Metal_State_Penalty>
2.89273

> <b_epik_Metal_Only>
1

> <s_lp_Force_Field>
OPLS_2005

> <r_lp_Energy>
9.76828

> <b_lp_Chiralities_Consistent>
1

> <s_lp_Variant>
AV-unprocessed.smi:3019-12

> <Gold.Version>
5.8.1

> <Gold.Id.Protein>
6NUR|6NUR_protein|mol2

> <Gold.PLP.Fitness>
35.3524

> <Gold.PLP.PLP>
-29.6272

> <Gold.PLP.part.hbond>
-2.0000

> <Gold.PLP.part.metal>
0.0000

> <Gold.PLP.part.buried>
-3.7393

> <Gold.PLP.part.nonpolar>
-22.9090

> <Gold.PLP.part.repulsive>
0.0750

> <Gold.PLP.ligand.clash>
0.0000

> <Gold.PLP.ligand.torsion>
0.0770

> <Gold.PLP.Chemscore.Hbond>
1.9357

> <Gold.PLP.Chemscore.CHOScore>
0.0000

> <Gold.PLP.Chemscore.Metal>
0.0000

> <Gold.Chemscore.Hbonds>
donor molecule, donor type, donor heavy atom, donor atom, acceptor molecule, acceptor atom, score
      P1  H  7989  7998       L1    10  0.90
      P1  H  7997  8009       L1     6  0.94

> <Gold.PLP.Chemscore.Internal.Correction>
0.0718

> <Gold.Rescore>
     Score         DG    S(hbond)    S(metal)    S(lipo)     H(rot)  DE(clash)    DE(int)     intcor
     12.62     -13.00       0.97        0.00      63.86       1.24       0.30       0.08       ----

> <Gold.Chemscore.Fitness>
12.6153

> <Gold.Chemscore.DG>
-12.9963

> <Gold.Chemscore.ZeroCoef>
-5.4800

> <Gold.Chemscore.Hbond>
0.9653

> <Gold.Chemscore.Metal>
0.0000

> <Gold.Chemscore.Lipo>
63.8644

> <Gold.Chemscore.Internal_Hbond>
0.0000

> <Gold.Chemscore.DEClash>
0.2993

> <Gold.Chemscore.DEInternal>
0.0816

> <Gold.Chemscore.Rot>
1.2422

> <Gold.Chemscore.Internal.Correction>
   9.000000E+99

> <Gold.Chemscore.Hbonds>
donor molecule, donor type, donor heavy atom, donor atom, acceptor molecule, acceptor atom, score
      P1  H  7989  7998       L1    10  0.12
      P1  H  7997  8009       L1     6  0.37

> <Gold.Chemscore.Hbond.Weighted>
-3.2241

> <Gold.Chemscore.Metal.Weighted>
-0.0000

> <Gold.Chemscore.Lipo.Weighted>
-7.4721

> <Gold.Chemscore.Internal_Hbond.Weighted>
0.0000

> <Gold.Chemscore.DEClash.Weighted>
0.2993

> <Gold.Chemscore.DEInternal.Weighted>
0.0816

> <Gold.Chemscore.Rot.Weighted>
3.1799

> <Gold.Chemscore.Internal.Correction.Weighted>
   9.000000E+99

> <Gold.Protein.RotatedTorsions>
[ 6907 6896 6895 6894 ] final  -26.85 input  -60.11 | X-H torsion
[ 7974 7965 7964 7962 ] final   22.50 input  175.53 | X-H torsion
[ 8008 7997 7996 7995 ] final  161.01 input   59.86 | X-H torsion
[ 10167 10162 10161 10158 ] final  119.25 input  -65.29 | X-H torsion
[ 10718 10713 10712 10709 ] final -158.77 input   66.30 | X-H torsion
[ 10763 10752 10751 10750 ] final -117.27 input  -60.55 | X-H torsion
[ 11005 11000 10999 10996 ] final  -93.03 input  -57.11 | X-H torsion

> <Gold.Protein.ActiveResidues>
 VAL166  LYS551  ARG553  GLY616  TRP617  ASP618  TYR619  PRO620  LYS621  CYS622 
 ASP623  PHE694  ASN695  SER759  ASP760  ASP761  ALA762  ILE779  LEU786  VAL792 
 PHE793  MET794  SER795  GLU796  ALA797  LYS798  CYS799  TRP800  GLU811  SER814 

> <Gold.Protein.RotatedAtoms>
  151.1551  135.0246  159.8685 H   0  0  0  0  0  0  0  0  0  0  0  0  # atno 6907 bound_to 6896
  152.5452  134.1343  159.8462 H   0  0  0  0  0  0  0  0  0  0  0  0  # atno 6908 bound_to 6896
  151.1432  133.4911  159.2629 H   0  0  0  0  0  0  0  0  0  0  0  0  # atno 6909 bound_to 6896
  146.2026  139.7876  142.8750 H   0  0  0  0  0  0  0  0  0  0  0  0  # atno 7974 bound_to 7965
  156.2133  140.1789  156.7646 H   0  0  0  0  0  0  0  0  0  0  0  0  # atno 8008 bound_to 7997
  154.5754  140.0675  156.9056 H   0  0  0  0  0  0  0  0  0  0  0  0  # atno 8009 bound_to 7997
  155.2597  140.3335  155.4277 H   0  0  0  0  0  0  0  0  0  0  0  0  # atno 8010 bound_to 7997
  139.6058  144.7069  151.2956 H   0  0  0  0  0  0  0  0  0  0  0  0  # atno 10167 bound_to 10162
  156.5588  130.8638  151.2803 H   0  0  0  0  0  0  0  0  0  0  0  0  # atno 10718 bound_to 10713
  154.8549  135.4315  154.1953 H   0  0  0  0  0  0  0  0  0  0  0  0  # atno 10763 bound_to 10752
  153.3012  135.6969  153.7207 H   0  0  0  0  0  0  0  0  0  0  0  0  # atno 10764 bound_to 10752
  153.6336  135.3480  155.3024 H   0  0  0  0  0  0  0  0  0  0  0  0  # atno 10765 bound_to 10752
  141.1507  133.7860  157.0103 H   0  0  0  0  0  0  0  0  0  0  0  0  # atno 11005 bound_to 11000
  145.3432  141.0292  143.3380 LP  0  0  0  0  0  0  0  0  0  0  0  0  # atno 17320 bound_to 7965
  144.8717  139.5028  143.6764 LP  0  0  0  0  0  0  0  0  0  0  0  0  # atno 17321 bound_to 7965
  140.7284  143.6937  150.7901 LP  0  0  0  0  0  0  0  0  0  0  0  0  # atno 17342 bound_to 10162
  140.0522  143.5238  152.2668 LP  0  0  0  0  0  0  0  0  0  0  0  0  # atno 17343 bound_to 10162
  157.7373  130.9793  150.2183 LP  0  0  0  0  0  0  0  0  0  0  0  0  # atno 17370 bound_to 10713
  156.2818  130.3734  149.7928 LP  0  0  0  0  0  0  0  0  0  0  0  0  # atno 17371 bound_to 10713
  140.0882  134.9608  157.1734 LP  0  0  0  0  0  0  0  0  0  0  0  0  # atno 17394 bound_to 11000
  140.3482  134.2628  155.7202 LP  0  0  0  0  0  0  0  0  0  0  0  0  # atno 17395 bound_to 11000

$$$$
