AV-unprocessed.smi:2762|AV-procd|sdf|10636|dock2
  -GOLD-   2272015 83D 1   1.00000     0.00000
 Structure written by MMmdl.
 39 40  0  0  0  0  0  0  0  0  1 V2000
  153.1396  138.4416  157.6383 O   0  0  0  0  0  0  0  0  0  0  0  0
  153.0612  138.6670  158.8464 C   0  0  0  0  0  0  0  0  0  0  0  0
  153.5036  137.8214  159.7887 N   0  0  0  0  0  0  0  0  0  0  0  0
  154.1785  136.5523  159.5346 C   0  0  0  0  0  0  0  0  0  0  0  0
  154.5513  135.8362  160.8479 C   0  0  0  0  0  0  0  0  0  0  0  0
  154.2059  136.5505  162.0770 N   0  0  0  0  0  0  0  0  0  0  0  0
  155.2420  137.4946  162.4904 C   0  0  0  0  0  0  0  0  0  0  0  0
  154.8600  138.2282  163.7875 C   0  0  0  0  0  0  0  0  0  0  0  0
  154.6005  137.2778  164.8159 O   0  0  0  0  0  0  0  0  0  0  0  0
  153.5670  136.3622  164.4681 C   0  0  0  0  0  0  0  0  0  0  0  0
  153.9468  135.6240  163.1729 C   0  0  0  0  0  0  0  0  0  0  0  0
  152.5322  139.7738  159.3969 N   0  0  0  0  0  0  0  0  0  0  0  0
  152.0218  140.9237  158.7374 C   0  0  0  0  0  0  0  0  0  0  0  0
  151.9485  142.0874  159.5355 C   0  0  0  0  0  0  0  0  0  0  0  0
  151.4634  143.2897  158.9757 C   0  0  0  0  0  0  0  0  0  0  0  0
  151.3610  144.5638  159.7995 C   0  0  0  0  0  0  0  0  0  0  0  0
  152.0583  145.5414  159.2201 F   0  0  0  0  0  0  0  0  0  0  0  0
  150.0837  144.9350  159.8773 F   0  0  0  0  0  0  0  0  0  0  0  0
  151.8318  144.3885  161.0349 F   0  0  0  0  0  0  0  0  0  0  0  0
  151.0576  143.2818  157.6263 C   0  0  0  0  0  0  0  0  0  0  0  0
  151.1632  142.0804  156.9029 C   0  0  0  0  0  0  0  0  0  0  0  0
  151.6317  140.9349  157.4388 N   0  0  0  0  0  0  0  0  0  0  0  0
  153.3933  138.0887  160.7557 H   0  0  0  0  0  0  0  0  0  0  0  0
  153.4826  135.9244  158.9780 H   0  0  0  0  0  0  0  0  0  0  0  0
  155.0420  136.6826  158.8814 H   0  0  0  0  0  0  0  0  0  0  0  0
  154.0537  134.8654  160.8478 H   0  0  0  0  0  0  0  0  0  0  0  0
  155.6205  135.6190  160.8453 H   0  0  0  0  0  0  0  0  0  0  0  0
  156.1858  136.9678  162.6380 H   0  0  0  0  0  0  0  0  0  0  0  0
  155.4175  138.2348  161.7113 H   0  0  0  0  0  0  0  0  0  0  0  0
  155.6698  138.8854  164.1045 H   0  0  0  0  0  0  0  0  0  0  0  0
  153.9808  138.8551  163.6307 H   0  0  0  0  0  0  0  0  0  0  0  0
  153.4299  135.6521  165.2836 H   0  0  0  0  0  0  0  0  0  0  0  0
  152.6238  136.8969  164.3455 H   0  0  0  0  0  0  0  0  0  0  0  0
  153.1411  134.9423  162.8988 H   0  0  0  0  0  0  0  0  0  0  0  0
  154.8290  135.0079  163.3536 H   0  0  0  0  0  0  0  0  0  0  0  0
  152.5170  139.8091  160.4053 H   0  0  0  0  0  0  0  0  0  0  0  0
  152.2616  142.0552  160.5690 H   0  0  0  0  0  0  0  0  0  0  0  0
  150.6738  144.1747  157.1555 H   0  0  0  0  0  0  0  0  0  0  0  0
  150.8631  142.0373  155.8663 H   0  0  0  0  0  0  0  0  0  0  0  0
  1  2  2  0  0  0  0
  2  3  1  0  0  0  0
  2 12  1  0  0  0  0
  3  4  1  0  0  0  0
  3 23  1  0  0  0  0
  4  5  1  0  0  0  0
  4 24  1  0  0  0  0
  4 25  1  0  0  0  0
  5  6  1  0  0  0  0
  5 26  1  0  0  0  0
  5 27  1  0  0  0  0
  6 11  1  0  0  0  0
  6  7  1  0  0  0  0
  7  8  1  0  0  0  0
  7 28  1  0  0  0  0
  7 29  1  0  0  0  0
  8  9  1  0  0  0  0
  8 30  1  0  0  0  0
  8 31  1  0  0  0  0
  9 10  1  0  0  0  0
 10 11  1  0  0  0  0
 10 32  1  0  0  0  0
 10 33  1  0  0  0  0
 11 34  1  0  0  0  0
 11 35  1  0  0  0  0
 12 13  1  0  0  0  0
 12 36  1  0  0  0  0
 13 22  1  0  0  0  0
 13 14  2  0  0  0  0
 14 15  1  0  0  0  0
 14 37  1  0  0  0  0
 15 16  1  0  0  0  0
 15 20  2  0  0  0  0
 16 17  1  0  0  0  0
 16 18  1  0  0  0  0
 16 19  1  0  0  0  0
 20 21  1  0  0  0  0
 20 38  1  0  0  0  0
 21 22  2  0  0  0  0
 21 39  1  0  0  0  0
M  END
> <s_m_source_file>
AV-unprocessed.smi

> <i_m_source_file_index>
2762

> <i_lp_mmshare_version>
43012

> <i_f3d_flags>
0

> <s_epik_input>
bjFbY0hdW2NIXWMoQyhGKShGKUYpW2NIXWMxW05IXUMoPU8pW05IXVtDSDJdW0NIMl1OMltDSDJdW0NIMl1PW0NIMl1bQ0gyXTI=

> <s_epik_cmdline>
J2VwaWtfcHl0aG9uJywgJy1waCcsICc3LjAnLCAnLXRuJywgJzgnLCAnLW1hJywgJzIwMCcsICctbWV0YWxfYmluZGluZycsICctaW1hZScsICc8aW5maWxlLm1hZT4nLCAnLW9tYWUnLCAnPG91dGZpbGUubWFlPic=

> <r_epik_Ionization_Penalty>
0.266026

> <r_epik_Ionization_Penalty_Charging>
0

> <r_epik_Ionization_Penalty_Neutral>
0.266026

> <r_epik_State_Penalty>
0.257924

> <r_epik_Charging_Adjusted_Penalty>
0.257924

> <i_epik_Tot_Q>
0

> <i_epik_Tot_abs_Q>
0

> <r_epik_Metal_State_Penalty>
0.257924

> <b_epik_Metal_Only>
0

> <s_lp_Force_Field>
OPLS_2005

> <r_lp_Energy>
26.9092

> <b_lp_Chiralities_Consistent>
1

> <s_lp_Variant>
AV-unprocessed.smi:2762-1

> <Gold.Version>
5.8.1

> <Gold.Id.Protein>
6NUR|6NUR_protein|mol2

> <Gold.PLP.Fitness>
41.7609

> <Gold.PLP.PLP>
-40.2527

> <Gold.PLP.part.hbond>
-1.0000

> <Gold.PLP.part.metal>
0.0000

> <Gold.PLP.part.buried>
-6.3126

> <Gold.PLP.part.nonpolar>
-32.6323

> <Gold.PLP.part.repulsive>
0.2544

> <Gold.PLP.ligand.clash>
0.0371

> <Gold.PLP.ligand.torsion>
0.8108

> <Gold.PLP.Chemscore.Hbond>
1.0000

> <Gold.PLP.Chemscore.CHOScore>
0.0000

> <Gold.PLP.Chemscore.Metal>
0.0000

> <Gold.Chemscore.Hbonds>
donor molecule, donor type, donor heavy atom, donor atom, acceptor molecule, acceptor atom, score
      P1  H  7997  8008       L1     1  0.52

> <Gold.PLP.Chemscore.Internal.Correction>
0.1669

> <Gold.Rescore>
     Score         DG    S(hbond)    S(metal)    S(lipo)     H(rot)  DE(clash)    DE(int)     intcor
     12.44     -14.97       0.96        0.00      89.33       1.63       0.50       2.03       ----

> <Gold.Chemscore.Fitness>
12.4414

> <Gold.Chemscore.DG>
-14.9723

> <Gold.Chemscore.ZeroCoef>
-5.4800

> <Gold.Chemscore.Hbond>
0.9593

> <Gold.Chemscore.Metal>
0.0000

> <Gold.Chemscore.Lipo>
89.3337

> <Gold.Chemscore.Internal_Hbond>
0.0000

> <Gold.Chemscore.DEClash>
0.4975

> <Gold.Chemscore.DEInternal>
2.0334

> <Gold.Chemscore.Rot>
1.6265

> <Gold.Chemscore.Internal.Correction>
   9.000000E+99

> <Gold.Chemscore.Hbonds>
donor molecule, donor type, donor heavy atom, donor atom, acceptor molecule, acceptor atom, score
      P1  H  7997  8008       L1     1  0.23

> <Gold.Chemscore.Hbond.Weighted>
-3.2040

> <Gold.Chemscore.Metal.Weighted>
-0.0000

> <Gold.Chemscore.Lipo.Weighted>
-10.4520

> <Gold.Chemscore.Internal_Hbond.Weighted>
0.0000

> <Gold.Chemscore.DEClash.Weighted>
0.4975

> <Gold.Chemscore.DEInternal.Weighted>
2.0334

> <Gold.Chemscore.Rot.Weighted>
4.1638

> <Gold.Chemscore.Internal.Correction.Weighted>
   9.000000E+99

> <Gold.Protein.RotatedTorsions>
[ 6907 6896 6895 6894 ] final  111.72 input  -60.11 | X-H torsion
[ 7974 7965 7964 7962 ] final -168.57 input  175.53 | X-H torsion
[ 8008 7997 7996 7995 ] final  -76.55 input   59.86 | X-H torsion
[ 10167 10162 10161 10158 ] final  -20.52 input  -65.29 | X-H torsion
[ 10718 10713 10712 10709 ] final   78.09 input   66.30 | X-H torsion
[ 10763 10752 10751 10750 ] final  -89.94 input  -60.55 | X-H torsion
[ 11005 11000 10999 10996 ] final  152.49 input  -57.11 | X-H torsion

> <Gold.Protein.ActiveResidues>
 VAL166  LYS551  ARG553  GLY616  TRP617  ASP618  TYR619  PRO620  LYS621  CYS622 
 ASP623  PHE694  ASN695  SER759  ASP760  ASP761  ALA762  ILE779  LEU786  VAL792 
 PHE793  MET794  SER795  GLU796  ALA797  LYS798  CYS799  TRP800  GLU811  SER814 

> <Gold.Protein.RotatedAtoms>
  152.4955  133.8618  159.7253 H   0  0  0  0  0  0  0  0  0  0  0  0  # atno 6907 bound_to 6896
  150.9128  133.6968  159.2857 H   0  0  0  0  0  0  0  0  0  0  0  0  # atno 6908 bound_to 6896
  151.4371  135.1020  159.9712 H   0  0  0  0  0  0  0  0  0  0  0  0  # atno 6909 bound_to 6896
  144.7200  140.2350  143.6299 H   0  0  0  0  0  0  0  0  0  0  0  0  # atno 7974 bound_to 7965
  154.5515  140.0725  156.8676 H   0  0  0  0  0  0  0  0  0  0  0  0  # atno 8008 bound_to 7997
  155.2983  140.3382  155.4231 H   0  0  0  0  0  0  0  0  0  0  0  0  # atno 8009 bound_to 7997
  156.1966  140.1706  156.7972 H   0  0  0  0  0  0  0  0  0  0  0  0  # atno 8010 bound_to 7997
  140.7276  143.4715  151.0240 H   0  0  0  0  0  0  0  0  0  0  0  0  # atno 10167 bound_to 10162
  157.6733  130.9852  150.1736 H   0  0  0  0  0  0  0  0  0  0  0  0  # atno 10718 bound_to 10713
  154.6606  135.5322  153.8013 H   0  0  0  0  0  0  0  0  0  0  0  0  # atno 10763 bound_to 10752
  153.0439  135.6505  154.0878 H   0  0  0  0  0  0  0  0  0  0  0  0  # atno 10764 bound_to 10752
  154.0787  135.2948  155.3274 H   0  0  0  0  0  0  0  0  0  0  0  0  # atno 10765 bound_to 10752
  140.1312  134.8800  157.2206 H   0  0  0  0  0  0  0  0  0  0  0  0  # atno 11005 bound_to 11000
  145.8375  139.2114  143.1847 LP  0  0  0  0  0  0  0  0  0  0  0  0  # atno 17320 bound_to 7965
  146.0376  140.8196  142.9844 LP  0  0  0  0  0  0  0  0  0  0  0  0  # atno 17321 bound_to 7965
  139.8407  143.7567  152.3180 LP  0  0  0  0  0  0  0  0  0  0  0  0  # atno 17342 bound_to 10162
  139.7715  144.7475  151.0218 LP  0  0  0  0  0  0  0  0  0  0  0  0  # atno 17343 bound_to 10162
  156.2485  130.3698  149.8258 LP  0  0  0  0  0  0  0  0  0  0  0  0  # atno 17370 bound_to 10713
  156.6038  130.8558  151.3438 LP  0  0  0  0  0  0  0  0  0  0  0  0  # atno 17371 bound_to 10713
  140.2839  134.3318  155.7335 LP  0  0  0  0  0  0  0  0  0  0  0  0  # atno 17394 bound_to 11000
  141.2170  133.7495  156.9405 LP  0  0  0  0  0  0  0  0  0  0  0  0  # atno 17395 bound_to 11000

$$$$
