AV-unprocessed.smi:313|AV-procd|sdf|2310|dock2
  -GOLD-   2262022213D 1   1.00000     0.00000
 Structure written by MMmdl.
 50 51  0  0  0  0  0  0  0  0  1 V2000
  147.2243  133.9355  162.1906 C   0  0  0  0  0  0  0  0  0  0  0  0
  146.0873  134.9607  162.0658 C   0  0  0  0  0  0  0  0  0  0  0  0
  146.5573  136.3771  161.6778 C   0  0  1  0  0  0  0  0  0  0  0  0
  147.2778  137.0712  162.8418 C   0  0  0  0  0  0  0  0  0  0  0  0
  147.4536  136.3264  160.5245 N   0  0  0  0  0  0  0  0  0  0  0  0
  147.1306  135.9060  159.2912 C   0  0  0  0  0  0  0  0  0  0  0  0
  146.0028  135.5221  158.9772 O   0  0  0  0  0  0  0  0  0  0  0  0
  148.2638  135.9297  158.2535 C   0  0  2  0  0  0  0  0  0  0  0  0
  148.7321  137.3841  158.0822 C   0  0  0  0  0  0  0  0  0  0  0  0
  147.7834  135.4520  156.9581 N   0  0  0  0  0  0  0  0  0  0  0  0
  148.5336  134.8246  156.0363 C   0  0  0  0  0  0  0  0  0  0  0  0
  149.7266  134.5637  156.1944 O   0  0  0  0  0  0  0  0  0  0  0  0
  147.8088  134.3896  154.7957 C   0  0  0  0  0  0  0  0  0  0  0  0
  148.4095  133.5370  153.8439 C   0  0  0  0  0  0  0  0  0  0  0  0
  147.6679  133.1384  152.7155 C   0  0  0  0  0  0  0  0  0  0  0  0
  146.3361  133.5927  152.5672 C   0  0  0  0  0  0  0  0  0  0  0  0
  145.5711  133.1975  151.4481 N   0  0  0  0  0  0  0  0  0  0  0  0
  144.1546  132.9027  151.6579 C   0  0  0  0  0  0  0  0  0  0  0  0
  143.4295  132.7640  150.3088 C   0  0  0  0  0  0  0  0  0  0  0  0
  144.0821  131.7797  149.5141 O   0  0  0  0  0  0  0  0  0  0  0  0
  145.4282  132.1415  149.2256 C   0  0  0  0  0  0  0  0  0  0  0  0
  146.2275  132.2651  150.5344 C   0  0  0  0  0  0  0  0  0  0  0  0
  145.7615  134.4110  153.4831 N   0  0  0  0  0  0  0  0  0  0  0  0
  146.4757  134.7899  154.5641 C   0  0  0  0  0  0  0  0  0  0  0  0
  146.8267  132.9420  162.3982 H   0  0  0  0  0  0  0  0  0  0  0  0
  147.9085  134.1895  163.0004 H   0  0  0  0  0  0  0  0  0  0  0  0
  147.8028  133.8758  161.2686 H   0  0  0  0  0  0  0  0  0  0  0  0
  145.3818  134.6025  161.3152 H   0  0  0  0  0  0  0  0  0  0  0  0
  145.5339  134.9995  163.0051 H   0  0  0  0  0  0  0  0  0  0  0  0
  145.6756  136.9754  161.4414 H   0  0  0  0  0  0  0  0  0  0  0  0
  146.6280  137.1512  163.7135 H   0  0  0  0  0  0  0  0  0  0  0  0
  147.5842  138.0814  162.5677 H   0  0  0  0  0  0  0  0  0  0  0  0
  148.1707  136.5219  163.1422 H   0  0  0  0  0  0  0  0  0  0  0  0
  148.4062  136.6211  160.6825 H   0  0  0  0  0  0  0  0  0  0  0  0
  149.1003  135.3131  158.5891 H   0  0  0  0  0  0  0  0  0  0  0  0
  149.1031  137.7939  159.0226 H   0  0  0  0  0  0  0  0  0  0  0  0
  147.9276  138.0320  157.7310 H   0  0  0  0  0  0  0  0  0  0  0  0
  149.5452  137.4476  157.3584 H   0  0  0  0  0  0  0  0  0  0  0  0
  146.8045  135.5942  156.7562 H   0  0  0  0  0  0  0  0  0  0  0  0
  149.4234  133.1847  153.9671 H   0  0  0  0  0  0  0  0  0  0  0  0
  148.1301  132.5006  151.9770 H   0  0  0  0  0  0  0  0  0  0  0  0
  144.0580  131.9786  152.2296 H   0  0  0  0  0  0  0  0  0  0  0  0
  143.6857  133.6975  152.2397 H   0  0  0  0  0  0  0  0  0  0  0  0
  142.3942  132.4625  150.4682 H   0  0  0  0  0  0  0  0  0  0  0  0
  143.4055  133.7182  149.7795 H   0  0  0  0  0  0  0  0  0  0  0  0
  145.8718  131.3782  148.5863 H   0  0  0  0  0  0  0  0  0  0  0  0
  145.4522  133.0779  148.6659 H   0  0  0  0  0  0  0  0  0  0  0  0
  147.2430  132.5790  150.2984 H   0  0  0  0  0  0  0  0  0  0  0  0
  146.3014  131.2908  151.0192 H   0  0  0  0  0  0  0  0  0  0  0  0
  145.9610  135.4358  155.2608 H   0  0  0  0  0  0  0  0  0  0  0  0
  1  2  1  0  0  0  0
  1 25  1  0  0  0  0
  1 26  1  0  0  0  0
  1 27  1  0  0  0  0
  2  3  1  0  0  0  0
  2 28  1  0  0  0  0
  2 29  1  0  0  0  0
  3  4  1  0  0  0  0
  3  5  1  0  0  0  0
  3 30  1  0  0  0  0
  4 31  1  0  0  0  0
  4 32  1  0  0  0  0
  4 33  1  0  0  0  0
  5  6  1  0  0  0  0
  5 34  1  0  0  0  0
  6  7  2  0  0  0  0
  6  8  1  0  0  0  0
  8  9  1  0  0  0  0
  8 10  1  0  0  0  0
  8 35  1  0  0  0  0
  9 36  1  0  0  0  0
  9 37  1  0  0  0  0
  9 38  1  0  0  0  0
 10 11  1  0  0  0  0
 10 39  1  0  0  0  0
 11 12  2  0  0  0  0
 11 13  1  0  0  0  0
 13 24  1  0  0  0  0
 13 14  2  0  0  0  0
 14 15  1  0  0  0  0
 14 40  1  0  0  0  0
 15 16  2  0  0  0  0
 15 41  1  0  0  0  0
 16 17  1  0  0  0  0
 16 23  1  0  0  0  0
 17 22  1  0  0  0  0
 17 18  1  0  0  0  0
 18 19  1  0  0  0  0
 18 42  1  0  0  0  0
 18 43  1  0  0  0  0
 19 20  1  0  0  0  0
 19 44  1  0  0  0  0
 19 45  1  0  0  0  0
 20 21  1  0  0  0  0
 21 22  1  0  0  0  0
 21 46  1  0  0  0  0
 21 47  1  0  0  0  0
 22 48  1  0  0  0  0
 22 49  1  0  0  0  0
 23 24  2  0  0  0  0
 24 50  1  0  0  0  0
M  END
> <s_m_source_file>
AV-unprocessed.smi

> <i_m_source_file_index>
313

> <i_lp_mmshare_version>
43012

> <i_f3d_flags>
0

> <s_epik_input>
W0NIM11bQ0gyXVtDQEhdKFtDSDNdKVtOSF1DKD1PKVtDQEhdKFtDSDNdKVtOSF1DKD1PKWMxW2NIXVtjSF1jKG5bY0hdMSlOMltDSDJdW0NIMl1PW0NIMl1bQ0gyXTI=

> <s_epik_cmdline>
J2VwaWtfcHl0aG9uJywgJy1waCcsICc3LjAnLCAnLXRuJywgJzgnLCAnLW1hJywgJzIwMCcsICctbWV0YWxfYmluZGluZycsICctaW1hZScsICc8aW5maWxlLm1hZT4nLCAnLW9tYWUnLCAnPG91dGZpbGUubWFlPic=

> <r_lp_tautomer_probability>
1

> <r_epik_Ionization_Penalty>
9.96442e-06

> <r_epik_Ionization_Penalty_Charging>
0

> <r_epik_Ionization_Penalty_Neutral>
9.96442e-06

> <r_epik_State_Penalty>
-0

> <r_epik_Charging_Adjusted_Penalty>
0

> <i_epik_Tot_Q>
0

> <i_epik_Tot_abs_Q>
0

> <r_epik_Metal_State_Penalty>
-0

> <b_epik_Metal_Only>
0

> <s_lp_Force_Field>
OPLS_2005

> <r_lp_Energy>
19.2481

> <b_lp_Chiralities_Consistent>
1

> <s_lp_Variant>
AV-unprocessed.smi:313-2

> <Gold.Version>
5.8.1

> <Gold.Id.Protein>
6NUR|6NUR_protein|mol2

> <Gold.PLP.Fitness>
37.7049

> <Gold.PLP.PLP>
-36.7728

> <Gold.PLP.part.hbond>
-1.0000

> <Gold.PLP.part.metal>
0.0000

> <Gold.PLP.part.buried>
-3.1705

> <Gold.PLP.part.nonpolar>
-33.6341

> <Gold.PLP.part.repulsive>
0.5590

> <Gold.PLP.ligand.clash>
0.0000

> <Gold.PLP.ligand.torsion>
0.8118

> <Gold.PLP.Chemscore.Hbond>
0.7200

> <Gold.PLP.Chemscore.CHOScore>
0.0000

> <Gold.PLP.Chemscore.Metal>
0.0000

> <Gold.Chemscore.Hbonds>
donor molecule, donor type, donor heavy atom, donor atom, acceptor molecule, acceptor atom, score
      P1  H 10785 10796       L1    20  0.69

> <Gold.PLP.Chemscore.Internal.Correction>
0.3958

> <Gold.Rescore>
     Score         DG    S(hbond)    S(metal)    S(lipo)     H(rot)  DE(clash)    DE(int)     intcor
     14.27     -14.93       0.81        0.00      96.93       1.79       0.06       0.60       ----

> <Gold.Chemscore.Fitness>
14.2723

> <Gold.Chemscore.DG>
-14.9318

> <Gold.Chemscore.ZeroCoef>
-5.4800

> <Gold.Chemscore.Hbond>
0.8054

> <Gold.Chemscore.Metal>
0.0000

> <Gold.Chemscore.Lipo>
96.9314

> <Gold.Chemscore.Internal_Hbond>
0.0000

> <Gold.Chemscore.DEClash>
0.0590

> <Gold.Chemscore.DEInternal>
0.6005

> <Gold.Chemscore.Rot>
1.7888

> <Gold.Chemscore.Internal.Correction>
   9.000000E+99

> <Gold.Chemscore.Hbonds>
donor molecule, donor type, donor heavy atom, donor atom, acceptor molecule, acceptor atom, score
      P1  H 10785 10796       L1    20  0.64

> <Gold.Chemscore.Hbond.Weighted>
-2.6901

> <Gold.Chemscore.Metal.Weighted>
-0.0000

> <Gold.Chemscore.Lipo.Weighted>
-11.3410

> <Gold.Chemscore.Internal_Hbond.Weighted>
0.0000

> <Gold.Chemscore.DEClash.Weighted>
0.0590

> <Gold.Chemscore.DEInternal.Weighted>
0.6005

> <Gold.Chemscore.Rot.Weighted>
4.5793

> <Gold.Chemscore.Internal.Correction.Weighted>
   9.000000E+99

> <Gold.Protein.RotatedTorsions>
[ 6907 6896 6895 6894 ] final   93.65 input  -60.11 | X-H torsion
[ 7974 7965 7964 7962 ] final    5.38 input  175.53 | X-H torsion
[ 8008 7997 7996 7995 ] final   40.57 input   59.86 | X-H torsion
[ 10167 10162 10161 10158 ] final -113.95 input  -65.29 | X-H torsion
[ 10718 10713 10712 10709 ] final  103.59 input   66.30 | X-H torsion
[ 10763 10752 10751 10750 ] final   38.59 input  -60.55 | X-H torsion
[ 11005 11000 10999 10996 ] final   38.33 input  -57.11 | X-H torsion

> <Gold.Protein.ActiveResidues>
 VAL166  LYS551  ARG553  GLY616  TRP617  ASP618  TYR619  PRO620  LYS621  CYS622 
 ASP623  PHE694  ASN695  SER759  ASP760  ASP761  ALA762  ILE779  LEU786  VAL792 
 PHE793  MET794  SER795  GLU796  ALA797  LYS798  CYS799  TRP800  GLU811  SER814 

> <Gold.Protein.RotatedAtoms>
  152.5452  134.1315  159.8440 H   0  0  0  0  0  0  0  0  0  0  0  0  # atno 6907 bound_to 6896
  151.1360  133.4997  159.2605 H   0  0  0  0  0  0  0  0  0  0  0  0  # atno 6908 bound_to 6896
  151.1624  135.0290  159.8771 H   0  0  0  0  0  0  0  0  0  0  0  0  # atno 6909 bound_to 6896
  146.2440  140.0393  142.8383 H   0  0  0  0  0  0  0  0  0  0  0  0  # atno 7974 bound_to 7965
  155.2553  140.3355  155.4278 H   0  0  0  0  0  0  0  0  0  0  0  0  # atno 8008 bound_to 7997
  156.2198  140.1804  156.7547 H   0  0  0  0  0  0  0  0  0  0  0  0  # atno 8009 bound_to 7997
  154.5808  140.0654  156.9086 H   0  0  0  0  0  0  0  0  0  0  0  0  # atno 8010 bound_to 7997
  140.1063  143.4567  152.1781 H   0  0  0  0  0  0  0  0  0  0  0  0  # atno 10167 bound_to 10162
  157.6768  131.0782  150.5577 H   0  0  0  0  0  0  0  0  0  0  0  0  # atno 10718 bound_to 10713
  152.9996  135.6245  154.2328 H   0  0  0  0  0  0  0  0  0  0  0  0  # atno 10763 bound_to 10752
  154.2070  135.2801  155.2973 H   0  0  0  0  0  0  0  0  0  0  0  0  # atno 10764 bound_to 10752
  154.5637  135.5697  153.7090 H   0  0  0  0  0  0  0  0  0  0  0  0  # atno 10765 bound_to 10752
  140.2137  134.3724  155.8037 H   0  0  0  0  0  0  0  0  0  0  0  0  # atno 11005 bound_to 11000
  145.1084  140.9390  143.4671 LP  0  0  0  0  0  0  0  0  0  0  0  0  # atno 17320 bound_to 7965
  145.0601  139.3112  143.5885 LP  0  0  0  0  0  0  0  0  0  0  0  0  # atno 17321 bound_to 7965
  139.5643  144.7426  151.4065 LP  0  0  0  0  0  0  0  0  0  0  0  0  # atno 17342 bound_to 10162
  140.6950  143.7770  150.7313 LP  0  0  0  0  0  0  0  0  0  0  0  0  # atno 17343 bound_to 10162
  156.5881  130.4322  149.5948 LP  0  0  0  0  0  0  0  0  0  0  0  0  # atno 17370 bound_to 10713
  156.2606  130.6960  151.1727 LP  0  0  0  0  0  0  0  0  0  0  0  0  # atno 17371 bound_to 10713
  141.2225  133.7157  156.8461 LP  0  0  0  0  0  0  0  0  0  0  0  0  # atno 17394 bound_to 11000
  140.1923  134.8957  157.3074 LP  0  0  0  0  0  0  0  0  0  0  0  0  # atno 17395 bound_to 11000

$$$$
