AV-unprocessed.smi:2124|AV-procd|sdf|8651|dock10
  -GOLD-   2272011403D 1   1.00000     0.00000
 Structure written by MMmdl.
 47 49  0  0  0  0  0  0  0  0  1 V2000
  146.3419  137.8948  152.7039 C   0  0  0  0  0  0  0  0  0  0  0  0
  147.1664  138.9972  153.3344 C   0  0  0  0  0  0  0  0  0  0  0  0
  146.6784  140.1275  153.7275 N   0  0  0  0  0  0  0  0  0  0  0  0
  147.5409  141.0723  154.3012 C   0  0  0  0  0  0  0  0  0  0  0  0
  146.8858  142.3698  154.7433 C   0  0  0  0  0  0  0  0  0  0  0  0
  148.8756  140.8235  154.4514 C   0  0  0  0  0  0  0  0  0  0  0  0
  149.8538  141.8259  155.0648 C   0  0  0  0  0  0  0  0  0  0  0  0
  149.9146  141.8693  156.5948 C   0  0  0  0  0  0  0  0  0  0  0  0
  148.8860  142.0720  157.2388 O   0  0  0  0  0  0  0  0  0  0  0  0
  151.1190  141.6922  157.1608 N   0  0  0  0  0  0  0  0  0  0  0  0
  151.4096  141.7080  158.5919 C   0  0  1  0  0  0  0  0  0  0  0  0
  152.2417  140.4646  158.9430 C   0  0  0  0  0  0  0  0  0  0  0  0
  152.1363  143.0223  158.9628 C   0  0  2  0  0  0  0  0  0  0  0  0
  152.3395  143.2490  160.4780 C   0  0  0  0  0  0  0  0  0  0  0  0
  151.8226  144.6850  160.6871 C   0  0  2  0  0  0  0  0  0  0  0  0
  150.2852  144.6827  160.6068 C   0  0  0  0  0  0  0  0  0  0  0  0
  150.0266  144.4675  159.1048 C   0  0  0  0  0  0  0  0  0  0  0  0
  151.4513  144.3425  158.5257 C   0  0  1  0  0  0  0  0  0  0  0  0
  152.2051  145.3608  159.3752 C   0  0  0  0  0  0  0  0  0  0  0  0
  149.4225  139.5316  153.9941 C   0  0  0  0  0  0  0  0  0  0  0  0
  150.6072  139.2106  154.0725 O   0  0  0  0  0  0  0  0  0  0  0  0
  148.5185  138.6825  153.4563 N   0  0  0  0  0  0  0  0  0  0  0  0
  148.8441  137.7844  153.1296 H   0  0  0  0  0  0  0  0  0  0  0  0
  146.9559  137.0331  152.4385 H   0  0  0  0  0  0  0  0  0  0  0  0
  145.8569  138.2597  151.7983 H   0  0  0  0  0  0  0  0  0  0  0  0
  145.5691  137.5617  153.3970 H   0  0  0  0  0  0  0  0  0  0  0  0
  146.9378  142.4724  155.8273 H   0  0  0  0  0  0  0  0  0  0  0  0
  145.8342  142.4003  154.4557 H   0  0  0  0  0  0  0  0  0  0  0  0
  147.3771  143.2299  154.2898 H   0  0  0  0  0  0  0  0  0  0  0  0
  150.8620  141.6216  154.7059 H   0  0  0  0  0  0  0  0  0  0  0  0
  149.6275  142.8259  154.6917 H   0  0  0  0  0  0  0  0  0  0  0  0
  151.9044  141.5366  156.5454 H   0  0  0  0  0  0  0  0  0  0  0  0
  150.4821  141.6501  159.1630 H   0  0  0  0  0  0  0  0  0  0  0  0
  152.4568  140.4178  160.0105 H   0  0  0  0  0  0  0  0  0  0  0  0
  153.1938  140.4602  158.4115 H   0  0  0  0  0  0  0  0  0  0  0  0
  151.7089  139.5506  158.6782 H   0  0  0  0  0  0  0  0  0  0  0  0
  153.1205  142.9999  158.4904 H   0  0  0  0  0  0  0  0  0  0  0  0
  151.7958  142.5325  161.0951 H   0  0  0  0  0  0  0  0  0  0  0  0
  153.3963  143.1714  160.7365 H   0  0  0  0  0  0  0  0  0  0  0  0
  152.2121  145.1641  161.5856 H   0  0  0  0  0  0  0  0  0  0  0  0
  149.8391  143.9005  161.2221 H   0  0  0  0  0  0  0  0  0  0  0  0
  149.8760  145.6395  160.9328 H   0  0  0  0  0  0  0  0  0  0  0  0
  149.3985  143.6002  158.9046 H   0  0  0  0  0  0  0  0  0  0  0  0
  149.5201  145.3359  158.6817 H   0  0  0  0  0  0  0  0  0  0  0  0
  151.5018  144.5273  157.4523 H   0  0  0  0  0  0  0  0  0  0  0  0
  151.8164  146.3765  159.2816 H   0  0  0  0  0  0  0  0  0  0  0  0
  153.2809  145.3712  159.1904 H   0  0  0  0  0  0  0  0  0  0  0  0
  1  2  1  0  0  0  0
  1 24  1  0  0  0  0
  1 25  1  0  0  0  0
  1 26  1  0  0  0  0
  2 22  1  0  0  0  0
  2  3  2  0  0  0  0
  3  4  1  0  0  0  0
  4  5  1  0  0  0  0
  4  6  2  0  0  0  0
  5 27  1  0  0  0  0
  5 28  1  0  0  0  0
  5 29  1  0  0  0  0
  6  7  1  0  0  0  0
  6 20  1  0  0  0  0
  7  8  1  0  0  0  0
  7 30  1  0  0  0  0
  7 31  1  0  0  0  0
  8  9  2  0  0  0  0
  8 10  1  0  0  0  0
 10 11  1  0  0  0  0
 10 32  1  0  0  0  0
 11 12  1  0  0  0  0
 11 13  1  0  0  0  0
 11 33  1  0  0  0  0
 12 34  1  0  0  0  0
 12 35  1  0  0  0  0
 12 36  1  0  0  0  0
 13 18  1  0  0  0  0
 13 14  1  0  0  0  0
 13 37  1  0  0  0  0
 14 15  1  0  0  0  0
 14 38  1  0  0  0  0
 14 39  1  0  0  0  0
 15 19  1  0  0  0  0
 15 16  1  0  0  0  0
 15 40  1  0  0  0  0
 16 17  1  0  0  0  0
 16 41  1  0  0  0  0
 16 42  1  0  0  0  0
 17 18  1  0  0  0  0
 17 43  1  0  0  0  0
 17 44  1  0  0  0  0
 18 19  1  0  0  0  0
 18 45  1  0  0  0  0
 19 46  1  0  0  0  0
 19 47  1  0  0  0  0
 20 21  2  0  0  0  0
 20 22  1  0  0  0  0
 22 23  1  0  0  0  0
M  END
> <s_m_source_file>
AV-unprocessed.smi

> <i_m_source_file_index>
2124

> <i_lp_mmshare_version>
43012

> <i_f3d_flags>
0

> <s_epik_input>
W0NIM11jMW5jKFtDSDNdKWMoYyg9TylbbkhdMSlbQ0gyXUMoPU8pW05IXVtDQEhdKFtDSDNdKVtDQEhdKFtDSDJdW0NASF0yMylbQ0BIXShbQ0gyXTMpW0NIMl1bQ0gyXTI=

> <s_epik_cmdline>
J2VwaWtfcHl0aG9uJywgJy1waCcsICc3LjAnLCAnLXRuJywgJzgnLCAnLW1hJywgJzIwMCcsICctbWV0YWxfYmluZGluZycsICctaW1hZScsICc8aW5maWxlLm1hZT4nLCAnLW9tYWUnLCAnPG91dGZpbGUubWFlPic=

> <r_lp_tautomer_probability>
0.839158

> <r_epik_Ionization_Penalty>
0.000383628

> <r_epik_Ionization_Penalty_Charging>
0.00035045

> <r_epik_Ionization_Penalty_Neutral>
3.31781e-05

> <r_epik_State_Penalty>
0.09125

> <r_epik_Charging_Adjusted_Penalty>
0.0916005

> <i_epik_Tot_Q>
0

> <i_epik_Tot_abs_Q>
0

> <r_epik_Metal_State_Penalty>
0.255229

> <b_epik_Metal_Only>
0

> <s_lp_Force_Field>
OPLS_2005

> <r_lp_Energy>
53.2281

> <b_lp_Chiralities_Consistent>
1

> <s_lp_Variant>
AV-unprocessed.smi:2124-2

> <Gold.Version>
5.8.1

> <Gold.Id.Protein>
6NUR|6NUR_protein|mol2

> <Gold.PLP.Fitness>
48.7222

> <Gold.PLP.PLP>
-43.7559

> <Gold.PLP.part.hbond>
-3.0000

> <Gold.PLP.part.metal>
0.0000

> <Gold.PLP.part.buried>
0.0676

> <Gold.PLP.part.nonpolar>
-40.6882

> <Gold.PLP.part.repulsive>
0.7437

> <Gold.PLP.ligand.clash>
0.0000

> <Gold.PLP.ligand.torsion>
0.5151

> <Gold.PLP.Chemscore.Hbond>
1.9913

> <Gold.PLP.Chemscore.CHOScore>
0.0000

> <Gold.PLP.Chemscore.Metal>
0.0000

> <Gold.Chemscore.Hbonds>
donor molecule, donor type, donor heavy atom, donor atom, acceptor molecule, acceptor atom, score
      L1  H    22    23       P1  7948  1.00
      P1  H  7989  7998       L1    21  1.00

> <Gold.PLP.Chemscore.Internal.Correction>
0.0227

> <Gold.Rescore>
     Score         DG    S(hbond)    S(metal)    S(lipo)     H(rot)  DE(clash)    DE(int)     intcor
     19.22     -19.79       1.31        0.00     121.15       1.65       0.13       0.45       ----

> <Gold.Chemscore.Fitness>
19.2230

> <Gold.Chemscore.DG>
-19.7941

> <Gold.Chemscore.ZeroCoef>
-5.4800

> <Gold.Chemscore.Hbond>
1.3090

> <Gold.Chemscore.Metal>
0.0000

> <Gold.Chemscore.Lipo>
121.1512

> <Gold.Chemscore.Internal_Hbond>
0.0000

> <Gold.Chemscore.DEClash>
0.1256

> <Gold.Chemscore.DEInternal>
0.4455

> <Gold.Chemscore.Rot>
1.6534

> <Gold.Chemscore.Internal.Correction>
   9.000000E+99

> <Gold.Chemscore.Hbonds>
donor molecule, donor type, donor heavy atom, donor atom, acceptor molecule, acceptor atom, score
      L1  H    22    23       P1  7948  0.96
      P1  H  7989  7998       L1    21  0.47

> <Gold.Chemscore.Hbond.Weighted>
-4.3720

> <Gold.Chemscore.Metal.Weighted>
-0.0000

> <Gold.Chemscore.Lipo.Weighted>
-14.1747

> <Gold.Chemscore.Internal_Hbond.Weighted>
0.0000

> <Gold.Chemscore.DEClash.Weighted>
0.1256

> <Gold.Chemscore.DEInternal.Weighted>
0.4455

> <Gold.Chemscore.Rot.Weighted>
4.2326

> <Gold.Chemscore.Internal.Correction.Weighted>
   9.000000E+99

> <Gold.Protein.RotatedTorsions>
[ 6907 6896 6895 6894 ] final -112.13 input  -60.11 | X-H torsion
[ 7974 7965 7964 7962 ] final   43.05 input  175.53 | X-H torsion
[ 8008 7997 7996 7995 ] final  154.99 input   59.86 | X-H torsion
[ 10167 10162 10161 10158 ] final -169.03 input  -65.29 | X-H torsion
[ 10718 10713 10712 10709 ] final  150.64 input   66.30 | X-H torsion
[ 10763 10752 10751 10750 ] final   -4.52 input  -60.55 | X-H torsion
[ 11005 11000 10999 10996 ] final  140.33 input  -57.11 | X-H torsion

> <Gold.Protein.ActiveResidues>
 VAL166  LYS551  ARG553  GLY616  TRP617  ASP618  TYR619  PRO620  LYS621  CYS622 
 ASP623  PHE694  ASN695  SER759  ASP760  ASP761  ALA762  ILE779  LEU786  VAL792 
 PHE793  MET794  SER795  GLU796  ALA797  LYS798  CYS799  TRP800  GLU811  SER814 

> <Gold.Protein.RotatedAtoms>
  150.7737  133.9134  159.3376 H   0  0  0  0  0  0  0  0  0  0  0  0  # atno 6907 bound_to 6896
  151.7014  135.0927  160.0261 H   0  0  0  0  0  0  0  0  0  0  0  0  # atno 6908 bound_to 6896
  152.3765  133.6450  159.6163 H   0  0  0  0  0  0  0  0  0  0  0  0  # atno 6909 bound_to 6896
  146.0688  139.5230  142.9611 H   0  0  0  0  0  0  0  0  0  0  0  0  # atno 7974 bound_to 7965
  156.2502  140.1952  156.6731 H   0  0  0  0  0  0  0  0  0  0  0  0  # atno 8008 bound_to 7997
  154.6378  140.0587  156.9835 H   0  0  0  0  0  0  0  0  0  0  0  0  # atno 8009 bound_to 7997
  155.1610  140.3260  155.4414 H   0  0  0  0  0  0  0  0  0  0  0  0  # atno 8010 bound_to 7997
  139.5948  144.1136  152.1676 H   0  0  0  0  0  0  0  0  0  0  0  0  # atno 10167 bound_to 10162
  157.2809  131.0835  151.1532 H   0  0  0  0  0  0  0  0  0  0  0  0  # atno 10718 bound_to 10713
  153.3860  135.7000  153.6530 H   0  0  0  0  0  0  0  0  0  0  0  0  # atno 10763 bound_to 10752
  153.5122  135.3629  155.2592 H   0  0  0  0  0  0  0  0  0  0  0  0  # atno 10764 bound_to 10752
  154.8697  135.4137  154.3168 H   0  0  0  0  0  0  0  0  0  0  0  0  # atno 10765 bound_to 10752
  140.0320  134.9347  157.0680 H   0  0  0  0  0  0  0  0  0  0  0  0  # atno 11005 bound_to 11000
  145.6428  141.0280  143.1802 LP  0  0  0  0  0  0  0  0  0  0  0  0  # atno 17320 bound_to 7965
  144.7219  139.8002  143.7379 LP  0  0  0  0  0  0  0  0  0  0  0  0  # atno 17321 bound_to 7965
  140.0718  144.5773  150.7186 LP  0  0  0  0  0  0  0  0  0  0  0  0  # atno 17342 bound_to 10162
  140.7203  143.2582  151.4301 LP  0  0  0  0  0  0  0  0  0  0  0  0  # atno 17343 bound_to 10162
  157.2967  130.6822  149.6142 LP  0  0  0  0  0  0  0  0  0  0  0  0  # atno 17370 bound_to 10713
  155.9664  130.4404  150.5300 LP  0  0  0  0  0  0  0  0  0  0  0  0  # atno 17371 bound_to 10713
  140.4211  134.1880  155.7164 LP  0  0  0  0  0  0  0  0  0  0  0  0  # atno 17394 bound_to 11000
  141.1836  133.8361  157.1169 LP  0  0  0  0  0  0  0  0  0  0  0  0  # atno 17395 bound_to 11000

$$$$
