AV-unprocessed.smi:1891|AV-procd|sdf|7667|dock1
  -GOLD-   22720 9403D 1   1.00000     0.00000
 Structure written by MMmdl.
 37 39  0  0  0  0  0  0  0  0  2 V2000
  151.8759  136.8324  154.0709 O   0  0  0  0  0  0  0  0  0  0  0  0
  151.8676  138.0787  154.7303 C   0  0  0  0  0  0  0  0  0  0  0  0
  150.5972  138.8321  154.5042 C   0  0  0  0  0  0  0  0  0  0  0  0
  149.5685  138.4194  153.7107 N   0  3  0  0  0  0  0  0  0  0  0  0
  148.5505  139.3734  153.7188 C   0  0  0  0  0  0  0  0  0  0  0  0
  147.3202  139.3999  153.0693 C   0  0  0  0  0  0  0  0  0  0  0  0
  146.5116  140.5338  153.2920 C   0  0  0  0  0  0  0  0  0  0  0  0
  146.9346  141.5841  154.1326 C   0  0  0  0  0  0  0  0  0  0  0  0
  148.1845  141.5459  154.7853 C   0  0  0  0  0  0  0  0  0  0  0  0
  148.9778  140.4212  154.5592 C   0  0  0  0  0  0  0  0  0  0  0  0
  150.2452  140.0472  155.0198 N   0  0  0  0  0  0  0  0  0  0  0  0
  150.9688  140.9594  155.9201 C   0  0  0  0  0  0  0  0  0  0  0  0
  151.0291  140.4469  157.3730 C   0  0  2  0  0  0  0  0  0  0  0  0
  149.8268  139.7725  157.6934 O   0  0  0  0  0  0  0  0  0  0  0  0
  151.3487  141.5805  158.3384 C   0  0  0  0  0  0  0  0  0  0  0  0
  150.5886  142.7722  158.3313 C   0  0  0  0  0  0  0  0  0  0  0  0
  150.9004  143.8205  159.2183 C   0  0  0  0  0  0  0  0  0  0  0  0
  151.9777  143.6885  160.1145 C   0  0  0  0  0  0  0  0  0  0  0  0
  152.2793  144.6976  160.9655 F   0  0  0  0  0  0  0  0  0  0  0  0
  152.7440  142.5077  160.1221 C   0  0  0  0  0  0  0  0  0  0  0  0
  152.4330  141.4571  159.2368 C   0  0  0  0  0  0  0  0  0  0  0  0
  153.1867  140.3311  159.2489 F   0  0  0  0  0  0  0  0  0  0  0  0
  151.3659  136.9074  153.2787 H   0  0  0  0  0  0  0  0  0  0  0  0
  151.9993  137.9124  155.7998 H   0  0  0  0  0  0  0  0  0  0  0  0
  152.7219  138.6655  154.3956 H   0  0  0  0  0  0  0  0  0  0  0  0
  146.9943  138.5971  152.4244 H   0  0  0  0  0  0  0  0  0  0  0  0
  145.5478  140.5998  152.8081 H   0  0  0  0  0  0  0  0  0  0  0  0
  146.2880  142.4371  154.2789 H   0  0  0  0  0  0  0  0  0  0  0  0
  148.5004  142.3566  155.4254 H   0  0  0  0  0  0  0  0  0  0  0  0
  151.9723  141.1098  155.5200 H   0  0  0  0  0  0  0  0  0  0  0  0
  150.4824  141.9337  155.8821 H   0  0  0  0  0  0  0  0  0  0  0  0
  151.8203  139.7013  157.4547 H   0  0  0  0  0  0  0  0  0  0  0  0
  149.5699  140.0172  158.5694 H   0  0  0  0  0  0  0  0  0  0  0  0
  149.7645  142.8923  157.6432 H   0  0  0  0  0  0  0  0  0  0  0  0
  150.3141  144.7277  159.2084 H   0  0  0  0  0  0  0  0  0  0  0  0
  153.5742  142.4085  160.8057 H   0  0  0  0  0  0  0  0  0  0  0  0
  149.5710  137.5488  153.1955 H   0  0  0  0  0  0  0  0  0  0  0  0
  1  2  1  0  0  0  0
  1 23  1  0  0  0  0
  2  3  1  0  0  0  0
  2 24  1  0  0  0  0
  2 25  1  0  0  0  0
  3 11  1  0  0  0  0
  3  4  2  0  0  0  0
  4  5  1  0  0  0  0
  4 37  1  0  0  0  0
  5 10  2  0  0  0  0
  5  6  1  0  0  0  0
  6  7  2  0  0  0  0
  6 26  1  0  0  0  0
  7  8  1  0  0  0  0
  7 27  1  0  0  0  0
  8  9  2  0  0  0  0
  8 28  1  0  0  0  0
  9 10  1  0  0  0  0
  9 29  1  0  0  0  0
 10 11  1  0  0  0  0
 11 12  1  0  0  0  0
 12 13  1  0  0  0  0
 12 30  1  0  0  0  0
 12 31  1  0  0  0  0
 13 14  1  0  0  0  0
 13 15  1  0  0  0  0
 13 32  1  0  0  0  0
 14 33  1  0  0  0  0
 15 21  1  0  0  0  0
 15 16  2  0  0  0  0
 16 17  1  0  0  0  0
 16 34  1  0  0  0  0
 17 18  2  0  0  0  0
 17 35  1  0  0  0  0
 18 19  1  0  0  0  0
 18 20  1  0  0  0  0
 20 21  2  0  0  0  0
 20 36  1  0  0  0  0
 21 22  1  0  0  0  0
M  CHG  1   4   1
M  END
> <s_m_source_file>
AV-unprocessed.smi

> <i_m_source_file_index>
1891

> <i_lp_mmshare_version>
43012

> <i_f3d_flags>
0

> <s_epik_input>
W2NIXTFbY0hdW2NIXVtjSF1jKGMxMiluKGMobjIpW0NIMl1bT0hdKVtDSDJdW0NASF0oW09IXSljM1tjSF1bY0hdYyhGKVtjSF1jM0Y=

> <s_epik_cmdline>
J2VwaWtfcHl0aG9uJywgJy1waCcsICc3LjAnLCAnLXRuJywgJzgnLCAnLW1hJywgJzIwMCcsICctbWV0YWxfYmluZGluZycsICctaW1hZScsICc8aW5maWxlLm1hZT4nLCAnLW9tYWUnLCAnPG91dGZpbGUubWFlPic=

> <r_epik_Ionization_Penalty>
1.35643

> <r_epik_Ionization_Penalty_Charging>
1.35557

> <r_epik_Ionization_Penalty_Neutral>
0.00085758

> <r_epik_State_Penalty>
1.43401

> <r_epik_Charging_Adjusted_Penalty>
2.78958

> <i_epik_Tot_Q>
1

> <i_epik_Tot_abs_Q>
1

> <r_epik_Metal_State_Penalty>
5.47166

> <b_epik_Metal_Only>
0

> <s_lp_Force_Field>
OPLS_2005

> <r_lp_Energy>
14.1828

> <b_lp_Chiralities_Consistent>
1

> <s_lp_Variant>
AV-unprocessed.smi:1891-3

> <Gold.Version>
5.8.1

> <Gold.Id.Protein>
6NUR|6NUR_protein|mol2

> <Gold.PLP.Fitness>
59.7144

> <Gold.PLP.PLP>
-49.2789

> <Gold.PLP.part.hbond>
-4.0000

> <Gold.PLP.part.metal>
0.0000

> <Gold.PLP.part.buried>
2.3272

> <Gold.PLP.part.nonpolar>
-47.4071

> <Gold.PLP.part.repulsive>
0.0757

> <Gold.PLP.ligand.clash>
0.0000

> <Gold.PLP.ligand.torsion>
0.5220

> <Gold.PLP.Chemscore.Hbond>
3.8000

> <Gold.PLP.Chemscore.CHOScore>
0.0000

> <Gold.PLP.Chemscore.Metal>
0.0000

> <Gold.Chemscore.Hbonds>
donor molecule, donor type, donor heavy atom, donor atom, acceptor molecule, acceptor atom, score
      L1  H     1    23       P1  7949  0.78
      L1  H     4    37       P1  7948  2.00
      P1  H 10752 10763       L1     1  1.00

> <Gold.PLP.Chemscore.Internal.Correction>
0.0795

> <Gold.Rescore>
     Score         DG    S(hbond)    S(metal)    S(lipo)     H(rot)  DE(clash)    DE(int)     intcor
     16.23     -19.44       2.25        0.00     119.48       2.95       2.83       0.38       ----

> <Gold.Chemscore.Fitness>
16.2260

> <Gold.Chemscore.DG>
-19.4406

> <Gold.Chemscore.ZeroCoef>
-5.4800

> <Gold.Chemscore.Hbond>
2.2538

> <Gold.Chemscore.Metal>
0.0000

> <Gold.Chemscore.Lipo>
119.4758

> <Gold.Chemscore.Internal_Hbond>
0.0000

> <Gold.Chemscore.DEClash>
2.8300

> <Gold.Chemscore.DEInternal>
0.3846

> <Gold.Chemscore.Rot>
2.9475

> <Gold.Chemscore.Internal.Correction>
   9.000000E+99

> <Gold.Chemscore.Hbonds>
donor molecule, donor type, donor heavy atom, donor atom, acceptor molecule, acceptor atom, score
      L1  H     1    23       P1  7949  0.58
      L1  H     4    37       P1  7948  0.81
      P1  H 10752 10763       L1     1  0.93

> <Gold.Chemscore.Hbond.Weighted>
-7.5276

> <Gold.Chemscore.Metal.Weighted>
-0.0000

> <Gold.Chemscore.Lipo.Weighted>
-13.9787

> <Gold.Chemscore.Internal_Hbond.Weighted>
0.0000

> <Gold.Chemscore.DEClash.Weighted>
2.8300

> <Gold.Chemscore.DEInternal.Weighted>
0.3846

> <Gold.Chemscore.Rot.Weighted>
7.5457

> <Gold.Chemscore.Internal.Correction.Weighted>
   9.000000E+99

> <Gold.Protein.RotatedTorsions>
[ 6907 6896 6895 6894 ] final -103.10 input  -60.11 | X-H torsion
[ 7974 7965 7964 7962 ] final  -16.40 input  175.53 | X-H torsion
[ 8008 7997 7996 7995 ] final  164.80 input   59.86 | X-H torsion
[ 10167 10162 10161 10158 ] final  -78.28 input  -65.29 | X-H torsion
[ 10718 10713 10712 10709 ] final  -75.94 input   66.30 | X-H torsion
[ 10763 10752 10751 10750 ] final   33.28 input  -60.55 | X-H torsion
[ 11005 11000 10999 10996 ] final   24.49 input  -57.11 | X-H torsion

> <Gold.Protein.ActiveResidues>
 VAL166  LYS551  ARG553  GLY616  TRP617  ASP618  TYR619  PRO620  LYS621  CYS622 
 ASP623  PHE694  ASN695  SER759  ASP760  ASP761  ALA762  ILE779  LEU786  VAL792 
 PHE793  MET794  SER795  GLU796  ALA797  LYS798  CYS799  TRP800  GLU811  SER814 

> <Gold.Protein.RotatedAtoms>
  150.7225  134.0481  159.3788 H   0  0  0  0  0  0  0  0  0  0  0  0  # atno 6907 bound_to 6896
  151.8456  135.0573  160.0462 H   0  0  0  0  0  0  0  0  0  0  0  0  # atno 6908 bound_to 6896
  152.2829  133.5451  159.5545 H   0  0  0  0  0  0  0  0  0  0  0  0  # atno 6909 bound_to 6896
  146.1989  140.3630  142.8430 H   0  0  0  0  0  0  0  0  0  0  0  0  # atno 7974 bound_to 7965
  156.1851  140.1687  156.8200 H   0  0  0  0  0  0  0  0  0  0  0  0  # atno 8008 bound_to 7997
  154.5405  140.0737  156.8534 H   0  0  0  0  0  0  0  0  0  0  0  0  # atno 8009 bound_to 7997
  155.3224  140.3374  155.4243 H   0  0  0  0  0  0  0  0  0  0  0  0  # atno 8010 bound_to 7997
  140.4696  143.2430  151.8225 H   0  0  0  0  0  0  0  0  0  0  0  0  # atno 10167 bound_to 10162
  156.0191  130.4453  150.3118 H   0  0  0  0  0  0  0  0  0  0  0  0  # atno 10718 bound_to 10713
  153.0220  135.6391  154.1487 H   0  0  0  0  0  0  0  0  0  0  0  0  # atno 10763 bound_to 10752
  154.1220  135.2846  155.3208 H   0  0  0  0  0  0  0  0  0  0  0  0  # atno 10764 bound_to 10752
  154.6256  135.5510  153.7686 H   0  0  0  0  0  0  0  0  0  0  0  0  # atno 10765 bound_to 10752
  140.3581  134.2155  155.7674 H   0  0  0  0  0  0  0  0  0  0  0  0  # atno 11005 bound_to 11000
  144.8640  140.7180  143.6089 LP  0  0  0  0  0  0  0  0  0  0  0  0  # atno 17320 bound_to 7965
  145.3550  139.1696  143.4414 LP  0  0  0  0  0  0  0  0  0  0  0  0  # atno 17321 bound_to 7965
  139.4816  144.4908  151.9187 LP  0  0  0  0  0  0  0  0  0  0  0  0  # atno 17342 bound_to 10162
  140.3993  144.2513  150.5894 LP  0  0  0  0  0  0  0  0  0  0  0  0  # atno 17343 bound_to 10162
  157.1219  131.0249  151.3005 LP  0  0  0  0  0  0  0  0  0  0  0  0  # atno 17370 bound_to 10713
  157.4621  130.7659  149.7245 LP  0  0  0  0  0  0  0  0  0  0  0  0  # atno 17371 bound_to 10713
  141.1992  133.8017  157.0546 LP  0  0  0  0  0  0  0  0  0  0  0  0  # atno 17394 bound_to 11000
  140.0648  134.9735  157.1368 LP  0  0  0  0  0  0  0  0  0  0  0  0  # atno 17395 bound_to 11000

$$$$
