#       Name:                AV-unprocessed.smi:528
#       Creating user name   scv26
#       Creation time:       Thu Mar 26 23:32:38 2020


#       File generated by GOLD software.
#

@<TRIPOS>MOLECULE
AV-unprocessed.smi:528
    49    51     1
SMALL
NO_CHARGES


@<TRIPOS>ATOM
      1 ****        -1.7921   0.0315   3.1643 C.3            1 S1                 0.0000
      2 ****        -1.4088   0.0333   1.6750 C.3            1 S1                 0.0000
      3 ****         0.0228  -0.2462   1.5715 N.am           1 S1                 0.0000
      4 ****         0.9506   0.5650   1.0401 C.2            1 S1                 0.0000
      5 ****         0.7055   1.6943   0.6144 O.2            1 S1                 0.0000
      6 ****         2.3797   0.0094   0.9892 C.3            1 S1                 0.0000
      7 ****         3.0978   0.4042  -0.2341 N.am           1 S1                 0.0000
      8 ****         4.0320   1.4533  -0.1240 C.2            1 S1                 0.0000
      9 ****         4.7404   1.9167  -1.1718 C.2            1 S1                 0.0000
     10 ****         5.7814   3.0141  -1.0129 C.3            1 S1                 0.0000
     11 ****         6.7623   2.8766  -1.9052 F              1 S1                 0.0000
     12 ****         5.2152   4.2056  -1.1995 F              1 S1                 0.0000
     13 ****         6.3196   2.9962   0.2071 F              1 S1                 0.0000
     14 ****         4.5212   1.2542  -2.4426 C.2            1 S1                 0.0000
     15 ****         3.6366   0.2451  -2.5639 C.2            1 S1                 0.0000
     16 ****         2.8570  -0.2328  -1.4198 C.2            1 S1                 0.0000
     17 ****         2.0398  -1.1488  -1.5201 O.2            1 S1                 0.0000
     18 ****        -2.2017  -1.0089   0.8457 C.3            1 S1                 0.0000
     19 ****        -1.7911  -1.0676  -0.6487 C.3            1 S1                 0.0000
     20 ****        -3.1268  -0.8988  -1.3923 C.3            1 S1                 0.0000
     21 ****        -3.9946  -2.1539  -1.1892 C.3            1 S1                 0.0000
     22 ****        -4.4330  -2.0259   0.2815 C.3            1 S1                 0.0000
     23 ****        -3.7237  -0.7359   0.7378 C.3            1 S1                 0.0000
     24 ****        -3.8331   0.1263  -0.5160 C.3            1 S1                 0.0000
     25 ****        -2.8310   0.3211   3.3169 H              1 S1                 0.0000
     26 ****        -1.1796   0.7390   3.7246 H              1 S1                 0.0000
     27 ****        -1.6515  -0.9536   3.6104 H              1 S1                 0.0000
     28 ****        -1.6246   1.0272   1.2800 H              1 S1                 0.0000
     29 ****         0.3274  -1.1510   1.8999 H              1 S1                 0.0000
     30 ****         2.9071   0.3516   1.8804 H              1 S1                 0.0000
     31 ****         2.3590  -1.0793   1.0693 H              1 S1                 0.0000
     32 ****         4.1347   1.8624   0.8706 H              1 S1                 0.0000
     33 ****         5.0711   1.5765  -3.3145 H              1 S1                 0.0000
     34 ****         3.4960  -0.2228  -3.5273 H              1 S1                 0.0000
     35 ****        -2.0410  -1.9876   1.3012 H              1 S1                 0.0000
     36 ****        -1.1225  -0.2487  -0.9170 H              1 S1                 0.0000
     37 ****        -1.2861  -1.9999  -0.9040 H              1 S1                 0.0000
     38 ****        -3.0109  -0.6108  -2.4375 H              1 S1                 0.0000
     39 ****        -4.8614  -2.1403  -1.8511 H              1 S1                 0.0000
     40 ****        -3.4400  -3.0734  -1.3802 H              1 S1                 0.0000
     41 ****        -5.5160  -1.9150   0.3486 H              1 S1                 0.0000
     42 ****        -4.1511  -2.8938   0.8789 H              1 S1                 0.0000
     43 ****        -4.1755  -0.3012   1.6283 H              1 S1                 0.0000
     44 ****        -3.2997   1.0754  -0.4423 H              1 S1                 0.0000
     45 ****        -4.8633   0.3188  -0.8207 H              1 S1                 0.0000
     46 ****        -0.2274   2.0521   0.6543 LP             1 S1                 0.0000
     47 ****         1.4395   2.2535   0.2288 LP             1 S1                 0.0000
     48 ****         1.5256  -1.4503  -0.7172 LP             1 S1                 0.0000
     49 ****         1.8906  -1.5911  -2.4045 LP             1 S1                 0.0000
@<TRIPOS>BOND
    1    1    2 1     
    2    1   25 1     
    3    1   26 1     
    4    1   27 1     
    5    2    3 1     
    6    2   18 1     
    7    2   28 1     
    8    3    4 am    
    9    3   29 1     
   10    4    5 2     
   11    4    6 1     
   12    6    7 1     
   13    6   30 1     
   14    6   31 1     
   15    7   16 am    
   16    7    8 1     
   17    8    9 2     
   18    8   32 1     
   19    9   10 1     
   20    9   14 1     
   21   10   11 1     
   22   10   12 1     
   23   10   13 1     
   24   14   15 2     
   25   14   33 1     
   26   15   16 1     
   27   15   34 1     
   28   16   17 2     
   29   18   23 1     
   30   18   19 1     
   31   18   35 1     
   32   19   20 1     
   33   19   36 1     
   34   19   37 1     
   35   20   24 1     
   36   20   21 1     
   37   20   38 1     
   38   21   22 1     
   39   21   39 1     
   40   21   40 1     
   41   22   23 1     
   42   22   41 1     
   43   22   42 1     
   44   23   24 1     
   45   23   43 1     
   46   24   44 1     
   47   24   45 1     
   48    5   46 1     
   49    5   47 1     
   50   17   48 1     
   51   17   49 1     
@<TRIPOS>SUBSTRUCTURE
      1 S1             1
@<TRIPOS>SET
LONE_PAIRS      STATIC     ATOMS    <user>   **** ""
4 46 47 48 49
DONOR_HYDROGENS      STATIC     ATOMS    <user>   **** ""
1 29
ATOM$BLUE        STATIC     ATOMS    COLORGROUP SYSTEM
4 46 47 48 49
ATOM$RED        STATIC     ATOMS    COLORGROUP SYSTEM
1 29
