AV-unprocessed.smi:2121|AV-procd|sdf|8641|dock2
  -GOLD-   2272011393D 1   1.00000     0.00000
 Structure written by MMmdl.
 49 50  0  0  0  0  0  0  0  0  1 V2000
  151.0869  145.2908  159.3015 C   0  0  0  0  0  0  0  0  0  0  0  0
  152.0033  144.0759  159.1230 C   0  0  2  0  0  0  0  0  0  0  0  0
  151.3705  143.0025  158.2173 C   0  0  0  0  0  0  0  0  0  0  0  0
  152.2179  141.8143  158.1652 N   0  0  0  0  0  0  0  0  0  0  0  0
  151.8934  140.8782  157.1595 C   0  0  0  0  0  0  0  0  0  0  0  0
  150.7862  141.1046  156.3080 C   0  0  0  0  0  0  0  0  0  0  0  0
  150.4764  140.1551  155.3160 C   0  0  0  0  0  0  0  0  0  0  0  0
  151.2776  139.0000  155.1991 C   0  0  0  0  0  0  0  0  0  0  0  0
  151.0055  137.9294  154.1515 C   0  0  0  0  0  0  0  0  0  0  0  0
  149.6080  137.5194  154.0612 N   0  0  0  0  0  0  0  0  0  0  0  0
  148.8184  137.2478  155.1114 C   0  0  0  0  0  0  0  0  0  0  0  0
  149.2025  137.3194  156.2802 O   0  0  0  0  0  0  0  0  0  0  0  0
  147.3667  136.8631  154.7847 C   0  0  2  0  0  0  0  0  0  0  0  0
  147.1480  135.4093  155.2358 C   0  0  0  0  0  0  0  0  0  0  0  0
  147.1234  136.9337  153.3446 N   0  0  0  0  0  0  0  0  0  0  0  0
  146.1328  137.6273  152.7648 C   0  0  0  0  0  0  0  0  0  0  0  0
  146.1588  137.5339  151.4352 N   0  0  0  0  0  0  0  0  0  0  0  0
  145.2894  138.2813  153.3750 O   0  0  0  0  0  0  0  0  0  0  0  0
  152.3678  138.8659  156.0815 C   0  0  0  0  0  0  0  0  0  0  0  0
  152.6705  139.7740  157.0328 N   0  0  0  0  0  0  0  0  0  0  0  0
  152.5753  141.3037  159.4869 C   0  0  0  0  0  0  0  0  0  0  0  0
  153.1757  142.4260  160.3536 C   0  0  2  0  0  0  0  0  0  0  0  0
  153.4549  141.9598  161.7861 C   0  0  0  0  0  0  0  0  0  0  0  0
  152.2587  143.5153  160.4080 O   0  0  0  0  0  0  0  0  0  0  0  0
  150.8704  145.7630  158.3429 H   0  0  0  0  0  0  0  0  0  0  0  0
  151.5528  146.0393  159.9427 H   0  0  0  0  0  0  0  0  0  0  0  0
  150.1380  145.0061  159.7567 H   0  0  0  0  0  0  0  0  0  0  0  0
  152.9452  144.4144  158.6872 H   0  0  0  0  0  0  0  0  0  0  0  0
  150.3908  142.7156  158.6023 H   0  0  0  0  0  0  0  0  0  0  0  0
  151.2088  143.4248  157.2266 H   0  0  0  0  0  0  0  0  0  0  0  0
  150.1834  141.9962  156.3940 H   0  0  0  0  0  0  0  0  0  0  0  0
  149.6364  140.3201  154.6573 H   0  0  0  0  0  0  0  0  0  0  0  0
  151.3092  138.3181  153.1795 H   0  0  0  0  0  0  0  0  0  0  0  0
  151.6305  137.0555  154.3437 H   0  0  0  0  0  0  0  0  0  0  0  0
  149.2131  137.4371  153.1354 H   0  0  0  0  0  0  0  0  0  0  0  0
  146.6726  137.5199  155.3129 H   0  0  0  0  0  0  0  0  0  0  0  0
  147.3122  135.2985  156.3085 H   0  0  0  0  0  0  0  0  0  0  0  0
  147.8198  134.7185  154.7236 H   0  0  0  0  0  0  0  0  0  0  0  0
  146.1266  135.0877  155.0302 H   0  0  0  0  0  0  0  0  0  0  0  0
  147.7688  136.4347  152.7505 H   0  0  0  0  0  0  0  0  0  0  0  0
  145.4645  138.0093  150.8780 H   0  0  0  0  0  0  0  0  0  0  0  0
  146.8777  136.9821  150.9899 H   0  0  0  0  0  0  0  0  0  0  0  0
  153.0170  138.0048  156.0260 H   0  0  0  0  0  0  0  0  0  0  0  0
  151.6853  140.8927  159.9657 H   0  0  0  0  0  0  0  0  0  0  0  0
  153.2997  140.4936  159.3925 H   0  0  0  0  0  0  0  0  0  0  0  0
  154.1133  142.7691  159.9125 H   0  0  0  0  0  0  0  0  0  0  0  0
  154.1642  141.1319  161.7978 H   0  0  0  0  0  0  0  0  0  0  0  0
  152.5409  141.6253  162.2776 H   0  0  0  0  0  0  0  0  0  0  0  0
  153.8776  142.7680  162.3833 H   0  0  0  0  0  0  0  0  0  0  0  0
  1  2  1  0  0  0  0
  1 25  1  0  0  0  0
  1 26  1  0  0  0  0
  1 27  1  0  0  0  0
  2 24  1  0  0  0  0
  2  3  1  0  0  0  0
  2 28  1  0  0  0  0
  3  4  1  0  0  0  0
  3 29  1  0  0  0  0
  3 30  1  0  0  0  0
  4  5  1  0  0  0  0
  4 21  1  0  0  0  0
  5 20  1  0  0  0  0
  5  6  2  0  0  0  0
  6  7  1  0  0  0  0
  6 31  1  0  0  0  0
  7  8  2  0  0  0  0
  7 32  1  0  0  0  0
  8  9  1  0  0  0  0
  8 19  1  0  0  0  0
  9 10  1  0  0  0  0
  9 33  1  0  0  0  0
  9 34  1  0  0  0  0
 10 11  1  0  0  0  0
 10 35  1  0  0  0  0
 11 12  2  0  0  0  0
 11 13  1  0  0  0  0
 13 14  1  0  0  0  0
 13 15  1  0  0  0  0
 13 36  1  0  0  0  0
 14 37  1  0  0  0  0
 14 38  1  0  0  0  0
 14 39  1  0  0  0  0
 15 16  1  0  0  0  0
 15 40  1  0  0  0  0
 16 17  1  0  0  0  0
 16 18  2  0  0  0  0
 17 41  1  0  0  0  0
 17 42  1  0  0  0  0
 19 20  2  0  0  0  0
 19 43  1  0  0  0  0
 21 22  1  0  0  0  0
 21 44  1  0  0  0  0
 21 45  1  0  0  0  0
 22 23  1  0  0  0  0
 22 24  1  0  0  0  0
 22 46  1  0  0  0  0
 23 47  1  0  0  0  0
 23 48  1  0  0  0  0
 23 49  1  0  0  0  0
M  END
> <s_m_source_file>
AV-unprocessed.smi

> <i_m_source_file_index>
2121

> <i_lp_mmshare_version>
43012

> <i_f3d_flags>
0

> <s_epik_input>
W0NIM11bQ0BASF0xW0NIMl1OKFtDSDJdW0NASF0oTzEpW0NIM10pYzJbY0hdW2NIXWMoW2NIXW4yKVtDSDJdW05IXUMoPU8pW0NASF0oW0NIM10pW05IXUMoPU8pW05IMl0=

> <s_epik_cmdline>
J2VwaWtfcHl0aG9uJywgJy1waCcsICc3LjAnLCAnLXRuJywgJzgnLCAnLW1hJywgJzIwMCcsICctbWV0YWxfYmluZGluZycsICctaW1hZScsICc8aW5maWxlLm1hZT4nLCAnLW9tYWUnLCAnPG91dGZpbGUubWFlPic=

> <r_lp_tautomer_probability>
1

> <r_epik_Ionization_Penalty>
0.0063713

> <r_epik_Ionization_Penalty_Charging>
0

> <r_epik_Ionization_Penalty_Neutral>
0.0063713

> <r_epik_State_Penalty>
0.00467069

> <r_epik_Charging_Adjusted_Penalty>
0.00467069

> <i_epik_Tot_Q>
0

> <i_epik_Tot_abs_Q>
0

> <r_epik_Metal_State_Penalty>
-0

> <b_epik_Metal_Only>
0

> <s_lp_Force_Field>
OPLS_2005

> <r_lp_Energy>
8.04486

> <b_lp_Chiralities_Consistent>
1

> <s_lp_Variant>
AV-unprocessed.smi:2121-2

> <Gold.Version>
5.8.1

> <Gold.Id.Protein>
6NUR|6NUR_protein|mol2

> <Gold.PLP.Fitness>
54.2620

> <Gold.PLP.PLP>
-42.7841

> <Gold.PLP.part.hbond>
-4.7202

> <Gold.PLP.part.metal>
0.0000

> <Gold.PLP.part.buried>
-6.1491

> <Gold.PLP.part.nonpolar>
-34.3192

> <Gold.PLP.part.repulsive>
1.6873

> <Gold.PLP.ligand.clash>
0.0000

> <Gold.PLP.ligand.torsion>
0.5403

> <Gold.PLP.Chemscore.Hbond>
4.0673

> <Gold.PLP.Chemscore.CHOScore>
0.0000

> <Gold.PLP.Chemscore.Metal>
0.0000

> <Gold.Chemscore.Hbonds>
donor molecule, donor type, donor heavy atom, donor atom, acceptor molecule, acceptor atom, score
      L1  H    10    35       P1  7948  0.82
      L1  H    15    40       P1  7948  0.91
      L1  H    17    41       P1 10171  1.00
      L1  H    17    42       P1  7948  0.16
      P1  H  7997  8010       L1    20  1.00

> <Gold.PLP.Chemscore.Internal.Correction>
0.3567

> <Gold.Rescore>
     Score         DG    S(hbond)    S(metal)    S(lipo)     H(rot)  DE(clash)    DE(int)     intcor
     19.90     -22.27       3.35        0.00     104.41       2.58       0.56       1.81       ----

> <Gold.Chemscore.Fitness>
19.9020

> <Gold.Chemscore.DG>
-22.2732

> <Gold.Chemscore.ZeroCoef>
-5.4800

> <Gold.Chemscore.Hbond>
3.3506

> <Gold.Chemscore.Metal>
0.0000

> <Gold.Chemscore.Lipo>
104.4146

> <Gold.Chemscore.Internal_Hbond>
0.0000

> <Gold.Chemscore.DEClash>
0.5571

> <Gold.Chemscore.DEInternal>
1.8141

> <Gold.Chemscore.Rot>
2.5838

> <Gold.Chemscore.Internal.Correction>
   9.000000E+99

> <Gold.Chemscore.Hbonds>
donor molecule, donor type, donor heavy atom, donor atom, acceptor molecule, acceptor atom, score
      L1  H    10    35       P1  7948  0.79
      L1  H    15    40       P1  7948  0.86
      L1  H    17    41       P1 10171  0.97
      L1  H    17    42       P1  7948  0.17
      P1  H  7997  8010       L1    20  0.23

> <Gold.Chemscore.Hbond.Weighted>
-11.1911

> <Gold.Chemscore.Metal.Weighted>
-0.0000

> <Gold.Chemscore.Lipo.Weighted>
-12.2165

> <Gold.Chemscore.Internal_Hbond.Weighted>
0.0000

> <Gold.Chemscore.DEClash.Weighted>
0.5571

> <Gold.Chemscore.DEInternal.Weighted>
1.8141

> <Gold.Chemscore.Rot.Weighted>
6.6145

> <Gold.Chemscore.Internal.Correction.Weighted>
   9.000000E+99

> <Gold.Protein.RotatedTorsions>
[ 6907 6896 6895 6894 ] final  -43.79 input  -60.11 | X-H torsion
[ 7974 7965 7964 7962 ] final  -78.45 input  175.53 | X-H torsion
[ 8008 7997 7996 7995 ] final   62.24 input   59.86 | X-H torsion
[ 10167 10162 10161 10158 ] final  -36.95 input  -65.29 | X-H torsion
[ 10718 10713 10712 10709 ] final   90.03 input   66.30 | X-H torsion
[ 10763 10752 10751 10750 ] final -121.13 input  -60.55 | X-H torsion
[ 11005 11000 10999 10996 ] final   -3.52 input  -57.11 | X-H torsion

> <Gold.Protein.ActiveResidues>
 VAL166  LYS551  ARG553  GLY616  TRP617  ASP618  TYR619  PRO620  LYS621  CYS622 
 ASP623  PHE694  ASN695  SER759  ASP760  ASP761  ALA762  ILE779  LEU786  VAL792 
 PHE793  MET794  SER795  GLU796  ALA797  LYS798  CYS799  TRP800  GLU811  SER814 

> <Gold.Protein.RotatedAtoms>
  150.9399  134.8809  159.7605 H   0  0  0  0  0  0  0  0  0  0  0  0  # atno 6907 bound_to 6896
  152.5076  134.3956  159.9409 H   0  0  0  0  0  0  0  0  0  0  0  0  # atno 6908 bound_to 6896
  151.3978  133.3727  159.2763 H   0  0  0  0  0  0  0  0  0  0  0  0  # atno 6909 bound_to 6896
  145.5863  140.9438  143.1317 H   0  0  0  0  0  0  0  0  0  0  0  0  # atno 7974 bound_to 7965
  155.6111  140.3495  155.4623 H   0  0  0  0  0  0  0  0  0  0  0  0  # atno 8008 bound_to 7997
  156.0153  140.1242  157.0437 H   0  0  0  0  0  0  0  0  0  0  0  0  # atno 8009 bound_to 7997
  154.4295  140.1073  156.5873 H   0  0  0  0  0  0  0  0  0  0  0  0  # atno 8010 bound_to 7997
  140.7130  143.3374  151.2432 H   0  0  0  0  0  0  0  0  0  0  0  0  # atno 10167 bound_to 10162
  157.6958  131.0355  150.3516 H   0  0  0  0  0  0  0  0  0  0  0  0  # atno 10718 bound_to 10713
  154.8661  135.4179  154.2570 H   0  0  0  0  0  0  0  0  0  0  0  0  # atno 10763 bound_to 10752
  153.3505  135.6998  153.6798 H   0  0  0  0  0  0  0  0  0  0  0  0  # atno 10764 bound_to 10752
  153.5739  135.3586  155.2821 H   0  0  0  0  0  0  0  0  0  0  0  0  # atno 10765 bound_to 10752
  140.6702  133.9243  155.8490 H   0  0  0  0  0  0  0  0  0  0  0  0  # atno 11005 bound_to 11000
  144.7371  139.7553  143.7325 LP  0  0  0  0  0  0  0  0  0  0  0  0  # atno 17320 bound_to 7965
  146.1680  139.4819  142.9946 LP  0  0  0  0  0  0  0  0  0  0  0  0  # atno 17321 bound_to 7965
  139.6873  143.9752  152.2841 LP  0  0  0  0  0  0  0  0  0  0  0  0  # atno 17342 bound_to 10162
  139.9402  144.6686  150.8274 LP  0  0  0  0  0  0  0  0  0  0  0  0  # atno 17343 bound_to 10162
  156.3964  130.3907  149.6992 LP  0  0  0  0  0  0  0  0  0  0  0  0  # atno 17370 bound_to 10713
  156.4324  130.7821  151.2841 LP  0  0  0  0  0  0  0  0  0  0  0  0  # atno 17371 bound_to 10713
  141.0398  134.0637  157.3915 LP  0  0  0  0  0  0  0  0  0  0  0  0  # atno 17394 bound_to 11000
  139.8984  135.0154  156.7147 LP  0  0  0  0  0  0  0  0  0  0  0  0  # atno 17395 bound_to 11000

$$$$
