AV-unprocessed.smi:3303|AV-procd|sdf|12696|dock4
  -GOLD-   2272019 33D 1   1.00000     0.00000
 Structure written by MMmdl.
 44 45  0  0  0  0  0  0  0  0  2 V2000
  151.0335  137.9668  154.9601 C   0  0  0  0  0  0  0  0  0  0  0  0
  150.2132  139.1494  154.4154 C   0  0  1  0  0  0  0  0  0  0  0  0
  148.8626  138.6461  153.8682 C   0  0  0  0  0  0  0  0  0  0  0  0
  148.0292  139.7477  153.3208 N   0  3  1  0  0  0  0  0  0  0  0  0
  146.8145  139.2149  152.6573 C   0  0  0  0  0  0  0  0  0  0  0  0
  147.7526  140.7957  154.3473 C   0  0  2  0  0  0  0  0  0  0  0  0
  146.8973  141.9561  153.8008 C   0  0  0  0  0  0  0  0  0  0  0  0
  149.0785  141.3499  154.9035 C   0  0  0  0  0  0  0  0  0  0  0  0
  149.9772  140.2437  155.4795 C   0  0  2  0  0  0  0  0  0  0  0  0
  151.2426  140.8647  155.8540 N   0  0  0  0  0  0  0  0  0  0  0  0
  151.0422  141.9213  156.8339 C   0  0  0  0  0  0  0  0  0  0  0  0
  151.8669  141.6203  158.0927 C   0  0  0  0  0  0  0  0  0  0  0  0
  151.9556  142.8178  159.0192 C   0  0  0  0  0  0  0  0  0  0  0  0
  152.1713  142.6446  160.4033 C   0  0  0  0  0  0  0  0  0  0  0  0
  152.2443  143.7904  161.2190 C   0  0  0  0  0  0  0  0  0  0  0  0
  152.0982  145.0580  160.6232 C   0  0  0  0  0  0  0  0  0  0  0  0
  151.8839  145.1239  159.2320 C   0  0  0  0  0  0  0  0  0  0  0  0
  151.8126  144.0317  158.4406 N   0  0  0  0  0  0  0  0  0  0  0  0
  150.5468  137.5087  155.8220 H   0  0  0  0  0  0  0  0  0  0  0  0
  152.0312  138.2797  155.2687 H   0  0  0  0  0  0  0  0  0  0  0  0
  151.1607  137.1946  154.2009 H   0  0  0  0  0  0  0  0  0  0  0  0
  150.7682  139.5859  153.5829 H   0  0  0  0  0  0  0  0  0  0  0  0
  149.0483  137.9132  153.0817 H   0  0  0  0  0  0  0  0  0  0  0  0
  148.3064  138.1294  154.6525 H   0  0  0  0  0  0  0  0  0  0  0  0
  146.1101  138.8187  153.3899 H   0  0  0  0  0  0  0  0  0  0  0  0
  147.0708  138.4117  151.9655 H   0  0  0  0  0  0  0  0  0  0  0  0
  146.3103  139.9811  152.0693 H   0  0  0  0  0  0  0  0  0  0  0  0
  147.2029  140.3297  155.1670 H   0  0  0  0  0  0  0  0  0  0  0  0
  146.7980  142.7482  154.5434 H   0  0  0  0  0  0  0  0  0  0  0  0
  145.8851  141.6380  153.5521 H   0  0  0  0  0  0  0  0  0  0  0  0
  147.3444  142.3965  152.9089 H   0  0  0  0  0  0  0  0  0  0  0  0
  149.6069  141.8798  154.1086 H   0  0  0  0  0  0  0  0  0  0  0  0
  148.8710  142.0884  155.6794 H   0  0  0  0  0  0  0  0  0  0  0  0
  149.4809  139.8069  156.3485 H   0  0  0  0  0  0  0  0  0  0  0  0
  151.6855  141.2562  155.0349 H   0  0  0  0  0  0  0  0  0  0  0  0
  151.3484  142.8769  156.4056 H   0  0  0  0  0  0  0  0  0  0  0  0
  149.9843  141.9974  157.0875 H   0  0  0  0  0  0  0  0  0  0  0  0
  151.4290  140.7803  158.6341 H   0  0  0  0  0  0  0  0  0  0  0  0
  152.8776  141.3151  157.8167 H   0  0  0  0  0  0  0  0  0  0  0  0
  152.2790  141.6588  160.8314 H   0  0  0  0  0  0  0  0  0  0  0  0
  152.4090  143.6987  162.2825 H   0  0  0  0  0  0  0  0  0  0  0  0
  152.1482  145.9582  161.2178 H   0  0  0  0  0  0  0  0  0  0  0  0
  151.7659  146.0790  158.7418 H   0  0  0  0  0  0  0  0  0  0  0  0
  148.5792  140.1882  152.5970 H   0  0  0  0  0  0  0  0  0  0  0  0
  1  2  1  0  0  0  0
  1 19  1  0  0  0  0
  1 20  1  0  0  0  0
  1 21  1  0  0  0  0
  2  9  1  0  0  0  0
  2  3  1  0  0  0  0
  2 22  1  0  0  0  0
  3  4  1  0  0  0  0
  3 23  1  0  0  0  0
  3 24  1  0  0  0  0
  4  5  1  0  0  0  0
  4  6  1  0  0  0  0
  4 44  1  0  0  0  0
  5 25  1  0  0  0  0
  5 26  1  0  0  0  0
  5 27  1  0  0  0  0
  6  7  1  0  0  0  0
  6  8  1  0  0  0  0
  6 28  1  0  0  0  0
  7 29  1  0  0  0  0
  7 30  1  0  0  0  0
  7 31  1  0  0  0  0
  8  9  1  0  0  0  0
  8 32  1  0  0  0  0
  8 33  1  0  0  0  0
  9 10  1  0  0  0  0
  9 34  1  0  0  0  0
 10 11  1  0  0  0  0
 10 35  1  0  0  0  0
 11 12  1  0  0  0  0
 11 36  1  0  0  0  0
 11 37  1  0  0  0  0
 12 13  1  0  0  0  0
 12 38  1  0  0  0  0
 12 39  1  0  0  0  0
 13 18  1  0  0  0  0
 13 14  2  0  0  0  0
 14 15  1  0  0  0  0
 14 40  1  0  0  0  0
 15 16  2  0  0  0  0
 15 41  1  0  0  0  0
 16 17  1  0  0  0  0
 16 42  1  0  0  0  0
 17 18  2  0  0  0  0
 17 43  1  0  0  0  0
M  CHG  1   4   1
M  END
> <s_m_source_file>
AV-unprocessed.smi

> <i_m_source_file_index>
3303

> <i_lp_mmshare_version>
43012

> <i_f3d_flags>
0

> <s_epik_input>
W0NIM11bQ0BASF0xW0NIMl1OKFtDSDNdKVtDQEBIXShbQ0gzXSlbQ0gyXVtDQEhdMVtOSF1bQ0gyXVtDSDJdYzJbY0hdW2NIXVtjSF1bY0hdbjI=

> <s_epik_cmdline>
J2VwaWtfcHl0aG9uJywgJy1waCcsICc3LjAnLCAnLXRuJywgJzgnLCAnLW1hJywgJzIwMCcsICctbWV0YWxfYmluZGluZycsICctaW1hZScsICc8aW5maWxlLm1hZT4nLCAnLW9tYWUnLCAnPG91dGZpbGUubWFlPic=

> <r_epik_Ionization_Penalty>
2.31085

> <r_epik_Ionization_Penalty_Charging>
0.000313057

> <r_epik_Ionization_Penalty_Neutral>
2.31054

> <r_epik_State_Penalty>
2.4087

> <r_epik_Charging_Adjusted_Penalty>
2.40902

> <i_epik_Tot_Q>
1

> <i_epik_Tot_abs_Q>
1

> <r_epik_Metal_State_Penalty>
2.30979

> <b_epik_Metal_Only>
0

> <s_lp_Force_Field>
OPLS_2005

> <r_lp_Energy>
23.6085

> <b_lp_Chiralities_Consistent>
1

> <s_lp_Variant>
AV-unprocessed.smi:3303-40

> <Gold.Version>
5.8.1

> <Gold.Id.Protein>
6NUR|6NUR_protein|mol2

> <Gold.PLP.Fitness>
45.8658

> <Gold.PLP.PLP>
-44.4027

> <Gold.PLP.part.hbond>
-1.8652

> <Gold.PLP.part.metal>
0.0000

> <Gold.PLP.part.buried>
-5.2558

> <Gold.PLP.part.nonpolar>
-37.8022

> <Gold.PLP.part.repulsive>
0.1689

> <Gold.PLP.ligand.clash>
0.0000

> <Gold.PLP.ligand.torsion>
0.7710

> <Gold.PLP.Chemscore.Hbond>
0.9920

> <Gold.PLP.Chemscore.CHOScore>
0.0000

> <Gold.PLP.Chemscore.Metal>
0.0000

> <Gold.Chemscore.Hbonds>
donor molecule, donor type, donor heavy atom, donor atom, acceptor molecule, acceptor atom, score
      L1  H     4    44       P1  7957  0.99

> <Gold.PLP.Chemscore.Internal.Correction>
0.0291

> <Gold.Rescore>
     Score         DG    S(hbond)    S(metal)    S(lipo)     H(rot)  DE(clash)    DE(int)     intcor
     19.86     -20.70       0.99        0.00     131.02       1.33       0.08       0.76       ----

> <Gold.Chemscore.Fitness>
19.8575

> <Gold.Chemscore.DG>
-20.7013

> <Gold.Chemscore.ZeroCoef>
-5.4800

> <Gold.Chemscore.Hbond>
0.9850

> <Gold.Chemscore.Metal>
0.0000

> <Gold.Chemscore.Lipo>
131.0163

> <Gold.Chemscore.Internal_Hbond>
0.0000

> <Gold.Chemscore.DEClash>
0.0814

> <Gold.Chemscore.DEInternal>
0.7624

> <Gold.Chemscore.Rot>
1.3272

> <Gold.Chemscore.Internal.Correction>
   9.000000E+99

> <Gold.Chemscore.Hbonds>
donor molecule, donor type, donor heavy atom, donor atom, acceptor molecule, acceptor atom, score
      L1  H     4    44       P1  7957  0.93

> <Gold.Chemscore.Hbond.Weighted>
-3.2901

> <Gold.Chemscore.Metal.Weighted>
-0.0000

> <Gold.Chemscore.Lipo.Weighted>
-15.3289

> <Gold.Chemscore.Internal_Hbond.Weighted>
0.0000

> <Gold.Chemscore.DEClash.Weighted>
0.0814

> <Gold.Chemscore.DEInternal.Weighted>
0.7624

> <Gold.Chemscore.Rot.Weighted>
3.3976

> <Gold.Chemscore.Internal.Correction.Weighted>
   9.000000E+99

> <Gold.Protein.RotatedTorsions>
[ 6907 6896 6895 6894 ] final -163.15 input  -60.11 | X-H torsion
[ 7974 7965 7964 7962 ] final  -50.13 input  175.53 | X-H torsion
[ 8008 7997 7996 7995 ] final   48.82 input   59.86 | X-H torsion
[ 10167 10162 10161 10158 ] final  139.61 input  -65.29 | X-H torsion
[ 10718 10713 10712 10709 ] final  -36.84 input   66.30 | X-H torsion
[ 10763 10752 10751 10750 ] final  115.91 input  -60.55 | X-H torsion
[ 11005 11000 10999 10996 ] final  166.98 input  -57.11 | X-H torsion

> <Gold.Protein.ActiveResidues>
 VAL166  LYS551  ARG553  GLY616  TRP617  ASP618  TYR619  PRO620  LYS621  CYS622 
 ASP623  PHE694  ASN695  SER759  ASP760  ASP761  ALA762  ILE779  LEU786  VAL792 
 PHE793  MET794  SER795  GLU796  ALA797  LYS798  CYS799  TRP800  GLU811  SER814 

> <Gold.Protein.RotatedAtoms>
  151.3915  133.3787  159.2721 H   0  0  0  0  0  0  0  0  0  0  0  0  # atno 6907 bound_to 6896
  150.9501  134.8903  159.7677 H   0  0  0  0  0  0  0  0  0  0  0  0  # atno 6908 bound_to 6896
  152.5108  134.3870  159.9423 H   0  0  0  0  0  0  0  0  0  0  0  0  # atno 6909 bound_to 6896
  145.9331  140.7731  142.9589 H   0  0  0  0  0  0  0  0  0  0  0  0  # atno 7974 bound_to 7965
  155.3920  140.3434  155.4252 H   0  0  0  0  0  0  0  0  0  0  0  0  # atno 8008 bound_to 7997
  156.1552  140.1583  156.8737 H   0  0  0  0  0  0  0  0  0  0  0  0  # atno 8009 bound_to 7997
  154.5088  140.0795  156.7930 H   0  0  0  0  0  0  0  0  0  0  0  0  # atno 8010 bound_to 7997
  139.5074  144.6284  151.5878 H   0  0  0  0  0  0  0  0  0  0  0  0  # atno 10167 bound_to 10162
  156.3221  130.4267  149.7950 H   0  0  0  0  0  0  0  0  0  0  0  0  # atno 10718 bound_to 10713
  153.5293  135.3581  155.2668 H   0  0  0  0  0  0  0  0  0  0  0  0  # atno 10763 bound_to 10752
  154.8728  135.4064  154.3170 H   0  0  0  0  0  0  0  0  0  0  0  0  # atno 10764 bound_to 10752
  153.3855  135.7070  153.6601 H   0  0  0  0  0  0  0  0  0  0  0  0  # atno 10765 bound_to 10752
  140.2720  134.7819  157.3684 H   0  0  0  0  0  0  0  0  0  0  0  0  # atno 11005 bound_to 11000
  144.6768  140.2159  143.7372 LP  0  0  0  0  0  0  0  0  0  0  0  0  # atno 17320 bound_to 7965
  145.8399  139.2125  143.1833 LP  0  0  0  0  0  0  0  0  0  0  0  0  # atno 17321 bound_to 7965
  140.6009  143.9611  150.6385 LP  0  0  0  0  0  0  0  0  0  0  0  0  # atno 17342 bound_to 10162
  140.2823  143.3381  152.1140 LP  0  0  0  0  0  0  0  0  0  0  0  0  # atno 17343 bound_to 10162
  156.5254  130.8234  151.3218 LP  0  0  0  0  0  0  0  0  0  0  0  0  # atno 17370 bound_to 10713
  157.7414  130.9869  150.2442 LP  0  0  0  0  0  0  0  0  0  0  0  0  # atno 17371 bound_to 10713
  140.1364  134.5028  155.8065 LP  0  0  0  0  0  0  0  0  0  0  0  0  # atno 17394 bound_to 11000
  141.2176  133.6809  156.7132 LP  0  0  0  0  0  0  0  0  0  0  0  0  # atno 17395 bound_to 11000

$$$$
