#       Name:                AV-unprocessed.smi:200
#       Creating user name   scv26
#       Creation time:       Thu Mar 26 19:45:57 2020


#       File generated by GOLD software.
#

@<TRIPOS>MOLECULE
AV-unprocessed.smi:200
    66    69     1
SMALL
NO_CHARGES


@<TRIPOS>ATOM
      1 ****        -4.5300  -3.4135   1.4520 C.3            1 S1                 0.0000
      2 ****        -3.3914  -3.0415   0.6963 O.3            1 S1                 0.0000
      3 ****        -3.7266  -2.5803  -0.6019 C.3            1 S1                 0.0000
      4 ****        -2.4390  -2.1794  -1.3347 C.3            1 S1                 0.0000
      5 ****        -1.7967  -1.0056  -0.7417 N.3            1 S1                 0.0000
      6 ****        -0.4448  -1.0576  -0.7666 C.ar           1 S1                 0.0000
      7 ****         0.2065  -1.2075  -1.9497 N.ar           1 S1                 0.0000
      8 ****         1.5418  -1.2586  -1.9729 C.ar           1 S1                 0.0000
      9 ****         2.3986  -1.1837  -0.9517 N.ar           1 S1                 0.0000
     10 ****         1.7448  -1.0401   0.2368 C.ar           1 S1                 0.0000
     11 ****         0.3352  -0.9744   0.4166 C.ar           1 S1                 0.0000
     12 ****         0.0294  -0.8375   1.7640 N.2            1 S1                 0.0000
     13 ****         1.1951  -0.8227   2.3504 C.2            1 S1                 0.0000
     14 ****         2.2804  -0.9262   1.5081 N.pl3          1 S1                 0.0000
     15 ****         3.6819  -0.9287   1.8993 C.3            1 S1                 0.0000
     16 ****         4.3966   0.4256   1.7061 C.3            1 S1                 0.0000
     17 ****         3.5949   1.5692   2.3531 C.3            1 S1                 0.0000
     18 ****         3.4325   1.3659   3.7423 O.3            1 S1                 0.0000
     19 ****         5.8989   0.4360   2.0209 C.3            1 S1                 0.0000
     20 ****         6.2182   1.0431   0.7513 O.3            1 S1                 0.0000
     21 ****         4.8902   0.7272   0.2838 C.3            1 S1                 0.0000
     22 ****        -2.4264   0.3102  -0.9282 C.3            1 S1                 0.0000
     23 ****        -1.8277   1.4766  -0.1267 C.3            1 S1                 0.0000
     24 ****        -2.3480   2.7409  -0.8248 C.3            1 S1                 0.0000
     25 ****        -2.8630   2.3004  -2.2098 C.3            1 S1                 0.0000
     26 ****        -2.3997   3.2025  -3.3612 C.3            1 S1                 0.0000
     27 ****        -2.4293   0.8376  -2.3658 C.3            1 S1                 0.0000
     28 ****        -4.2170  -3.7619   2.4363 H              1 S1                 0.0000
     29 ****        -5.0792  -4.2215   0.9670 H              1 S1                 0.0000
     30 ****        -5.2028  -2.5667   1.5930 H              1 S1                 0.0000
     31 ****        -4.2178  -3.3837  -1.1523 H              1 S1                 0.0000
     32 ****        -4.4323  -1.7510  -0.5520 H              1 S1                 0.0000
     33 ****        -1.7567  -3.0315  -1.3363 H              1 S1                 0.0000
     34 ****        -2.6656  -1.9680  -2.3798 H              1 S1                 0.0000
     35 ****         1.9878  -1.3753  -2.9496 H              1 S1                 0.0000
     36 ****         1.2971  -0.7257   3.4216 H              1 S1                 0.0000
     37 ****         3.7422  -1.2438   2.9417 H              1 S1                 0.0000
     38 ****         4.1843  -1.7124   1.3310 H              1 S1                 0.0000
     39 ****         4.1082   2.5213   2.2142 H              1 S1                 0.0000
     40 ****         2.6150   1.6878   1.8902 H              1 S1                 0.0000
     41 ****         2.9546   2.0993   4.0986 H              1 S1                 0.0000
     42 ****         6.1736   1.0652   2.8683 H              1 S1                 0.0000
     43 ****         6.3383  -0.5584   2.1164 H              1 S1                 0.0000
     44 ****         4.8989  -0.1375  -0.3809 H              1 S1                 0.0000
     45 ****         4.3955   1.5763  -0.1890 H              1 S1                 0.0000
     46 ****        -3.4654   0.2193  -0.6124 H              1 S1                 0.0000
     47 ****        -2.0996   1.4377   0.9286 H              1 S1                 0.0000
     48 ****        -0.7394   1.4870  -0.1863 H              1 S1                 0.0000
     49 ****        -3.1577   3.1940  -0.2515 H              1 S1                 0.0000
     50 ****        -1.5538   3.4848  -0.9007 H              1 S1                 0.0000
     51 ****        -3.9535   2.3190  -2.1782 H              1 S1                 0.0000
     52 ****        -1.3122   3.2222  -3.4374 H              1 S1                 0.0000
     53 ****        -2.7426   4.2272  -3.2167 H              1 S1                 0.0000
     54 ****        -2.7947   2.8515  -4.3148 H              1 S1                 0.0000
     55 ****        -1.4281   0.7913  -2.7946 H              1 S1                 0.0000
     56 ****        -3.0988   0.2779  -3.0193 H              1 S1                 0.0000
     57 ****        -2.7911  -3.8365   0.6089 LP             1 S1                 0.0000
     58 ****        -2.9095  -2.3117   1.1811 LP             1 S1                 0.0000
     59 ****        -2.0289  -1.1011   0.2263 LP             1 S1                 0.0000
     60 ****        -0.3124  -1.2795  -2.8015 LP             1 S1                 0.0000
     61 ****         3.3932  -1.2274  -1.0461 LP             1 S1                 0.0000
     62 ****        -0.8741  -0.7667   2.1868 LP             1 S1                 0.0000
     63 ****         4.3289   1.3020   4.1810 LP             1 S1                 0.0000
     64 ****         2.9222   0.5209   3.9022 LP             1 S1                 0.0000
     65 ****         6.9504   0.5831   0.2490 LP             1 S1                 0.0000
     66 ****         6.4132   2.0225   0.8022 LP             1 S1                 0.0000
@<TRIPOS>BOND
    1    1    2 1     
    2    1   28 1     
    3    1   29 1     
    4    1   30 1     
    5    2    3 1     
    6    3    4 1     
    7    3   31 1     
    8    3   32 1     
    9    4    5 1     
   10    4   33 1     
   11    4   34 1     
   12    5    6 1     
   13    5   22 1     
   14    6   11 ar    
   15    6    7 ar    
   16    7    8 ar    
   17    8    9 ar    
   18    8   35 1     
   19    9   10 ar    
   20   10   14 1     
   21   10   11 ar    
   22   11   12 1     
   23   12   13 2     
   24   13   14 1     
   25   13   36 1     
   26   14   15 1     
   27   15   16 1     
   28   15   37 1     
   29   15   38 1     
   30   16   21 1     
   31   16   17 1     
   32   16   19 1     
   33   17   18 1     
   34   17   39 1     
   35   17   40 1     
   36   18   41 1     
   37   19   20 1     
   38   19   42 1     
   39   19   43 1     
   40   20   21 1     
   41   21   44 1     
   42   21   45 1     
   43   22   27 1     
   44   22   23 1     
   45   22   46 1     
   46   23   24 1     
   47   23   47 1     
   48   23   48 1     
   49   24   25 1     
   50   24   49 1     
   51   24   50 1     
   52   25   26 1     
   53   25   27 1     
   54   25   51 1     
   55   26   52 1     
   56   26   53 1     
   57   26   54 1     
   58   27   55 1     
   59   27   56 1     
   60    2   57 1     
   61    2   58 1     
   62    5   59 1     
   63    7   60 1     
   64    9   61 1     
   65   12   62 1     
   66   18   63 1     
   67   18   64 1     
   68   20   65 1     
   69   20   66 1     
@<TRIPOS>SUBSTRUCTURE
      1 S1             1
@<TRIPOS>SET
LONE_PAIRS      STATIC     ATOMS    <user>   **** ""
10 57 58 59 60 61 62 63 64 65 66
DONOR_HYDROGENS      STATIC     ATOMS    <user>   **** ""
1 41
ATOM$BLUE        STATIC     ATOMS    COLORGROUP SYSTEM
10 57 58 59 60 61 62 63 64 65 66
ATOM$RED        STATIC     ATOMS    COLORGROUP SYSTEM
1 41
