AV-unprocessed.smi:1684|AV-procd|sdf|6755|dock10
  -GOLD-   22720 7513D 1   1.00000     0.00000
 Structure written by MMmdl.
 43 44  0  0  0  0  0  0  0  0  2 V2000
  147.6199  132.9848  152.3029 C   0  0  0  0  0  0  0  0  0  0  0  0
  146.2678  132.8945  151.6140 C   0  0  0  0  0  0  0  0  0  0  0  0
  145.6801  131.6276  151.4110 C   0  0  0  0  0  0  0  0  0  0  0  0
  144.4295  131.5458  150.7755 C   0  0  0  0  0  0  0  0  0  0  0  0
  143.8152  132.7420  150.3674 C   0  0  0  0  0  0  0  0  0  0  0  0
  144.3692  133.9569  150.5579 N   0  0  0  0  0  0  0  0  0  0  0  0
  145.5779  134.0531  151.1670 C   0  0  0  0  0  0  0  0  0  0  0  0
  146.2203  135.3014  151.4044 N   0  0  0  0  0  0  0  0  0  0  0  0
  145.6559  136.4954  151.6553 C   0  0  0  0  0  0  0  0  0  0  0  0
  144.4462  136.7245  151.6635 O   0  0  0  0  0  0  0  0  0  0  0  0
  146.5847  137.4284  151.9152 N   0  0  0  0  0  0  0  0  0  0  0  0
  146.3269  138.8362  152.2237 C   0  0  2  0  0  0  0  0  0  0  0  0
  147.1529  139.7142  151.2738 C   0  0  0  0  0  0  0  0  0  0  0  0
  146.6436  139.1602  153.7028 C   0  0  0  0  0  0  0  0  0  0  0  0
  146.1888  140.5130  154.1126 N   0  3  0  0  0  0  0  0  0  0  0  0
  145.9139  140.6249  155.5637 C   0  0  0  0  0  0  0  0  0  0  0  0
  145.3595  142.0223  155.8904 C   0  0  0  0  0  0  0  0  0  0  0  0
  146.2787  143.0174  155.4555 O   0  0  0  0  0  0  0  0  0  0  0  0
  146.4951  142.9675  154.0501 C   0  0  0  0  0  0  0  0  0  0  0  0
  147.0929  141.6026  153.6720 C   0  0  0  0  0  0  0  0  0  0  0  0
  147.9841  131.9990  152.5943 H   0  0  0  0  0  0  0  0  0  0  0  0
  147.5505  133.5953  153.2038 H   0  0  0  0  0  0  0  0  0  0  0  0
  148.3581  133.4314  151.6363 H   0  0  0  0  0  0  0  0  0  0  0  0
  146.1788  130.7269  151.7378 H   0  0  0  0  0  0  0  0  0  0  0  0
  143.9535  130.5914  150.6053 H   0  0  0  0  0  0  0  0  0  0  0  0
  142.8537  132.7244  149.8762 H   0  0  0  0  0  0  0  0  0  0  0  0
  147.2291  135.2729  151.4031 H   0  0  0  0  0  0  0  0  0  0  0  0
  147.5540  137.1468  151.8837 H   0  0  0  0  0  0  0  0  0  0  0  0
  145.2776  139.0573  152.0232 H   0  0  0  0  0  0  0  0  0  0  0  0
  146.9508  140.7723  151.4430 H   0  0  0  0  0  0  0  0  0  0  0  0
  146.9150  139.4985  150.2315 H   0  0  0  0  0  0  0  0  0  0  0  0
  148.2229  139.5543  151.4111 H   0  0  0  0  0  0  0  0  0  0  0  0
  146.1486  138.4133  154.3256 H   0  0  0  0  0  0  0  0  0  0  0  0
  147.7116  139.0585  153.9013 H   0  0  0  0  0  0  0  0  0  0  0  0
  145.1909  139.8661  155.8652 H   0  0  0  0  0  0  0  0  0  0  0  0
  146.8302  140.4405  156.1268 H   0  0  0  0  0  0  0  0  0  0  0  0
  144.3888  142.1760  155.4160 H   0  0  0  0  0  0  0  0  0  0  0  0
  145.2088  142.1259  156.9649 H   0  0  0  0  0  0  0  0  0  0  0  0
  145.5588  143.1437  153.5173 H   0  0  0  0  0  0  0  0  0  0  0  0
  147.1783  143.7687  153.7686 H   0  0  0  0  0  0  0  0  0  0  0  0
  148.0720  141.4810  154.1378 H   0  0  0  0  0  0  0  0  0  0  0  0
  147.2453  141.5599  152.5939 H   0  0  0  0  0  0  0  0  0  0  0  0
  145.3044  140.6648  153.6481 H   0  0  0  0  0  0  0  0  0  0  0  0
  1  2  1  0  0  0  0
  1 21  1  0  0  0  0
  1 22  1  0  0  0  0
  1 23  1  0  0  0  0
  2  7  1  0  0  0  0
  2  3  2  0  0  0  0
  3  4  1  0  0  0  0
  3 24  1  0  0  0  0
  4  5  2  0  0  0  0
  4 25  1  0  0  0  0
  5  6  1  0  0  0  0
  5 26  1  0  0  0  0
  6  7  2  0  0  0  0
  7  8  1  0  0  0  0
  8  9  1  0  0  0  0
  8 27  1  0  0  0  0
  9 10  2  0  0  0  0
  9 11  1  0  0  0  0
 11 12  1  0  0  0  0
 11 28  1  0  0  0  0
 12 13  1  0  0  0  0
 12 14  1  0  0  0  0
 12 29  1  0  0  0  0
 13 30  1  0  0  0  0
 13 31  1  0  0  0  0
 13 32  1  0  0  0  0
 14 15  1  0  0  0  0
 14 33  1  0  0  0  0
 14 34  1  0  0  0  0
 15 20  1  0  0  0  0
 15 16  1  0  0  0  0
 15 43  1  0  0  0  0
 16 17  1  0  0  0  0
 16 35  1  0  0  0  0
 16 36  1  0  0  0  0
 17 18  1  0  0  0  0
 17 37  1  0  0  0  0
 17 38  1  0  0  0  0
 18 19  1  0  0  0  0
 19 20  1  0  0  0  0
 19 39  1  0  0  0  0
 19 40  1  0  0  0  0
 20 41  1  0  0  0  0
 20 42  1  0  0  0  0
M  CHG  1  15   1
M  END
> <s_m_source_file>
AV-unprocessed.smi

> <i_m_source_file_index>
1684

> <i_lp_mmshare_version>
43012

> <i_f3d_flags>
0

> <s_epik_input>
W0NIM11jMVtjSF1bY0hdW2NIXW5jMVtOSF1DKD1PKVtOSF1bQ0BIXShbQ0gzXSlbQ0gyXU4yW0NIMl1bQ0gyXU9bQ0gyXVtDSDJdMg==

> <s_epik_cmdline>
J2VwaWtfcHl0aG9uJywgJy1waCcsICc3LjAnLCAnLXRuJywgJzgnLCAnLW1hJywgJzIwMCcsICctbWV0YWxfYmluZGluZycsICctaW1hZScsICc8aW5maWxlLm1hZT4nLCAnLW9tYWUnLCAnPG91dGZpbGUubWFlPic=

> <r_epik_Ionization_Penalty>
0.602571

> <r_epik_Ionization_Penalty_Charging>
0.602531

> <r_epik_Ionization_Penalty_Neutral>
4.09763e-05

> <r_epik_State_Penalty>
0.617039

> <r_epik_Charging_Adjusted_Penalty>
1.21957

> <i_epik_Tot_Q>
1

> <i_epik_Tot_abs_Q>
1

> <r_epik_Metal_State_Penalty>
0.617043

> <b_epik_Metal_Only>
0

> <s_lp_Force_Field>
OPLS_2005

> <r_lp_Energy>
24.8117

> <b_lp_Chiralities_Consistent>
1

> <s_lp_Variant>
AV-unprocessed.smi:1684-3

> <Gold.Version>
5.8.1

> <Gold.Id.Protein>
6NUR|6NUR_protein|mol2

> <Gold.PLP.Fitness>
46.6753

> <Gold.PLP.PLP>
-32.9413

> <Gold.PLP.part.hbond>
-3.0000

> <Gold.PLP.part.metal>
0.0000

> <Gold.PLP.part.buried>
-1.5646

> <Gold.PLP.part.nonpolar>
-30.7807

> <Gold.PLP.part.repulsive>
2.6781

> <Gold.PLP.ligand.clash>
0.0000

> <Gold.PLP.ligand.torsion>
0.5508

> <Gold.PLP.Chemscore.Hbond>
4.0000

> <Gold.PLP.Chemscore.CHOScore>
0.9356

> <Gold.PLP.Chemscore.Metal>
0.0000

> <Gold.Chemscore.Hbonds>
donor molecule, donor type, donor heavy atom, donor atom, acceptor molecule, acceptor atom, score
      L1  H     8    27       P1  7948  0.96
      L1  H    11    28       P1  7948  1.00
      L1  H    15    43       P1 10175  2.00
      L1  C     5    26       P1 10186  1.00

> <Gold.PLP.Chemscore.Internal.Correction>
0.0287

> <Gold.Rescore>
     Score         DG    S(hbond)    S(metal)    S(lipo)     H(rot)  DE(clash)    DE(int)     intcor
     17.05     -20.27       2.79        0.00      79.65       1.51       1.44       1.78       ----

> <Gold.Chemscore.Fitness>
17.0514

> <Gold.Chemscore.DG>
-20.2745

> <Gold.Chemscore.ZeroCoef>
-5.4800

> <Gold.Chemscore.Hbond>
2.7938

> <Gold.Chemscore.Metal>
0.0000

> <Gold.Chemscore.Lipo>
79.6488

> <Gold.Chemscore.Internal_Hbond>
0.0000

> <Gold.Chemscore.DEClash>
1.4440

> <Gold.Chemscore.DEInternal>
1.7790

> <Gold.Chemscore.Rot>
1.5061

> <Gold.Chemscore.Internal.Correction>
   9.000000E+99

> <Gold.Chemscore.Hbonds>
donor molecule, donor type, donor heavy atom, donor atom, acceptor molecule, acceptor atom, score
      L1  H     8    27       P1  7948  0.77
      L1  H    11    28       P1  7948  1.00
      L1  H    15    43       P1 10175  0.92

> <Gold.Chemscore.Hbond.Weighted>
-9.3313

> <Gold.Chemscore.Metal.Weighted>
-0.0000

> <Gold.Chemscore.Lipo.Weighted>
-9.3189

> <Gold.Chemscore.Internal_Hbond.Weighted>
0.0000

> <Gold.Chemscore.DEClash.Weighted>
1.4440

> <Gold.Chemscore.DEInternal.Weighted>
1.7790

> <Gold.Chemscore.Rot.Weighted>
3.8557

> <Gold.Chemscore.Internal.Correction.Weighted>
   9.000000E+99

> <Gold.Protein.RotatedTorsions>
[ 6907 6896 6895 6894 ] final   69.20 input  -60.11 | X-H torsion
[ 7974 7965 7964 7962 ] final -141.78 input  175.53 | X-H torsion
[ 8008 7997 7996 7995 ] final -120.08 input   59.86 | X-H torsion
[ 10167 10162 10161 10158 ] final  169.60 input  -65.29 | X-H torsion
[ 10718 10713 10712 10709 ] final  -14.89 input   66.30 | X-H torsion
[ 10763 10752 10751 10750 ] final   52.27 input  -60.55 | X-H torsion
[ 11005 11000 10999 10996 ] final -134.79 input  -57.11 | X-H torsion

> <Gold.Protein.ActiveResidues>
 VAL166  LYS551  ARG553  GLY616  TRP617  ASP618  TYR619  PRO620  LYS621  CYS622 
 ASP623  PHE694  ASN695  SER759  ASP760  ASP761  ALA762  ILE779  LEU786  VAL792 
 PHE793  MET794  SER795  GLU796  ALA797  LYS798  CYS799  TRP800  GLU811  SER814 

> <Gold.Protein.RotatedAtoms>
  152.4671  134.5050  159.9736 H   0  0  0  0  0  0  0  0  0  0  0  0  # atno 6907 bound_to 6896
  151.5085  133.3484  159.2889 H   0  0  0  0  0  0  0  0  0  0  0  0  # atno 6908 bound_to 6896
  150.8661  134.8053  159.7181 H   0  0  0  0  0  0  0  0  0  0  0  0  # atno 6909 bound_to 6896
  144.8493  140.6038  143.5401 H   0  0  0  0  0  0  0  0  0  0  0  0  # atno 7974 bound_to 7965
  155.1261  140.0399  157.2762 H   0  0  0  0  0  0  0  0  0  0  0  0  # atno 8008 bound_to 7997
  154.6577  140.2584  155.7117 H   0  0  0  0  0  0  0  0  0  0  0  0  # atno 8009 bound_to 7997
  156.2606  140.2823  156.1037 H   0  0  0  0  0  0  0  0  0  0  0  0  # atno 8010 bound_to 7997
  139.4996  144.3688  151.9746 H   0  0  0  0  0  0  0  0  0  0  0  0  # atno 10167 bound_to 10162
  156.6095  130.4846  149.6207 H   0  0  0  0  0  0  0  0  0  0  0  0  # atno 10718 bound_to 10713
  152.9788  135.5818  154.4551 H   0  0  0  0  0  0  0  0  0  0  0  0  # atno 10763 bound_to 10752
  154.4135  135.2770  155.2024 H   0  0  0  0  0  0  0  0  0  0  0  0  # atno 10764 bound_to 10752
  154.3804  135.6148  153.5841 H   0  0  0  0  0  0  0  0  0  0  0  0  # atno 10765 bound_to 10752
  140.8957  134.1754  157.4496 H   0  0  0  0  0  0  0  0  0  0  0  0  # atno 11005 bound_to 11000
  145.4533  139.1521  143.3906 LP  0  0  0  0  0  0  0  0  0  0  0  0  # atno 17320 bound_to 7965
  146.2771  140.4660  142.8791 LP  0  0  0  0  0  0  0  0  0  0  0  0  # atno 17321 bound_to 7965
  140.3124  144.3522  150.6030 LP  0  0  0  0  0  0  0  0  0  0  0  0  # atno 17342 bound_to 10162
  140.5788  143.2174  151.7467 LP  0  0  0  0  0  0  0  0  0  0  0  0  # atno 17343 bound_to 10162
  156.2402  130.6846  151.1548 LP  0  0  0  0  0  0  0  0  0  0  0  0  # atno 17370 bound_to 10713
  157.7258  131.0650  150.5937 LP  0  0  0  0  0  0  0  0  0  0  0  0  # atno 17371 bound_to 10713
  139.8735  134.9877  156.5381 LP  0  0  0  0  0  0  0  0  0  0  0  0  # atno 17394 bound_to 11000
  140.8292  133.8292  155.8968 LP  0  0  0  0  0  0  0  0  0  0  0  0  # atno 17395 bound_to 11000

$$$$
