#       Name:                AV-unprocessed.smi:876
#       Creating user name   scv26
#       Creation time:       Fri Mar 27 01:51:05 2020


#       File generated by GOLD software.
#

@<TRIPOS>MOLECULE
AV-unprocessed.smi:876
    45    46     1
SMALL
NO_CHARGES


@<TRIPOS>ATOM
      1 ****        -6.3429  -0.0422   1.0377 C.3            1 S1                 0.0000
      2 ****        -5.5477   0.9599   0.3399 N.pl3          1 S1                 0.0000
      3 ****        -6.1566   2.2130  -0.0926 C.3            1 S1                 0.0000
      4 ****        -4.1703   0.7378   0.1239 C.ar           1 S1                 0.0000
      5 ****        -3.4987  -0.4371   0.5423 C.ar           1 S1                 0.0000
      6 ****        -2.1191  -0.5879   0.2917 C.ar           1 S1                 0.0000
      7 ****        -1.4152   0.4371  -0.3870 C.ar           1 S1                 0.0000
      8 ****        -0.0243   0.3987  -0.6780 N.am           1 S1                 0.0000
      9 ****         0.8001  -0.6626  -0.7133 C.2            1 S1                 0.0000
     10 ****         0.4686  -1.8302  -0.5096 O.2            1 S1                 0.0000
     11 ****         2.0522  -0.2936  -1.0178 N.am           1 S1                 0.0000
     12 ****         3.1840  -1.2064  -1.1347 C.3            1 S1                 0.0000
     13 ****         4.3607  -0.5110  -1.7625 C.2            1 S1                 0.0000
     14 ****         5.4601  -0.5858  -1.0159 C.2            1 S1                 0.0000
     15 ****         5.2431  -1.3412   0.2707 C.3            1 S1                 0.0000
     16 ****         5.6687  -0.5426   1.5150 C.3            1 S1                 0.0000
     17 ****         7.0654  -0.3330   1.5183 O.3            1 S1                 0.0000
     18 ****         3.7282  -1.6680   0.2433 C.3            1 S1                 0.0000
     19 ****        -2.1280   1.5903  -0.7714 C.ar           1 S1                 0.0000
     20 ****        -3.4488   1.6937  -0.5107 N.pl3          1 S1                 1.0000
     21 ****         2.9199  -2.0628  -1.7575 H              1 S1                 0.0000
     22 ****         5.8153  -2.2684   0.2150 H              1 S1                 0.0000
     23 ****        -5.9626  -0.1978   2.0478 H              1 S1                 0.0000
     24 ****        -6.3168  -0.9926   0.5038 H              1 S1                 0.0000
     25 ****        -7.3860   0.2646   1.1179 H              1 S1                 0.0000
     26 ****        -6.0520   2.3381  -1.1709 H              1 S1                 0.0000
     27 ****        -5.6820   3.0605   0.4032 H              1 S1                 0.0000
     28 ****        -7.2204   2.2407   0.1445 H              1 S1                 0.0000
     29 ****        -4.0186  -1.2297   1.0592 H              1 S1                 0.0000
     30 ****        -1.6301  -1.4844   0.6393 H              1 S1                 0.0000
     31 ****         0.3866   1.2836  -0.9372 H              1 S1                 0.0000
     32 ****         2.2397   0.6856  -1.1757 H              1 S1                 0.0000
     33 ****         4.2971  -0.0264  -2.7259 H              1 S1                 0.0000
     34 ****         6.4203  -0.1696  -1.2830 H              1 S1                 0.0000
     35 ****         5.1608   0.4218   1.5516 H              1 S1                 0.0000
     36 ****         5.3995  -1.0848   2.4218 H              1 S1                 0.0000
     37 ****         7.2952   0.1468   2.2995 H              1 S1                 0.0000
     38 ****         3.2135  -1.1535   1.0567 H              1 S1                 0.0000
     39 ****         3.5554  -2.7344   0.3924 H              1 S1                 0.0000
     40 ****        -1.6853   2.4327  -1.2833 H              1 S1                 0.0000
     41 ****        -3.9310   2.5418  -0.8086 H              1 S1                 0.0000
     42 ****        -0.4835  -2.0498  -0.2970 LP             1 S1                 0.0000
     43 ****         1.1514  -2.5593  -0.5567 LP             1 S1                 0.0000
     44 ****         7.3294   0.1928   0.7097 LP             1 S1                 0.0000
     45 ****         7.5387  -1.2139   1.5122 LP             1 S1                 0.0000
@<TRIPOS>BOND
    1    1    2 1     
    2    1   23 1     
    3    1   24 1     
    4    1   25 1     
    5    2    3 1     
    6    2    4 1     
    7    3   26 1     
    8    3   27 1     
    9    3   28 1     
   10    4   20 ar    
   11    4    5 ar    
   12    5    6 ar    
   13    5   29 1     
   14    6    7 ar    
   15    6   30 1     
   16    7    8 1     
   17    7   19 ar    
   18    8    9 am    
   19    8   31 1     
   20    9   10 2     
   21    9   11 am    
   22   11   12 1     
   23   11   32 1     
   24   12   21 1     
   25   12   18 1     
   26   12   13 1     
   27   13   14 2     
   28   13   33 1     
   29   14   15 1     
   30   14   34 1     
   31   15   22 1     
   32   15   16 1     
   33   15   18 1     
   34   16   17 1     
   35   16   35 1     
   36   16   36 1     
   37   17   37 1     
   38   18   38 1     
   39   18   39 1     
   40   19   20 ar    
   41   19   40 1     
   42   20   41 1     
   43   10   42 1     
   44   10   43 1     
   45   17   44 1     
   46   17   45 1     
@<TRIPOS>SUBSTRUCTURE
      1 S1             1
@<TRIPOS>SET
LONE_PAIRS      STATIC     ATOMS    <user>   **** ""
4 42 43 44 45
DONOR_HYDROGENS      STATIC     ATOMS    <user>   **** ""
4 31 32 37 41
ATOM$BLUE        STATIC     ATOMS    COLORGROUP SYSTEM
4 42 43 44 45
ATOM$RED        STATIC     ATOMS    COLORGROUP SYSTEM
4 31 32 37 41
