AV-unprocessed.smi:3032|AV-procd|sdf|11558|dock10
  -GOLD-   2272016523D 1   1.00000     0.00000
 Structure written by MMmdl.
 37 38  0  0  0  0  0  0  0  0  1 V2000
  153.6918  141.8246  160.4957 C   0  0  0  0  0  0  0  0  0  0  0  0
  152.5654  142.5017  159.7021 C   0  0  1  0  0  0  0  0  0  0  0  0
  152.9311  143.9508  159.3275 C   0  0  0  0  0  0  0  0  0  0  0  0
  151.8098  144.6267  158.5221 C   0  0  0  0  0  0  0  0  0  0  0  0
  151.4541  143.8115  157.2690 C   0  0  0  0  0  0  0  0  0  0  0  0
  151.0679  142.3645  157.6387 C   0  0  1  0  0  0  0  0  0  0  0  0
  150.7346  141.5401  156.3890 C   0  0  0  0  0  0  0  0  0  0  0  0
  151.4306  140.5719  156.0819 O   0  0  0  0  0  0  0  0  0  0  0  0
  149.6494  141.9189  155.6942 N   0  0  0  0  0  0  0  0  0  0  0  0
  149.0905  141.2111  154.5443 C   0  0  0  0  0  0  0  0  0  0  0  0
  149.0715  139.6841  154.7544 C   0  0  0  0  0  0  0  0  0  0  0  0
  147.9007  138.9971  154.1237 C   0  0  0  0  0  0  0  0  0  0  0  0
  147.8225  138.7838  152.8083 N   0  0  0  0  0  0  0  0  0  0  0  0
  146.6459  138.1892  152.5218 N   0  0  0  0  0  0  0  0  0  0  0  0
  146.0879  138.0822  153.7263 C   0  0  0  0  0  0  0  0  0  0  0  0
  146.8238  138.5662  154.7716 N   0  0  0  0  0  0  0  0  0  0  0  0
  152.2046  141.6946  158.4401 C   0  0  0  0  0  0  0  0  0  0  0  0
  148.5051  139.0250  152.1039 H   0  0  0  0  0  0  0  0  0  0  0  0
  154.6096  141.7664  159.9098 H   0  0  0  0  0  0  0  0  0  0  0  0
  153.4151  140.8096  160.7822 H   0  0  0  0  0  0  0  0  0  0  0  0
  153.9142  142.3756  161.4096 H   0  0  0  0  0  0  0  0  0  0  0  0
  151.6843  142.5324  160.3445 H   0  0  0  0  0  0  0  0  0  0  0  0
  153.1324  144.5305  160.2291 H   0  0  0  0  0  0  0  0  0  0  0  0
  153.8523  143.9595  158.7435 H   0  0  0  0  0  0  0  0  0  0  0  0
  150.9245  144.7374  159.1493 H   0  0  0  0  0  0  0  0  0  0  0  0
  152.1142  145.6339  158.2359 H   0  0  0  0  0  0  0  0  0  0  0  0
  150.6329  144.2968  156.7397 H   0  0  0  0  0  0  0  0  0  0  0  0
  152.3057  143.8133  156.5864 H   0  0  0  0  0  0  0  0  0  0  0  0
  150.1801  142.4020  158.2727 H   0  0  0  0  0  0  0  0  0  0  0  0
  149.1462  142.7334  156.0148 H   0  0  0  0  0  0  0  0  0  0  0  0
  148.0740  141.5703  154.3833 H   0  0  0  0  0  0  0  0  0  0  0  0
  149.6442  141.4535  153.6357 H   0  0  0  0  0  0  0  0  0  0  0  0
  149.9887  139.2482  154.3558 H   0  0  0  0  0  0  0  0  0  0  0  0
  149.0686  139.4619  155.8219 H   0  0  0  0  0  0  0  0  0  0  0  0
  145.1124  137.6379  153.8582 H   0  0  0  0  0  0  0  0  0  0  0  0
  153.0918  141.5874  157.8130 H   0  0  0  0  0  0  0  0  0  0  0  0
  151.9084  140.6840  158.7254 H   0  0  0  0  0  0  0  0  0  0  0  0
  1  2  1  0  0  0  0
  1 19  1  0  0  0  0
  1 20  1  0  0  0  0
  1 21  1  0  0  0  0
  2 17  1  0  0  0  0
  2  3  1  0  0  0  0
  2 22  1  0  0  0  0
  3  4  1  0  0  0  0
  3 23  1  0  0  0  0
  3 24  1  0  0  0  0
  4  5  1  0  0  0  0
  4 25  1  0  0  0  0
  4 26  1  0  0  0  0
  5  6  1  0  0  0  0
  5 27  1  0  0  0  0
  5 28  1  0  0  0  0
  6  7  1  0  0  0  0
  6 17  1  0  0  0  0
  6 29  1  0  0  0  0
  7  8  2  0  0  0  0
  7  9  1  0  0  0  0
  9 10  1  0  0  0  0
  9 30  1  0  0  0  0
 10 11  1  0  0  0  0
 10 31  1  0  0  0  0
 10 32  1  0  0  0  0
 11 33  1  0  0  0  0
 11 34  1  0  0  0  0
 11 12  1  0  0  0  0
 12 16  2  0  0  0  0
 12 13  1  0  0  0  0
 13 18  1  0  0  0  0
 13 14  1  0  0  0  0
 14 15  2  0  0  0  0
 15 16  1  0  0  0  0
 15 35  1  0  0  0  0
 17 36  1  0  0  0  0
 17 37  1  0  0  0  0
M  END
> <s_m_source_file>
AV-unprocessed.smi

> <i_m_source_file_index>
3032

> <i_lp_mmshare_version>
43012

> <i_f3d_flags>
0

> <s_epik_input>
W0NIM11bQ0BASF0xW0NIMl1bQ0gyXVtDSDJdW0NASF0oW0NIMl0xKUMoPU8pW05IXVtDSDJdW0NIMl1jMm5uW2NIXVtuSF0y

> <s_epik_cmdline>
J2VwaWtfcHl0aG9uJywgJy1waCcsICc3LjAnLCAnLXRuJywgJzgnLCAnLW1hJywgJzIwMCcsICctbWV0YWxfYmluZGluZycsICctaW1hZScsICc8aW5maWxlLm1hZT4nLCAnLW9tYWUnLCAnPG91dGZpbGUubWFlPic=

> <r_lp_tautomer_probability>
0.948284

> <r_epik_Ionization_Penalty>
0.000474052

> <r_epik_Ionization_Penalty_Charging>
0

> <r_epik_Ionization_Penalty_Neutral>
0.000474052

> <r_epik_State_Penalty>
0.271807

> <r_epik_Charging_Adjusted_Penalty>
0.271807

> <i_epik_Tot_Q>
0

> <i_epik_Tot_abs_Q>
0

> <r_epik_Metal_State_Penalty>
0.397201

> <b_epik_Metal_Only>
0

> <s_lp_Force_Field>
OPLS_2005

> <r_lp_Energy>
10.7407

> <b_lp_Chiralities_Consistent>
1

> <s_lp_Variant>
AV-unprocessed.smi:3032-2

> <Gold.Version>
5.8.1

> <Gold.Id.Protein>
6NUR|6NUR_protein|mol2

> <Gold.PLP.Fitness>
42.8331

> <Gold.PLP.PLP>
-38.1266

> <Gold.PLP.part.hbond>
-2.8595

> <Gold.PLP.part.metal>
0.0000

> <Gold.PLP.part.buried>
-5.2537

> <Gold.PLP.part.nonpolar>
-31.5923

> <Gold.PLP.part.repulsive>
0.6460

> <Gold.PLP.ligand.clash>
0.0000

> <Gold.PLP.ligand.torsion>
0.6409

> <Gold.PLP.Chemscore.Hbond>
1.9913

> <Gold.PLP.Chemscore.CHOScore>
0.0000

> <Gold.PLP.Chemscore.Metal>
0.0000

> <Gold.Chemscore.Hbonds>
donor molecule, donor type, donor heavy atom, donor atom, acceptor molecule, acceptor atom, score
      L1  H     9    30       P1  8028  0.86
      L1  H    13    18       P1  7957  1.00

> <Gold.PLP.Chemscore.Internal.Correction>
0.0146

> <Gold.Rescore>
     Score         DG    S(hbond)    S(metal)    S(lipo)     H(rot)  DE(clash)    DE(int)     intcor
     15.52     -17.39       1.97        0.00      94.85       2.25       0.08       1.79       ----

> <Gold.Chemscore.Fitness>
15.5155

> <Gold.Chemscore.DG>
-17.3927

> <Gold.Chemscore.ZeroCoef>
-5.4800

> <Gold.Chemscore.Hbond>
1.9686

> <Gold.Chemscore.Metal>
0.0000

> <Gold.Chemscore.Lipo>
94.8538

> <Gold.Chemscore.Internal_Hbond>
0.0000

> <Gold.Chemscore.DEClash>
0.0823

> <Gold.Chemscore.DEInternal>
1.7949

> <Gold.Chemscore.Rot>
2.2501

> <Gold.Chemscore.Internal.Correction>
   9.000000E+99

> <Gold.Chemscore.Hbonds>
donor molecule, donor type, donor heavy atom, donor atom, acceptor molecule, acceptor atom, score
      L1  H     9    30       P1  8028  0.78
      L1  H    13    18       P1  7957  0.98

> <Gold.Chemscore.Hbond.Weighted>
-6.5751

> <Gold.Chemscore.Metal.Weighted>
-0.0000

> <Gold.Chemscore.Lipo.Weighted>
-11.0979

> <Gold.Chemscore.Internal_Hbond.Weighted>
0.0000

> <Gold.Chemscore.DEClash.Weighted>
0.0823

> <Gold.Chemscore.DEInternal.Weighted>
1.7949

> <Gold.Chemscore.Rot.Weighted>
5.7603

> <Gold.Chemscore.Internal.Correction.Weighted>
   9.000000E+99

> <Gold.Protein.RotatedTorsions>
[ 6907 6896 6895 6894 ] final  -29.09 input  -60.11 | X-H torsion
[ 7974 7965 7964 7962 ] final   79.47 input  175.53 | X-H torsion
[ 8008 7997 7996 7995 ] final   86.82 input   59.86 | X-H torsion
[ 10167 10162 10161 10158 ] final   72.84 input  -65.29 | X-H torsion
[ 10718 10713 10712 10709 ] final -168.94 input   66.30 | X-H torsion
[ 10763 10752 10751 10750 ] final  -50.02 input  -60.55 | X-H torsion
[ 11005 11000 10999 10996 ] final   63.65 input  -57.11 | X-H torsion

> <Gold.Protein.ActiveResidues>
 VAL166  LYS551  ARG553  GLY616  TRP617  ASP618  TYR619  PRO620  LYS621  CYS622 
 ASP623  PHE694  ASN695  SER759  ASP760  ASP761  ALA762  ILE779  LEU786  VAL792 
 PHE793  MET794  SER795  GLU796  ALA797  LYS798  CYS799  TRP800  GLU811  SER814 

> <Gold.Protein.RotatedAtoms>
  151.1240  135.0095  159.8551 H   0  0  0  0  0  0  0  0  0  0  0  0  # atno 6907 bound_to 6896
  152.5449  134.1689  159.8598 H   0  0  0  0  0  0  0  0  0  0  0  0  # atno 6908 bound_to 6896
  151.1749  133.4716  159.2627 H   0  0  0  0  0  0  0  0  0  0  0  0  # atno 6909 bound_to 6896
  145.6638  139.2478  143.1907 H   0  0  0  0  0  0  0  0  0  0  0  0  # atno 7974 bound_to 7965
  155.9676  140.3388  155.6547 H   0  0  0  0  0  0  0  0  0  0  0  0  # atno 8008 bound_to 7997
  155.6716  140.0727  157.2536 H   0  0  0  0  0  0  0  0  0  0  0  0  # atno 8009 bound_to 7997
  154.4158  140.1690  156.1873 H   0  0  0  0  0  0  0  0  0  0  0  0  # atno 8010 bound_to 7997
  140.0309  144.5466  150.7508 H   0  0  0  0  0  0  0  0  0  0  0  0  # atno 10167 bound_to 10162
  156.7043  130.9209  151.3083 H   0  0  0  0  0  0  0  0  0  0  0  0  # atno 10718 bound_to 10713
  154.1036  135.6560  153.4872 H   0  0  0  0  0  0  0  0  0  0  0  0  # atno 10763 bound_to 10752
  153.0280  135.5231  154.7262 H   0  0  0  0  0  0  0  0  0  0  0  0  # atno 10764 bound_to 10752
  154.6421  135.2990  155.0059 H   0  0  0  0  0  0  0  0  0  0  0  0  # atno 10765 bound_to 10752
  140.0011  134.6441  155.9930 H   0  0  0  0  0  0  0  0  0  0  0  0  # atno 11005 bound_to 11000
  146.1103  140.7437  142.9506 LP  0  0  0  0  0  0  0  0  0  0  0  0  # atno 17320 bound_to 7965
  144.7080  140.3927  143.7103 LP  0  0  0  0  0  0  0  0  0  0  0  0  # atno 17321 bound_to 7965
  140.7302  143.2681  151.3978 LP  0  0  0  0  0  0  0  0  0  0  0  0  # atno 17342 bound_to 10162
  139.6077  144.1164  152.2266 LP  0  0  0  0  0  0  0  0  0  0  0  0  # atno 17343 bound_to 10162
  157.6961  130.9283  150.0648 LP  0  0  0  0  0  0  0  0  0  0  0  0  # atno 17370 bound_to 10713
  156.1706  130.3646  149.9170 LP  0  0  0  0  0  0  0  0  0  0  0  0  # atno 17371 bound_to 10713
  141.1642  133.6537  156.4422 LP  0  0  0  0  0  0  0  0  0  0  0  0  # atno 17394 bound_to 11000
  140.4727  134.6738  157.5136 LP  0  0  0  0  0  0  0  0  0  0  0  0  # atno 17395 bound_to 11000

$$$$
