AV-unprocessed.smi:1403|AV-procd|sdf|5704|dock6
  -GOLD-   22720 5333D 1   1.00000     0.00000
 Structure written by MMmdl.
 35 36  0  0  0  0  0  0  0  0  2 V2000
  150.8832  144.7697  159.3989 C   0  0  0  0  0  0  0  0  0  0  0  0
  151.2341  143.2756  159.3224 C   0  0  1  0  0  0  0  0  0  0  0  0
  151.2388  142.8725  157.9182 N   0  0  0  0  0  0  0  0  0  0  0  0
  150.3452  142.0606  157.3324 C   0  0  0  0  0  0  0  0  0  0  0  0
  149.3999  141.5469  157.9324 O   0  0  0  0  0  0  0  0  0  0  0  0
  150.5845  141.7602  155.8467 C   0  0  0  0  0  0  0  0  0  0  0  0
  150.8300  140.3337  155.5816 N   0  0  0  0  0  0  0  0  0  0  0  0
  150.0845  139.7206  154.5593 C   0  0  0  0  0  0  0  0  0  0  0  0
  150.2448  138.4210  154.2452 C   0  0  0  0  0  0  0  0  0  0  0  0
  151.2224  137.6446  154.9974 C   0  0  0  0  0  0  0  0  0  0  0  0
  151.3780  136.4550  154.7281 O   0  0  0  0  0  0  0  0  0  0  0  0
  151.9250  138.2862  155.9766 N   0  5  0  0  0  0  0  0  0  0  0  0
  151.7539  139.6098  156.2828 C   0  0  0  0  0  0  0  0  0  0  0  0
  152.4010  140.1701  157.1684 O   0  0  0  0  0  0  0  0  0  0  0  0
  152.6015  142.9578  159.9638 C   0  0  1  0  0  0  0  0  0  0  0  0
  152.5903  142.9098  161.4937 C   0  0  0  0  0  0  0  0  0  0  0  0
  153.7598  141.9983  161.7848 C   0  0  0  0  0  0  0  0  0  0  0  0
  153.6255  140.9674  160.6706 C   0  0  0  0  0  0  0  0  0  0  0  0
  153.0613  141.6659  159.5649 O   0  0  0  0  0  0  0  0  0  0  0  0
  150.8181  145.1120  160.4319 H   0  0  0  0  0  0  0  0  0  0  0  0
  149.9181  144.9684  158.9313 H   0  0  0  0  0  0  0  0  0  0  0  0
  151.6306  145.3807  158.8916 H   0  0  0  0  0  0  0  0  0  0  0  0
  150.4584  142.7271  159.8598 H   0  0  0  0  0  0  0  0  0  0  0  0
  151.9841  143.2394  157.3446 H   0  0  0  0  0  0  0  0  0  0  0  0
  149.7367  142.1116  155.2555 H   0  0  0  0  0  0  0  0  0  0  0  0
  151.4323  142.3604  155.5142 H   0  0  0  0  0  0  0  0  0  0  0  0
  149.3874  140.3669  154.0469 H   0  0  0  0  0  0  0  0  0  0  0  0
  149.6665  137.9658  153.4548 H   0  0  0  0  0  0  0  0  0  0  0  0
  153.3477  143.6844  159.6375 H   0  0  0  0  0  0  0  0  0  0  0  0
  152.6943  143.8936  161.9520 H   0  0  0  0  0  0  0  0  0  0  0  0
  151.6673  142.4569  161.8591 H   0  0  0  0  0  0  0  0  0  0  0  0
  154.6974  142.5460  161.6813 H   0  0  0  0  0  0  0  0  0  0  0  0
  153.7261  141.5576  162.7814 H   0  0  0  0  0  0  0  0  0  0  0  0
  154.5791  140.5083  160.4092 H   0  0  0  0  0  0  0  0  0  0  0  0
  152.9365  140.1750  160.9656 H   0  0  0  0  0  0  0  0  0  0  0  0
  1  2  1  0  0  0  0
  1 20  1  0  0  0  0
  1 21  1  0  0  0  0
  1 22  1  0  0  0  0
  2  3  1  0  0  0  0
  2 15  1  0  0  0  0
  2 23  1  0  0  0  0
  3  4  1  0  0  0  0
  3 24  1  0  0  0  0
  4  5  2  0  0  0  0
  4  6  1  0  0  0  0
  6  7  1  0  0  0  0
  6 25  1  0  0  0  0
  6 26  1  0  0  0  0
  7 13  1  0  0  0  0
  7  8  1  0  0  0  0
  8  9  2  0  0  0  0
  8 27  1  0  0  0  0
  9 10  1  0  0  0  0
  9 28  1  0  0  0  0
 10 11  2  0  0  0  0
 10 12  1  0  0  0  0
 12 13  1  0  0  0  0
 13 14  2  0  0  0  0
 15 19  1  0  0  0  0
 15 16  1  0  0  0  0
 15 29  1  0  0  0  0
 16 17  1  0  0  0  0
 16 30  1  0  0  0  0
 16 31  1  0  0  0  0
 17 18  1  0  0  0  0
 17 32  1  0  0  0  0
 17 33  1  0  0  0  0
 18 19  1  0  0  0  0
 18 34  1  0  0  0  0
 18 35  1  0  0  0  0
M  CHG  1  12  -1
M  END
> <s_m_source_file>
AV-unprocessed.smi

> <i_m_source_file_index>
1403

> <i_lp_mmshare_version>
43012

> <i_f3d_flags>
0

> <s_epik_input>
TzFbQ0gyXVtDSDJdW0NIMl1bQ0BIXTFbQ0BIXShbQ0gzXSlbTkhdQyg9TylbQ0gyXW4yW2NIXVtjSF1jKD1PKVtuSF1jMj1P

> <s_epik_cmdline>
J2VwaWtfcHl0aG9uJywgJy1waCcsICc3LjAnLCAnLXRuJywgJzgnLCAnLW1hJywgJzIwMCcsICctbWV0YWxfYmluZGluZycsICctaW1hZScsICc8aW5maWxlLm1hZT4nLCAnLW9tYWUnLCAnPG91dGZpbGUubWFlPic=

> <r_lp_tautomer_probability>
0.999537

> <r_epik_Ionization_Penalty>
3.07438

> <r_epik_Ionization_Penalty_Charging>
2.82466e-08

> <r_epik_Ionization_Penalty_Neutral>
3.07438

> <r_epik_State_Penalty>
3.07341

> <r_epik_Charging_Adjusted_Penalty>
3.07341

> <i_epik_Tot_Q>
-1

> <i_epik_Tot_abs_Q>
1

> <r_epik_Metal_State_Penalty>
0.45947

> <b_epik_Metal_Only>
1

> <s_lp_Force_Field>
OPLS_2005

> <r_lp_Energy>
26.7212

> <b_lp_Chiralities_Consistent>
1

> <s_lp_Variant>
AV-unprocessed.smi:1403-8

> <Gold.Version>
5.8.1

> <Gold.Id.Protein>
6NUR|6NUR_protein|mol2

> <Gold.PLP.Fitness>
46.9471

> <Gold.PLP.PLP>
-41.3750

> <Gold.PLP.part.hbond>
-2.0000

> <Gold.PLP.part.metal>
0.0000

> <Gold.PLP.part.buried>
-3.6150

> <Gold.PLP.part.nonpolar>
-34.7245

> <Gold.PLP.part.repulsive>
0.2435

> <Gold.PLP.ligand.clash>
0.0000

> <Gold.PLP.ligand.torsion>
0.4341

> <Gold.PLP.Chemscore.Hbond>
2.0000

> <Gold.PLP.Chemscore.CHOScore>
0.1388

> <Gold.PLP.Chemscore.Metal>
0.0000

> <Gold.Chemscore.Hbonds>
donor molecule, donor type, donor heavy atom, donor atom, acceptor molecule, acceptor atom, score
      P1  H  7997  8010       L1    14  0.94
      P1  H 10752 10763       L1    11  1.00
      L1  C     8    27       P1  7957  0.03

> <Gold.PLP.Chemscore.Internal.Correction>
0.0239

> <Gold.Rescore>
     Score         DG    S(hbond)    S(metal)    S(lipo)     H(rot)  DE(clash)    DE(int)     intcor
     15.54     -16.81       1.95        0.00      84.79       1.99       0.02       1.25       ----

> <Gold.Chemscore.Fitness>
15.5420

> <Gold.Chemscore.DG>
-16.8066

> <Gold.Chemscore.ZeroCoef>
-5.4800

> <Gold.Chemscore.Hbond>
1.9494

> <Gold.Chemscore.Metal>
0.0000

> <Gold.Chemscore.Lipo>
84.7898

> <Gold.Chemscore.Internal_Hbond>
0.0000

> <Gold.Chemscore.DEClash>
0.0195

> <Gold.Chemscore.DEInternal>
1.2451

> <Gold.Chemscore.Rot>
1.9940

> <Gold.Chemscore.Internal.Correction>
   9.000000E+99

> <Gold.Chemscore.Hbonds>
donor molecule, donor type, donor heavy atom, donor atom, acceptor molecule, acceptor atom, score
      P1  H  7997  8010       L1    14  0.43
      P1  H 10752 10763       L1    11  1.00

> <Gold.Chemscore.Hbond.Weighted>
-6.5109

> <Gold.Chemscore.Metal.Weighted>
-0.0000

> <Gold.Chemscore.Lipo.Weighted>
-9.9204

> <Gold.Chemscore.Internal_Hbond.Weighted>
0.0000

> <Gold.Chemscore.DEClash.Weighted>
0.0195

> <Gold.Chemscore.DEInternal.Weighted>
1.2451

> <Gold.Chemscore.Rot.Weighted>
5.1047

> <Gold.Chemscore.Internal.Correction.Weighted>
   9.000000E+99

> <Gold.Protein.RotatedTorsions>
[ 6907 6896 6895 6894 ] final  100.57 input  -60.11 | X-H torsion
[ 7974 7965 7964 7962 ] final  -47.96 input  175.53 | X-H torsion
[ 8008 7997 7996 7995 ] final   68.88 input   59.86 | X-H torsion
[ 10167 10162 10161 10158 ] final   56.43 input  -65.29 | X-H torsion
[ 10718 10713 10712 10709 ] final   54.31 input   66.30 | X-H torsion
[ 10763 10752 10751 10750 ] final   46.85 input  -60.55 | X-H torsion
[ 11005 11000 10999 10996 ] final  -66.70 input  -57.11 | X-H torsion

> <Gold.Protein.ActiveResidues>
 VAL166  LYS551  ARG553  GLY616  TRP617  ASP618  TYR619  PRO620  LYS621  CYS622 
 ASP623  PHE694  ASN695  SER759  ASP760  ASP761  ALA762  ILE779  LEU786  VAL792 
 PHE793  MET794  SER795  GLU796  ALA797  LYS798  CYS799  TRP800  GLU811  SER814 

> <Gold.Protein.RotatedAtoms>
  152.5369  134.0256  159.8001 H   0  0  0  0  0  0  0  0  0  0  0  0  # atno 6907 bound_to 6896
  151.0435  133.5677  159.2656 H   0  0  0  0  0  0  0  0  0  0  0  0  # atno 6908 bound_to 6896
  151.2638  135.0670  159.9162 H   0  0  0  0  0  0  0  0  0  0  0  0  # atno 6909 bound_to 6896
  145.9562  140.7524  142.9480 H   0  0  0  0  0  0  0  0  0  0  0  0  # atno 7974 bound_to 7965
  155.7150  140.3494  155.4990 H   0  0  0  0  0  0  0  0  0  0  0  0  # atno 8008 bound_to 7997
  155.9321  140.1086  157.1146 H   0  0  0  0  0  0  0  0  0  0  0  0  # atno 8009 bound_to 7997
  154.4087  140.1229  156.4803 H   0  0  0  0  0  0  0  0  0  0  0  0  # atno 8010 bound_to 7997
  140.2088  144.3911  150.6497 H   0  0  0  0  0  0  0  0  0  0  0  0  # atno 10167 bound_to 10162
  157.5245  130.8588  149.8603 H   0  0  0  0  0  0  0  0  0  0  0  0  # atno 10718 bound_to 10713
  152.9806  135.5995  154.3666 H   0  0  0  0  0  0  0  0  0  0  0  0  # atno 10763 bound_to 10752
  154.3343  135.2768  155.2457 H   0  0  0  0  0  0  0  0  0  0  0  0  # atno 10764 bound_to 10752
  154.4567  135.5976  153.6283 H   0  0  0  0  0  0  0  0  0  0  0  0  # atno 10765 bound_to 10752
  141.1489  133.6704  156.6180 H   0  0  0  0  0  0  0  0  0  0  0  0  # atno 11005 bound_to 11000
  144.6805  140.2516  143.7331 LP  0  0  0  0  0  0  0  0  0  0  0  0  # atno 17320 bound_to 7965
  145.8103  139.2000  143.1997 LP  0  0  0  0  0  0  0  0  0  0  0  0  # atno 17321 bound_to 7965
  140.6338  143.2191  151.6439 LP  0  0  0  0  0  0  0  0  0  0  0  0  # atno 17342 bound_to 10162
  139.5188  144.3273  152.0857 LP  0  0  0  0  0  0  0  0  0  0  0  0  # atno 17343 bound_to 10162
  156.0377  130.3747  150.1517 LP  0  0  0  0  0  0  0  0  0  0  0  0  # atno 17370 bound_to 10713
  156.9704  130.9833  151.3460 LP  0  0  0  0  0  0  0  0  0  0  0  0  # atno 17371 bound_to 10713
  140.3562  134.7726  157.4502 LP  0  0  0  0  0  0  0  0  0  0  0  0  # atno 17394 bound_to 11000
  140.0821  134.5717  155.8530 LP  0  0  0  0  0  0  0  0  0  0  0  0  # atno 17395 bound_to 11000

$$$$
