AV-unprocessed.smi:21|AV-procd|sdf|159|dock7
  -GOLD-   2262015393D 1   1.00000     0.00000
 Structure written by MMmdl.
 61 64  0  0  0  0  0  0  0  0  1 V2000
  151.4803  144.3703  159.7092 C   0  0  0  0  0  0  0  0  0  0  0  0
  151.4615  142.9573  159.8317 O   0  0  0  0  0  0  0  0  0  0  0  0
  151.7428  142.2798  158.6149 C   0  0  1  0  0  0  0  0  0  0  0  0
  151.7603  140.7603  158.8418 C   0  0  0  0  0  0  0  0  0  0  0  0
  150.6252  140.2194  157.9570 C   0  0  2  0  0  0  0  0  0  0  0  0
  150.8552  138.7717  157.4698 C   0  0  0  0  0  0  0  0  0  0  0  0
  151.1219  137.8427  158.5684 N   0  0  0  0  0  0  0  0  0  0  0  0
  152.4535  137.8272  159.1598 C   0  0  0  0  0  0  0  0  0  0  0  0
  150.3144  136.7595  158.7182 C   0  0  0  0  0  0  0  0  0  0  0  0
  149.8622  136.1434  157.5945 N   0  0  0  0  0  0  0  0  0  0  0  0
  149.0678  135.0730  157.6784 C   0  0  0  0  0  0  0  0  0  0  0  0
  148.6100  134.4585  158.7694 N   0  0  0  0  0  0  0  0  0  0  0  0
  149.0627  135.0646  159.9033 C   0  0  0  0  0  0  0  0  0  0  0  0
  149.9109  136.2077  159.9712 C   0  0  0  0  0  0  0  0  0  0  0  0
  150.1723  136.5125  161.3033 N   0  0  0  0  0  0  0  0  0  0  0  0
  149.5138  135.6120  161.9791 C   0  0  0  0  0  0  0  0  0  0  0  0
  148.8018  134.7153  161.2167 N   0  0  0  0  0  0  0  0  0  0  0  0
  147.9911  133.6132  161.7032 C   0  0  0  0  0  0  0  0  0  0  0  0
  148.7958  132.4135  162.2768 C   0  0  1  0  0  0  0  0  0  0  0  0
  147.8340  131.2208  162.4993 C   0  0  0  0  0  0  0  0  0  0  0  0
  146.7442  131.5845  163.3216 O   0  0  0  0  0  0  0  0  0  0  0  0
  150.0112  132.0124  161.3872 C   0  0  2  0  0  0  0  0  0  0  0  0
  149.6676  131.6241  159.9559 C   0  0  0  0  0  0  0  0  0  0  0  0
  150.9055  130.8546  159.5217 C   0  0  0  0  0  0  0  0  0  0  0  0
  151.2571  130.0986  160.6680 O   0  0  0  0  0  0  0  0  0  0  0  0
  150.7856  130.7598  161.8384 C   0  0  0  0  0  0  0  0  0  0  0  0
  150.4915  141.2021  156.8936 N   0  0  0  0  0  0  0  0  0  0  0  0
  149.2373  141.1077  156.1583 C   0  0  0  0  0  0  0  0  0  0  0  0
  150.6289  142.4730  157.5774 C   0  0  0  0  0  0  0  0  0  0  0  0
  152.7080  142.5911  158.2110 H   0  0  0  0  0  0  0  0  0  0  0  0
  149.7104  140.2421  158.5523 H   0  0  0  0  0  0  0  0  0  0  0  0
  151.2756  144.8224  160.6795 H   0  0  0  0  0  0  0  0  0  0  0  0
  150.7216  144.7230  159.0098 H   0  0  0  0  0  0  0  0  0  0  0  0
  152.4562  144.7236  159.3743 H   0  0  0  0  0  0  0  0  0  0  0  0
  152.7239  140.3573  158.5268 H   0  0  0  0  0  0  0  0  0  0  0  0
  151.6176  140.4899  159.8889 H   0  0  0  0  0  0  0  0  0  0  0  0
  149.9651  138.4098  156.9556 H   0  0  0  0  0  0  0  0  0  0  0  0
  151.6490  138.7505  156.7229 H   0  0  0  0  0  0  0  0  0  0  0  0
  152.4325  137.3933  160.1600 H   0  0  0  0  0  0  0  0  0  0  0  0
  152.8421  138.8419  159.2471 H   0  0  0  0  0  0  0  0  0  0  0  0
  153.1451  137.2539  158.5425 H   0  0  0  0  0  0  0  0  0  0  0  0
  148.7538  134.6490  156.7360 H   0  0  0  0  0  0  0  0  0  0  0  0
  149.5208  135.5854  163.0591 H   0  0  0  0  0  0  0  0  0  0  0  0
  147.3258  134.0255  162.4621 H   0  0  0  0  0  0  0  0  0  0  0  0
  147.3483  133.2726  160.8904 H   0  0  0  0  0  0  0  0  0  0  0  0
  149.1843  132.6931  163.2570 H   0  0  0  0  0  0  0  0  0  0  0  0
  147.4586  130.8413  161.5485 H   0  0  0  0  0  0  0  0  0  0  0  0
  148.3319  130.3924  163.0008 H   0  0  0  0  0  0  0  0  0  0  0  0
  146.8814  132.4671  163.6296 H   0  0  0  0  0  0  0  0  0  0  0  0
  150.7080  132.8510  161.3408 H   0  0  0  0  0  0  0  0  0  0  0  0
  148.7954  130.9689  159.9333 H   0  0  0  0  0  0  0  0  0  0  0  0
  149.4730  132.4821  159.3120 H   0  0  0  0  0  0  0  0  0  0  0  0
  150.7260  130.2156  158.6571 H   0  0  0  0  0  0  0  0  0  0  0  0
  151.7194  131.5402  159.2815 H   0  0  0  0  0  0  0  0  0  0  0  0
  151.6284  131.0118  162.4806 H   0  0  0  0  0  0  0  0  0  0  0  0
  150.1440  130.0645  162.3804 H   0  0  0  0  0  0  0  0  0  0  0  0
  149.1672  141.9054  155.4183 H   0  0  0  0  0  0  0  0  0  0  0  0
  148.3787  141.1891  156.8259 H   0  0  0  0  0  0  0  0  0  0  0  0
  149.1655  140.1600  155.6252 H   0  0  0  0  0  0  0  0  0  0  0  0
  149.6967  142.7180  158.0898 H   0  0  0  0  0  0  0  0  0  0  0  0
  150.8459  143.2833  156.8807 H   0  0  0  0  0  0  0  0  0  0  0  0
  1  2  1  0  0  0  0
  1 32  1  0  0  0  0
  1 33  1  0  0  0  0
  1 34  1  0  0  0  0
  2  3  1  0  0  0  0
  3 30  1  0  0  0  0
  3 29  1  0  0  0  0
  3  4  1  0  0  0  0
  4  5  1  0  0  0  0
  4 35  1  0  0  0  0
  4 36  1  0  0  0  0
  5 31  1  0  0  0  0
  5  6  1  0  0  0  0
  5 27  1  0  0  0  0
  6  7  1  0  0  0  0
  6 37  1  0  0  0  0
  6 38  1  0  0  0  0
  7  8  1  0  0  0  0
  7  9  1  0  0  0  0
  8 39  1  0  0  0  0
  8 40  1  0  0  0  0
  8 41  1  0  0  0  0
  9 14  1  0  0  0  0
  9 10  2  0  0  0  0
 10 11  1  0  0  0  0
 11 12  2  0  0  0  0
 11 42  1  0  0  0  0
 12 13  1  0  0  0  0
 13 17  1  0  0  0  0
 13 14  2  0  0  0  0
 14 15  1  0  0  0  0
 15 16  2  0  0  0  0
 16 17  1  0  0  0  0
 16 43  1  0  0  0  0
 17 18  1  0  0  0  0
 18 19  1  0  0  0  0
 18 44  1  0  0  0  0
 18 45  1  0  0  0  0
 19 20  1  0  0  0  0
 19 22  1  0  0  0  0
 19 46  1  0  0  0  0
 20 21  1  0  0  0  0
 20 47  1  0  0  0  0
 20 48  1  0  0  0  0
 21 49  1  0  0  0  0
 22 26  1  0  0  0  0
 22 23  1  0  0  0  0
 22 50  1  0  0  0  0
 23 24  1  0  0  0  0
 23 51  1  0  0  0  0
 23 52  1  0  0  0  0
 24 25  1  0  0  0  0
 24 53  1  0  0  0  0
 24 54  1  0  0  0  0
 25 26  1  0  0  0  0
 26 55  1  0  0  0  0
 26 56  1  0  0  0  0
 27 28  1  0  0  0  0
 27 29  1  0  0  0  0
 28 57  1  0  0  0  0
 28 58  1  0  0  0  0
 28 59  1  0  0  0  0
 29 60  1  0  0  0  0
 29 61  1  0  0  0  0
M  END
> <s_m_source_file>
AV-unprocessed.smi

> <i_m_source_file_index>
21

> <i_lp_mmshare_version>
43012

> <i_f3d_flags>
0

> <s_epik_input>
W0NIM11PW0NASF0xW0NIMl1bQ0BIXShOKFtDSDNdKVtDSDJdMSlbQ0gyXU4oW0NIM10pYyhuW2NIXW4yKWMoYzIzKW5bY0hdbjNbQ0gyXVtDQEhdKFtDSDJdW09IXSlbQ0BASF00W0NIMl1bQ0gyXU9bQ0gyXTQ=

> <s_epik_cmdline>
J2VwaWtfcHl0aG9uJywgJy1waCcsICc3LjAnLCAnLXRuJywgJzgnLCAnLW1hJywgJzIwMCcsICctbWV0YWxfYmluZGluZycsICctaW1hZScsICc8aW5maWxlLm1hZT4nLCAnLW9tYWUnLCAnPG91dGZpbGUubWFlPic=

> <r_lp_tautomer_probability>
1

> <r_epik_Ionization_Penalty>
2.17574

> <r_epik_Ionization_Penalty_Charging>
0

> <r_epik_Ionization_Penalty_Neutral>
2.17574

> <r_epik_State_Penalty>
2.31336

> <r_epik_Charging_Adjusted_Penalty>
2.31336

> <i_epik_Tot_Q>
0

> <i_epik_Tot_abs_Q>
0

> <r_epik_Metal_State_Penalty>
2.31025

> <b_epik_Metal_Only>
0

> <s_lp_Force_Field>
OPLS_2005

> <r_lp_Energy>
70.5477

> <b_lp_Chiralities_Consistent>
1

> <s_lp_Variant>
AV-unprocessed.smi:21-39

> <Gold.Version>
5.8.1

> <Gold.Id.Protein>
6NUR|6NUR_protein|mol2

> <Gold.PLP.Fitness>
43.8793

> <Gold.PLP.PLP>
-42.7340

> <Gold.PLP.part.hbond>
-1.7898

> <Gold.PLP.part.metal>
0.0000

> <Gold.PLP.part.buried>
-6.9528

> <Gold.PLP.part.nonpolar>
-34.5329

> <Gold.PLP.part.repulsive>
0.0496

> <Gold.PLP.ligand.clash>
0.0000

> <Gold.PLP.ligand.torsion>
1.2512

> <Gold.PLP.Chemscore.Hbond>
0.9913

> <Gold.PLP.Chemscore.CHOScore>
0.0000

> <Gold.PLP.Chemscore.Metal>
0.0000

> <Gold.Chemscore.Hbonds>
donor molecule, donor type, donor heavy atom, donor atom, acceptor molecule, acceptor atom, score
      P1  H  6931  6943       L1    15  0.39

> <Gold.PLP.Chemscore.Internal.Correction>
0.6740

> <Gold.Rescore>
     Score         DG    S(hbond)    S(metal)    S(lipo)     H(rot)  DE(clash)    DE(int)     intcor
     10.84     -12.29       0.88        0.00      98.64       3.00       0.02       1.43       ----

> <Gold.Chemscore.Fitness>
10.8401

> <Gold.Chemscore.DG>
-12.2871

> <Gold.Chemscore.ZeroCoef>
-5.4800

> <Gold.Chemscore.Hbond>
0.8846

> <Gold.Chemscore.Metal>
0.0000

> <Gold.Chemscore.Lipo>
98.6361

> <Gold.Chemscore.Internal_Hbond>
0.0000

> <Gold.Chemscore.DEClash>
0.0186

> <Gold.Chemscore.DEInternal>
1.4284

> <Gold.Chemscore.Rot>
3.0031

> <Gold.Chemscore.Internal.Correction>
   9.000000E+99

> <Gold.Chemscore.Hbonds>
donor molecule, donor type, donor heavy atom, donor atom, acceptor molecule, acceptor atom, score
      P1  H  6931  6943       L1    15  0.07

> <Gold.Chemscore.Hbond.Weighted>
-2.9546

> <Gold.Chemscore.Metal.Weighted>
-0.0000

> <Gold.Chemscore.Lipo.Weighted>
-11.5404

> <Gold.Chemscore.Internal_Hbond.Weighted>
0.0000

> <Gold.Chemscore.DEClash.Weighted>
0.0186

> <Gold.Chemscore.DEInternal.Weighted>
1.4284

> <Gold.Chemscore.Rot.Weighted>
7.6880

> <Gold.Chemscore.Internal.Correction.Weighted>
   9.000000E+99

> <Gold.Protein.RotatedTorsions>
[ 6907 6896 6895 6894 ] final  -89.63 input  -60.11 | X-H torsion
[ 7974 7965 7964 7962 ] final  -31.51 input  175.53 | X-H torsion
[ 8008 7997 7996 7995 ] final   77.88 input   59.86 | X-H torsion
[ 10167 10162 10161 10158 ] final   20.32 input  -65.29 | X-H torsion
[ 10718 10713 10712 10709 ] final   97.22 input   66.30 | X-H torsion
[ 10763 10752 10751 10750 ] final    2.09 input  -60.55 | X-H torsion
[ 11005 11000 10999 10996 ] final   44.61 input  -57.11 | X-H torsion

> <Gold.Protein.ActiveResidues>
 VAL166  LYS551  ARG553  GLY616  TRP617  ASP618  TYR619  PRO620  LYS621  CYS622 
 ASP623  PHE694  ASN695  SER759  ASP760  ASP761  ALA762  ILE779  LEU786  VAL792 
 PHE793  MET794  SER795  GLU796  ALA797  LYS798  CYS799  TRP800  GLU811  SER814 

> <Gold.Protein.RotatedAtoms>
  150.6875  134.2557  159.4528 H   0  0  0  0  0  0  0  0  0  0  0  0  # atno 6907 bound_to 6896
  152.0491  134.9662  160.0584 H   0  0  0  0  0  0  0  0  0  0  0  0  # atno 6908 bound_to 6896
  152.1133  133.4278  159.4678 H   0  0  0  0  0  0  0  0  0  0  0  0  # atno 6909 bound_to 6896
  146.1062  140.5676  142.8798 H   0  0  0  0  0  0  0  0  0  0  0  0  # atno 7974 bound_to 7965
  155.8479  140.3459  155.5674 H   0  0  0  0  0  0  0  0  0  0  0  0  # atno 8008 bound_to 7997
  155.8070  140.0893  157.1945 H   0  0  0  0  0  0  0  0  0  0  0  0  # atno 8009 bound_to 7997
  154.4007  140.1455  156.3329 H   0  0  0  0  0  0  0  0  0  0  0  0  # atno 8010 bound_to 7997
  140.5512  143.9505  150.6579 H   0  0  0  0  0  0  0  0  0  0  0  0  # atno 10167 bound_to 10162
  157.6916  131.0602  150.4610 H   0  0  0  0  0  0  0  0  0  0  0  0  # atno 10718 bound_to 10713
  153.2999  135.6955  153.7213 H   0  0  0  0  0  0  0  0  0  0  0  0  # atno 10763 bound_to 10752
  153.6132  135.3441  155.2986 H   0  0  0  0  0  0  0  0  0  0  0  0  # atno 10764 bound_to 10752
  154.8547  135.4368  154.2106 H   0  0  0  0  0  0  0  0  0  0  0  0  # atno 10765 bound_to 10752
  140.1536  134.4430  155.8365 H   0  0  0  0  0  0  0  0  0  0  0  0  # atno 11005 bound_to 11000
  144.7473  140.5100  143.6827 LP  0  0  0  0  0  0  0  0  0  0  0  0  # atno 17320 bound_to 7965
  145.5756  139.1486  143.3264 LP  0  0  0  0  0  0  0  0  0  0  0  0  # atno 17321 bound_to 7965
  140.2931  143.3310  152.1043 LP  0  0  0  0  0  0  0  0  0  0  0  0  # atno 17342 bound_to 10162
  139.5028  144.6743  151.6167 LP  0  0  0  0  0  0  0  0  0  0  0  0  # atno 17343 bound_to 10162
  156.4955  130.4105  149.6382 LP  0  0  0  0  0  0  0  0  0  0  0  0  # atno 17370 bound_to 10713
  156.3377  130.7365  151.2305 LP  0  0  0  0  0  0  0  0  0  0  0  0  # atno 17371 bound_to 10713
  141.2202  133.6883  156.7466 LP  0  0  0  0  0  0  0  0  0  0  0  0  # atno 17394 bound_to 11000
  140.2575  134.8493  157.3727 LP  0  0  0  0  0  0  0  0  0  0  0  0  # atno 17395 bound_to 11000

$$$$
