AV-unprocessed.smi:2377|AV-procd|sdf|9448|dock6
  -GOLD-   2272013 83D 1   1.00000     0.00000
 Structure written by MMmdl.
 23 23  0  0  0  0  0  0  0  0  1 V2000
  150.9901  138.7085  154.4488 C   0  0  0  0  0  0  0  0  0  0  0  0
  150.7173  140.1160  154.7098 N   0  0  0  0  0  0  0  0  0  0  0  0
  151.2046  140.5649  156.0117 C   0  0  0  0  0  0  0  0  0  0  0  0
  150.8497  142.0398  156.2752 C   0  0  1  0  0  0  0  0  0  0  0  0
  149.4427  142.1497  156.3247 O   0  0  0  0  0  0  0  0  0  0  0  0
  151.5062  142.5815  157.5368 C   0  0  0  0  0  0  0  0  0  0  0  0
  152.1907  141.7214  158.4211 C   0  0  0  0  0  0  0  0  0  0  0  0
  152.7775  142.2633  159.5807 C   0  0  0  0  0  0  0  0  0  0  0  0
  152.6535  143.6477  159.8106 C   0  0  0  0  0  0  0  0  0  0  0  0
  151.9995  144.4820  158.9747 N   0  0  0  0  0  0  0  0  0  0  0  0
  151.4394  143.9539  157.8650 C   0  0  0  0  0  0  0  0  0  0  0  0
  150.6232  138.4224  153.4632 H   0  0  0  0  0  0  0  0  0  0  0  0
  150.5018  138.0704  155.1859 H   0  0  0  0  0  0  0  0  0  0  0  0
  152.0607  138.5040  154.4786 H   0  0  0  0  0  0  0  0  0  0  0  0
  149.7186  140.2859  154.6480 H   0  0  0  0  0  0  0  0  0  0  0  0
  150.7662  139.9461  156.7960 H   0  0  0  0  0  0  0  0  0  0  0  0
  152.2846  140.4244  156.0744 H   0  0  0  0  0  0  0  0  0  0  0  0
  151.1799  142.6384  155.4249 H   0  0  0  0  0  0  0  0  0  0  0  0
  149.2016  143.0290  156.0755 H   0  0  0  0  0  0  0  0  0  0  0  0
  152.2654  140.6633  158.2180 H   0  0  0  0  0  0  0  0  0  0  0  0
  153.3086  141.6331  160.2786 H   0  0  0  0  0  0  0  0  0  0  0  0
  153.0908  144.0963  160.6901 H   0  0  0  0  0  0  0  0  0  0  0  0
  150.9214  144.6483  157.2199 H   0  0  0  0  0  0  0  0  0  0  0  0
  1  2  1  0  0  0  0
  1 12  1  0  0  0  0
  1 13  1  0  0  0  0
  1 14  1  0  0  0  0
  2  3  1  0  0  0  0
  2 15  1  0  0  0  0
  3  4  1  0  0  0  0
  3 16  1  0  0  0  0
  3 17  1  0  0  0  0
  4  5  1  0  0  0  0
  4  6  1  0  0  0  0
  4 18  1  0  0  0  0
  5 19  1  0  0  0  0
  6 11  1  0  0  0  0
  6  7  2  0  0  0  0
  7  8  1  0  0  0  0
  7 20  1  0  0  0  0
  8  9  2  0  0  0  0
  8 21  1  0  0  0  0
  9 10  1  0  0  0  0
  9 22  1  0  0  0  0
 10 11  2  0  0  0  0
 11 23  1  0  0  0  0
M  END
> <s_m_source_file>
AV-unprocessed.smi

> <i_m_source_file_index>
2377

> <i_lp_mmshare_version>
43012

> <i_f3d_flags>
0

> <s_epik_input>
W0NIM11bTkhdW0NIMl1bQ0BIXShbT0hdKWMxW2NIXVtjSF1bY0hdbltjSF0x

> <s_epik_cmdline>
J2VwaWtfcHl0aG9uJywgJy1waCcsICc3LjAnLCAnLXRuJywgJzgnLCAnLW1hJywgJzIwMCcsICctbWV0YWxfYmluZGluZycsICctaW1hZScsICc8aW5maWxlLm1hZT4nLCAnLW9tYWUnLCAnPG91dGZpbGUubWFlPic=

> <r_epik_Ionization_Penalty>
2.4626

> <r_epik_Ionization_Penalty_Charging>
0

> <r_epik_Ionization_Penalty_Neutral>
2.4626

> <r_epik_State_Penalty>
2.6219

> <r_epik_Charging_Adjusted_Penalty>
2.6219

> <i_epik_Tot_Q>
0

> <i_epik_Tot_abs_Q>
0

> <r_epik_Metal_State_Penalty>
2.61964

> <b_epik_Metal_Only>
0

> <s_lp_Force_Field>
OPLS_2005

> <r_lp_Energy>
6.69751

> <b_lp_Chiralities_Consistent>
1

> <s_lp_Variant>
AV-unprocessed.smi:2377-4

> <Gold.Version>
5.8.1

> <Gold.Id.Protein>
6NUR|6NUR_protein|mol2

> <Gold.PLP.Fitness>
36.6014

> <Gold.PLP.PLP>
-27.8362

> <Gold.PLP.part.hbond>
-2.0000

> <Gold.PLP.part.metal>
0.0000

> <Gold.PLP.part.buried>
-5.0885

> <Gold.PLP.part.nonpolar>
-20.8125

> <Gold.PLP.part.repulsive>
0.0399

> <Gold.PLP.ligand.clash>
0.0000

> <Gold.PLP.ligand.torsion>
0.1224

> <Gold.PLP.Chemscore.Hbond>
2.0000

> <Gold.PLP.Chemscore.CHOScore>
1.0000

> <Gold.PLP.Chemscore.Metal>
0.0000

> <Gold.Chemscore.Hbonds>
donor molecule, donor type, donor heavy atom, donor atom, acceptor molecule, acceptor atom, score
      L1  H     5    19       P1  8028  1.00
      P1  H  7989  7998       L1     2  1.00
      L1  C    11    23       P1  8028  1.00

> <Gold.PLP.Chemscore.Internal.Correction>
0.0101

> <Gold.Rescore>
     Score         DG    S(hbond)    S(metal)    S(lipo)     H(rot)  DE(clash)    DE(int)     intcor
     13.83     -13.88       1.30        0.00      77.14       1.94       0.02       0.03       ----

> <Gold.Chemscore.Fitness>
13.8333

> <Gold.Chemscore.DG>
-13.8826

> <Gold.Chemscore.ZeroCoef>
-5.4800

> <Gold.Chemscore.Hbond>
1.2977

> <Gold.Chemscore.Metal>
0.0000

> <Gold.Chemscore.Lipo>
77.1388

> <Gold.Chemscore.Internal_Hbond>
0.0000

> <Gold.Chemscore.DEClash>
0.0218

> <Gold.Chemscore.DEInternal>
0.0275

> <Gold.Chemscore.Rot>
1.9363

> <Gold.Chemscore.Internal.Correction>
   9.000000E+99

> <Gold.Chemscore.Hbonds>
donor molecule, donor type, donor heavy atom, donor atom, acceptor molecule, acceptor atom, score
      L1  H     5    19       P1  8028  1.00
      P1  H  7989  7998       L1     2  0.21

> <Gold.Chemscore.Hbond.Weighted>
-4.3343

> <Gold.Chemscore.Metal.Weighted>
-0.0000

> <Gold.Chemscore.Lipo.Weighted>
-9.0252

> <Gold.Chemscore.Internal_Hbond.Weighted>
0.0000

> <Gold.Chemscore.DEClash.Weighted>
0.0218

> <Gold.Chemscore.DEInternal.Weighted>
0.0275

> <Gold.Chemscore.Rot.Weighted>
4.9570

> <Gold.Chemscore.Internal.Correction.Weighted>
   9.000000E+99

> <Gold.Protein.RotatedTorsions>
[ 6907 6896 6895 6894 ] final   55.93 input  -60.11 | X-H torsion
[ 7974 7965 7964 7962 ] final  131.16 input  175.53 | X-H torsion
[ 8008 7997 7996 7995 ] final   58.74 input   59.86 | X-H torsion
[ 10167 10162 10161 10158 ] final  -30.48 input  -65.29 | X-H torsion
[ 10718 10713 10712 10709 ] final  176.70 input   66.30 | X-H torsion
[ 10763 10752 10751 10750 ] final  -56.99 input  -60.55 | X-H torsion
[ 11005 11000 10999 10996 ] final   24.36 input  -57.11 | X-H torsion

> <Gold.Protein.ActiveResidues>
 VAL166  LYS551  ARG553  GLY616  TRP617  ASP618  TYR619  PRO620  LYS621  CYS622 
 ASP623  PHE694  ASN695  SER759  ASP760  ASP761  ALA762  ILE779  LEU786  VAL792 
 PHE793  MET794  SER795  GLU796  ALA797  LYS798  CYS799  TRP800  GLU811  SER814 

> <Gold.Protein.RotatedAtoms>
  152.3587  134.6904  160.0213 H   0  0  0  0  0  0  0  0  0  0  0  0  # atno 6907 bound_to 6896
  151.7234  133.3310  159.3329 H   0  0  0  0  0  0  0  0  0  0  0  0  # atno 6908 bound_to 6896
  150.7589  134.6362  159.6257 H   0  0  0  0  0  0  0  0  0  0  0  0  # atno 6909 bound_to 6896
  145.0102  139.4227  143.5248 H   0  0  0  0  0  0  0  0  0  0  0  0  # atno 7974 bound_to 7965
  155.5549  140.3487  155.4477 H   0  0  0  0  0  0  0  0  0  0  0  0  # atno 8008 bound_to 7997
  156.0556  140.1328  157.0026 H   0  0  0  0  0  0  0  0  0  0  0  0  # atno 8009 bound_to 7997
  154.4455  140.0996  156.6426 H   0  0  0  0  0  0  0  0  0  0  0  0  # atno 8010 bound_to 7997
  140.7249  143.3846  151.1539 H   0  0  0  0  0  0  0  0  0  0  0  0  # atno 10167 bound_to 10162
  156.9162  130.9926  151.3012 H   0  0  0  0  0  0  0  0  0  0  0  0  # atno 10718 bound_to 10713
  154.2154  135.6387  153.5128 H   0  0  0  0  0  0  0  0  0  0  0  0  # atno 10763 bound_to 10752
  152.9980  135.5484  154.6171 H   0  0  0  0  0  0  0  0  0  0  0  0  # atno 10764 bound_to 10752
  154.5618  135.2909  155.0886 H   0  0  0  0  0  0  0  0  0  0  0  0  # atno 10765 bound_to 10752
  140.3595  134.2140  155.7673 H   0  0  0  0  0  0  0  0  0  0  0  0  # atno 11005 bound_to 11000
  146.3468  139.9542  142.8725 LP  0  0  0  0  0  0  0  0  0  0  0  0  # atno 17320 bound_to 7965
  145.2033  140.9864  143.4143 LP  0  0  0  0  0  0  0  0  0  0  0  0  # atno 17321 bound_to 7965
  139.7440  143.8880  152.3058 LP  0  0  0  0  0  0  0  0  0  0  0  0  # atno 17342 bound_to 10162
  139.8711  144.7068  150.8987 LP  0  0  0  0  0  0  0  0  0  0  0  0  # atno 17343 bound_to 10162
  157.5936  130.8461  149.8696 LP  0  0  0  0  0  0  0  0  0  0  0  0  # atno 17370 bound_to 10713
  156.0512  130.3717  150.1197 LP  0  0  0  0  0  0  0  0  0  0  0  0  # atno 17371 bound_to 10713
  141.1988  133.8026  157.0565 LP  0  0  0  0  0  0  0  0  0  0  0  0  # atno 17394 bound_to 11000
  140.0638  134.9740  157.1350 LP  0  0  0  0  0  0  0  0  0  0  0  0  # atno 17395 bound_to 11000

$$$$
