#       Name:                AV-unprocessed.smi:1762
#       Creating user name   scv26
#       Creation time:       Fri Mar 27 08:36:23 2020


#       File generated by GOLD software.
#

@<TRIPOS>MOLECULE
AV-unprocessed.smi:1762
    58    59     1
SMALL
NO_CHARGES


@<TRIPOS>ATOM
      1 ****        -1.1376   3.5350   0.4108 C.3            1 S1                 0.0000
      2 ****        -1.8409   2.6843  -0.6620 C.3            1 S1                 0.0000
      3 ****        -1.3419   1.2292  -0.7163 C.3            1 S1                 0.0000
      4 ****        -1.8221   0.4342   0.4515 N.4            1 S1                 1.0000
      5 ****        -1.2691  -0.9627   0.4814 C.3            1 S1                 0.0000
      6 ****         0.2756  -0.9363   0.5887 C.2            1 S1                 0.0000
      7 ****         0.7911  -0.3051   1.5182 O.2            1 S1                 0.0000
      8 ****         0.8565  -1.6192  -0.4366 N.pl3          1 S1                -1.0000
      9 ****         2.3014  -1.7280  -0.6299 C.3            1 S1                 0.0000
     10 ****         2.8324  -0.4973  -1.4013 C.3            1 S1                 0.0000
     11 ****         4.3294  -0.5345  -1.6909 C.ar           1 S1                 0.0000
     12 ****         4.8100  -1.0258  -2.9263 C.ar           1 S1                 0.0000
     13 ****         6.1990  -1.0271  -3.1583 C.ar           1 S1                 0.0000
     14 ****         7.0550  -0.5357  -2.1542 C.ar           1 S1                 0.0000
     15 ****         6.4813  -0.0608  -0.9582 C.ar           1 S1                 0.0000
     16 ****         5.1511  -0.0532  -0.7260 N.ar           1 S1                 0.0000
     17 ****        -1.8958  -1.8907   1.5776 C.3            1 S1                 0.0000
     18 ****        -1.7674  -1.3570   3.0202 C.3            1 S1                 0.0000
     19 ****        -1.3812  -3.3417   1.5031 C.3            1 S1                 0.0000
     20 ****        -3.3062   0.5276   0.5182 C.3            1 S1                 0.0000
     21 ****        -3.7654   1.9957   0.5843 C.3            1 S1                 0.0000
     22 ****        -5.2930   2.1205   0.5689 C.3            1 S1                 0.0000
     23 ****        -3.2601   2.7109  -0.5371 O.3            1 S1                 0.0000
     24 ****        -0.0693   3.6081   0.2048 H              1 S1                 0.0000
     25 ****        -1.2438   3.1144   1.4105 H              1 S1                 0.0000
     26 ****        -1.5389   4.5484   0.4282 H              1 S1                 0.0000
     27 ****        -1.6172   3.1463  -1.6241 H              1 S1                 0.0000
     28 ****        -1.6958   0.7560  -1.6339 H              1 S1                 0.0000
     29 ****        -0.2542   1.2454  -0.7802 H              1 S1                 0.0000
     30 ****        -1.5520  -1.4022  -0.4787 H              1 S1                 0.0000
     31 ****         2.8361  -1.8234   0.3161 H              1 S1                 0.0000
     32 ****         2.5471  -2.6277  -1.1944 H              1 S1                 0.0000
     33 ****         2.3007  -0.4009  -2.3492 H              1 S1                 0.0000
     34 ****         2.6133   0.4138  -0.8421 H              1 S1                 0.0000
     35 ****         4.1287  -1.3967  -3.6782 H              1 S1                 0.0000
     36 ****         6.6003  -1.3971  -4.0902 H              1 S1                 0.0000
     37 ****         8.1254  -0.5216  -2.2971 H              1 S1                 0.0000
     38 ****         7.1075   0.3259  -0.1678 H              1 S1                 0.0000
     39 ****        -2.9596  -1.9808   1.3616 H              1 S1                 0.0000
     40 ****        -0.7354  -1.3790   3.3696 H              1 S1                 0.0000
     41 ****        -2.3508  -1.9673   3.7098 H              1 S1                 0.0000
     42 ****        -2.1253  -0.3324   3.1135 H              1 S1                 0.0000
     43 ****        -0.3325  -3.4191   1.7916 H              1 S1                 0.0000
     44 ****        -1.4791  -3.7420   0.4936 H              1 S1                 0.0000
     45 ****        -1.9493  -3.9915   2.1691 H              1 S1                 0.0000
     46 ****        -3.7411   0.0275  -0.3487 H              1 S1                 0.0000
     47 ****        -3.6967   0.0327   1.4048 H              1 S1                 0.0000
     48 ****        -3.4019   2.4505   1.5059 H              1 S1                 0.0000
     49 ****        -5.7380   1.6068   1.4215 H              1 S1                 0.0000
     50 ****        -5.7160   1.6905  -0.3396 H              1 S1                 0.0000
     51 ****        -5.5985   3.1660   0.6157 H              1 S1                 0.0000
     52 ****        -1.4649   0.8885   1.2798 H              1 S1                 0.0000
     53 ****         0.2128   0.1732   2.1791 LP             1 S1                 0.0000
     54 ****         1.7864  -0.2729   1.6093 LP             1 S1                 0.0000
     55 ****         0.2585  -2.0736  -1.0969 LP             1 S1                 0.0000
     56 ****         4.7821   0.2980   0.1346 LP             1 S1                 0.0000
     57 ****        -3.6544   2.3128  -1.3653 LP             1 S1                 0.0000
     58 ****        -3.5490   3.6648  -0.4556 LP             1 S1                 0.0000
@<TRIPOS>BOND
    1    1    2 1     
    2    1   24 1     
    3    1   25 1     
    4    1   26 1     
    5    2   23 1     
    6    2    3 1     
    7    2   27 1     
    8    3    4 1     
    9    3   28 1     
   10    3   29 1     
   11    4    5 1     
   12    4   20 1     
   13    4   52 1     
   14    5    6 1     
   15    5   17 1     
   16    5   30 1     
   17    6    7 2     
   18    6    8 1     
   19    8    9 1     
   20    9   10 1     
   21    9   31 1     
   22    9   32 1     
   23   10   11 1     
   24   10   33 1     
   25   10   34 1     
   26   11   16 ar    
   27   11   12 ar    
   28   12   13 ar    
   29   12   35 1     
   30   13   14 ar    
   31   13   36 1     
   32   14   15 ar    
   33   14   37 1     
   34   15   16 ar    
   35   15   38 1     
   36   17   18 1     
   37   17   19 1     
   38   17   39 1     
   39   18   40 1     
   40   18   41 1     
   41   18   42 1     
   42   19   43 1     
   43   19   44 1     
   44   19   45 1     
   45   20   21 1     
   46   20   46 1     
   47   20   47 1     
   48   21   22 1     
   49   21   23 1     
   50   21   48 1     
   51   22   49 1     
   52   22   50 1     
   53   22   51 1     
   54    7   53 1     
   55    7   54 1     
   56    8   55 1     
   57   16   56 1     
   58   23   57 1     
   59   23   58 1     
@<TRIPOS>SUBSTRUCTURE
      1 S1             1
@<TRIPOS>SET
LONE_PAIRS      STATIC     ATOMS    <user>   **** ""
6 53 54 55 56 57 58
DONOR_HYDROGENS      STATIC     ATOMS    <user>   **** ""
1 52
ATOM$BLUE        STATIC     ATOMS    COLORGROUP SYSTEM
6 53 54 55 56 57 58
ATOM$RED        STATIC     ATOMS    COLORGROUP SYSTEM
1 52
