AV-unprocessed.smi:1660|AV-procd|sdf|6652|dock2
  -GOLD-   22720 7363D 1   1.00000     0.00000
 Structure written by MMmdl.
 42 43  0  0  0  0  0  0  0  0  1 V2000
  143.2754  132.7082  148.1595 C   0  0  0  0  0  0  0  0  0  0  0  0
  143.7061  131.8977  149.2475 O   0  0  0  0  0  0  0  0  0  0  0  0
  144.6778  132.3956  150.0912 C   0  0  0  0  0  0  0  0  0  0  0  0
  145.3059  131.5122  150.9911 C   0  0  0  0  0  0  0  0  0  0  0  0
  146.2979  132.0115  151.8564 C   0  0  0  0  0  0  0  0  0  0  0  0
  146.6383  133.3838  151.7877 C   0  0  0  0  0  0  0  0  0  0  0  0
  147.6081  134.0128  152.6155 N   0  0  0  0  0  0  0  0  0  0  0  0
  147.9729  133.6950  153.8698 C   0  0  0  0  0  0  0  0  0  0  0  0
  147.5287  132.7525  154.5250 O   0  0  0  0  0  0  0  0  0  0  0  0
  148.9130  134.5314  154.3295 N   0  0  0  0  0  0  0  0  0  0  0  0
  149.5147  134.4369  155.6531 C   0  0  0  0  0  0  0  0  0  0  0  0
  149.7367  135.8375  156.2527 C   0  0  0  0  0  0  0  0  0  0  0  0
  151.1069  136.4490  155.9084 C   0  0  0  0  0  0  0  0  0  0  0  0
  152.1268  135.9124  156.3442 O   0  0  0  0  0  0  0  0  0  0  0  0
  151.1536  137.5579  155.1319 N   0  0  0  0  0  0  0  0  0  0  0  0
  149.9558  138.2640  154.6689 C   0  0  0  0  0  0  0  0  0  0  0  0
  149.9268  139.6509  155.3363 C   0  0  0  0  0  0  0  0  0  0  0  0
  151.1206  140.3626  155.0168 O   0  0  0  0  0  0  0  0  0  0  0  0
  152.3066  139.6823  155.4218 C   0  0  0  0  0  0  0  0  0  0  0  0
  152.3615  138.2973  154.7526 C   0  0  0  0  0  0  0  0  0  0  0  0
  145.9411  134.1860  150.8609 C   0  0  0  0  0  0  0  0  0  0  0  0
  144.9891  133.7139  150.0287 N   0  0  0  0  0  0  0  0  0  0  0  0
  142.5101  132.1761  147.5949 H   0  0  0  0  0  0  0  0  0  0  0  0
  144.0971  132.9289  147.4766 H   0  0  0  0  0  0  0  0  0  0  0  0
  142.8374  133.6446  148.5082 H   0  0  0  0  0  0  0  0  0  0  0  0
  145.0281  130.4688  151.0210 H   0  0  0  0  0  0  0  0  0  0  0  0
  146.7624  131.3371  152.5583 H   0  0  0  0  0  0  0  0  0  0  0  0
  148.1214  134.7665  152.1822 H   0  0  0  0  0  0  0  0  0  0  0  0
  149.2309  135.2783  153.7295 H   0  0  0  0  0  0  0  0  0  0  0  0
  148.8610  133.8459  156.2973 H   0  0  0  0  0  0  0  0  0  0  0  0
  150.4645  133.9039  155.5767 H   0  0  0  0  0  0  0  0  0  0  0  0
  148.9550  136.5057  155.8889 H   0  0  0  0  0  0  0  0  0  0  0  0
  149.6412  135.7837  157.3380 H   0  0  0  0  0  0  0  0  0  0  0  0
  149.9916  138.3685  153.5836 H   0  0  0  0  0  0  0  0  0  0  0  0
  149.0317  137.7283  154.8903 H   0  0  0  0  0  0  0  0  0  0  0  0
  149.0687  140.2226  154.9827 H   0  0  0  0  0  0  0  0  0  0  0  0
  149.8263  139.5587  156.4191 H   0  0  0  0  0  0  0  0  0  0  0  0
  153.1719  140.2777  155.1306 H   0  0  0  0  0  0  0  0  0  0  0  0
  152.3318  139.5904  156.5090 H   0  0  0  0  0  0  0  0  0  0  0  0
  153.2898  137.7953  155.0198 H   0  0  0  0  0  0  0  0  0  0  0  0
  152.3881  138.4087  153.6677 H   0  0  0  0  0  0  0  0  0  0  0  0
  146.1555  135.2416  150.7795 H   0  0  0  0  0  0  0  0  0  0  0  0
  1  2  1  0  0  0  0
  1 23  1  0  0  0  0
  1 24  1  0  0  0  0
  1 25  1  0  0  0  0
  2  3  1  0  0  0  0
  3 22  1  0  0  0  0
  3  4  2  0  0  0  0
  4  5  1  0  0  0  0
  4 26  1  0  0  0  0
  5  6  2  0  0  0  0
  5 27  1  0  0  0  0
  6  7  1  0  0  0  0
  6 21  1  0  0  0  0
  7  8  1  0  0  0  0
  7 28  1  0  0  0  0
  8  9  2  0  0  0  0
  8 10  1  0  0  0  0
 10 11  1  0  0  0  0
 10 29  1  0  0  0  0
 11 12  1  0  0  0  0
 11 30  1  0  0  0  0
 11 31  1  0  0  0  0
 12 13  1  0  0  0  0
 12 32  1  0  0  0  0
 12 33  1  0  0  0  0
 13 14  2  0  0  0  0
 13 15  1  0  0  0  0
 15 20  1  0  0  0  0
 15 16  1  0  0  0  0
 16 17  1  0  0  0  0
 16 34  1  0  0  0  0
 16 35  1  0  0  0  0
 17 18  1  0  0  0  0
 17 36  1  0  0  0  0
 17 37  1  0  0  0  0
 18 19  1  0  0  0  0
 19 20  1  0  0  0  0
 19 38  1  0  0  0  0
 19 39  1  0  0  0  0
 20 40  1  0  0  0  0
 20 41  1  0  0  0  0
 21 22  2  0  0  0  0
 21 42  1  0  0  0  0
M  END
> <s_m_source_file>
AV-unprocessed.smi

> <i_m_source_file_index>
1660

> <i_lp_mmshare_version>
43012

> <i_f3d_flags>
0

> <s_epik_input>
W0NIM11PYzFbY0hdW2NIXWMoW2NIXW4xKVtOSF1DKD1PKVtOSF1bQ0gyXVtDSDJdQyg9TylOMltDSDJdW0NIMl1PW0NIMl1bQ0gyXTI=

> <s_epik_cmdline>
J2VwaWtfcHl0aG9uJywgJy1waCcsICc3LjAnLCAnLXRuJywgJzgnLCAnLW1hJywgJzIwMCcsICctbWV0YWxfYmluZGluZycsICctaW1hZScsICc8aW5maWxlLm1hZT4nLCAnLW9tYWUnLCAnPG91dGZpbGUubWFlPic=

> <r_lp_tautomer_probability>
1

> <r_epik_Ionization_Penalty>
8.54597e-05

> <r_epik_Ionization_Penalty_Charging>
0

> <r_epik_Ionization_Penalty_Neutral>
8.54597e-05

> <r_epik_State_Penalty>
-0

> <r_epik_Charging_Adjusted_Penalty>
0

> <i_epik_Tot_Q>
0

> <i_epik_Tot_abs_Q>
0

> <r_epik_Metal_State_Penalty>
-0

> <b_epik_Metal_Only>
0

> <s_lp_Force_Field>
OPLS_2005

> <r_lp_Energy>
25.5639

> <b_lp_Chiralities_Consistent>
1

> <s_lp_Variant>
AV-unprocessed.smi:1660-1

> <Gold.Version>
5.8.1

> <Gold.Id.Protein>
6NUR|6NUR_protein|mol2

> <Gold.PLP.Fitness>
50.0933

> <Gold.PLP.PLP>
-37.1286

> <Gold.PLP.part.hbond>
-4.9503

> <Gold.PLP.part.metal>
0.0000

> <Gold.PLP.part.buried>
-1.5373

> <Gold.PLP.part.nonpolar>
-32.3930

> <Gold.PLP.part.repulsive>
2.0494

> <Gold.PLP.ligand.clash>
0.0000

> <Gold.PLP.ligand.torsion>
0.7147

> <Gold.PLP.Chemscore.Hbond>
4.7840

> <Gold.PLP.Chemscore.CHOScore>
0.0000

> <Gold.PLP.Chemscore.Metal>
0.0000

> <Gold.Chemscore.Hbonds>
donor molecule, donor type, donor heavy atom, donor atom, acceptor molecule, acceptor atom, score
      L1  H     7    28       P1  7948  1.00
      L1  H    10    29       P1  7948  0.79
      P1  H  7989  7998       L1    18  0.90
      P1  H 10752 10765       L1    14  1.00
      P1  H 10785 10796       L1     2  0.85

> <Gold.PLP.Chemscore.Internal.Correction>
0.0421

> <Gold.Rescore>
     Score         DG    S(hbond)    S(metal)    S(lipo)     H(rot)  DE(clash)    DE(int)     intcor
     15.60     -16.93       2.09        0.00      79.41       1.88       0.56       0.78       ----

> <Gold.Chemscore.Fitness>
15.5991

> <Gold.Chemscore.DG>
-16.9301

> <Gold.Chemscore.ZeroCoef>
-5.4800

> <Gold.Chemscore.Hbond>
2.0894

> <Gold.Chemscore.Metal>
0.0000

> <Gold.Chemscore.Lipo>
79.4131

> <Gold.Chemscore.Internal_Hbond>
0.0000

> <Gold.Chemscore.DEClash>
0.5558

> <Gold.Chemscore.DEInternal>
0.7752

> <Gold.Chemscore.Rot>
1.8828

> <Gold.Chemscore.Internal.Correction>
   9.000000E+99

> <Gold.Chemscore.Hbonds>
donor molecule, donor type, donor heavy atom, donor atom, acceptor molecule, acceptor atom, score
      L1  H     7    28       P1  7948  0.30
      L1  H    10    29       P1  7948  0.30
      P1  H  7989  7998       L1    18  0.17
      P1  H 10752 10765       L1    14  0.50
      P1  H 10785 10796       L1     2  0.38

> <Gold.Chemscore.Hbond.Weighted>
-6.9787

> <Gold.Chemscore.Metal.Weighted>
-0.0000

> <Gold.Chemscore.Lipo.Weighted>
-9.2913

> <Gold.Chemscore.Internal_Hbond.Weighted>
0.0000

> <Gold.Chemscore.DEClash.Weighted>
0.5558

> <Gold.Chemscore.DEInternal.Weighted>
0.7752

> <Gold.Chemscore.Rot.Weighted>
4.8200

> <Gold.Chemscore.Internal.Correction.Weighted>
   9.000000E+99

> <Gold.Protein.RotatedTorsions>
[ 6907 6896 6895 6894 ] final  -97.89 input  -60.11 | X-H torsion
[ 7974 7965 7964 7962 ] final   44.56 input  175.53 | X-H torsion
[ 8008 7997 7996 7995 ] final -132.87 input   59.86 | X-H torsion
[ 10167 10162 10161 10158 ] final  -13.68 input  -65.29 | X-H torsion
[ 10718 10713 10712 10709 ] final -112.40 input   66.30 | X-H torsion
[ 10763 10752 10751 10750 ] final -160.19 input  -60.55 | X-H torsion
[ 11005 11000 10999 10996 ] final  -51.25 input  -57.11 | X-H torsion

> <Gold.Protein.ActiveResidues>
 VAL166  LYS551  ARG553  GLY616  TRP617  ASP618  TYR619  PRO620  LYS621  CYS622 
 ASP623  PHE694  ASN695  SER759  ASP760  ASP761  ALA762  ILE779  LEU786  VAL792 
 PHE793  MET794  SER795  GLU796  ALA797  LYS798  CYS799  TRP800  GLU811  SER814 

> <Gold.Protein.RotatedAtoms>
  150.7030  134.1279  159.4058 H   0  0  0  0  0  0  0  0  0  0  0  0  # atno 6907 bound_to 6896
  151.9265  135.0273  160.0535 H   0  0  0  0  0  0  0  0  0  0  0  0  # atno 6908 bound_to 6896
  152.2212  133.4949  159.5200 H   0  0  0  0  0  0  0  0  0  0  0  0  # atno 6909 bound_to 6896
  146.0557  139.5061  142.9690 H   0  0  0  0  0  0  0  0  0  0  0  0  # atno 7974 bound_to 7965
  155.3360  140.0469  157.3044 H   0  0  0  0  0  0  0  0  0  0  0  0  # atno 8008 bound_to 7997
  154.5302  140.2254  155.8782 H   0  0  0  0  0  0  0  0  0  0  0  0  # atno 8009 bound_to 7997
  156.1781  140.3080  155.9103 H   0  0  0  0  0  0  0  0  0  0  0  0  # atno 8010 bound_to 7997
  140.7187  143.5400  150.9420 H   0  0  0  0  0  0  0  0  0  0  0  0  # atno 10167 bound_to 10162
  156.0703  130.5918  150.8503 H   0  0  0  0  0  0  0  0  0  0  0  0  # atno 10718 bound_to 10713
  154.7411  135.3069  154.8726 H   0  0  0  0  0  0  0  0  0  0  0  0  # atno 10763 bound_to 10752
  153.9540  135.6760  153.4748 H   0  0  0  0  0  0  0  0  0  0  0  0  # atno 10764 bound_to 10752
  153.1010  135.4912  154.8791 H   0  0  0  0  0  0  0  0  0  0  0  0  # atno 10765 bound_to 10752
  141.0861  133.6642  156.3850 H   0  0  0  0  0  0  0  0  0  0  0  0  # atno 11005 bound_to 11000
  145.6647  141.0232  143.1690 LP  0  0  0  0  0  0  0  0  0  0  0  0  # atno 17320 bound_to 7965
  144.7147  139.8241  143.7403 LP  0  0  0  0  0  0  0  0  0  0  0  0  # atno 17321 bound_to 7965
  139.9123  143.6705  152.3113 LP  0  0  0  0  0  0  0  0  0  0  0  0  # atno 17342 bound_to 10162
  139.7093  144.7623  151.1140 LP  0  0  0  0  0  0  0  0  0  0  0  0  # atno 17343 bound_to 10162
  157.5770  131.0946  150.9330 LP  0  0  0  0  0  0  0  0  0  0  0  0  # atno 17370 bound_to 10713
  156.9534  130.5428  149.5283 LP  0  0  0  0  0  0  0  0  0  0  0  0  # atno 17371 bound_to 10713
  140.5360  134.6166  157.5365 LP  0  0  0  0  0  0  0  0  0  0  0  0  # atno 17394 bound_to 11000
  139.9679  134.7342  156.0100 LP  0  0  0  0  0  0  0  0  0  0  0  0  # atno 17395 bound_to 11000

$$$$
