AV-unprocessed.smi:1966|AV-procd|sdf|7950|dock3
  -GOLD-   2272010113D 1   1.00000     0.00000
 Structure written by MMmdl.
 53 54  0  0  0  0  0  0  0  0  1 V2000
  147.4252  133.3024  159.1189 C   0  0  0  0  0  0  0  0  0  0  0  0
  148.6988  133.1884  158.2885 C   0  0  0  0  0  0  0  0  0  0  0  0
  149.5675  132.3731  158.5970 O   0  0  0  0  0  0  0  0  0  0  0  0
  148.7963  134.0151  157.2352 N   0  0  0  0  0  0  0  0  0  0  0  0
  149.9334  134.0894  156.3150 C   0  0  2  0  0  0  0  0  0  0  0  0
  150.7557  135.3506  156.6468 C   0  0  0  0  0  0  0  0  0  0  0  0
  151.8854  135.4864  156.1756 O   0  0  0  0  0  0  0  0  0  0  0  0
  150.1659  136.2225  157.4858 N   0  0  0  0  0  0  0  0  0  0  0  0
  150.6457  137.4731  157.9620 C   0  0  0  0  0  0  0  0  0  0  0  0
  151.9985  137.7519  158.2665 C   0  0  0  0  0  0  0  0  0  0  0  0
  152.3462  139.0419  158.7110 C   0  0  0  0  0  0  0  0  0  0  0  0
  151.3401  140.0290  158.8319 C   0  0  0  0  0  0  0  0  0  0  0  0
  151.6713  141.3298  159.2700 N   0  0  0  0  0  0  0  0  0  0  0  0
  151.2199  142.4608  158.4640 C   0  0  0  0  0  0  0  0  0  0  0  0
  151.3702  143.7753  159.2502 C   0  0  2  0  0  0  0  0  0  0  0  0
  151.0331  144.9974  158.3901 C   0  0  0  0  0  0  0  0  0  0  0  0
  152.7171  143.9116  159.7013 O   0  0  0  0  0  0  0  0  0  0  0  0
  153.1848  142.8383  160.5210 C   0  0  1  0  0  0  0  0  0  0  0  0
  152.5363  142.8469  161.9169 C   0  0  0  0  0  0  0  0  0  0  0  0
  153.0295  141.4948  159.7812 C   0  0  0  0  0  0  0  0  0  0  0  0
  150.0453  139.7594  158.5347 N   0  0  0  0  0  0  0  0  0  0  0  0
  149.7162  138.5220  158.1092 C   0  0  0  0  0  0  0  0  0  0  0  0
  149.3941  134.1636  154.8556 C   0  0  0  0  0  0  0  0  0  0  0  0
  148.2283  135.1641  154.7263 C   0  0  0  0  0  0  0  0  0  0  0  0
  148.9459  132.7940  154.3039 C   0  0  0  0  0  0  0  0  0  0  0  0
  147.3258  134.3091  159.5261 H   0  0  0  0  0  0  0  0  0  0  0  0
  147.4397  132.5977  159.9509 H   0  0  0  0  0  0  0  0  0  0  0  0
  146.5498  133.0890  158.5052 H   0  0  0  0  0  0  0  0  0  0  0  0
  148.0340  134.6543  157.0633 H   0  0  0  0  0  0  0  0  0  0  0  0
  150.5540  133.1975  156.4268 H   0  0  0  0  0  0  0  0  0  0  0  0
  149.2697  135.9378  157.8540 H   0  0  0  0  0  0  0  0  0  0  0  0
  152.7780  137.0143  158.1596 H   0  0  0  0  0  0  0  0  0  0  0  0
  153.3747  139.2548  158.9613 H   0  0  0  0  0  0  0  0  0  0  0  0
  151.8051  142.5013  157.5441 H   0  0  0  0  0  0  0  0  0  0  0  0
  150.1748  142.3286  158.1809 H   0  0  0  0  0  0  0  0  0  0  0  0
  150.6946  143.7690  160.1056 H   0  0  0  0  0  0  0  0  0  0  0  0
  150.0062  144.9506  158.0268 H   0  0  0  0  0  0  0  0  0  0  0  0
  151.6925  145.0647  157.5242 H   0  0  0  0  0  0  0  0  0  0  0  0
  151.1413  145.9182  158.9638 H   0  0  0  0  0  0  0  0  0  0  0  0
  154.2508  143.0131  160.6691 H   0  0  0  0  0  0  0  0  0  0  0  0
  153.0105  142.1111  162.5666 H   0  0  0  0  0  0  0  0  0  0  0  0
  151.4737  142.6072  161.8811 H   0  0  0  0  0  0  0  0  0  0  0  0
  152.6443  143.8229  162.3904 H   0  0  0  0  0  0  0  0  0  0  0  0
  153.3197  140.6820  160.4456 H   0  0  0  0  0  0  0  0  0  0  0  0
  153.7162  141.4636  158.9343 H   0  0  0  0  0  0  0  0  0  0  0  0
  148.6719  138.3654  157.8805 H   0  0  0  0  0  0  0  0  0  0  0  0
  150.1957  134.5240  154.2084 H   0  0  0  0  0  0  0  0  0  0  0  0
  147.3958  134.8851  155.3729 H   0  0  0  0  0  0  0  0  0  0  0  0
  147.8541  135.2008  153.7029 H   0  0  0  0  0  0  0  0  0  0  0  0
  148.5280  136.1786  154.9896 H   0  0  0  0  0  0  0  0  0  0  0  0
  148.1787  132.3461  154.9362 H   0  0  0  0  0  0  0  0  0  0  0  0
  149.7734  132.0883  154.2314 H   0  0  0  0  0  0  0  0  0  0  0  0
  148.5308  132.8931  153.3005 H   0  0  0  0  0  0  0  0  0  0  0  0
  1  2  1  0  0  0  0
  1 26  1  0  0  0  0
  1 27  1  0  0  0  0
  1 28  1  0  0  0  0
  2  3  2  0  0  0  0
  2  4  1  0  0  0  0
  4  5  1  0  0  0  0
  4 29  1  0  0  0  0
  5  6  1  0  0  0  0
  5 23  1  0  0  0  0
  5 30  1  0  0  0  0
  6  7  2  0  0  0  0
  6  8  1  0  0  0  0
  8  9  1  0  0  0  0
  8 31  1  0  0  0  0
  9 22  1  0  0  0  0
  9 10  2  0  0  0  0
 10 11  1  0  0  0  0
 10 32  1  0  0  0  0
 11 12  2  0  0  0  0
 11 33  1  0  0  0  0
 12 13  1  0  0  0  0
 12 21  1  0  0  0  0
 13 20  1  0  0  0  0
 13 14  1  0  0  0  0
 14 15  1  0  0  0  0
 14 34  1  0  0  0  0
 14 35  1  0  0  0  0
 15 16  1  0  0  0  0
 15 17  1  0  0  0  0
 15 36  1  0  0  0  0
 16 37  1  0  0  0  0
 16 38  1  0  0  0  0
 16 39  1  0  0  0  0
 17 18  1  0  0  0  0
 18 19  1  0  0  0  0
 18 20  1  0  0  0  0
 18 40  1  0  0  0  0
 19 41  1  0  0  0  0
 19 42  1  0  0  0  0
 19 43  1  0  0  0  0
 20 44  1  0  0  0  0
 20 45  1  0  0  0  0
 21 22  2  0  0  0  0
 22 46  1  0  0  0  0
 23 24  1  0  0  0  0
 23 25  1  0  0  0  0
 23 47  1  0  0  0  0
 24 48  1  0  0  0  0
 24 49  1  0  0  0  0
 24 50  1  0  0  0  0
 25 51  1  0  0  0  0
 25 52  1  0  0  0  0
 25 53  1  0  0  0  0
M  END
> <s_m_source_file>
AV-unprocessed.smi

> <i_m_source_file_index>
1966

> <i_lp_mmshare_version>
43012

> <i_f3d_flags>
0

> <s_epik_input>
W0NIM11DKD1PKVtOSF1bQ0BASF0oW0NIXShbQ0gzXSlbQ0gzXSlDKD1PKVtOSF1jMVtjSF1bY0hdYyhuW2NIXTEpTjJbQ0gyXVtDQEBIXShbQ0gzXSlPW0NAQEhdKFtDSDNdKVtDSDJdMg==

> <s_epik_cmdline>
J2VwaWtfcHl0aG9uJywgJy1waCcsICc3LjAnLCAnLXRuJywgJzgnLCAnLW1hJywgJzIwMCcsICctbWV0YWxfYmluZGluZycsICctaW1hZScsICc8aW5maWxlLm1hZT4nLCAnLW9tYWUnLCAnPG91dGZpbGUubWFlPic=

> <r_lp_tautomer_probability>
1

> <r_epik_Ionization_Penalty>
0.000679699

> <r_epik_Ionization_Penalty_Charging>
0

> <r_epik_Ionization_Penalty_Neutral>
0.000679699

> <r_epik_State_Penalty>
0.000430485

> <r_epik_Charging_Adjusted_Penalty>
0.000430485

> <i_epik_Tot_Q>
0

> <i_epik_Tot_abs_Q>
0

> <r_epik_Metal_State_Penalty>
-0

> <b_epik_Metal_Only>
0

> <s_lp_Force_Field>
OPLS_2005

> <r_lp_Energy>
28.7238

> <b_lp_Chiralities_Consistent>
1

> <s_lp_Variant>
AV-unprocessed.smi:1966-3

> <Gold.Version>
5.8.1

> <Gold.Id.Protein>
6NUR|6NUR_protein|mol2

> <Gold.PLP.Fitness>
39.2914

> <Gold.PLP.PLP>
-37.5269

> <Gold.PLP.part.hbond>
-2.0000

> <Gold.PLP.part.metal>
0.0000

> <Gold.PLP.part.buried>
-5.1805

> <Gold.PLP.part.nonpolar>
-30.6277

> <Gold.PLP.part.repulsive>
0.1525

> <Gold.PLP.ligand.clash>
0.0000

> <Gold.PLP.ligand.torsion>
1.1967

> <Gold.PLP.Chemscore.Hbond>
1.2740

> <Gold.PLP.Chemscore.CHOScore>
0.0000

> <Gold.PLP.Chemscore.Metal>
0.0000

> <Gold.Chemscore.Hbonds>
donor molecule, donor type, donor heavy atom, donor atom, acceptor molecule, acceptor atom, score
      P1  H  6896  6907       L1     3  0.31
      P1  H 10752 10764       L1     7  1.00

> <Gold.PLP.Chemscore.Internal.Correction>
0.3356

> <Gold.Rescore>
     Score         DG    S(hbond)    S(metal)    S(lipo)     H(rot)  DE(clash)    DE(int)     intcor
     15.83     -17.28       1.25        0.00     102.00       1.68       0.05       1.40       ----

> <Gold.Chemscore.Fitness>
15.8298

> <Gold.Chemscore.DG>
-17.2831

> <Gold.Chemscore.ZeroCoef>
-5.4800

> <Gold.Chemscore.Hbond>
1.2454

> <Gold.Chemscore.Metal>
0.0000

> <Gold.Chemscore.Lipo>
101.9975

> <Gold.Chemscore.Internal_Hbond>
0.0000

> <Gold.Chemscore.DEClash>
0.0523

> <Gold.Chemscore.DEInternal>
1.4011

> <Gold.Chemscore.Rot>
1.6759

> <Gold.Chemscore.Internal.Correction>
   9.000000E+99

> <Gold.Chemscore.Hbonds>
donor molecule, donor type, donor heavy atom, donor atom, acceptor molecule, acceptor atom, score
      P1  H  6896  6907       L1     3  0.26
      P1  H 10752 10764       L1     7  1.00

> <Gold.Chemscore.Hbond.Weighted>
-4.1596

> <Gold.Chemscore.Metal.Weighted>
-0.0000

> <Gold.Chemscore.Lipo.Weighted>
-11.9337

> <Gold.Chemscore.Internal_Hbond.Weighted>
0.0000

> <Gold.Chemscore.DEClash.Weighted>
0.0523

> <Gold.Chemscore.DEInternal.Weighted>
1.4011

> <Gold.Chemscore.Rot.Weighted>
4.2902

> <Gold.Chemscore.Internal.Correction.Weighted>
   9.000000E+99

> <Gold.Protein.RotatedTorsions>
[ 6907 6896 6895 6894 ] final -168.74 input  -60.11 | X-H torsion
[ 7974 7965 7964 7962 ] final    1.55 input  175.53 | X-H torsion
[ 8008 7997 7996 7995 ] final -104.63 input   59.86 | X-H torsion
[ 10167 10162 10161 10158 ] final  125.68 input  -65.29 | X-H torsion
[ 10718 10713 10712 10709 ] final   10.72 input   66.30 | X-H torsion
[ 10763 10752 10751 10750 ] final  -31.74 input  -60.55 | X-H torsion
[ 11005 11000 10999 10996 ] final  -69.04 input  -57.11 | X-H torsion

> <Gold.Protein.ActiveResidues>
 VAL166  LYS551  ARG553  GLY616  TRP617  ASP618  TYR619  PRO620  LYS621  CYS622 
 ASP623  PHE694  ASN695  SER759  ASP760  ASP761  ALA762  ILE779  LEU786  VAL792 
 PHE793  MET794  SER795  GLU796  ALA797  LYS798  CYS799  TRP800  GLU811  SER814 

> <Gold.Protein.RotatedAtoms>
  151.4805  133.3547  159.2837 H   0  0  0  0  0  0  0  0  0  0  0  0  # atno 6907 bound_to 6896
  150.8901  134.8305  159.7298 H   0  0  0  0  0  0  0  0  0  0  0  0  # atno 6908 bound_to 6896
  152.4817  134.4713  159.9688 H   0  0  0  0  0  0  0  0  0  0  0  0  # atno 6909 bound_to 6896
  146.2441  140.0970  142.8349 H   0  0  0  0  0  0  0  0  0  0  0  0  # atno 7974 bound_to 7965
  154.8882  140.0417  157.1822 H   0  0  0  0  0  0  0  0  0  0  0  0  # atno 8008 bound_to 7997
  154.8569  140.2938  155.5542 H   0  0  0  0  0  0  0  0  0  0  0  0  # atno 8009 bound_to 7997
  156.2997  140.2454  156.3536 H   0  0  0  0  0  0  0  0  0  0  0  0  # atno 8010 bound_to 7997
  139.5672  144.6918  151.3878 H   0  0  0  0  0  0  0  0  0  0  0  0  # atno 10167 bound_to 10162
  156.9850  130.6020  149.5680 H   0  0  0  0  0  0  0  0  0  0  0  0  # atno 10718 bound_to 10713
  153.8024  135.6889  153.4853 H   0  0  0  0  0  0  0  0  0  0  0  0  # atno 10763 bound_to 10752
  153.1680  135.4554  154.9862 H   0  0  0  0  0  0  0  0  0  0  0  0  # atno 10764 bound_to 10752
  154.8001  135.3334  154.7511 H   0  0  0  0  0  0  0  0  0  0  0  0  # atno 10765 bound_to 10752
  141.1545  133.6755  156.6538 H   0  0  0  0  0  0  0  0  0  0  0  0  # atno 11005 bound_to 11000
  145.0601  140.9081  143.4943 LP  0  0  0  0  0  0  0  0  0  0  0  0  # atno 17320 bound_to 7965
  145.1084  139.2774  143.5650 LP  0  0  0  0  0  0  0  0  0  0  0  0  # atno 17321 bound_to 7965
  140.6956  143.7757  150.7321 LP  0  0  0  0  0  0  0  0  0  0  0  0  # atno 17342 bound_to 10162
  140.1253  143.4575  152.2288 LP  0  0  0  0  0  0  0  0  0  0  0  0  # atno 17343 bound_to 10162
  156.0229  130.5324  150.8327 LP  0  0  0  0  0  0  0  0  0  0  0  0  # atno 17370 bound_to 10713
  157.5499  131.0943  150.9710 LP  0  0  0  0  0  0  0  0  0  0  0  0  # atno 17371 bound_to 10713
  140.3300  134.7937  157.4319 LP  0  0  0  0  0  0  0  0  0  0  0  0  # atno 17394 bound_to 11000
  140.1025  134.5454  155.8340 LP  0  0  0  0  0  0  0  0  0  0  0  0  # atno 17395 bound_to 11000

$$$$
