AV-unprocessed.smi:1583|AV-procd|sdf|6364|dock6
  -GOLD-   22720 6593D 1   1.00000     0.00000
 Structure written by MMmdl.
 37 38  0  0  0  0  0  0  0  0  2 V2000
  145.8785  143.1945  154.1134 C   0  0  0  0  0  0  0  0  0  0  0  0
  147.2677  142.7762  154.2224 N   0  0  0  0  0  0  0  0  0  0  0  0
  147.6824  141.5050  154.1214 C   0  0  0  0  0  0  0  0  0  0  0  0
  146.9217  140.5574  153.9260 O   0  0  0  0  0  0  0  0  0  0  0  0
  149.1815  141.2617  154.2727 C   0  0  0  0  0  0  0  0  0  0  0  0
  149.5792  140.2369  155.7156 S   0  0  0  0  0  0  0  0  0  0  0  0
  150.4466  141.2981  156.8263 C   0  0  0  0  0  0  0  0  0  0  0  0
  150.3198  142.6519  156.9047 N   0  3  0  0  0  0  0  0  0  0  0  0
  151.1728  143.1436  157.8939 C   0  0  0  0  0  0  0  0  0  0  0  0
  151.4002  144.4425  158.3378 C   0  0  0  0  0  0  0  0  0  0  0  0
  152.3479  144.6015  159.3703 C   0  0  0  0  0  0  0  0  0  0  0  0
  153.0273  143.4952  159.9210 C   0  0  0  0  0  0  0  0  0  0  0  0
  152.7881  142.1825  159.4637 C   0  0  0  0  0  0  0  0  0  0  0  0
  151.8493  142.0339  158.4434 C   0  0  0  0  0  0  0  0  0  0  0  0
  151.3666  140.9153  157.7558 N   0  0  0  0  0  0  0  0  0  0  0  0
  151.8863  139.5828  158.0937 C   0  0  0  0  0  0  0  0  0  0  0  0
  150.7833  138.6359  158.5878 C   0  0  0  0  0  0  0  0  0  0  0  0
  151.3560  137.3941  158.9646 O   0  0  0  0  0  0  0  0  0  0  0  0
  152.4129  137.5444  159.8956 C   0  0  0  0  0  0  0  0  0  0  0  0
  145.8071  144.2777  154.2137 H   0  0  0  0  0  0  0  0  0  0  0  0
  145.2734  142.7384  154.8983 H   0  0  0  0  0  0  0  0  0  0  0  0
  145.4625  142.9136  153.1450 H   0  0  0  0  0  0  0  0  0  0  0  0
  147.9569  143.4973  154.3806 H   0  0  0  0  0  0  0  0  0  0  0  0
  149.5619  140.7774  153.3727 H   0  0  0  0  0  0  0  0  0  0  0  0
  149.6973  142.2182  154.3651 H   0  0  0  0  0  0  0  0  0  0  0  0
  150.8819  145.2919  157.9171 H   0  0  0  0  0  0  0  0  0  0  0  0
  152.5584  145.5920  159.7471 H   0  0  0  0  0  0  0  0  0  0  0  0
  153.7473  143.6565  160.7103 H   0  0  0  0  0  0  0  0  0  0  0  0
  153.3147  141.3418  159.8909 H   0  0  0  0  0  0  0  0  0  0  0  0
  152.3973  139.1709  157.2230 H   0  0  0  0  0  0  0  0  0  0  0  0
  152.6451  139.7066  158.8667 H   0  0  0  0  0  0  0  0  0  0  0  0
  150.2634  139.0780  159.4390 H   0  0  0  0  0  0  0  0  0  0  0  0
  150.0456  138.4854  157.7984 H   0  0  0  0  0  0  0  0  0  0  0  0
  152.8187  136.5653  160.1501 H   0  0  0  0  0  0  0  0  0  0  0  0
  152.0638  138.0138  160.8162 H   0  0  0  0  0  0  0  0  0  0  0  0
  153.2220  138.1465  159.4802 H   0  0  0  0  0  0  0  0  0  0  0  0
  149.6972  143.1965  156.3224 H   0  0  0  0  0  0  0  0  0  0  0  0
  1  2  1  0  0  0  0
  1 20  1  0  0  0  0
  1 21  1  0  0  0  0
  1 22  1  0  0  0  0
  2  3  1  0  0  0  0
  2 23  1  0  0  0  0
  3  4  2  0  0  0  0
  3  5  1  0  0  0  0
  5  6  1  0  0  0  0
  5 24  1  0  0  0  0
  5 25  1  0  0  0  0
  6  7  1  0  0  0  0
  7 15  1  0  0  0  0
  7  8  2  0  0  0  0
  8  9  1  0  0  0  0
  8 37  1  0  0  0  0
  9 14  2  0  0  0  0
  9 10  1  0  0  0  0
 10 11  2  0  0  0  0
 10 26  1  0  0  0  0
 11 12  1  0  0  0  0
 11 27  1  0  0  0  0
 12 13  2  0  0  0  0
 12 28  1  0  0  0  0
 13 14  1  0  0  0  0
 13 29  1  0  0  0  0
 14 15  1  0  0  0  0
 15 16  1  0  0  0  0
 16 17  1  0  0  0  0
 16 30  1  0  0  0  0
 16 31  1  0  0  0  0
 17 18  1  0  0  0  0
 17 32  1  0  0  0  0
 17 33  1  0  0  0  0
 18 19  1  0  0  0  0
 19 34  1  0  0  0  0
 19 35  1  0  0  0  0
 19 36  1  0  0  0  0
M  CHG  1   8   1
M  END
> <s_m_source_file>
AV-unprocessed.smi

> <i_m_source_file_index>
1583

> <i_lp_mmshare_version>
43012

> <i_f3d_flags>
0

> <s_epik_input>
W0NIM11bTkhdQyg9TylbQ0gyXVNjKG4xKW4oW0NIMl1bQ0gyXU9bQ0gzXSljKGMxMilbY0hdW2NIXVtjSF1bY0hdMg==

> <s_epik_cmdline>
J2VwaWtfcHl0aG9uJywgJy1waCcsICc3LjAnLCAnLXRuJywgJzgnLCAnLW1hJywgJzIwMCcsICctbWV0YWxfYmluZGluZycsICctaW1hZScsICc8aW5maWxlLm1hZT4nLCAnLW9tYWUnLCAnPG91dGZpbGUubWFlPic=

> <r_epik_Ionization_Penalty>
1.68337

> <r_epik_Ionization_Penalty_Charging>
1.68337

> <r_epik_Ionization_Penalty_Neutral>
1.65978e-07

> <r_epik_State_Penalty>
1.78799

> <r_epik_Charging_Adjusted_Penalty>
3.47136

> <i_epik_Tot_Q>
1

> <i_epik_Tot_abs_Q>
1

> <r_epik_Metal_State_Penalty>
1.82204

> <b_epik_Metal_Only>
0

> <s_lp_Force_Field>
OPLS_2005

> <r_lp_Energy>
8.62321

> <b_lp_Chiralities_Consistent>
1

> <s_lp_Variant>
AV-unprocessed.smi:1583-2

> <Gold.Version>
5.8.1

> <Gold.Id.Protein>
6NUR|6NUR_protein|mol2

> <Gold.PLP.Fitness>
50.6679

> <Gold.PLP.PLP>
-43.1546

> <Gold.PLP.part.hbond>
-2.0000

> <Gold.PLP.part.metal>
0.0000

> <Gold.PLP.part.buried>
-5.4180

> <Gold.PLP.part.nonpolar>
-36.4799

> <Gold.PLP.part.repulsive>
0.3385

> <Gold.PLP.ligand.clash>
0.0000

> <Gold.PLP.ligand.torsion>
0.7519

> <Gold.PLP.Chemscore.Hbond>
2.9920

> <Gold.PLP.Chemscore.CHOScore>
0.0000

> <Gold.PLP.Chemscore.Metal>
0.0000

> <Gold.Chemscore.Hbonds>
donor molecule, donor type, donor heavy atom, donor atom, acceptor molecule, acceptor atom, score
      L1  H     2    23       P1  8028  0.99
      L1  H     8    37       P1  8028  2.00

> <Gold.PLP.Chemscore.Internal.Correction>
0.0412

> <Gold.Rescore>
     Score         DG    S(hbond)    S(metal)    S(lipo)     H(rot)  DE(clash)    DE(int)     intcor
     17.23     -18.04       1.87        0.00     103.25       2.25       0.03       0.78       ----

> <Gold.Chemscore.Fitness>
17.2287

> <Gold.Chemscore.DG>
-18.0368

> <Gold.Chemscore.ZeroCoef>
-5.4800

> <Gold.Chemscore.Hbond>
1.8709

> <Gold.Chemscore.Metal>
0.0000

> <Gold.Chemscore.Lipo>
103.2465

> <Gold.Chemscore.Internal_Hbond>
0.0000

> <Gold.Chemscore.DEClash>
0.0250

> <Gold.Chemscore.DEInternal>
0.7830

> <Gold.Chemscore.Rot>
2.2546

> <Gold.Chemscore.Internal.Correction>
   9.000000E+99

> <Gold.Chemscore.Hbonds>
donor molecule, donor type, donor heavy atom, donor atom, acceptor molecule, acceptor atom, score
      L1  H     2    23       P1  8028  0.72
      L1  H     8    37       P1  8028  0.99

> <Gold.Chemscore.Hbond.Weighted>
-6.2489

> <Gold.Chemscore.Metal.Weighted>
-0.0000

> <Gold.Chemscore.Lipo.Weighted>
-12.0798

> <Gold.Chemscore.Internal_Hbond.Weighted>
0.0000

> <Gold.Chemscore.DEClash.Weighted>
0.0250

> <Gold.Chemscore.DEInternal.Weighted>
0.7830

> <Gold.Chemscore.Rot.Weighted>
5.7719

> <Gold.Chemscore.Internal.Correction.Weighted>
   9.000000E+99

> <Gold.Protein.RotatedTorsions>
[ 6907 6896 6895 6894 ] final  162.38 input  -60.11 | X-H torsion
[ 7974 7965 7964 7962 ] final  -70.02 input  175.53 | X-H torsion
[ 8008 7997 7996 7995 ] final  112.01 input   59.86 | X-H torsion
[ 10167 10162 10161 10158 ] final   53.63 input  -65.29 | X-H torsion
[ 10718 10713 10712 10709 ] final -145.93 input   66.30 | X-H torsion
[ 10763 10752 10751 10750 ] final   90.50 input  -60.55 | X-H torsion
[ 11005 11000 10999 10996 ] final  -66.06 input  -57.11 | X-H torsion

> <Gold.Protein.ActiveResidues>
 VAL166  LYS551  ARG553  GLY616  TRP617  ASP618  TYR619  PRO620  LYS621  CYS622 
 ASP623  PHE694  ASN695  SER759  ASP760  ASP761  ALA762  ILE779  LEU786  VAL792 
 PHE793  MET794  SER795  GLU796  ALA797  LYS798  CYS799  TRP800  GLU811  SER814 

> <Gold.Protein.RotatedAtoms>
  151.9413  133.3639  159.3965 H   0  0  0  0  0  0  0  0  0  0  0  0  # atno 6907 bound_to 6896
  150.6998  134.4436  159.5313 H   0  0  0  0  0  0  0  0  0  0  0  0  # atno 6908 bound_to 6896
  152.2094  134.8516  160.0550 H   0  0  0  0  0  0  0  0  0  0  0  0  # atno 6909 bound_to 6896
  145.6963  140.9134  143.0755 H   0  0  0  0  0  0  0  0  0  0  0  0  # atno 7974 bound_to 7965
  156.2163  140.3008  155.9847 H   0  0  0  0  0  0  0  0  0  0  0  0  # atno 8008 bound_to 7997
  155.2597  140.0429  157.3013 H   0  0  0  0  0  0  0  0  0  0  0  0  # atno 8009 bound_to 7997
  154.5773  140.2365  155.8113 H   0  0  0  0  0  0  0  0  0  0  0  0  # atno 8010 bound_to 7997
  140.2388  144.3607  150.6388 H   0  0  0  0  0  0  0  0  0  0  0  0  # atno 10167 bound_to 10162
  156.3886  130.7874  151.2074 H   0  0  0  0  0  0  0  0  0  0  0  0  # atno 10718 bound_to 10713
  153.1982  135.4431  155.0234 H   0  0  0  0  0  0  0  0  0  0  0  0  # atno 10763 bound_to 10752
  154.8131  135.3303  154.7253 H   0  0  0  0  0  0  0  0  0  0  0  0  # atno 10764 bound_to 10752
  153.7700  135.6985  153.4963 H   0  0  0  0  0  0  0  0  0  0  0  0  # atno 10765 bound_to 10752
  141.1472  133.6692  156.6081 H   0  0  0  0  0  0  0  0  0  0  0  0  # atno 11005 bound_to 11000
  144.6981  139.8889  143.7452 LP  0  0  0  0  0  0  0  0  0  0  0  0  # atno 17320 bound_to 7965
  146.0837  139.3825  143.0448 LP  0  0  0  0  0  0  0  0  0  0  0  0  # atno 17321 bound_to 7965
  140.6130  143.2170  151.6849 LP  0  0  0  0  0  0  0  0  0  0  0  0  # atno 17342 bound_to 10162
  139.5084  144.3611  152.0561 LP  0  0  0  0  0  0  0  0  0  0  0  0  # atno 17343 bound_to 10162
  157.7497  131.0322  150.4218 LP  0  0  0  0  0  0  0  0  0  0  0  0  # atno 17370 bound_to 10713
  156.4475  130.4004  149.6657 LP  0  0  0  0  0  0  0  0  0  0  0  0  # atno 17371 bound_to 10713
  140.3636  134.7666  157.4550 LP  0  0  0  0  0  0  0  0  0  0  0  0  # atno 17394 bound_to 11000
  140.0766  134.5789  155.8585 LP  0  0  0  0  0  0  0  0  0  0  0  0  # atno 17395 bound_to 11000

$$$$
