AV-unprocessed.smi:3106|AV-procd|sdf|11823|dock4
  -GOLD-   2272017193D 1   1.00000     0.00000
 Structure written by MMmdl.
 29 30  0  0  0  0  0  0  0  0  1 V2000
  153.4378  143.1520  163.3545 C   0  0  0  0  0  0  0  0  0  0  0  0
  153.1655  142.6355  161.9576 C   0  0  0  0  0  0  0  0  0  0  0  0
  152.3254  143.3408  161.0756 C   0  0  0  0  0  0  0  0  0  0  0  0
  152.1055  142.8202  159.7858 C   0  0  0  0  0  0  0  0  0  0  0  0
  152.7292  141.6098  159.4081 C   0  0  0  0  0  0  0  0  0  0  0  0
  152.4410  141.1719  158.0886 N   0  0  0  0  0  0  0  0  0  0  0  0
  151.3517  141.4292  157.3393 C   0  0  0  0  0  0  0  0  0  0  0  0
  150.4077  142.1320  157.7017 O   0  0  0  0  0  0  0  0  0  0  0  0
  151.3349  140.8065  155.9361 C   0  0  2  0  0  0  0  0  0  0  0  0
  150.1386  139.8882  155.6693 C   0  0  0  0  0  0  0  0  0  0  0  0
  150.6912  138.9680  154.6047 C   0  0  0  0  0  0  0  0  0  0  0  0
  152.1332  138.7822  155.0653 C   0  0  0  0  0  0  0  0  0  0  0  0
  152.4878  139.9853  155.7425 O   0  0  0  0  0  0  0  0  0  0  0  0
  153.5387  140.9384  160.2648 N   0  0  0  0  0  0  0  0  0  0  0  0
  153.7494  141.4380  161.5006 C   0  0  0  0  0  0  0  0  0  0  0  0
  152.5739  143.6924  163.7428 H   0  0  0  0  0  0  0  0  0  0  0  0
  154.2920  143.8292  163.3449 H   0  0  0  0  0  0  0  0  0  0  0  0
  153.6572  142.3299  164.0363 H   0  0  0  0  0  0  0  0  0  0  0  0
  151.8561  144.2652  161.3790 H   0  0  0  0  0  0  0  0  0  0  0  0
  151.4630  143.3486  159.0965 H   0  0  0  0  0  0  0  0  0  0  0  0
  153.1411  140.5832  157.6618 H   0  0  0  0  0  0  0  0  0  0  0  0
  151.3606  141.6029  155.1910 H   0  0  0  0  0  0  0  0  0  0  0  0
  149.8718  139.3140  156.5586 H   0  0  0  0  0  0  0  0  0  0  0  0
  149.2548  140.4316  155.3340 H   0  0  0  0  0  0  0  0  0  0  0  0
  150.1449  138.0280  154.5216 H   0  0  0  0  0  0  0  0  0  0  0  0
  150.6680  139.4651  153.6339 H   0  0  0  0  0  0  0  0  0  0  0  0
  152.2019  137.9554  155.7734 H   0  0  0  0  0  0  0  0  0  0  0  0
  152.8112  138.5758  154.2368 H   0  0  0  0  0  0  0  0  0  0  0  0
  154.4032  140.8642  162.1409 H   0  0  0  0  0  0  0  0  0  0  0  0
  1  2  1  0  0  0  0
  1 16  1  0  0  0  0
  1 17  1  0  0  0  0
  1 18  1  0  0  0  0
  2 15  1  0  0  0  0
  2  3  2  0  0  0  0
  3  4  1  0  0  0  0
  3 19  1  0  0  0  0
  4  5  2  0  0  0  0
  4 20  1  0  0  0  0
  5  6  1  0  0  0  0
  5 14  1  0  0  0  0
  6  7  1  0  0  0  0
  6 21  1  0  0  0  0
  7  8  2  0  0  0  0
  7  9  1  0  0  0  0
  9 13  1  0  0  0  0
  9 10  1  0  0  0  0
  9 22  1  0  0  0  0
 10 11  1  0  0  0  0
 10 23  1  0  0  0  0
 10 24  1  0  0  0  0
 11 12  1  0  0  0  0
 11 25  1  0  0  0  0
 11 26  1  0  0  0  0
 12 13  1  0  0  0  0
 12 27  1  0  0  0  0
 12 28  1  0  0  0  0
 14 15  2  0  0  0  0
 15 29  1  0  0  0  0
M  END
> <s_m_source_file>
AV-unprocessed.smi

> <i_m_source_file_index>
3106

> <i_lp_mmshare_version>
43012

> <i_f3d_flags>
0

> <s_epik_input>
W0NIM11jMVtjSF1bY0hdYyhuW2NIXTEpW05IXUMoPU8pW0NAQEhdMltDSDJdW0NIMl1bQ0gyXU8y

> <s_epik_cmdline>
J2VwaWtfcHl0aG9uJywgJy1waCcsICc3LjAnLCAnLXRuJywgJzgnLCAnLW1hJywgJzIwMCcsICctbWV0YWxfYmluZGluZycsICctaW1hZScsICc8aW5maWxlLm1hZT4nLCAnLW9tYWUnLCAnPG91dGZpbGUubWFlPic=

> <r_epik_Ionization_Penalty>
0.00356606

> <r_epik_Ionization_Penalty_Charging>
0

> <r_epik_Ionization_Penalty_Neutral>
0.00356606

> <r_epik_State_Penalty>
0.00372088

> <r_epik_Charging_Adjusted_Penalty>
0.00372088

> <i_epik_Tot_Q>
0

> <i_epik_Tot_abs_Q>
0

> <r_epik_Metal_State_Penalty>
-0

> <b_epik_Metal_Only>
0

> <s_lp_Force_Field>
OPLS_2005

> <r_lp_Energy>
20.8335

> <b_lp_Chiralities_Consistent>
1

> <s_lp_Variant>
AV-unprocessed.smi:3106-1

> <Gold.Version>
5.8.1

> <Gold.Id.Protein>
6NUR|6NUR_protein|mol2

> <Gold.PLP.Fitness>
39.6496

> <Gold.PLP.PLP>
-36.9666

> <Gold.PLP.part.hbond>
-1.1489

> <Gold.PLP.part.metal>
0.0000

> <Gold.PLP.part.buried>
-2.6847

> <Gold.PLP.part.nonpolar>
-31.1803

> <Gold.PLP.part.repulsive>
0.1825

> <Gold.PLP.ligand.clash>
0.0000

> <Gold.PLP.ligand.torsion>
0.1606

> <Gold.PLP.Chemscore.Hbond>
1.0000

> <Gold.PLP.Chemscore.CHOScore>
0.0000

> <Gold.PLP.Chemscore.Metal>
0.0000

> <Gold.Chemscore.Hbonds>
donor molecule, donor type, donor heavy atom, donor atom, acceptor molecule, acceptor atom, score
      P1  H  7997  8010       L1    13  1.00

> <Gold.PLP.Chemscore.Internal.Correction>
0.0042

> <Gold.Rescore>
     Score         DG    S(hbond)    S(metal)    S(lipo)     H(rot)  DE(clash)    DE(int)     intcor
     14.60     -16.20       0.99        0.00      85.18       1.00       0.03       1.57       ----

> <Gold.Chemscore.Fitness>
14.5977

> <Gold.Chemscore.DG>
-16.1994

> <Gold.Chemscore.ZeroCoef>
-5.4800

> <Gold.Chemscore.Hbond>
0.9920

> <Gold.Chemscore.Metal>
0.0000

> <Gold.Chemscore.Lipo>
85.1802

> <Gold.Chemscore.Internal_Hbond>
0.0000

> <Gold.Chemscore.DEClash>
0.0323

> <Gold.Chemscore.DEInternal>
1.5695

> <Gold.Chemscore.Rot>
1.0000

> <Gold.Chemscore.Internal.Correction>
   9.000000E+99

> <Gold.Chemscore.Hbonds>
donor molecule, donor type, donor heavy atom, donor atom, acceptor molecule, acceptor atom, score
      P1  H  7997  8010       L1    13  0.88

> <Gold.Chemscore.Hbond.Weighted>
-3.3133

> <Gold.Chemscore.Metal.Weighted>
-0.0000

> <Gold.Chemscore.Lipo.Weighted>
-9.9661

> <Gold.Chemscore.Internal_Hbond.Weighted>
0.0000

> <Gold.Chemscore.DEClash.Weighted>
0.0323

> <Gold.Chemscore.DEInternal.Weighted>
1.5695

> <Gold.Chemscore.Rot.Weighted>
2.5600

> <Gold.Chemscore.Internal.Correction.Weighted>
   9.000000E+99

> <Gold.Protein.RotatedTorsions>
[ 6907 6896 6895 6894 ] final  110.20 input  -60.11 | X-H torsion
[ 7974 7965 7964 7962 ] final  -56.85 input  175.53 | X-H torsion
[ 8008 7997 7996 7995 ] final   92.08 input   59.86 | X-H torsion
[ 10167 10162 10161 10158 ] final  112.50 input  -65.29 | X-H torsion
[ 10718 10713 10712 10709 ] final  -38.42 input   66.30 | X-H torsion
[ 10763 10752 10751 10750 ] final -167.78 input  -60.55 | X-H torsion
[ 11005 11000 10999 10996 ] final  -39.33 input  -57.11 | X-H torsion

> <Gold.Protein.ActiveResidues>
 VAL166  LYS551  ARG553  GLY616  TRP617  ASP618  TYR619  PRO620  LYS621  CYS622 
 ASP623  PHE694  ASN695  SER759  ASP760  ASP761  ALA762  ILE779  LEU786  VAL792 
 PHE793  MET794  SER795  GLU796  ALA797  LYS798  CYS799  TRP800  GLU811  SER814 

> <Gold.Protein.RotatedAtoms>
  152.5031  133.8835  159.7357 H   0  0  0  0  0  0  0  0  0  0  0  0  # atno 6907 bound_to 6896
  150.9291  133.6779  159.2821 H   0  0  0  0  0  0  0  0  0  0  0  0  # atno 6908 bound_to 6896
  151.4129  135.0992  159.9643 H   0  0  0  0  0  0  0  0  0  0  0  0  # atno 6909 bound_to 6896
  145.8579  140.8306  142.9952 H   0  0  0  0  0  0  0  0  0  0  0  0  # atno 7974 bound_to 7965
  156.0312  140.3330  155.7142 H   0  0  0  0  0  0  0  0  0  0  0  0  # atno 8008 bound_to 7997
  155.5882  140.0643  157.2783 H   0  0  0  0  0  0  0  0  0  0  0  0  # atno 8009 bound_to 7997
  154.4354  140.1832  156.1035 H   0  0  0  0  0  0  0  0  0  0  0  0  # atno 8010 bound_to 7997
  139.6531  144.7128  151.2009 H   0  0  0  0  0  0  0  0  0  0  0  0  # atno 10167 bound_to 10162
  156.3040  130.4244  149.8115 H   0  0  0  0  0  0  0  0  0  0  0  0  # atno 10718 bound_to 10713
  154.6697  135.2937  154.9758 H   0  0  0  0  0  0  0  0  0  0  0  0  # atno 10763 bound_to 10752
  154.0790  135.6607  153.4839 H   0  0  0  0  0  0  0  0  0  0  0  0  # atno 10764 bound_to 10752
  153.0479  135.5193  154.7687 H   0  0  0  0  0  0  0  0  0  0  0  0  # atno 10765 bound_to 10752
  141.0094  133.6915  156.2173 H   0  0  0  0  0  0  0  0  0  0  0  0  # atno 11005 bound_to 11000
  144.6727  140.1051  143.7458 LP  0  0  0  0  0  0  0  0  0  0  0  0  # atno 17320 bound_to 7965
  145.9283  139.2589  143.1340 LP  0  0  0  0  0  0  0  0  0  0  0  0  # atno 17321 bound_to 7965
  140.7547  143.6117  150.8599 LP  0  0  0  0  0  0  0  0  0  0  0  0  # atno 17342 bound_to 10162
  139.9767  143.5997  152.2956 LP  0  0  0  0  0  0  0  0  0  0  0  0  # atno 17343 bound_to 10162
  156.5483  130.8330  151.3291 LP  0  0  0  0  0  0  0  0  0  0  0  0  # atno 17370 bound_to 10713
  157.7375  130.9797  150.2197 LP  0  0  0  0  0  0  0  0  0  0  0  0  # atno 17371 bound_to 10713
  140.6759  134.4819  157.5588 LP  0  0  0  0  0  0  0  0  0  0  0  0  # atno 17394 bound_to 11000
  139.9081  134.8404  156.1628 LP  0  0  0  0  0  0  0  0  0  0  0  0  # atno 17395 bound_to 11000

$$$$
