#       Name:                AV-unprocessed.smi:921
#       Creating user name   scv26
#       Creation time:       Fri Mar 27 02:07:53 2020


#       File generated by GOLD software.
#

@<TRIPOS>MOLECULE
AV-unprocessed.smi:921
    44    46     1
SMALL
NO_CHARGES


@<TRIPOS>ATOM
      1 ****        -1.4432   4.7048   1.3353 N.am           1 S1                 0.0000
      2 ****        -0.8870   3.6855   0.6750 C.2            1 S1                 0.0000
      3 ****        -0.7173   3.7096  -0.5424 O.2            1 S1                 0.0000
      4 ****        -0.4576   2.4667   1.5016 C.3            1 S1                 0.0000
      5 ****        -1.3592   1.2983   1.1850 C.2            1 S1                 0.0000
      6 ****        -2.6880   1.3786   1.3109 N.2            1 S1                 0.0000
      7 ****        -3.1146   0.1248   0.9246 C.ar           1 S1                 0.0000
      8 ****        -4.4181  -0.4125   0.8264 C.ar           1 S1                 0.0000
      9 ****        -4.6111  -1.7435   0.4023 C.ar           1 S1                 0.0000
     10 ****        -3.5060  -2.5547   0.0731 C.ar           1 S1                 0.0000
     11 ****        -2.1991  -2.0388   0.1664 C.ar           1 S1                 0.0000
     12 ****        -2.0123  -0.7084   0.5884 C.ar           1 S1                 0.0000
     13 ****        -0.8869   0.0858   0.7860 N.pl3          1 S1                 0.0000
     14 ****         0.4897  -0.3538   0.5932 C.3            1 S1                 0.0000
     15 ****         0.9518  -0.2438  -0.8738 C.3            1 S1                 0.0000
     16 ****         0.8745   1.0949  -1.3189 O.3            1 S1                 0.0000
     17 ****         2.3399  -0.8371  -1.0698 C.ar           1 S1                 0.0000
     18 ****         2.4811  -2.0638  -1.7544 C.ar           1 S1                 0.0000
     19 ****         3.7554  -2.6323  -1.9426 C.ar           1 S1                 0.0000
     20 ****         3.8805  -3.8090  -2.6007 F              1 S1                 0.0000
     21 ****         4.8987  -1.9785  -1.4462 C.ar           1 S1                 0.0000
     22 ****         4.7659  -0.7571  -0.7589 C.ar           1 S1                 0.0000
     23 ****         3.4920  -0.1867  -0.5682 C.ar           1 S1                 0.0000
     24 ****         3.3850   0.9854   0.1026 F              1 S1                 0.0000
     25 ****        -1.7479   5.5228   0.8278 H              1 S1                 0.0000
     26 ****        -1.5651   4.6514   2.3362 H              1 S1                 0.0000
     27 ****         0.5841   2.2539   1.2703 H              1 S1                 0.0000
     28 ****        -0.5136   2.6812   2.5695 H              1 S1                 0.0000
     29 ****        -5.2706   0.2013   1.0768 H              1 S1                 0.0000
     30 ****        -5.6117  -2.1438   0.3295 H              1 S1                 0.0000
     31 ****        -3.6618  -3.5733  -0.2507 H              1 S1                 0.0000
     32 ****        -1.3509  -2.6581  -0.0848 H              1 S1                 0.0000
     33 ****         1.1520   0.1874   1.2670 H              1 S1                 0.0000
     34 ****         0.5500  -1.3956   0.9104 H              1 S1                 0.0000
     35 ****         0.2527  -0.8073  -1.4931 H              1 S1                 0.0000
     36 ****         1.0405   1.1142  -2.2489 H              1 S1                 0.0000
     37 ****         1.6109  -2.5761  -2.1383 H              1 S1                 0.0000
     38 ****         5.8763  -2.4143  -1.5908 H              1 S1                 0.0000
     39 ****         5.6426  -0.2567  -0.3754 H              1 S1                 0.0000
     40 ****        -0.9991   4.5105  -1.0708 LP             1 S1                 0.0000
     41 ****        -0.2976   2.9282  -1.0043 LP             1 S1                 0.0000
     42 ****        -3.2383   2.1575   1.6117 LP             1 S1                 0.0000
     43 ****         1.5585   1.6479  -0.8432 LP             1 S1                 0.0000
     44 ****        -0.0377   1.4597  -1.1321 LP             1 S1                 0.0000
@<TRIPOS>BOND
    1    1    2 am    
    2    1   25 1     
    3    1   26 1     
    4    2    3 2     
    5    2    4 1     
    6    4    5 1     
    7    4   27 1     
    8    4   28 1     
    9    5   13 1     
   10    5    6 2     
   11    6    7 1     
   12    7   12 ar    
   13    7    8 ar    
   14    8    9 ar    
   15    8   29 1     
   16    9   10 ar    
   17    9   30 1     
   18   10   11 ar    
   19   10   31 1     
   20   11   12 ar    
   21   11   32 1     
   22   12   13 1     
   23   13   14 1     
   24   14   15 1     
   25   14   33 1     
   26   14   34 1     
   27   15   16 1     
   28   15   17 1     
   29   15   35 1     
   30   16   36 1     
   31   17   23 ar    
   32   17   18 ar    
   33   18   19 ar    
   34   18   37 1     
   35   19   20 1     
   36   19   21 ar    
   37   21   22 ar    
   38   21   38 1     
   39   22   23 ar    
   40   22   39 1     
   41   23   24 1     
   42    3   40 1     
   43    3   41 1     
   44    6   42 1     
   45   16   43 1     
   46   16   44 1     
@<TRIPOS>SUBSTRUCTURE
      1 S1             1
@<TRIPOS>SET
LONE_PAIRS      STATIC     ATOMS    <user>   **** ""
5 40 41 42 43 44
DONOR_HYDROGENS      STATIC     ATOMS    <user>   **** ""
3 25 26 36
ATOM$BLUE        STATIC     ATOMS    COLORGROUP SYSTEM
5 40 41 42 43 44
ATOM$RED        STATIC     ATOMS    COLORGROUP SYSTEM
3 25 26 36
