AV-unprocessed.smi:72|AV-procd|sdf|675|dock8
  -GOLD-   2262016583D 1   1.00000     0.00000
 Structure written by MMmdl.
 29 30  0  0  0  0  0  0  0  0  1 V2000
  154.0139  138.0802  154.6494 N   0  0  0  0  0  0  0  0  0  0  0  0
  152.7760  138.4178  154.7254 C   0  0  0  0  0  0  0  0  0  0  0  0
  151.7251  137.8079  154.0234 N   0  0  0  0  0  0  0  0  0  0  0  0
  150.5191  138.2527  154.1988 C   0  0  0  0  0  0  0  0  0  0  0  0
  150.2234  139.3588  155.0960 N   0  0  0  0  0  0  0  0  0  0  0  0
  148.8056  139.8598  155.2761 C   0  0  2  0  0  0  0  0  0  0  0  0
  147.9449  138.7628  155.3488 O   0  0  0  0  0  0  0  0  0  0  0  0
  146.7396  139.0607  154.6523 C   0  0  2  0  0  0  0  0  0  0  0  0
  145.9851  137.7762  154.2654 C   0  0  0  0  0  0  0  0  0  0  0  0
  144.7768  138.1003  153.6111 O   0  0  0  0  0  0  0  0  0  0  0  0
  147.2184  139.9264  153.4779 C   0  0  2  0  0  0  0  0  0  0  0  0
  147.6959  139.1193  152.4140 O   0  0  0  0  0  0  0  0  0  0  0  0
  148.3233  140.7614  154.1192 C   0  0  2  0  0  0  0  0  0  0  0  0
  149.3195  141.1762  153.1992 O   0  0  0  0  0  0  0  0  0  0  0  0
  151.2736  139.9940  155.8030 C   0  0  0  0  0  0  0  0  0  0  0  0
  151.0850  140.9489  156.5561 O   0  0  0  0  0  0  0  0  0  0  0  0
  152.5077  139.4870  155.5912 N   0  0  0  0  0  0  0  0  0  0  0  0
  148.7746  140.3700  156.2399 H   0  0  0  0  0  0  0  0  0  0  0  0
  146.1149  139.6820  155.2974 H   0  0  0  0  0  0  0  0  0  0  0  0
  146.4155  140.5540  153.0898 H   0  0  0  0  0  0  0  0  0  0  0  0
  147.8811  141.6506  154.5704 H   0  0  0  0  0  0  0  0  0  0  0  0
  154.5792  138.6665  155.2460 H   0  0  0  0  0  0  0  0  0  0  0  0
  149.6540  137.8304  153.6860 H   0  0  0  0  0  0  0  0  0  0  0  0
  146.5823  137.1857  153.5701 H   0  0  0  0  0  0  0  0  0  0  0  0
  145.7875  137.1518  155.1375 H   0  0  0  0  0  0  0  0  0  0  0  0
  144.7820  139.0240  153.4113 H   0  0  0  0  0  0  0  0  0  0  0  0
  148.2719  139.6432  151.8783 H   0  0  0  0  0  0  0  0  0  0  0  0
  149.4585  140.4779  152.5776 H   0  0  0  0  0  0  0  0  0  0  0  0
  153.2769  139.9162  156.0841 H   0  0  0  0  0  0  0  0  0  0  0  0
  1  2  2  0  0  0  0
  1 22  1  0  0  0  0
  2 17  1  0  0  0  0
  2  3  1  0  0  0  0
  3  4  2  0  0  0  0
  4  5  1  0  0  0  0
  4 23  1  0  0  0  0
  5  6  1  0  0  0  0
  5 15  1  0  0  0  0
  6 18  1  0  0  0  0
  6 13  1  0  0  0  0
  6  7  1  0  0  0  0
  7  8  1  0  0  0  0
  8 19  1  0  0  0  0
  8  9  1  0  0  0  0
  8 11  1  0  0  0  0
  9 10  1  0  0  0  0
  9 24  1  0  0  0  0
  9 25  1  0  0  0  0
 10 26  1  0  0  0  0
 11 20  1  0  0  0  0
 11 12  1  0  0  0  0
 11 13  1  0  0  0  0
 12 27  1  0  0  0  0
 13 21  1  0  0  0  0
 13 14  1  0  0  0  0
 14 28  1  0  0  0  0
 15 16  2  0  0  0  0
 15 17  1  0  0  0  0
 17 29  1  0  0  0  0
M  END
> <s_m_source_file>
AV-unprocessed.smi

> <i_m_source_file_index>
72

> <i_lp_mmshare_version>
43012

> <i_f3d_flags>
0

> <s_epik_input>
W05IMl1jMW5bY0hdbihjKD1PKW4xKVtDQEBIXTJPW0NASF0oW0NIMl1bT0hdKVtDQEBIXShbT0hdKVtDQEhdMltPSF0=

> <s_epik_cmdline>
J2VwaWtfcHl0aG9uJywgJy1waCcsICc3LjAnLCAnLXRuJywgJzgnLCAnLW1hJywgJzIwMCcsICctbWV0YWxfYmluZGluZycsICctaW1hZScsICc8aW5maWxlLm1hZT4nLCAnLW9tYWUnLCAnPG91dGZpbGUubWFlPic=

> <r_lp_tautomer_probability>
7.17554e-07

> <r_epik_Ionization_Penalty>
0.0066451

> <r_epik_Ionization_Penalty_Charging>
0.00663793

> <r_epik_Ionization_Penalty_Neutral>
7.17052e-06

> <r_epik_State_Penalty>
0.419231

> <r_epik_Charging_Adjusted_Penalty>
0.425868

> <i_epik_Tot_Q>
0

> <i_epik_Tot_abs_Q>
0

> <r_epik_Metal_State_Penalty>
1.44144

> <b_epik_Metal_Only>
0

> <s_epik_Chemistry_Notes>
This compound contains an acetal/aminal-like group ( X-CH(R)-Y where X, Y are N, S, or O) that may be acid/base labile, releasing an aldehyde.

> <s_lp_Force_Field>
OPLS_2005

> <r_lp_Energy>
49.9877

> <b_lp_Chiralities_Consistent>
1

> <s_lp_Variant>
AV-unprocessed.smi:72-13

> <Gold.Version>
5.8.1

> <Gold.Id.Protein>
6NUR|6NUR_protein|mol2

> <Gold.PLP.Fitness>
40.1088

> <Gold.PLP.PLP>
-27.0117

> <Gold.PLP.part.hbond>
-6.2499

> <Gold.PLP.part.metal>
0.0000

> <Gold.PLP.part.buried>
-6.5595

> <Gold.PLP.part.nonpolar>
-15.8912

> <Gold.PLP.part.repulsive>
0.9629

> <Gold.PLP.ligand.clash>
0.0000

> <Gold.PLP.ligand.torsion>
0.5252

> <Gold.PLP.Chemscore.Hbond>
3.7144

> <Gold.PLP.Chemscore.CHOScore>
0.9992

> <Gold.PLP.Chemscore.Metal>
0.0000

> <Gold.Chemscore.Hbonds>
donor molecule, donor type, donor heavy atom, donor atom, acceptor molecule, acceptor atom, score
      L1  H    10    26       P1 10175  0.80
      L1  H    12    27       P1  7957  1.00
      L1  H    14    28       P1  7957  0.86
      P1  H  8011  8017       L1    14  1.00
      L1  C     4    23       P1  7948  1.00

> <Gold.PLP.Chemscore.Internal.Correction>
0.0065

> <Gold.Rescore>
     Score         DG    S(hbond)    S(metal)    S(lipo)     H(rot)  DE(clash)    DE(int)     intcor
      7.53      -7.93       3.22        0.00      17.90       4.06       0.00       0.39       ----

> <Gold.Chemscore.Fitness>
7.5348

> <Gold.Chemscore.DG>
-7.9312

> <Gold.Chemscore.ZeroCoef>
-5.4800

> <Gold.Chemscore.Hbond>
3.2187

> <Gold.Chemscore.Metal>
0.0000

> <Gold.Chemscore.Lipo>
17.9000

> <Gold.Chemscore.Internal_Hbond>
0.0000

> <Gold.Chemscore.DEClash>
0.0015

> <Gold.Chemscore.DEInternal>
0.3950

> <Gold.Chemscore.Rot>
4.0600

> <Gold.Chemscore.Internal.Correction>
   9.000000E+99

> <Gold.Chemscore.Hbonds>
donor molecule, donor type, donor heavy atom, donor atom, acceptor molecule, acceptor atom, score
      L1  H    10    26       P1 10175  0.74
      L1  H    12    27       P1  7957  0.93
      L1  H    14    28       P1  7957  0.80
      P1  H  8011  8017       L1    14  0.25

> <Gold.Chemscore.Hbond.Weighted>
-10.7505

> <Gold.Chemscore.Metal.Weighted>
-0.0000

> <Gold.Chemscore.Lipo.Weighted>
-2.0943

> <Gold.Chemscore.Internal_Hbond.Weighted>
0.0000

> <Gold.Chemscore.DEClash.Weighted>
0.0015

> <Gold.Chemscore.DEInternal.Weighted>
0.3950

> <Gold.Chemscore.Rot.Weighted>
10.3936

> <Gold.Chemscore.Internal.Correction.Weighted>
   9.000000E+99

> <Gold.Protein.RotatedTorsions>
[ 6907 6896 6895 6894 ] final  148.42 input  -60.11 | X-H torsion
[ 7974 7965 7964 7962 ] final  169.38 input  175.53 | X-H torsion
[ 8008 7997 7996 7995 ] final   41.18 input   59.86 | X-H torsion
[ 10167 10162 10161 10158 ] final -156.31 input  -65.29 | X-H torsion
[ 10718 10713 10712 10709 ] final   41.82 input   66.30 | X-H torsion
[ 10763 10752 10751 10750 ] final   63.78 input  -60.55 | X-H torsion
[ 11005 11000 10999 10996 ] final  -65.86 input  -57.11 | X-H torsion

> <Gold.Protein.ActiveResidues>
 VAL166  LYS551  ARG553  GLY616  TRP617  ASP618  TYR619  PRO620  LYS621  CYS622 
 ASP623  PHE694  ASN695  SER759  ASP760  ASP761  ALA762  ILE779  LEU786  VAL792 
 PHE793  MET794  SER795  GLU796  ALA797  LYS798  CYS799  TRP800  GLU811  SER814 

> <Gold.Protein.RotatedAtoms>
  152.1418  133.4468  159.4770 H   0  0  0  0  0  0  0  0  0  0  0  0  # atno 6907 bound_to 6896
  150.6887  134.2296  159.4438 H   0  0  0  0  0  0  0  0  0  0  0  0  # atno 6908 bound_to 6896
  152.0187  134.9834  160.0620 H   0  0  0  0  0  0  0  0  0  0  0  0  # atno 6909 bound_to 6896
  144.7357  139.9046  143.6411 H   0  0  0  0  0  0  0  0  0  0  0  0  # atno 7974 bound_to 7965
  155.2653  140.3362  155.4269 H   0  0  0  0  0  0  0  0  0  0  0  0  # atno 8008 bound_to 7997
  156.2157  140.1788  156.7637 H   0  0  0  0  0  0  0  0  0  0  0  0  # atno 8009 bound_to 7997
  154.5749  140.0663  156.9004 H   0  0  0  0  0  0  0  0  0  0  0  0  # atno 8010 bound_to 7997
  139.6860  143.9500  152.2361 H   0  0  0  0  0  0  0  0  0  0  0  0  # atno 10167 bound_to 10162
  157.3979  130.7843  149.7324 H   0  0  0  0  0  0  0  0  0  0  0  0  # atno 10718 bound_to 10713
  153.0030  135.5417  154.6406 H   0  0  0  0  0  0  0  0  0  0  0  0  # atno 10763 bound_to 10752
  154.5662  135.2838  155.0874 H   0  0  0  0  0  0  0  0  0  0  0  0  # atno 10764 bound_to 10752
  154.2057  135.6476  153.5153 H   0  0  0  0  0  0  0  0  0  0  0  0  # atno 10765 bound_to 10752
  141.1466  133.6689  156.6050 H   0  0  0  0  0  0  0  0  0  0  0  0  # atno 11005 bound_to 11000
  146.1046  139.4044  143.0325 LP  0  0  0  0  0  0  0  0  0  0  0  0  # atno 17320 bound_to 7965
  145.7530  140.9965  143.1240 LP  0  0  0  0  0  0  0  0  0  0  0  0  # atno 17321 bound_to 7965
  139.9303  144.6745  150.8370 LP  0  0  0  0  0  0  0  0  0  0  0  0  # atno 17342 bound_to 10162
  140.7668  143.3313  151.2404 LP  0  0  0  0  0  0  0  0  0  0  0  0  # atno 17343 bound_to 10162
  155.9815  130.4018  150.3467 LP  0  0  0  0  0  0  0  0  0  0  0  0  # atno 17370 bound_to 10713
  157.1591  131.0340  151.2849 LP  0  0  0  0  0  0  0  0  0  0  0  0  # atno 17371 bound_to 10713
  140.3659  134.7648  157.4565 LP  0  0  0  0  0  0  0  0  0  0  0  0  # atno 17394 bound_to 11000
  140.0749  134.5812  155.8602 LP  0  0  0  0  0  0  0  0  0  0  0  0  # atno 17395 bound_to 11000

$$$$
