AV-unprocessed.smi:199|AV-procd|sdf|1569|dock4
  -GOLD-   2262019443D 1   1.00000     0.00000
 Structure written by MMmdl.
 51 55  0  0  0  0  0  0  0  0  1 V2000
  150.7624  138.2453  153.8370 C   0  0  0  0  0  0  0  0  0  0  0  0
  150.4085  139.1399  155.0361 C   0  0  1  0  0  0  0  0  0  0  0  0
  151.5844  139.5483  155.7196 O   0  0  0  0  0  0  0  0  0  0  0  0
  151.2272  140.6473  156.5379 C   0  0  0  0  0  0  0  0  0  0  0  0
  150.3553  141.4876  155.6125 C   0  0  0  0  0  0  0  0  0  0  0  0
  149.6401  140.4544  154.7360 C   0  0  1  0  0  0  0  0  0  0  0  0
  149.7855  140.8506  153.3819 O   0  0  0  0  0  0  0  0  0  0  0  0
  148.1269  140.3657  155.0546 C   0  0  0  0  0  0  0  0  0  0  0  0
  147.4191  139.3899  154.2392 N   0  0  0  0  0  0  0  0  0  0  0  0
  147.0626  139.5235  152.9170 C   0  0  0  0  0  0  0  0  0  0  0  0
  146.4438  138.4972  152.4022 N   0  0  0  0  0  0  0  0  0  0  0  0
  146.3482  137.5895  153.4508 C   0  0  0  0  0  0  0  0  0  0  0  0
  145.8022  136.2802  153.5913 C   0  0  0  0  0  0  0  0  0  0  0  0
  145.1938  135.6010  152.5803 N   0  0  0  0  0  0  0  0  0  0  0  0
  145.8998  135.3126  151.3383 C   0  0  1  0  0  0  0  0  0  0  0  0
  146.8735  134.1756  151.7132 C   0  0  0  0  0  0  0  0  0  0  0  0
  146.0565  133.4208  152.7721 C   0  0  0  0  0  0  0  0  0  0  0  0
  144.7419  134.2316  152.7780 C   0  0  2  0  0  0  0  0  0  0  0  0
  143.9176  134.0000  151.4899 C   0  0  2  0  0  0  0  0  0  0  0  0
  143.5637  132.5457  151.1264 C   0  0  0  0  0  0  0  0  0  0  0  0
  142.8716  132.5026  149.8967 O   0  0  0  0  0  0  0  0  0  0  0  0
  144.7854  134.7320  150.4498 C   0  0  0  0  0  0  0  0  0  0  0  0
  145.9335  135.6795  154.8042 N   0  0  0  0  0  0  0  0  0  0  0  0
  146.5265  136.3169  155.8169 C   0  0  0  0  0  0  0  0  0  0  0  0
  147.0636  137.5371  155.8334 N   0  0  0  0  0  0  0  0  0  0  0  0
  146.9581  138.1397  154.6149 C   0  0  0  0  0  0  0  0  0  0  0  0
  149.8670  137.9387  153.2958 H   0  0  0  0  0  0  0  0  0  0  0  0
  151.2725  137.3412  154.1686 H   0  0  0  0  0  0  0  0  0  0  0  0
  151.4233  138.7561  153.1364 H   0  0  0  0  0  0  0  0  0  0  0  0
  149.8399  138.5461  155.7524 H   0  0  0  0  0  0  0  0  0  0  0  0
  150.6598  140.2960  157.4013 H   0  0  0  0  0  0  0  0  0  0  0  0
  152.1043  141.1865  156.8959 H   0  0  0  0  0  0  0  0  0  0  0  0
  149.6749  142.1369  156.1647 H   0  0  0  0  0  0  0  0  0  0  0  0
  151.0013  142.1311  155.0126 H   0  0  0  0  0  0  0  0  0  0  0  0
  149.5043  140.1379  152.8289 H   0  0  0  0  0  0  0  0  0  0  0  0
  147.9823  140.1039  156.1036 H   0  0  0  0  0  0  0  0  0  0  0  0
  147.6498  141.3369  154.9164 H   0  0  0  0  0  0  0  0  0  0  0  0
  147.2869  140.4074  152.3382 H   0  0  0  0  0  0  0  0  0  0  0  0
  146.3923  136.1708  150.8794 H   0  0  0  0  0  0  0  0  0  0  0  0
  147.1404  133.5512  150.8599 H   0  0  0  0  0  0  0  0  0  0  0  0
  147.7954  134.5664  152.1454 H   0  0  0  0  0  0  0  0  0  0  0  0
  145.9251  132.3641  152.5454 H   0  0  0  0  0  0  0  0  0  0  0  0
  146.5478  133.4845  153.7440 H   0  0  0  0  0  0  0  0  0  0  0  0
  144.1447  134.0632  153.6721 H   0  0  0  0  0  0  0  0  0  0  0  0
  142.9816  134.5525  151.5932 H   0  0  0  0  0  0  0  0  0  0  0  0
  144.4768  131.9584  151.0263 H   0  0  0  0  0  0  0  0  0  0  0  0
  142.9684  132.0622  151.9001 H   0  0  0  0  0  0  0  0  0  0  0  0
  142.4594  133.3409  149.7542 H   0  0  0  0  0  0  0  0  0  0  0  0
  144.2140  135.5264  149.9679 H   0  0  0  0  0  0  0  0  0  0  0  0
  145.1744  134.0771  149.6690 H   0  0  0  0  0  0  0  0  0  0  0  0
  146.5796  135.7695  156.7463 H   0  0  0  0  0  0  0  0  0  0  0  0
  1  2  1  0  0  0  0
  1 27  1  0  0  0  0
  1 28  1  0  0  0  0
  1 29  1  0  0  0  0
  2  6  1  0  0  0  0
  2  3  1  0  0  0  0
  2 30  1  0  0  0  0
  3  4  1  0  0  0  0
  4  5  1  0  0  0  0
  4 31  1  0  0  0  0
  4 32  1  0  0  0  0
  5  6  1  0  0  0  0
  5 33  1  0  0  0  0
  5 34  1  0  0  0  0
  6  7  1  0  0  0  0
  6  8  1  0  0  0  0
  7 35  1  0  0  0  0
  8  9  1  0  0  0  0
  8 36  1  0  0  0  0
  8 37  1  0  0  0  0
  9 26  1  0  0  0  0
  9 10  1  0  0  0  0
 10 11  2  0  0  0  0
 10 38  1  0  0  0  0
 11 12  1  0  0  0  0
 12 26  2  0  0  0  0
 12 13  1  0  0  0  0
 13 14  1  0  0  0  0
 13 23  2  0  0  0  0
 14 18  1  0  0  0  0
 14 15  1  0  0  0  0
 15 22  1  0  0  0  0
 15 16  1  0  0  0  0
 15 39  1  0  0  0  0
 16 17  1  0  0  0  0
 16 40  1  0  0  0  0
 16 41  1  0  0  0  0
 17 18  1  0  0  0  0
 17 42  1  0  0  0  0
 17 43  1  0  0  0  0
 18 19  1  0  0  0  0
 18 44  1  0  0  0  0
 19 20  1  0  0  0  0
 19 22  1  0  0  0  0
 19 45  1  0  0  0  0
 20 21  1  0  0  0  0
 20 46  1  0  0  0  0
 20 47  1  0  0  0  0
 21 48  1  0  0  0  0
 22 49  1  0  0  0  0
 22 50  1  0  0  0  0
 23 24  1  0  0  0  0
 24 25  2  0  0  0  0
 24 51  1  0  0  0  0
 25 26  1  0  0  0  0
M  END
> <s_m_source_file>
AV-unprocessed.smi

> <i_m_source_file_index>
199

> <i_lp_mmshare_version>
43012

> <i_f3d_flags>
0

> <s_epik_input>
W0NIMl0xW0NIMl1PW0NAQEhdKFtDSDNdKVtDQEBdMShbT0hdKVtDSDJdbihbY0hdbjIpYyhjMjMpbltjSF1uYzNOKFtDQEBIXTQ1KVtDQEhdKFtDSDJdW0NIMl00KVtDQEhdKFtDSDJdNSlbQ0gyXVtPSF0=

> <s_epik_cmdline>
J2VwaWtfcHl0aG9uJywgJy1waCcsICc3LjAnLCAnLXRuJywgJzgnLCAnLW1hJywgJzIwMCcsICctbWV0YWxfYmluZGluZycsICctaW1hZScsICc8aW5maWxlLm1hZT4nLCAnLW9tYWUnLCAnPG91dGZpbGUubWFlPic=

> <r_lp_tautomer_probability>
1

> <r_epik_Ionization_Penalty>
0.00583903

> <r_epik_Ionization_Penalty_Charging>
0

> <r_epik_Ionization_Penalty_Neutral>
0.00583903

> <r_epik_State_Penalty>
-0

> <r_epik_Charging_Adjusted_Penalty>
0

> <i_epik_Tot_Q>
0

> <i_epik_Tot_abs_Q>
0

> <r_epik_Metal_State_Penalty>
-0

> <b_epik_Metal_Only>
0

> <s_lp_Force_Field>
OPLS_2005

> <r_lp_Energy>
83.7467

> <b_lp_Chiralities_Consistent>
1

> <s_lp_Variant>
AV-unprocessed.smi:199-10

> <Gold.Version>
5.8.1

> <Gold.Id.Protein>
6NUR|6NUR_protein|mol2

> <Gold.PLP.Fitness>
46.6977

> <Gold.PLP.PLP>
-36.6153

> <Gold.PLP.part.hbond>
-4.4216

> <Gold.PLP.part.metal>
0.0000

> <Gold.PLP.part.buried>
-3.0866

> <Gold.PLP.part.nonpolar>
-27.9459

> <Gold.PLP.part.repulsive>
0.4418

> <Gold.PLP.ligand.clash>
0.0000

> <Gold.PLP.ligand.torsion>
0.2073

> <Gold.PLP.Chemscore.Hbond>
2.8400

> <Gold.PLP.Chemscore.CHOScore>
0.6471

> <Gold.PLP.Chemscore.Metal>
0.0000

> <Gold.Chemscore.Hbonds>
donor molecule, donor type, donor heavy atom, donor atom, acceptor molecule, acceptor atom, score
      L1  H     7    35       P1  7957  0.54
      L1  H    21    48       P1 10186  1.00
      P1  H  7989  7998       L1     7  0.19
      P1  H  8011  8017       L1     7  1.00
      L1  C    10    38       P1  7957  0.47

> <Gold.PLP.Chemscore.Internal.Correction>
0.0356

> <Gold.Rescore>
     Score         DG    S(hbond)    S(metal)    S(lipo)     H(rot)  DE(clash)    DE(int)     intcor
     13.98     -15.14       2.40        0.00      81.20       3.07       0.02       1.14       ----

> <Gold.Chemscore.Fitness>
13.9801

> <Gold.Chemscore.DG>
-15.1440

> <Gold.Chemscore.ZeroCoef>
-5.4800

> <Gold.Chemscore.Hbond>
2.4044

> <Gold.Chemscore.Metal>
0.0000

> <Gold.Chemscore.Lipo>
81.1954

> <Gold.Chemscore.Internal_Hbond>
0.0000

> <Gold.Chemscore.DEClash>
0.0197

> <Gold.Chemscore.DEInternal>
1.1442

> <Gold.Chemscore.Rot>
3.0729

> <Gold.Chemscore.Internal.Correction>
   9.000000E+99

> <Gold.Chemscore.Hbonds>
donor molecule, donor type, donor heavy atom, donor atom, acceptor molecule, acceptor atom, score
      L1  H     7    35       P1  7957  0.54
      L1  H    21    48       P1 10186  0.97
      P1  H  7989  7998       L1     7  0.02
      P1  H  8011  8017       L1     7  0.59

> <Gold.Chemscore.Hbond.Weighted>
-8.0308

> <Gold.Chemscore.Metal.Weighted>
-0.0000

> <Gold.Chemscore.Lipo.Weighted>
-9.4999

> <Gold.Chemscore.Internal_Hbond.Weighted>
0.0000

> <Gold.Chemscore.DEClash.Weighted>
0.0197

> <Gold.Chemscore.DEInternal.Weighted>
1.1442

> <Gold.Chemscore.Rot.Weighted>
7.8667

> <Gold.Chemscore.Internal.Correction.Weighted>
   9.000000E+99

> <Gold.Protein.RotatedTorsions>
[ 6907 6896 6895 6894 ] final  -89.52 input  -60.11 | X-H torsion
[ 7974 7965 7964 7962 ] final   49.25 input  175.53 | X-H torsion
[ 8008 7997 7996 7995 ] final -162.11 input   59.86 | X-H torsion
[ 10167 10162 10161 10158 ] final   43.41 input  -65.29 | X-H torsion
[ 10718 10713 10712 10709 ] final  -68.83 input   66.30 | X-H torsion
[ 10763 10752 10751 10750 ] final   21.48 input  -60.55 | X-H torsion
[ 11005 11000 10999 10996 ] final  -78.19 input  -57.11 | X-H torsion

> <Gold.Protein.ActiveResidues>
 VAL166  LYS551  ARG553  GLY616  TRP617  ASP618  TYR619  PRO620  LYS621  CYS622 
 ASP623  PHE694  ASN695  SER759  ASP760  ASP761  ALA762  ILE779  LEU786  VAL792 
 PHE793  MET794  SER795  GLU796  ALA797  LYS798  CYS799  TRP800  GLU811  SER814 

> <Gold.Protein.RotatedAtoms>
  150.6874  134.2573  159.4534 H   0  0  0  0  0  0  0  0  0  0  0  0  # atno 6907 bound_to 6896
  152.0506  134.9653  160.0584 H   0  0  0  0  0  0  0  0  0  0  0  0  # atno 6908 bound_to 6896
  152.1119  133.4270  159.4672 H   0  0  0  0  0  0  0  0  0  0  0  0  # atno 6909 bound_to 6896
  146.0127  139.4561  142.9946 H   0  0  0  0  0  0  0  0  0  0  0  0  # atno 7974 bound_to 7965
  155.8020  140.0893  157.1952 H   0  0  0  0  0  0  0  0  0  0  0  0  # atno 8008 bound_to 7997
  154.3982  140.1470  156.3344 H   0  0  0  0  0  0  0  0  0  0  0  0  # atno 8009 bound_to 7997
  155.8453  140.3437  155.5661 H   0  0  0  0  0  0  0  0  0  0  0  0  # atno 8010 bound_to 7997
  140.3447  144.2426  150.6152 H   0  0  0  0  0  0  0  0  0  0  0  0  # atno 10167 bound_to 10162
  156.0485  130.4301  150.2058 H   0  0  0  0  0  0  0  0  0  0  0  0  # atno 10718 bound_to 10713
  153.0992  135.6668  153.9705 H   0  0  0  0  0  0  0  0  0  0  0  0  # atno 10763 bound_to 10752
  153.9280  135.3007  155.3447 H   0  0  0  0  0  0  0  0  0  0  0  0  # atno 10764 bound_to 10752
  154.7412  135.5078  153.9201 H   0  0  0  0  0  0  0  0  0  0  0  0  # atno 10765 bound_to 10752
  141.1664  133.7053  156.7934 H   0  0  0  0  0  0  0  0  0  0  0  0  # atno 11005 bound_to 11000
  145.7317  141.0040  143.1348 LP  0  0  0  0  0  0  0  0  0  0  0  0  # atno 17320 bound_to 7965
  144.6959  139.8992  143.7457 LP  0  0  0  0  0  0  0  0  0  0  0  0  # atno 17321 bound_to 7965
  140.5276  143.2251  151.8290 LP  0  0  0  0  0  0  0  0  0  0  0  0  # atno 17342 bound_to 10162
  139.4835  144.4760  151.9366 LP  0  0  0  0  0  0  0  0  0  0  0  0  # atno 17343 bound_to 10162
  157.0144  130.9961  151.3357 LP  0  0  0  0  0  0  0  0  0  0  0  0  # atno 17370 bound_to 10713
  157.5387  130.8106  149.8003 LP  0  0  0  0  0  0  0  0  0  0  0  0  # atno 17371 bound_to 10713
  140.2309  134.8687  157.3475 LP  0  0  0  0  0  0  0  0  0  0  0  0  # atno 17394 bound_to 11000
  140.1892  134.4392  155.7725 LP  0  0  0  0  0  0  0  0  0  0  0  0  # atno 17395 bound_to 11000

$$$$
