AV-unprocessed.smi:3287|AV-procd|sdf|12601|dock1
  -GOLD-   2272018523D 1   1.00000     0.00000
 Structure written by MMmdl.
 43 44  0  0  0  0  0  0  0  0  2 V2000
  153.3950  142.7108  160.7031 C   0  0  0  0  0  0  0  0  0  0  0  0
  152.4985  142.8545  159.4604 C   0  0  1  0  0  0  0  0  0  0  0  0
  152.0919  141.4591  158.9449 C   0  0  0  0  0  0  0  0  0  0  0  0
  151.2035  141.5383  157.6955 C   0  0  0  0  0  0  0  0  0  0  0  0
  149.9466  142.3867  157.9624 C   0  0  2  0  0  0  0  0  0  0  0  0
  149.1062  142.5090  156.7508 N   0  3  0  0  0  0  0  0  0  0  0  0
  148.8768  141.2486  156.0121 C   0  0  0  0  0  0  0  0  0  0  0  0
  149.8548  141.1007  154.8337 C   0  0  2  0  0  0  0  0  0  0  0  0
  149.1500  141.3127  153.6258 O   0  0  0  0  0  0  0  0  0  0  0  0
  150.5372  139.7418  154.8567 C   0  0  0  0  0  0  0  0  0  0  0  0
  149.8461  138.5864  154.4359 C   0  0  0  0  0  0  0  0  0  0  0  0
  150.5209  137.3492  154.4653 C   0  0  0  0  0  0  0  0  0  0  0  0
  151.8003  137.2120  154.8740 N   0  0  0  0  0  0  0  0  0  0  0  0
  152.4581  138.3209  155.2742 C   0  0  0  0  0  0  0  0  0  0  0  0
  151.8760  139.6041  155.2835 C   0  0  0  0  0  0  0  0  0  0  0  0
  150.3533  143.7853  158.4571 C   0  0  0  0  0  0  0  0  0  0  0  0
  151.2419  143.7279  159.7171 C   0  0  2  0  0  0  0  0  0  0  0  0
  151.5873  145.1554  160.1777 C   0  0  0  0  0  0  0  0  0  0  0  0
  152.8420  142.2944  161.5454 H   0  0  0  0  0  0  0  0  0  0  0  0
  153.8130  143.6675  161.0152 H   0  0  0  0  0  0  0  0  0  0  0  0
  154.2381  142.0493  160.5019 H   0  0  0  0  0  0  0  0  0  0  0  0
  153.0927  143.3351  158.6814 H   0  0  0  0  0  0  0  0  0  0  0  0
  152.9831  140.8733  158.7162 H   0  0  0  0  0  0  0  0  0  0  0  0
  151.5630  140.9169  159.7302 H   0  0  0  0  0  0  0  0  0  0  0  0
  151.7739  141.9664  156.8699 H   0  0  0  0  0  0  0  0  0  0  0  0
  150.9302  140.5279  157.3918 H   0  0  0  0  0  0  0  0  0  0  0  0
  149.3520  141.9125  158.7450 H   0  0  0  0  0  0  0  0  0  0  0  0
  148.1991  142.8471  157.0401 H   0  0  0  0  0  0  0  0  0  0  0  0
  149.0047  140.4077  156.6938 H   0  0  0  0  0  0  0  0  0  0  0  0
  147.8466  141.2165  155.6537 H   0  0  0  0  0  0  0  0  0  0  0  0
  150.6220  141.8734  154.9029 H   0  0  0  0  0  0  0  0  0  0  0  0
  149.1355  140.5012  153.1406 H   0  0  0  0  0  0  0  0  0  0  0  0
  148.8220  138.6397  154.0966 H   0  0  0  0  0  0  0  0  0  0  0  0
  150.0195  136.4463  154.1500 H   0  0  0  0  0  0  0  0  0  0  0  0
  153.4801  138.1823  155.5948 H   0  0  0  0  0  0  0  0  0  0  0  0
  152.4492  140.4594  155.6098 H   0  0  0  0  0  0  0  0  0  0  0  0
  150.8816  144.3167  157.6636 H   0  0  0  0  0  0  0  0  0  0  0  0
  149.4560  144.3681  158.6705 H   0  0  0  0  0  0  0  0  0  0  0  0
  150.6592  143.2597  160.5121 H   0  0  0  0  0  0  0  0  0  0  0  0
  152.2398  145.6567  159.4622 H   0  0  0  0  0  0  0  0  0  0  0  0
  152.0857  145.1588  161.1466 H   0  0  0  0  0  0  0  0  0  0  0  0
  150.6870  145.7610  160.2851 H   0  0  0  0  0  0  0  0  0  0  0  0
  149.5180  143.1920  156.1311 H   0  0  0  0  0  0  0  0  0  0  0  0
  1  2  1  0  0  0  0
  1 19  1  0  0  0  0
  1 20  1  0  0  0  0
  1 21  1  0  0  0  0
  2 17  1  0  0  0  0
  2  3  1  0  0  0  0
  2 22  1  0  0  0  0
  3  4  1  0  0  0  0
  3 23  1  0  0  0  0
  3 24  1  0  0  0  0
  4  5  1  0  0  0  0
  4 25  1  0  0  0  0
  4 26  1  0  0  0  0
  5  6  1  0  0  0  0
  5 16  1  0  0  0  0
  5 27  1  0  0  0  0
  6  7  1  0  0  0  0
  6 28  1  0  0  0  0
  6 43  1  0  0  0  0
  7  8  1  0  0  0  0
  7 29  1  0  0  0  0
  7 30  1  0  0  0  0
  8  9  1  0  0  0  0
  8 10  1  0  0  0  0
  8 31  1  0  0  0  0
  9 32  1  0  0  0  0
 10 15  1  0  0  0  0
 10 11  2  0  0  0  0
 11 12  1  0  0  0  0
 11 33  1  0  0  0  0
 12 13  2  0  0  0  0
 12 34  1  0  0  0  0
 13 14  1  0  0  0  0
 14 15  2  0  0  0  0
 14 35  1  0  0  0  0
 15 36  1  0  0  0  0
 16 17  1  0  0  0  0
 16 37  1  0  0  0  0
 16 38  1  0  0  0  0
 17 18  1  0  0  0  0
 17 39  1  0  0  0  0
 18 40  1  0  0  0  0
 18 41  1  0  0  0  0
 18 42  1  0  0  0  0
M  CHG  1   6   1
M  END
> <s_m_source_file>
AV-unprocessed.smi

> <i_m_source_file_index>
3287

> <i_lp_mmshare_version>
43012

> <i_f3d_flags>
0

> <s_epik_input>
W0NIM11bQ0BASF0xW0NIMl1bQ0gyXVtDQEhdKFtDSDJdW0NASF0xW0NIM10pW05IXVtDSDJdW0NASF0oW09IXSljMltjSF1bY0hdbltjSF1bY0hdMg==

> <s_epik_cmdline>
J2VwaWtfcHl0aG9uJywgJy1waCcsICc3LjAnLCAnLXRuJywgJzgnLCAnLW1hJywgJzIwMCcsICctbWV0YWxfYmluZGluZycsICctaW1hZScsICc8aW5maWxlLm1hZT4nLCAnLW9tYWUnLCAnPG91dGZpbGUubWFlPic=

> <r_lp_tautomer_probability>
1

> <r_epik_Ionization_Penalty>
0.00537262

> <r_epik_Ionization_Penalty_Charging>
0.00321624

> <r_epik_Ionization_Penalty_Neutral>
0.00215638

> <r_epik_State_Penalty>
-0

> <r_epik_Charging_Adjusted_Penalty>
0.00321624

> <i_epik_Tot_Q>
1

> <i_epik_Tot_abs_Q>
1

> <r_epik_Metal_State_Penalty>
-0

> <b_epik_Metal_Only>
0

> <s_lp_Force_Field>
OPLS_2005

> <r_lp_Energy>
15.7848

> <b_lp_Chiralities_Consistent>
1

> <s_lp_Variant>
AV-unprocessed.smi:3287-12

> <Gold.Version>
5.8.1

> <Gold.Id.Protein>
6NUR|6NUR_protein|mol2

> <Gold.PLP.Fitness>
52.6461

> <Gold.PLP.PLP>
-42.0075

> <Gold.PLP.part.hbond>
-4.7878

> <Gold.PLP.part.metal>
0.0000

> <Gold.PLP.part.buried>
-0.6613

> <Gold.PLP.part.nonpolar>
-35.9132

> <Gold.PLP.part.repulsive>
0.1219

> <Gold.PLP.ligand.clash>
0.0000

> <Gold.PLP.ligand.torsion>
1.4122

> <Gold.PLP.Chemscore.Hbond>
3.6049

> <Gold.PLP.Chemscore.CHOScore>
0.8563

> <Gold.PLP.Chemscore.Metal>
0.0000

> <Gold.Chemscore.Hbonds>
donor molecule, donor type, donor heavy atom, donor atom, acceptor molecule, acceptor atom, score
      L1  H     6    43       P1  8028  1.12
      L1  H     9    32       P1  7957  0.55
      P1  H  8011  8017       L1     9  0.85
      P1  H 10752 10763       L1    13  0.99
      L1  C    12    34       P1  7948  0.84

> <Gold.PLP.Chemscore.Internal.Correction>
0.0794

> <Gold.Rescore>
     Score         DG    S(hbond)    S(metal)    S(lipo)     H(rot)  DE(clash)    DE(int)     intcor
     20.45     -22.45       2.32        0.00     120.51       1.90       0.66       1.34       ----

> <Gold.Chemscore.Fitness>
20.4454

> <Gold.Chemscore.DG>
-22.4452

> <Gold.Chemscore.ZeroCoef>
-5.4800

> <Gold.Chemscore.Hbond>
2.3171

> <Gold.Chemscore.Metal>
0.0000

> <Gold.Chemscore.Lipo>
120.5052

> <Gold.Chemscore.Internal_Hbond>
0.0000

> <Gold.Chemscore.DEClash>
0.6626

> <Gold.Chemscore.DEInternal>
1.3373

> <Gold.Chemscore.Rot>
1.9035

> <Gold.Chemscore.Internal.Correction>
   9.000000E+99

> <Gold.Chemscore.Hbonds>
donor molecule, donor type, donor heavy atom, donor atom, acceptor molecule, acceptor atom, score
      L1  H     6    43       P1  8028  0.56
      L1  H     9    32       P1  7957  0.54
      P1  H  8011  8017       L1     9  0.19
      P1  H 10752 10763       L1    13  0.85

> <Gold.Chemscore.Hbond.Weighted>
-7.7390

> <Gold.Chemscore.Metal.Weighted>
-0.0000

> <Gold.Chemscore.Lipo.Weighted>
-14.0991

> <Gold.Chemscore.Internal_Hbond.Weighted>
0.0000

> <Gold.Chemscore.DEClash.Weighted>
0.6626

> <Gold.Chemscore.DEInternal.Weighted>
1.3373

> <Gold.Chemscore.Rot.Weighted>
4.8729

> <Gold.Chemscore.Internal.Correction.Weighted>
   9.000000E+99

> <Gold.Protein.RotatedTorsions>
[ 6907 6896 6895 6894 ] final   53.86 input  -60.11 | X-H torsion
[ 7974 7965 7964 7962 ] final   56.35 input  175.53 | X-H torsion
[ 8008 7997 7996 7995 ] final  -42.36 input   59.86 | X-H torsion
[ 10167 10162 10161 10158 ] final  -89.19 input  -65.29 | X-H torsion
[ 10718 10713 10712 10709 ] final -122.67 input   66.30 | X-H torsion
[ 10763 10752 10751 10750 ] final   49.72 input  -60.55 | X-H torsion
[ 11005 11000 10999 10996 ] final -136.54 input  -57.11 | X-H torsion

> <Gold.Protein.ActiveResidues>
 VAL166  LYS551  ARG553  GLY616  TRP617  ASP618  TYR619  PRO620  LYS621  CYS622 
 ASP623  PHE694  ASN695  SER759  ASP760  ASP761  ALA762  ILE779  LEU786  VAL792 
 PHE793  MET794  SER795  GLU796  ALA797  LYS798  CYS799  TRP800  GLU811  SER814 

> <Gold.Protein.RotatedAtoms>
  152.3380  134.7172  160.0271 H   0  0  0  0  0  0  0  0  0  0  0  0  # atno 6907 bound_to 6896
  151.7566  133.3325  159.3414 H   0  0  0  0  0  0  0  0  0  0  0  0  # atno 6908 bound_to 6896
  150.7462  134.6076  159.6113 H   0  0  0  0  0  0  0  0  0  0  0  0  # atno 6909 bound_to 6896
  145.9407  139.3886  143.0365 H   0  0  0  0  0  0  0  0  0  0  0  0  # atno 7974 bound_to 7965
  154.3999  140.1475  156.3343 H   0  0  0  0  0  0  0  0  0  0  0  0  # atno 8008 bound_to 7997
  155.8415  140.3462  155.5614 H   0  0  0  0  0  0  0  0  0  0  0  0  # atno 8009 bound_to 7997
  155.8082  140.0880  157.1909 H   0  0  0  0  0  0  0  0  0  0  0  0  # atno 8010 bound_to 7997
  140.3673  143.2812  151.9543 H   0  0  0  0  0  0  0  0  0  0  0  0  # atno 10167 bound_to 10162
  156.1438  130.6485  150.9811 H   0  0  0  0  0  0  0  0  0  0  0  0  # atno 10718 bound_to 10713
  152.9786  135.5902  154.4134 H   0  0  0  0  0  0  0  0  0  0  0  0  # atno 10763 bound_to 10752
  154.3767  135.2767  155.2237 H   0  0  0  0  0  0  0  0  0  0  0  0  # atno 10764 bound_to 10752
  154.4168  135.6068  153.6040 H   0  0  0  0  0  0  0  0  0  0  0  0  # atno 10765 bound_to 10752
  140.8795  134.1950  157.4600 H   0  0  0  0  0  0  0  0  0  0  0  0  # atno 11005 bound_to 11000
  145.8303  140.9634  143.0852 LP  0  0  0  0  0  0  0  0  0  0  0  0  # atno 17320 bound_to 7965
  144.6779  140.0154  143.7484 LP  0  0  0  0  0  0  0  0  0  0  0  0  # atno 17321 bound_to 7965
  139.4807  144.5939  151.7724 LP  0  0  0  0  0  0  0  0  0  0  0  0  # atno 17342 bound_to 10162
  140.5068  144.1085  150.5985 LP  0  0  0  0  0  0  0  0  0  0  0  0  # atno 17343 bound_to 10162
  157.6599  131.0883  150.7862 LP  0  0  0  0  0  0  0  0  0  0  0  0  # atno 17370 bound_to 10713
  156.7936  130.4898  149.5381 LP  0  0  0  0  0  0  0  0  0  0  0  0  # atno 17371 bound_to 10713
  139.8718  134.9811  156.5101 LP  0  0  0  0  0  0  0  0  0  0  0  0  # atno 17394 bound_to 11000
  140.8478  133.8155  155.9138 LP  0  0  0  0  0  0  0  0  0  0  0  0  # atno 17395 bound_to 11000

$$$$
