AV-unprocessed.smi:2702|AV-procd|sdf|10437|dock1
  -GOLD-   2272014473D 1   1.00000     0.00000
 Structure written by MMmdl.
 47 48  0  0  0  0  0  0  0  0  1 V2000
  153.7419  133.3427  164.7774 C   0  0  0  0  0  0  0  0  0  0  0  0
  153.8415  134.3898  163.8283 O   0  0  0  0  0  0  0  0  0  0  0  0
  154.6565  135.4575  164.2819 C   0  0  0  0  0  0  0  0  0  0  0  0
  154.7393  136.5481  163.2330 C   0  0  0  0  0  0  0  0  0  0  0  0
  153.8804  136.6069  162.1886 C   0  0  0  0  0  0  0  0  0  0  0  0
  153.9952  137.6669  161.1868 C   0  0  0  0  0  0  0  0  0  0  0  0
  153.2321  137.7558  160.2246 O   0  0  0  0  0  0  0  0  0  0  0  0
  155.0160  138.5496  161.3980 N   0  0  0  0  0  0  0  0  0  0  0  0
  155.2633  139.6685  160.4700 C   0  0  0  0  0  0  0  0  0  0  0  0
  154.2658  140.8249  160.6320 C   0  0  0  0  0  0  0  0  0  0  0  0
  154.1905  141.4491  161.6911 O   0  0  0  0  0  0  0  0  0  0  0  0
  153.5176  141.1078  159.5553 N   0  0  0  0  0  0  0  0  0  0  0  0
  152.4930  142.1473  159.4828 C   0  0  1  0  0  0  0  0  0  0  0  0
  153.0723  143.4823  159.9950 C   0  0  0  0  0  0  0  0  0  0  0  0
  152.0630  144.6311  159.8654 C   0  0  0  0  0  0  0  0  0  0  0  0
  151.5567  144.7641  158.4207 C   0  0  0  0  0  0  0  0  0  0  0  0
  150.9493  143.4489  157.8920 C   0  0  2  0  0  0  0  0  0  0  0  0
  149.5740  143.1619  158.5286 C   0  0  0  0  0  0  0  0  0  0  0  0
  151.9691  142.2865  158.0297 C   0  0  2  0  0  0  0  0  0  0  0  0
  151.4301  140.9610  157.4551 C   0  0  0  0  0  0  0  0  0  0  0  0
  155.8808  138.4438  162.5057 C   0  0  0  0  0  0  0  0  0  0  0  0
  155.7587  137.4946  163.3782 N   0  0  0  0  0  0  0  0  0  0  0  0
  153.1088  132.5489  164.3816 H   0  0  0  0  0  0  0  0  0  0  0  0
  153.2964  133.6950  165.7086 H   0  0  0  0  0  0  0  0  0  0  0  0
  154.7208  132.9146  164.9973 H   0  0  0  0  0  0  0  0  0  0  0  0
  154.2424  135.8834  165.1974 H   0  0  0  0  0  0  0  0  0  0  0  0
  155.6564  135.0903  164.5186 H   0  0  0  0  0  0  0  0  0  0  0  0
  153.0992  135.8676  162.0859 H   0  0  0  0  0  0  0  0  0  0  0  0
  156.2703  140.0727  160.5871 H   0  0  0  0  0  0  0  0  0  0  0  0
  155.2255  139.3030  159.4419 H   0  0  0  0  0  0  0  0  0  0  0  0
  153.6519  140.5465  158.7270 H   0  0  0  0  0  0  0  0  0  0  0  0
  151.6573  141.8586  160.1227 H   0  0  0  0  0  0  0  0  0  0  0  0
  153.3787  143.3850  161.0369 H   0  0  0  0  0  0  0  0  0  0  0  0
  153.9728  143.7319  159.4322 H   0  0  0  0  0  0  0  0  0  0  0  0
  151.2254  144.4627  160.5426 H   0  0  0  0  0  0  0  0  0  0  0  0
  152.5264  145.5661  160.1809 H   0  0  0  0  0  0  0  0  0  0  0  0
  150.8272  145.5719  158.3542 H   0  0  0  0  0  0  0  0  0  0  0  0
  152.3889  145.0577  157.7793 H   0  0  0  0  0  0  0  0  0  0  0  0
  150.7661  143.5958  156.8267 H   0  0  0  0  0  0  0  0  0  0  0  0
  149.6499  142.9412  159.5928 H   0  0  0  0  0  0  0  0  0  0  0  0
  149.0798  142.3168  158.0497 H   0  0  0  0  0  0  0  0  0  0  0  0
  148.9097  144.0192  158.4189 H   0  0  0  0  0  0  0  0  0  0  0  0
  152.8254  142.5571  157.4094 H   0  0  0  0  0  0  0  0  0  0  0  0
  150.6445  140.5404  158.0832 H   0  0  0  0  0  0  0  0  0  0  0  0
  152.2170  140.2109  157.3725 H   0  0  0  0  0  0  0  0  0  0  0  0
  151.0193  141.1052  156.4557 H   0  0  0  0  0  0  0  0  0  0  0  0
  156.6512  139.2134  162.5759 H   0  0  0  0  0  0  0  0  0  0  0  0
  1  2  1  0  0  0  0
  1 23  1  0  0  0  0
  1 24  1  0  0  0  0
  1 25  1  0  0  0  0
  2  3  1  0  0  0  0
  3  4  1  0  0  0  0
  3 26  1  0  0  0  0
  3 27  1  0  0  0  0
  4 22  1  0  0  0  0
  4  5  2  0  0  0  0
  5  6  1  0  0  0  0
  5 28  1  0  0  0  0
  6  7  2  0  0  0  0
  6  8  1  0  0  0  0
  8  9  1  0  0  0  0
  8 21  1  0  0  0  0
  9 10  1  0  0  0  0
  9 29  1  0  0  0  0
  9 30  1  0  0  0  0
 10 11  2  0  0  0  0
 10 12  1  0  0  0  0
 12 13  1  0  0  0  0
 12 31  1  0  0  0  0
 13 19  1  0  0  0  0
 13 14  1  0  0  0  0
 13 32  1  0  0  0  0
 14 15  1  0  0  0  0
 14 33  1  0  0  0  0
 14 34  1  0  0  0  0
 15 16  1  0  0  0  0
 15 35  1  0  0  0  0
 15 36  1  0  0  0  0
 16 17  1  0  0  0  0
 16 37  1  0  0  0  0
 16 38  1  0  0  0  0
 17 18  1  0  0  0  0
 17 19  1  0  0  0  0
 17 39  1  0  0  0  0
 18 40  1  0  0  0  0
 18 41  1  0  0  0  0
 18 42  1  0  0  0  0
 19 20  1  0  0  0  0
 19 43  1  0  0  0  0
 20 44  1  0  0  0  0
 20 45  1  0  0  0  0
 20 46  1  0  0  0  0
 21 22  2  0  0  0  0
 21 47  1  0  0  0  0
M  END
> <s_m_source_file>
AV-unprocessed.smi

> <i_m_source_file_index>
2702

> <i_lp_mmshare_version>
43012

> <i_f3d_flags>
0

> <s_epik_input>
W0NIM11PW0NIMl1jMVtjSF1jKD1PKW4oW2NIXW4xKVtDSDJdQyg9TylbTkhdW0NAQEhdMltDSDJdW0NIMl1bQ0gyXVtDQEBIXShbQ0gzXSlbQ0BIXTJbQ0gzXQ==

> <s_epik_cmdline>
J2VwaWtfcHl0aG9uJywgJy1waCcsICc3LjAnLCAnLXRuJywgJzgnLCAnLW1hJywgJzIwMCcsICctbWV0YWxfYmluZGluZycsICctaW1hZScsICc8aW5maWxlLm1hZT4nLCAnLW9tYWUnLCAnPG91dGZpbGUubWFlPic=

> <r_lp_tautomer_probability>
1

> <r_epik_Ionization_Penalty>
1.22164e-06

> <r_epik_Ionization_Penalty_Charging>
3.17988e-07

> <r_epik_Ionization_Penalty_Neutral>
9.03656e-07

> <r_epik_State_Penalty>
-0

> <r_epik_Charging_Adjusted_Penalty>
3.17988e-07

> <i_epik_Tot_Q>
0

> <i_epik_Tot_abs_Q>
0

> <r_epik_Metal_State_Penalty>
-0

> <b_epik_Metal_Only>
0

> <s_lp_Force_Field>
OPLS_2005

> <r_lp_Energy>
19.2685

> <b_lp_Chiralities_Consistent>
1

> <s_lp_Variant>
AV-unprocessed.smi:2702-8

> <Gold.Version>
5.8.1

> <Gold.Id.Protein>
6NUR|6NUR_protein|mol2

> <Gold.PLP.Fitness>
41.3121

> <Gold.PLP.PLP>
-42.2403

> <Gold.PLP.part.hbond>
-1.0000

> <Gold.PLP.part.metal>
0.0000

> <Gold.PLP.part.buried>
-5.0013

> <Gold.PLP.part.nonpolar>
-36.4700

> <Gold.PLP.part.repulsive>
0.1413

> <Gold.PLP.ligand.clash>
0.0000

> <Gold.PLP.ligand.torsion>
0.4809

> <Gold.PLP.Chemscore.Hbond>
0.0000

> <Gold.PLP.Chemscore.CHOScore>
0.0000

> <Gold.PLP.Chemscore.Metal>
0.0000

> <Gold.PLP.Chemscore.Internal.Correction>
0.0336

> <Gold.Rescore>
     Score         DG    S(hbond)    S(metal)    S(lipo)     H(rot)  DE(clash)    DE(int)     intcor
     12.18     -13.99       0.00        0.00     114.94       1.93       0.15       1.66       ----

> <Gold.Chemscore.Fitness>
12.1789

> <Gold.Chemscore.DG>
-13.9908

> <Gold.Chemscore.ZeroCoef>
-5.4800

> <Gold.Chemscore.Hbond>
0.0000

> <Gold.Chemscore.Metal>
0.0000

> <Gold.Chemscore.Lipo>
114.9366

> <Gold.Chemscore.Internal_Hbond>
0.0000

> <Gold.Chemscore.DEClash>
0.1481

> <Gold.Chemscore.DEInternal>
1.6639

> <Gold.Chemscore.Rot>
1.9284

> <Gold.Chemscore.Internal.Correction>
   9.000000E+99

> <Gold.Chemscore.Hbond.Weighted>
-0.0000

> <Gold.Chemscore.Metal.Weighted>
-0.0000

> <Gold.Chemscore.Lipo.Weighted>
-13.4476

> <Gold.Chemscore.Internal_Hbond.Weighted>
0.0000

> <Gold.Chemscore.DEClash.Weighted>
0.1481

> <Gold.Chemscore.DEInternal.Weighted>
1.6639

> <Gold.Chemscore.Rot.Weighted>
4.9368

> <Gold.Chemscore.Internal.Correction.Weighted>
   9.000000E+99

> <Gold.Protein.RotatedTorsions>
[ 6907 6896 6895 6894 ] final  145.35 input  -60.11 | X-H torsion
[ 7974 7965 7964 7962 ] final    5.25 input  175.53 | X-H torsion
[ 8008 7997 7996 7995 ] final  -99.31 input   59.86 | X-H torsion
[ 10167 10162 10161 10158 ] final -152.59 input  -65.29 | X-H torsion
[ 10718 10713 10712 10709 ] final  -40.45 input   66.30 | X-H torsion
[ 10763 10752 10751 10750 ] final   67.99 input  -60.55 | X-H torsion
[ 11005 11000 10999 10996 ] final  151.52 input  -57.11 | X-H torsion

> <Gold.Protein.ActiveResidues>
 VAL166  LYS551  ARG553  GLY616  TRP617  ASP618  TYR619  PRO620  LYS621  CYS622 
 ASP623  PHE694  ASN695  SER759  ASP760  ASP761  ALA762  ILE779  LEU786  VAL792 
 PHE793  MET794  SER795  GLU796  ALA797  LYS798  CYS799  TRP800  GLU811  SER814 

> <Gold.Protein.RotatedAtoms>
  152.1819  133.4713  159.4962 H   0  0  0  0  0  0  0  0  0  0  0  0  # atno 6907 bound_to 6896
  150.6936  134.1822  159.4262 H   0  0  0  0  0  0  0  0  0  0  0  0  # atno 6908 bound_to 6896
  151.9733  135.0065  160.0604 H   0  0  0  0  0  0  0  0  0  0  0  0  # atno 6909 bound_to 6896
  146.2441  140.0413  142.8382 H   0  0  0  0  0  0  0  0  0  0  0  0  # atno 7974 bound_to 7965
  154.8131  140.0449  157.1357 H   0  0  0  0  0  0  0  0  0  0  0  0  # atno 8008 bound_to 7997
  154.9346  140.3044  155.5131 H   0  0  0  0  0  0  0  0  0  0  0  0  # atno 8009 bound_to 7997
  156.2973  140.2317  156.4409 H   0  0  0  0  0  0  0  0  0  0  0  0  # atno 8010 bound_to 7997
  139.7169  143.9019  152.2489 H   0  0  0  0  0  0  0  0  0  0  0  0  # atno 10167 bound_to 10162
  156.2812  130.4217  149.8335 H   0  0  0  0  0  0  0  0  0  0  0  0  # atno 10718 bound_to 10713
  153.0213  135.5264  154.7065 H   0  0  0  0  0  0  0  0  0  0  0  0  # atno 10763 bound_to 10752
  154.6159  135.2883  155.0383 H   0  0  0  0  0  0  0  0  0  0  0  0  # atno 10764 bound_to 10752
  154.1387  135.6581  153.4990 H   0  0  0  0  0  0  0  0  0  0  0  0  # atno 10765 bound_to 10752
  140.1226  134.8854  157.2093 H   0  0  0  0  0  0  0  0  0  0  0  0  # atno 11005 bound_to 11000
  145.1067  140.9380  143.4680 LP  0  0  0  0  0  0  0  0  0  0  0  0  # atno 17320 bound_to 7965
  145.0617  139.3100  143.5877 LP  0  0  0  0  0  0  0  0  0  0  0  0  # atno 17321 bound_to 7965
  139.8904  144.6968  150.8777 LP  0  0  0  0  0  0  0  0  0  0  0  0  # atno 17342 bound_to 10162
  140.7745  143.3591  151.1864 LP  0  0  0  0  0  0  0  0  0  0  0  0  # atno 17343 bound_to 10162
  156.5782  130.8454  151.3375 LP  0  0  0  0  0  0  0  0  0  0  0  0  # atno 17370 bound_to 10713
  157.7315  130.9701  150.1882 LP  0  0  0  0  0  0  0  0  0  0  0  0  # atno 17371 bound_to 10713
  140.2945  134.3202  155.7306 LP  0  0  0  0  0  0  0  0  0  0  0  0  # atno 17394 bound_to 11000
  141.2155  133.7555  156.9552 LP  0  0  0  0  0  0  0  0  0  0  0  0  # atno 17395 bound_to 11000

$$$$
