AV-unprocessed.smi:949|AV-procd|sdf|4243|dock2
  -GOLD-   22720 2153D 1   1.00000     0.00000
 Structure written by MMmdl.
 33 34  0  0  0  0  0  0  0  0  2 V2000
  150.4570  140.6237  158.2306 C   0  0  0  0  0  0  0  0  0  0  0  0
  151.0315  141.7709  157.3802 C   0  0  1  0  0  0  0  0  0  0  0  0
  150.2627  141.9295  156.1500 N   0  0  0  0  0  0  0  0  0  0  0  0
  149.9621  140.8615  155.2857 C   0  0  0  0  0  0  0  0  0  0  0  0
  150.7452  139.6804  155.2310 C   0  0  0  0  0  0  0  0  0  0  0  0
  150.3902  138.6478  154.3404 C   0  0  0  0  0  0  0  0  0  0  0  0
  149.3097  138.7868  153.5449 N   0  3  0  0  0  0  0  0  0  0  0  0
  148.5326  139.8897  153.5579 C   0  0  0  0  0  0  0  0  0  0  0  0
  148.8354  140.9591  154.4271 C   0  0  0  0  0  0  0  0  0  0  0  0
  148.0156  142.0903  154.4197 N   0  0  0  0  0  0  0  0  0  0  0  0
  151.0460  143.0931  158.1722 C   0  0  2  0  0  0  0  0  0  0  0  0
  151.8411  144.2204  157.5080 C   0  0  0  0  0  0  0  0  0  0  0  0
  152.2154  145.0761  158.6956 C   0  0  0  0  0  0  0  0  0  0  0  0
  152.5172  144.0173  159.7497 C   0  0  0  0  0  0  0  0  0  0  0  0
  151.6787  142.9077  159.4378 O   0  0  0  0  0  0  0  0  0  0  0  0
  151.0428  140.4734  159.1377 H   0  0  0  0  0  0  0  0  0  0  0  0
  150.4550  139.6781  157.6887 H   0  0  0  0  0  0  0  0  0  0  0  0
  149.4299  140.8322  158.5324 H   0  0  0  0  0  0  0  0  0  0  0  0
  152.0649  141.5389  157.1232 H   0  0  0  0  0  0  0  0  0  0  0  0
  149.9442  142.8569  155.9087 H   0  0  0  0  0  0  0  0  0  0  0  0
  151.6128  139.5436  155.8579 H   0  0  0  0  0  0  0  0  0  0  0  0
  150.9351  137.7201  154.2430 H   0  0  0  0  0  0  0  0  0  0  0  0
  147.6958  139.8818  152.8745 H   0  0  0  0  0  0  0  0  0  0  0  0
  148.1953  142.8789  155.0249 H   0  0  0  0  0  0  0  0  0  0  0  0
  147.2510  142.1839  153.7665 H   0  0  0  0  0  0  0  0  0  0  0  0
  150.0271  143.4369  158.3589 H   0  0  0  0  0  0  0  0  0  0  0  0
  152.7423  143.8300  157.0325 H   0  0  0  0  0  0  0  0  0  0  0  0
  151.2655  144.7626  156.7572 H   0  0  0  0  0  0  0  0  0  0  0  0
  153.0588  145.7391  158.5016 H   0  0  0  0  0  0  0  0  0  0  0  0
  151.3631  145.6836  159.0034 H   0  0  0  0  0  0  0  0  0  0  0  0
  153.5567  143.6949  159.6782 H   0  0  0  0  0  0  0  0  0  0  0  0
  152.3430  144.3774  160.7639 H   0  0  0  0  0  0  0  0  0  0  0  0
  149.0701  138.0273  152.9071 H   0  0  0  0  0  0  0  0  0  0  0  0
  1  2  1  0  0  0  0
  1 16  1  0  0  0  0
  1 17  1  0  0  0  0
  1 18  1  0  0  0  0
  2  3  1  0  0  0  0
  2 11  1  0  0  0  0
  2 19  1  0  0  0  0
  3  4  1  0  0  0  0
  3 20  1  0  0  0  0
  4  9  1  0  0  0  0
  4  5  2  0  0  0  0
  5  6  1  0  0  0  0
  5 21  1  0  0  0  0
  6  7  2  0  0  0  0
  6 22  1  0  0  0  0
  7  8  1  0  0  0  0
  7 33  1  0  0  0  0
  8  9  2  0  0  0  0
  8 23  1  0  0  0  0
  9 10  1  0  0  0  0
 10 24  1  0  0  0  0
 10 25  1  0  0  0  0
 11 15  1  0  0  0  0
 11 12  1  0  0  0  0
 11 26  1  0  0  0  0
 12 13  1  0  0  0  0
 12 27  1  0  0  0  0
 12 28  1  0  0  0  0
 13 14  1  0  0  0  0
 13 29  1  0  0  0  0
 13 30  1  0  0  0  0
 14 15  1  0  0  0  0
 14 31  1  0  0  0  0
 14 32  1  0  0  0  0
M  CHG  1   7   1
M  END
> <s_m_source_file>
AV-unprocessed.smi

> <i_m_source_file_index>
949

> <i_lp_mmshare_version>
43012

> <i_f3d_flags>
0

> <s_epik_input>
TzFbQ0gyXVtDSDJdW0NIMl1bQ0BIXTFbQ0BIXShbQ0gzXSlbTkhdYzJbY0hdW2NIXW5bY0hdYzJbTkgyXQ==

> <s_epik_cmdline>
J2VwaWtfcHl0aG9uJywgJy1waCcsICc3LjAnLCAnLXRuJywgJzgnLCAnLW1hJywgJzIwMCcsICctbWV0YWxfYmluZGluZycsICctaW1hZScsICc8aW5maWxlLm1hZT4nLCAnLW9tYWUnLCAnPG91dGZpbGUubWFlPic=

> <r_epik_Ionization_Penalty>
0.000849261

> <r_epik_Ionization_Penalty_Charging>
0.000847912

> <r_epik_Ionization_Penalty_Neutral>
1.34939e-06

> <r_epik_State_Penalty>
0.000546618

> <r_epik_Charging_Adjusted_Penalty>
0.00139453

> <i_epik_Tot_Q>
1

> <i_epik_Tot_abs_Q>
1

> <r_epik_Metal_State_Penalty>
0.526583

> <b_epik_Metal_Only>
0

> <s_lp_Force_Field>
OPLS_2005

> <r_lp_Energy>
29.423

> <b_lp_Chiralities_Consistent>
1

> <s_lp_Variant>
AV-unprocessed.smi:949-2

> <Gold.Version>
5.8.1

> <Gold.Id.Protein>
6NUR|6NUR_protein|mol2

> <Gold.PLP.Fitness>
45.6069

> <Gold.PLP.PLP>
-35.2477

> <Gold.PLP.part.hbond>
-3.5738

> <Gold.PLP.part.metal>
0.0000

> <Gold.PLP.part.buried>
-1.4045

> <Gold.PLP.part.nonpolar>
-31.8411

> <Gold.PLP.part.repulsive>
0.3857

> <Gold.PLP.ligand.clash>
0.0000

> <Gold.PLP.ligand.torsion>
0.2627

> <Gold.PLP.Chemscore.Hbond>
3.6238

> <Gold.PLP.Chemscore.CHOScore>
0.0000

> <Gold.PLP.Chemscore.Metal>
0.0000

> <Gold.Chemscore.Hbonds>
donor molecule, donor type, donor heavy atom, donor atom, acceptor molecule, acceptor atom, score
      L1  H     3    20       P1  8028  0.68
      L1  H     7    33       P1  7948  1.92
      L1  H    10    24       P1  8028  0.98

> <Gold.PLP.Chemscore.Internal.Correction>
0.0133

> <Gold.Rescore>
     Score         DG    S(hbond)    S(metal)    S(lipo)     H(rot)  DE(clash)    DE(int)     intcor
     21.06     -22.87       2.67        0.00      99.44       1.23       1.47       0.33       ----

> <Gold.Chemscore.Fitness>
21.0629

> <Gold.Chemscore.DG>
-22.8707

> <Gold.Chemscore.ZeroCoef>
-5.4800

> <Gold.Chemscore.Hbond>
2.6698

> <Gold.Chemscore.Metal>
0.0000

> <Gold.Chemscore.Lipo>
99.4400

> <Gold.Chemscore.Internal_Hbond>
0.0000

> <Gold.Chemscore.DEClash>
1.4746

> <Gold.Chemscore.DEInternal>
0.3333

> <Gold.Chemscore.Rot>
1.2347

> <Gold.Chemscore.Internal.Correction>
   9.000000E+99

> <Gold.Chemscore.Hbonds>
donor molecule, donor type, donor heavy atom, donor atom, acceptor molecule, acceptor atom, score
      L1  H     3    20       P1  8028  0.69
      L1  H     7    33       P1  7948  0.90
      L1  H    10    24       P1  8028  0.89

> <Gold.Chemscore.Hbond.Weighted>
-8.9171

> <Gold.Chemscore.Metal.Weighted>
-0.0000

> <Gold.Chemscore.Lipo.Weighted>
-11.6345

> <Gold.Chemscore.Internal_Hbond.Weighted>
0.0000

> <Gold.Chemscore.DEClash.Weighted>
1.4746

> <Gold.Chemscore.DEInternal.Weighted>
0.3333

> <Gold.Chemscore.Rot.Weighted>
3.1609

> <Gold.Chemscore.Internal.Correction.Weighted>
   9.000000E+99

> <Gold.Protein.RotatedTorsions>
[ 6907 6896 6895 6894 ] final   28.13 input  -60.11 | X-H torsion
[ 7974 7965 7964 7962 ] final  -12.19 input  175.53 | X-H torsion
[ 8008 7997 7996 7995 ] final   68.46 input   59.86 | X-H torsion
[ 10167 10162 10161 10158 ] final  -67.77 input  -65.29 | X-H torsion
[ 10718 10713 10712 10709 ] final -166.90 input   66.30 | X-H torsion
[ 10763 10752 10751 10750 ] final -106.35 input  -60.55 | X-H torsion
[ 11005 11000 10999 10996 ] final  -48.04 input  -57.11 | X-H torsion

> <Gold.Protein.ActiveResidues>
 VAL166  LYS551  ARG553  GLY616  TRP617  ASP618  TYR619  PRO620  LYS621  CYS622 
 ASP623  PHE694  ASN695  SER759  ASP760  ASP761  ALA762  ILE779  LEU786  VAL792 
 PHE793  MET794  SER795  GLU796  ALA797  LYS798  CYS799  TRP800  GLU811  SER814 

> <Gold.Protein.RotatedAtoms>
  152.0124  134.9869  160.0568 H   0  0  0  0  0  0  0  0  0  0  0  0  # atno 6907 bound_to 6896
  152.1416  133.4462  159.4778 H   0  0  0  0  0  0  0  0  0  0  0  0  # atno 6908 bound_to 6896
  150.6865  134.2217  159.4442 H   0  0  0  0  0  0  0  0  0  0  0  0  # atno 6909 bound_to 6896
  146.2161  140.3021  142.8376 H   0  0  0  0  0  0  0  0  0  0  0  0  # atno 7974 bound_to 7965
  155.7087  140.3494  155.4964 H   0  0  0  0  0  0  0  0  0  0  0  0  # atno 8008 bound_to 7997
  155.9375  140.1095  157.1104 H   0  0  0  0  0  0  0  0  0  0  0  0  # atno 8009 bound_to 7997
  154.4096  140.1219  156.4870 H   0  0  0  0  0  0  0  0  0  0  0  0  # atno 8010 bound_to 7997
  140.5558  143.2312  151.6824 H   0  0  0  0  0  0  0  0  0  0  0  0  # atno 10167 bound_to 10162
  156.6746  130.9097  151.3048 H   0  0  0  0  0  0  0  0  0  0  0  0  # atno 10718 bound_to 10713
  154.8007  135.4715  154.0268 H   0  0  0  0  0  0  0  0  0  0  0  0  # atno 10763 bound_to 10752
  153.1776  135.6835  153.8529 H   0  0  0  0  0  0  0  0  0  0  0  0  # atno 10764 bound_to 10752
  153.8090  135.3219  155.3376 H   0  0  0  0  0  0  0  0  0  0  0  0  # atno 10765 bound_to 10752
  141.0677  133.6688  156.3384 H   0  0  0  0  0  0  0  0  0  0  0  0  # atno 11005 bound_to 11000
  144.9050  140.7688  143.5843 LP  0  0  0  0  0  0  0  0  0  0  0  0  # atno 17320 bound_to 7965
  145.2949  139.1870  143.4721 LP  0  0  0  0  0  0  0  0  0  0  0  0  # atno 17321 bound_to 7965
  139.5047  144.3744  152.0438 LP  0  0  0  0  0  0  0  0  0  0  0  0  # atno 17342 bound_to 10162
  140.2865  144.3801  150.6102 LP  0  0  0  0  0  0  0  0  0  0  0  0  # atno 17343 bound_to 10162
  157.7065  130.9391  150.0948 LP  0  0  0  0  0  0  0  0  0  0  0  0  # atno 17370 bound_to 10713
  156.1913  130.3655  149.8906 LP  0  0  0  0  0  0  0  0  0  0  0  0  # atno 17371 bound_to 10713
  140.5739  134.5813  157.5464 LP  0  0  0  0  0  0  0  0  0  0  0  0  # atno 17394 bound_to 11000
  139.9492  134.7646  156.0488 LP  0  0  0  0  0  0  0  0  0  0  0  0  # atno 17395 bound_to 11000

$$$$
