AV-unprocessed.smi:2078|AV-procd|sdf|8471|dock4
  -GOLD-   2272011173D 1   1.00000     0.00000
 Structure written by MMmdl.
 41 42  0  0  0  0  0  0  0  0  3 V2000
  153.4040  142.0023  160.3459 C   0  0  0  0  0  0  0  0  0  0  0  0
  152.4275  142.4696  159.3218 C   0  0  0  0  0  0  0  0  0  0  0  0
  151.5816  141.8110  158.4746 C   0  0  0  0  0  0  0  0  0  0  0  0
  150.9420  142.8677  157.7734 C   0  0  0  0  0  0  0  0  0  0  0  0
  149.9665  142.5892  156.7798 N   0  0  0  0  0  0  0  0  0  0  0  0
  150.0055  141.6779  155.7905 C   0  0  0  0  0  0  0  0  0  0  0  0
  150.9864  140.9351  155.6638 O   0  0  0  0  0  0  0  0  0  0  0  0
  148.8828  141.7071  155.0212 N   0  5  0  0  0  0  0  0  0  0  0  0
  148.3973  140.5857  154.2213 C   0  0  0  0  0  0  0  0  0  0  0  0
  146.9888  140.9053  153.6851 C   0  0  0  0  0  0  0  0  0  0  0  0
  146.2893  139.6880  153.1933 N   0  3  1  0  0  0  0  0  0  0  0  0
  146.8325  139.1986  151.8992 C   0  0  0  0  0  0  0  0  0  0  0  0
  145.9856  138.0413  151.3456 C   0  0  0  0  0  0  0  0  0  0  0  0
  145.8799  136.8980  152.3632 C   0  0  0  0  0  0  0  0  0  0  0  0
  145.3445  137.4256  153.7049 C   0  0  1  0  0  0  0  0  0  0  0  0
  145.2499  136.3071  154.7521 C   0  0  0  0  0  0  0  0  0  0  0  0
  146.2195  138.5931  154.2024 C   0  0  0  0  0  0  0  0  0  0  0  0
  151.3598  144.0640  158.1600 N   0  0  0  0  0  0  0  0  0  0  0  0
  152.3138  143.8149  159.1538 O   0  0  0  0  0  0  0  0  0  0  0  0
  153.4277  140.9135  160.3927 H   0  0  0  0  0  0  0  0  0  0  0  0
  153.1367  142.3779  161.3336 H   0  0  0  0  0  0  0  0  0  0  0  0
  154.4087  142.3528  160.1097 H   0  0  0  0  0  0  0  0  0  0  0  0
  151.4442  140.7449  158.3733 H   0  0  0  0  0  0  0  0  0  0  0  0
  149.1297  143.1515  156.8223 H   0  0  0  0  0  0  0  0  0  0  0  0
  149.0553  140.3732  153.3778 H   0  0  0  0  0  0  0  0  0  0  0  0
  148.3525  139.6649  154.8041 H   0  0  0  0  0  0  0  0  0  0  0  0
  146.4164  141.3569  154.4973 H   0  0  0  0  0  0  0  0  0  0  0  0
  147.0309  141.6565  152.8946 H   0  0  0  0  0  0  0  0  0  0  0  0
  146.8410  140.0111  151.1714 H   0  0  0  0  0  0  0  0  0  0  0  0
  147.8675  138.8806  152.0345 H   0  0  0  0  0  0  0  0  0  0  0  0
  144.9876  138.4047  151.0970 H   0  0  0  0  0  0  0  0  0  0  0  0
  146.4209  137.6729  150.4162 H   0  0  0  0  0  0  0  0  0  0  0  0
  145.2267  136.1156  151.9754 H   0  0  0  0  0  0  0  0  0  0  0  0
  146.8612  136.4433  152.5062 H   0  0  0  0  0  0  0  0  0  0  0  0
  144.3353  137.8074  153.5411 H   0  0  0  0  0  0  0  0  0  0  0  0
  146.2284  135.8733  154.9597 H   0  0  0  0  0  0  0  0  0  0  0  0
  144.5952  135.5045  154.4112 H   0  0  0  0  0  0  0  0  0  0  0  0
  144.8467  136.6827  155.6930 H   0  0  0  0  0  0  0  0  0  0  0  0
  147.2282  138.2413  154.4256 H   0  0  0  0  0  0  0  0  0  0  0  0
  145.8082  138.9747  155.1376 H   0  0  0  0  0  0  0  0  0  0  0  0
  145.3399  139.9773  153.0058 H   0  0  0  0  0  0  0  0  0  0  0  0
  1  2  1  0  0  0  0
  1 20  1  0  0  0  0
  1 21  1  0  0  0  0
  1 22  1  0  0  0  0
  2 19  1  0  0  0  0
  2  3  2  0  0  0  0
  3  4  1  0  0  0  0
  3 23  1  0  0  0  0
  4  5  1  0  0  0  0
  4 18  2  0  0  0  0
  5  6  1  0  0  0  0
  5 24  1  0  0  0  0
  6  7  2  0  0  0  0
  6  8  1  0  0  0  0
  8  9  1  0  0  0  0
  9 10  1  0  0  0  0
  9 25  1  0  0  0  0
  9 26  1  0  0  0  0
 10 11  1  0  0  0  0
 10 27  1  0  0  0  0
 10 28  1  0  0  0  0
 11 17  1  0  0  0  0
 11 12  1  0  0  0  0
 11 41  1  0  0  0  0
 12 13  1  0  0  0  0
 12 29  1  0  0  0  0
 12 30  1  0  0  0  0
 13 14  1  0  0  0  0
 13 31  1  0  0  0  0
 13 32  1  0  0  0  0
 14 15  1  0  0  0  0
 14 33  1  0  0  0  0
 14 34  1  0  0  0  0
 15 16  1  0  0  0  0
 15 17  1  0  0  0  0
 15 35  1  0  0  0  0
 16 36  1  0  0  0  0
 16 37  1  0  0  0  0
 16 38  1  0  0  0  0
 17 39  1  0  0  0  0
 17 40  1  0  0  0  0
 18 19  1  0  0  0  0
M  CHG  1   8  -1
M  CHG  1  11   1
M  END
> <s_m_source_file>
AV-unprocessed.smi

> <i_m_source_file_index>
2078

> <i_lp_mmshare_version>
43012

> <i_f3d_flags>
0

> <s_epik_input>
W0NIM11jMVtjSF1jKG5vMSlbTkhdQyg9TylbTkhdW0NIMl1bQ0gyXU4yW0NIMl1bQ0gyXVtDSDJdW0NAQEhdKFtDSDNdKVtDSDJdMg==

> <s_epik_cmdline>
J2VwaWtfcHl0aG9uJywgJy1waCcsICc3LjAnLCAnLXRuJywgJzgnLCAnLW1hJywgJzIwMCcsICctbWV0YWxfYmluZGluZycsICctaW1hZScsICc8aW5maWxlLm1hZT4nLCAnLW9tYWUnLCAnPG91dGZpbGUubWFlPic=

> <r_epik_Ionization_Penalty>
6.76934

> <r_epik_Ionization_Penalty_Charging>
6.76934

> <r_epik_Ionization_Penalty_Neutral>
5.77849e-06

> <r_epik_State_Penalty>
6.79457

> <r_epik_Charging_Adjusted_Penalty>
13.5639

> <i_epik_Tot_Q>
0

> <i_epik_Tot_abs_Q>
2

> <r_epik_Metal_State_Penalty>
2.72837

> <b_epik_Metal_Only>
1

> <s_lp_Force_Field>
OPLS_2005

> <r_lp_Energy>
13.3019

> <b_lp_Chiralities_Consistent>
1

> <s_lp_Variant>
AV-unprocessed.smi:2078-9

> <Gold.Version>
5.8.1

> <Gold.Id.Protein>
6NUR|6NUR_protein|mol2

> <Gold.PLP.Fitness>
42.4820

> <Gold.PLP.PLP>
-33.0220

> <Gold.PLP.part.hbond>
-3.0235

> <Gold.PLP.part.metal>
0.0000

> <Gold.PLP.part.buried>
-1.3702

> <Gold.PLP.part.nonpolar>
-28.3550

> <Gold.PLP.part.repulsive>
0.3770

> <Gold.PLP.ligand.clash>
0.0000

> <Gold.PLP.ligand.torsion>
0.6520

> <Gold.PLP.Chemscore.Hbond>
3.5742

> <Gold.PLP.Chemscore.CHOScore>
0.0000

> <Gold.PLP.Chemscore.Metal>
0.0000

> <Gold.Chemscore.Hbonds>
donor molecule, donor type, donor heavy atom, donor atom, acceptor molecule, acceptor atom, score
      L1  H     5    24       P1  8028  0.45
      L1  H    11    41       P1 10175  2.00
      P1  H  7989  7998       L1     7  0.33

> <Gold.PLP.Chemscore.Internal.Correction>
0.0415

> <Gold.Rescore>
     Score         DG    S(hbond)    S(metal)    S(lipo)     H(rot)  DE(clash)    DE(int)     intcor
     15.19     -16.16       1.91        0.00      70.55       1.54       0.11       0.86       ----

> <Gold.Chemscore.Fitness>
15.1934

> <Gold.Chemscore.DG>
-16.1637

> <Gold.Chemscore.ZeroCoef>
-5.4800

> <Gold.Chemscore.Hbond>
1.9085

> <Gold.Chemscore.Metal>
0.0000

> <Gold.Chemscore.Lipo>
70.5459

> <Gold.Chemscore.Internal_Hbond>
0.0000

> <Gold.Chemscore.DEClash>
0.1079

> <Gold.Chemscore.DEInternal>
0.8624

> <Gold.Chemscore.Rot>
1.5409

> <Gold.Chemscore.Internal.Correction>
   9.000000E+99

> <Gold.Chemscore.Hbonds>
donor molecule, donor type, donor heavy atom, donor atom, acceptor molecule, acceptor atom, score
      L1  H     5    24       P1  8028  0.42
      L1  H    11    41       P1 10175  1.00
      P1  H  7989  7998       L1     7  0.24

> <Gold.Chemscore.Hbond.Weighted>
-6.3744

> <Gold.Chemscore.Metal.Weighted>
-0.0000

> <Gold.Chemscore.Lipo.Weighted>
-8.2539

> <Gold.Chemscore.Internal_Hbond.Weighted>
0.0000

> <Gold.Chemscore.DEClash.Weighted>
0.1079

> <Gold.Chemscore.DEInternal.Weighted>
0.8624

> <Gold.Chemscore.Rot.Weighted>
3.9446

> <Gold.Chemscore.Internal.Correction.Weighted>
   9.000000E+99

> <Gold.Protein.RotatedTorsions>
[ 6907 6896 6895 6894 ] final -107.90 input  -60.11 | X-H torsion
[ 7974 7965 7964 7962 ] final    8.24 input  175.53 | X-H torsion
[ 8008 7997 7996 7995 ] final  103.31 input   59.86 | X-H torsion
[ 10167 10162 10161 10158 ] final   36.00 input  -65.29 | X-H torsion
[ 10718 10713 10712 10709 ] final  160.07 input   66.30 | X-H torsion
[ 10763 10752 10751 10750 ] final  -95.88 input  -60.55 | X-H torsion
[ 11005 11000 10999 10996 ] final  -37.16 input  -57.11 | X-H torsion

> <Gold.Protein.ActiveResidues>
 VAL166  LYS551  ARG553  GLY616  TRP617  ASP618  TYR619  PRO620  LYS621  CYS622 
 ASP623  PHE694  ASN695  SER759  ASP760  ASP761  ALA762  ILE779  LEU786  VAL792 
 PHE793  MET794  SER795  GLU796  ALA797  LYS798  CYS799  TRP800  GLU811  SER814 

> <Gold.Protein.RotatedAtoms>
  150.7470  133.9758  159.3560 H   0  0  0  0  0  0  0  0  0  0  0  0  # atno 6907 bound_to 6896
  151.7695  135.0788  160.0367 H   0  0  0  0  0  0  0  0  0  0  0  0  # atno 6908 bound_to 6896
  152.3348  133.5963  159.5871 H   0  0  0  0  0  0  0  0  0  0  0  0  # atno 6909 bound_to 6896
  146.2418  139.9963  142.8420 H   0  0  0  0  0  0  0  0  0  0  0  0  # atno 7974 bound_to 7965
  156.1472  140.3167  155.8590 H   0  0  0  0  0  0  0  0  0  0  0  0  # atno 8008 bound_to 7997
  155.4040  140.0501  157.3052 H   0  0  0  0  0  0  0  0  0  0  0  0  # atno 8009 bound_to 7997
  154.5027  140.2135  155.9326 H   0  0  0  0  0  0  0  0  0  0  0  0  # atno 8010 bound_to 7997
  140.4169  144.1514  150.6144 H   0  0  0  0  0  0  0  0  0  0  0  0  # atno 10167 bound_to 10162
  157.1554  131.0574  151.2259 H   0  0  0  0  0  0  0  0  0  0  0  0  # atno 10718 bound_to 10713
  154.7189  135.5104  153.8781 H   0  0  0  0  0  0  0  0  0  0  0  0  # atno 10763 bound_to 10752
  153.0845  135.6641  153.9986 H   0  0  0  0  0  0  0  0  0  0  0  0  # atno 10764 bound_to 10752
  153.9813  135.3028  155.3399 H   0  0  0  0  0  0  0  0  0  0  0  0  # atno 10765 bound_to 10752
  140.9930  133.6995  156.1884 H   0  0  0  0  0  0  0  0  0  0  0  0  # atno 11005 bound_to 11000
  145.1456  140.9595  143.4463 LP  0  0  0  0  0  0  0  0  0  0  0  0  # atno 17320 bound_to 7965
  145.0254  139.3388  143.6051 LP  0  0  0  0  0  0  0  0  0  0  0  0  # atno 17321 bound_to 7965
  140.4576  143.2461  151.9263 LP  0  0  0  0  0  0  0  0  0  0  0  0  # atno 17342 bound_to 10162
  139.4782  144.5499  151.8401 LP  0  0  0  0  0  0  0  0  0  0  0  0  # atno 17343 bound_to 10162
  157.4182  130.7422  149.6892 LP  0  0  0  0  0  0  0  0  0  0  0  0  # atno 17370 bound_to 10713
  155.9763  130.4077  150.3789 LP  0  0  0  0  0  0  0  0  0  0  0  0  # atno 17371 bound_to 10713
  140.7010  134.4564  157.5586 LP  0  0  0  0  0  0  0  0  0  0  0  0  # atno 17394 bound_to 11000
  139.9001  134.8575  156.1932 LP  0  0  0  0  0  0  0  0  0  0  0  0  # atno 17395 bound_to 11000

$$$$
