AV-unprocessed.smi:2178|AV-procd|sdf|8854|dock2
  -GOLD-   2272012 43D 1   1.00000     0.00000
 Structure written by MMmdl.
 47 49  0  0  0  0  0  0  0  0  2 V2000
  151.5480  144.1631  158.6394 C   0  0  0  0  0  0  0  0  0  0  0  0
  152.2077  143.0679  159.4571 C   0  0  0  0  0  0  0  0  0  0  0  0
  152.8491  143.4021  160.6677 C   0  0  0  0  0  0  0  0  0  0  0  0
  153.4855  142.4071  161.4323 C   0  0  0  0  0  0  0  0  0  0  0  0
  153.4882  141.0724  160.9871 C   0  0  0  0  0  0  0  0  0  0  0  0
  152.8472  140.7254  159.7799 C   0  0  0  0  0  0  0  0  0  0  0  0
  152.8640  139.2837  159.3077 C   0  0  0  0  0  0  0  0  0  0  0  0
  152.1922  141.7217  159.0187 C   0  0  0  0  0  0  0  0  0  0  0  0
  151.5703  141.3782  157.8458 O   0  0  0  0  0  0  0  0  0  0  0  0
  150.2020  141.0332  158.0048 C   0  0  0  0  0  0  0  0  0  0  0  0
  149.4519  141.3587  156.7044 C   0  0  2  0  0  0  0  0  0  0  0  0
  149.9292  142.5928  156.2058 O   0  0  0  0  0  0  0  0  0  0  0  0
  147.9295  141.4558  156.9269 C   0  0  0  0  0  0  0  0  0  0  0  0
  147.2087  141.9353  155.7362 N   0  0  0  0  0  0  0  0  0  0  0  0
  147.3241  141.5506  154.4323 C   0  0  0  0  0  0  0  0  0  0  0  0
  148.2417  140.5083  153.8837 C   0  0  0  0  0  0  0  0  0  0  0  0
  149.3355  141.0677  153.1912 O   0  0  0  0  0  0  0  0  0  0  0  0
  146.4342  142.2898  153.7124 N   0  3  0  0  0  0  0  0  0  0  0  0
  145.7459  143.1580  154.5603 C   0  0  0  0  0  0  0  0  0  0  0  0
  144.7555  144.0975  154.2909 C   0  0  0  0  0  0  0  0  0  0  0  0
  144.2600  144.8278  155.3909 C   0  0  0  0  0  0  0  0  0  0  0  0
  144.7479  144.6103  156.6957 C   0  0  0  0  0  0  0  0  0  0  0  0
  145.7509  143.6536  156.9567 C   0  0  0  0  0  0  0  0  0  0  0  0
  146.2370  142.9358  155.8636 C   0  0  0  0  0  0  0  0  0  0  0  0
  152.0238  145.1264  158.8252 H   0  0  0  0  0  0  0  0  0  0  0  0
  150.4939  144.2482  158.9027 H   0  0  0  0  0  0  0  0  0  0  0  0
  151.6225  143.9570  157.5712 H   0  0  0  0  0  0  0  0  0  0  0  0
  152.8590  144.4259  161.0125 H   0  0  0  0  0  0  0  0  0  0  0  0
  153.9773  142.6689  162.3574 H   0  0  0  0  0  0  0  0  0  0  0  0
  153.9861  140.3163  161.5764 H   0  0  0  0  0  0  0  0  0  0  0  0
  153.1348  139.2284  158.2529 H   0  0  0  0  0  0  0  0  0  0  0  0
  151.8800  138.8323  159.4346 H   0  0  0  0  0  0  0  0  0  0  0  0
  153.5855  138.6906  159.8704 H   0  0  0  0  0  0  0  0  0  0  0  0
  150.1422  139.9618  158.2028 H   0  0  0  0  0  0  0  0  0  0  0  0
  149.7487  141.5379  158.8593 H   0  0  0  0  0  0  0  0  0  0  0  0
  149.6529  140.5811  155.9665 H   0  0  0  0  0  0  0  0  0  0  0  0
  150.8129  142.7196  156.5150 H   0  0  0  0  0  0  0  0  0  0  0  0
  147.5266  140.4708  157.1660 H   0  0  0  0  0  0  0  0  0  0  0  0
  147.6904  142.0918  157.7795 H   0  0  0  0  0  0  0  0  0  0  0  0
  148.6165  139.8883  154.6985 H   0  0  0  0  0  0  0  0  0  0  0  0
  147.6894  139.8527  153.2106 H   0  0  0  0  0  0  0  0  0  0  0  0
  149.7151  140.4010  152.6390 H   0  0  0  0  0  0  0  0  0  0  0  0
  144.3808  144.2658  153.2918 H   0  0  0  0  0  0  0  0  0  0  0  0
  143.4911  145.5697  155.2305 H   0  0  0  0  0  0  0  0  0  0  0  0
  144.3451  145.1897  157.5138 H   0  0  0  0  0  0  0  0  0  0  0  0
  146.1181  143.4999  157.9601 H   0  0  0  0  0  0  0  0  0  0  0  0
  146.3080  142.2026  152.7123 H   0  0  0  0  0  0  0  0  0  0  0  0
  1  2  1  0  0  0  0
  1 25  1  0  0  0  0
  1 26  1  0  0  0  0
  1 27  1  0  0  0  0
  2  8  1  0  0  0  0
  2  3  2  0  0  0  0
  3  4  1  0  0  0  0
  3 28  1  0  0  0  0
  4  5  2  0  0  0  0
  4 29  1  0  0  0  0
  5  6  1  0  0  0  0
  5 30  1  0  0  0  0
  6  7  1  0  0  0  0
  6  8  2  0  0  0  0
  7 31  1  0  0  0  0
  7 32  1  0  0  0  0
  7 33  1  0  0  0  0
  8  9  1  0  0  0  0
  9 10  1  0  0  0  0
 10 11  1  0  0  0  0
 10 34  1  0  0  0  0
 10 35  1  0  0  0  0
 11 12  1  0  0  0  0
 11 13  1  0  0  0  0
 11 36  1  0  0  0  0
 12 37  1  0  0  0  0
 13 14  1  0  0  0  0
 13 38  1  0  0  0  0
 13 39  1  0  0  0  0
 14 24  1  0  0  0  0
 14 15  1  0  0  0  0
 15 16  1  0  0  0  0
 15 18  2  0  0  0  0
 16 17  1  0  0  0  0
 16 40  1  0  0  0  0
 16 41  1  0  0  0  0
 17 42  1  0  0  0  0
 18 19  1  0  0  0  0
 18 47  1  0  0  0  0
 19 24  2  0  0  0  0
 19 20  1  0  0  0  0
 20 21  2  0  0  0  0
 20 43  1  0  0  0  0
 21 22  1  0  0  0  0
 21 44  1  0  0  0  0
 22 23  2  0  0  0  0
 22 45  1  0  0  0  0
 23 24  1  0  0  0  0
 23 46  1  0  0  0  0
M  CHG  1  18   1
M  END
> <s_m_source_file>
AV-unprocessed.smi

> <i_m_source_file_index>
2178

> <i_lp_mmshare_version>
43012

> <i_f3d_flags>
0

> <s_epik_input>
W0NIM11jMVtjSF1bY0hdW2NIXWMoW0NIM10pYzFPW0NIMl1bQ0BIXShbT0hdKVtDSDJdbihjKG4yKVtDSDJdW09IXSljKGMyMylbY0hdW2NIXVtjSF1bY0hdMw==

> <s_epik_cmdline>
J2VwaWtfcHl0aG9uJywgJy1waCcsICc3LjAnLCAnLXRuJywgJzgnLCAnLW1hJywgJzIwMCcsICctbWV0YWxfYmluZGluZycsICctaW1hZScsICc8aW5maWxlLm1hZT4nLCAnLW9tYWUnLCAnPG91dGZpbGUubWFlPic=

> <r_lp_tautomer_probability>
1

> <r_epik_Ionization_Penalty>
1.43125

> <r_epik_Ionization_Penalty_Charging>
1.43039

> <r_epik_Ionization_Penalty_Neutral>
0.000858184

> <r_epik_State_Penalty>
1.51493

> <r_epik_Charging_Adjusted_Penalty>
2.94531

> <i_epik_Tot_Q>
1

> <i_epik_Tot_abs_Q>
1

> <r_epik_Metal_State_Penalty>
5.5599

> <b_epik_Metal_Only>
0

> <s_lp_Force_Field>
OPLS_2005

> <r_lp_Energy>
23.8242

> <b_lp_Chiralities_Consistent>
1

> <s_lp_Variant>
AV-unprocessed.smi:2178-3

> <Gold.Version>
5.8.1

> <Gold.Id.Protein>
6NUR|6NUR_protein|mol2

> <Gold.PLP.Fitness>
50.1582

> <Gold.PLP.PLP>
-47.5256

> <Gold.PLP.part.hbond>
-2.7986

> <Gold.PLP.part.metal>
0.0000

> <Gold.PLP.part.buried>
-6.6352

> <Gold.PLP.part.nonpolar>
-37.7752

> <Gold.PLP.part.repulsive>
0.1083

> <Gold.PLP.ligand.clash>
0.0000

> <Gold.PLP.ligand.torsion>
1.0889

> <Gold.PLP.Chemscore.Hbond>
1.5540

> <Gold.PLP.Chemscore.CHOScore>
0.0000

> <Gold.PLP.Chemscore.Metal>
0.0000

> <Gold.Chemscore.Hbonds>
donor molecule, donor type, donor heavy atom, donor atom, acceptor molecule, acceptor atom, score
      L1  H    17    42       P1  7957  0.67
      P1  H  8011  8017       L1    17  0.95

> <Gold.PLP.Chemscore.Internal.Correction>
0.1483

> <Gold.Rescore>
     Score         DG    S(hbond)    S(metal)    S(lipo)     H(rot)  DE(clash)    DE(int)     intcor
     14.60     -15.71       1.01        0.00     125.39       3.05       0.23       0.88       ----

> <Gold.Chemscore.Fitness>
14.5976

> <Gold.Chemscore.DG>
-15.7081

> <Gold.Chemscore.ZeroCoef>
-5.4800

> <Gold.Chemscore.Hbond>
1.0058

> <Gold.Chemscore.Metal>
0.0000

> <Gold.Chemscore.Lipo>
125.3874

> <Gold.Chemscore.Internal_Hbond>
0.0000

> <Gold.Chemscore.DEClash>
0.2347

> <Gold.Chemscore.DEInternal>
0.8757

> <Gold.Chemscore.Rot>
3.0476

> <Gold.Chemscore.Internal.Correction>
   9.000000E+99

> <Gold.Chemscore.Hbonds>
donor molecule, donor type, donor heavy atom, donor atom, acceptor molecule, acceptor atom, score
      L1  H    17    42       P1  7957  0.65
      P1  H  8011  8017       L1    17  0.21

> <Gold.Chemscore.Hbond.Weighted>
-3.3595

> <Gold.Chemscore.Metal.Weighted>
-0.0000

> <Gold.Chemscore.Lipo.Weighted>
-14.6703

> <Gold.Chemscore.Internal_Hbond.Weighted>
0.0000

> <Gold.Chemscore.DEClash.Weighted>
0.2347

> <Gold.Chemscore.DEInternal.Weighted>
0.8757

> <Gold.Chemscore.Rot.Weighted>
7.8018

> <Gold.Chemscore.Internal.Correction.Weighted>
   9.000000E+99

> <Gold.Protein.RotatedTorsions>
[ 6907 6896 6895 6894 ] final -165.29 input  -60.11 | X-H torsion
[ 7974 7965 7964 7962 ] final  142.52 input  175.53 | X-H torsion
[ 8008 7997 7996 7995 ] final  161.60 input   59.86 | X-H torsion
[ 10167 10162 10161 10158 ] final   82.24 input  -65.29 | X-H torsion
[ 10718 10713 10712 10709 ] final  152.15 input   66.30 | X-H torsion
[ 10763 10752 10751 10750 ] final -132.00 input  -60.55 | X-H torsion
[ 11005 11000 10999 10996 ] final -117.33 input  -57.11 | X-H torsion

> <Gold.Protein.ActiveResidues>
 VAL166  LYS551  ARG553  GLY616  TRP617  ASP618  TYR619  PRO620  LYS621  CYS622 
 ASP623  PHE694  ASN695  SER759  ASP760  ASP761  ALA762  ILE779  LEU786  VAL792 
 PHE793  MET794  SER795  GLU796  ALA797  LYS798  CYS799  TRP800  GLU811  SER814 

> <Gold.Protein.RotatedAtoms>
  151.4254  133.3686  159.2761 H   0  0  0  0  0  0  0  0  0  0  0  0  # atno 6907 bound_to 6896
  150.9263  134.8681  159.7533 H   0  0  0  0  0  0  0  0  0  0  0  0  # atno 6908 bound_to 6896
  152.5007  134.4195  159.9528 H   0  0  0  0  0  0  0  0  0  0  0  0  # atno 6909 bound_to 6896
  144.9001  139.5435  143.5758 H   0  0  0  0  0  0  0  0  0  0  0  0  # atno 7974 bound_to 7965
  156.2091  140.1773  156.7734 H   0  0  0  0  0  0  0  0  0  0  0  0  # atno 8008 bound_to 7997
  154.5697  140.0684  156.8976 H   0  0  0  0  0  0  0  0  0  0  0  0  # atno 8009 bound_to 7997
  155.2695  140.3341  155.4269 H   0  0  0  0  0  0  0  0  0  0  0  0  # atno 8010 bound_to 7997
  139.9308  144.6153  150.8346 H   0  0  0  0  0  0  0  0  0  0  0  0  # atno 10167 bound_to 10162
  157.2615  131.0799  151.1662 H   0  0  0  0  0  0  0  0  0  0  0  0  # atno 10718 bound_to 10713
  154.8747  135.3812  154.4338 H   0  0  0  0  0  0  0  0  0  0  0  0  # atno 10763 bound_to 10752
  153.5029  135.7030  153.5827 H   0  0  0  0  0  0  0  0  0  0  0  0  # atno 10764 bound_to 10752
  153.4151  135.3915  155.2042 H   0  0  0  0  0  0  0  0  0  0  0  0  # atno 10765 bound_to 10752
  141.0362  133.9906  157.3067 H   0  0  0  0  0  0  0  0  0  0  0  0  # atno 11005 bound_to 11000
  146.3103  139.7723  142.9025 LP  0  0  0  0  0  0  0  0  0  0  0  0  # atno 17320 bound_to 7965
  145.3632  141.0329  143.3273 LP  0  0  0  0  0  0  0  0  0  0  0  0  # atno 17321 bound_to 7965
  140.7638  143.3231  151.2576 LP  0  0  0  0  0  0  0  0  0  0  0  0  # atno 17342 bound_to 10162
  139.6783  143.9898  152.2794 LP  0  0  0  0  0  0  0  0  0  0  0  0  # atno 17343 bound_to 10162
  157.3170  130.6918  149.6247 LP  0  0  0  0  0  0  0  0  0  0  0  0  # atno 17370 bound_to 10713
  155.9664  130.4347  150.5059 LP  0  0  0  0  0  0  0  0  0  0  0  0  # atno 17371 bound_to 10713
  139.9242  135.0201  156.8175 LP  0  0  0  0  0  0  0  0  0  0  0  0  # atno 17394 bound_to 11000
  140.6318  133.9899  155.7665 LP  0  0  0  0  0  0  0  0  0  0  0  0  # atno 17395 bound_to 11000

$$$$
