AV-unprocessed.smi:290|AV-procd|sdf|2239|dock10
  -GOLD-   2262022113D 1   1.00000     0.00000
 Structure written by MMmdl.
 59 62  0  0  0  0  0  0  0  0  2 V2000
  153.2542  142.8035  159.7005 C   0  0  0  0  0  0  0  0  0  0  0  0
  152.2018  143.7775  159.1583 C   0  0  2  0  0  0  0  0  0  0  0  0
  151.5020  144.3420  160.2601 O   0  0  0  0  0  0  0  0  0  0  0  0
  150.2901  144.8779  159.7666 C   0  0  0  0  0  0  0  0  0  0  0  0
  149.8123  143.7694  158.8415 C   0  0  0  0  0  0  0  0  0  0  0  0
  151.0963  143.2303  158.2038 C   0  0  1  0  0  0  0  0  0  0  0  0
  151.2496  143.8814  156.9551 O   0  0  0  0  0  0  0  0  0  0  0  0
  150.9827  141.6905  157.9925 C   0  0  0  0  0  0  0  0  0  0  0  0
  150.1409  141.2533  156.8843 N   0  0  0  0  0  0  0  0  0  0  0  0
  150.4154  141.3701  155.5412 C   0  0  0  0  0  0  0  0  0  0  0  0
  149.5057  140.8865  154.7419 N   0  0  0  0  0  0  0  0  0  0  0  0
  148.5470  140.3453  155.5913 C   0  0  0  0  0  0  0  0  0  0  0  0
  147.3103  139.6555  155.4032 C   0  0  0  0  0  0  0  0  0  0  0  0
  146.7517  139.3481  154.2016 N   0  0  0  0  0  0  0  0  0  0  0  0
  146.9962  140.1668  153.0270 C   0  0  0  0  0  0  0  0  0  0  0  0
  146.9800  139.1831  151.8651 C   0  0  0  0  0  0  0  0  0  0  0  0
  145.9927  138.0900  152.3064 C   0  0  1  0  0  0  0  0  0  0  0  0
  146.2304  136.7965  151.5901 N   0  3  2  0  0  0  0  0  0  0  0  0
  145.9351  136.9153  150.1379 C   0  0  0  0  0  0  0  0  0  0  0  0
  145.5644  135.6122  152.2060 C   0  0  0  0  0  0  0  0  0  0  0  0
  145.9477  134.2674  151.5595 C   0  0  0  0  0  0  0  0  0  0  0  0
  147.2405  133.8783  151.9738 O   0  0  0  0  0  0  0  0  0  0  0  0
  146.1792  138.0525  153.8476 C   0  0  2  0  0  0  0  0  0  0  0  0
  144.8491  137.8366  154.6035 C   0  0  0  0  0  0  0  0  0  0  0  0
  146.6408  139.2696  156.5210 N   0  0  0  0  0  0  0  0  0  0  0  0
  147.1366  139.5231  157.7345 C   0  0  0  0  0  0  0  0  0  0  0  0
  148.2680  140.1495  158.0568 N   0  0  0  0  0  0  0  0  0  0  0  0
  148.9430  140.5584  156.9447 C   0  0  0  0  0  0  0  0  0  0  0  0
  144.9808  138.4349  152.0845 H   0  0  0  0  0  0  0  0  0  0  0  0
  146.9064  137.2817  154.1000 H   0  0  0  0  0  0  0  0  0  0  0  0
  153.9041  142.4469  158.9035 H   0  0  0  0  0  0  0  0  0  0  0  0
  152.8009  141.9481  160.2005 H   0  0  0  0  0  0  0  0  0  0  0  0
  153.8942  143.3024  160.4283 H   0  0  0  0  0  0  0  0  0  0  0  0
  152.7303  144.6044  158.6788 H   0  0  0  0  0  0  0  0  0  0  0  0
  149.5855  145.0915  160.5703 H   0  0  0  0  0  0  0  0  0  0  0  0
  150.4834  145.7998  159.2157 H   0  0  0  0  0  0  0  0  0  0  0  0
  149.3413  142.9962  159.4505 H   0  0  0  0  0  0  0  0  0  0  0  0
  149.0684  144.1106  158.1199 H   0  0  0  0  0  0  0  0  0  0  0  0
  150.4011  144.1799  156.6646 H   0  0  0  0  0  0  0  0  0  0  0  0
  151.9714  141.2446  157.8810 H   0  0  0  0  0  0  0  0  0  0  0  0
  150.5644  141.2405  158.8941 H   0  0  0  0  0  0  0  0  0  0  0  0
  151.3160  141.8328  155.1651 H   0  0  0  0  0  0  0  0  0  0  0  0
  146.1934  140.8986  152.9312 H   0  0  0  0  0  0  0  0  0  0  0  0
  147.9462  140.7008  153.0738 H   0  0  0  0  0  0  0  0  0  0  0  0
  146.7012  139.6691  150.9300 H   0  0  0  0  0  0  0  0  0  0  0  0
  147.9774  138.7585  151.7408 H   0  0  0  0  0  0  0  0  0  0  0  0
  144.8638  137.0282  149.9668 H   0  0  0  0  0  0  0  0  0  0  0  0
  146.2818  136.0461  149.5819 H   0  0  0  0  0  0  0  0  0  0  0  0
  146.4381  137.7701  149.6881 H   0  0  0  0  0  0  0  0  0  0  0  0
  145.8375  135.5294  153.2558 H   0  0  0  0  0  0  0  0  0  0  0  0
  144.4825  135.7479  152.1694 H   0  0  0  0  0  0  0  0  0  0  0  0
  145.2450  133.4983  151.8812 H   0  0  0  0  0  0  0  0  0  0  0  0
  145.8921  134.2914  150.4721 H   0  0  0  0  0  0  0  0  0  0  0  0
  147.7650  134.6554  152.0976 H   0  0  0  0  0  0  0  0  0  0  0  0
  144.3669  136.8966  154.3430 H   0  0  0  0  0  0  0  0  0  0  0  0
  144.1404  138.6344  154.3791 H   0  0  0  0  0  0  0  0  0  0  0  0
  144.9929  137.8316  155.6833 H   0  0  0  0  0  0  0  0  0  0  0  0
  146.5419  139.1738  158.5657 H   0  0  0  0  0  0  0  0  0  0  0  0
  147.2217  136.6181  151.6684 H   0  0  0  0  0  0  0  0  0  0  0  0
  1  2  1  0  0  0  0
  1 31  1  0  0  0  0
  1 32  1  0  0  0  0
  1 33  1  0  0  0  0
  2  6  1  0  0  0  0
  2  3  1  0  0  0  0
  2 34  1  0  0  0  0
  3  4  1  0  0  0  0
  4  5  1  0  0  0  0
  4 35  1  0  0  0  0
  4 36  1  0  0  0  0
  5  6  1  0  0  0  0
  5 37  1  0  0  0  0
  5 38  1  0  0  0  0
  6  7  1  0  0  0  0
  6  8  1  0  0  0  0
  7 39  1  0  0  0  0
  8  9  1  0  0  0  0
  8 40  1  0  0  0  0
  8 41  1  0  0  0  0
  9 28  1  0  0  0  0
  9 10  1  0  0  0  0
 10 11  2  0  0  0  0
 10 42  1  0  0  0  0
 11 12  1  0  0  0  0
 12 28  2  0  0  0  0
 12 13  1  0  0  0  0
 13 14  1  0  0  0  0
 13 25  2  0  0  0  0
 14 23  1  0  0  0  0
 14 15  1  0  0  0  0
 15 16  1  0  0  0  0
 15 43  1  0  0  0  0
 15 44  1  0  0  0  0
 16 17  1  0  0  0  0
 16 45  1  0  0  0  0
 16 46  1  0  0  0  0
 17 29  1  0  0  0  0
 17 18  1  0  0  0  0
 17 23  1  0  0  0  0
 18 19  1  0  0  0  0
 18 20  1  0  0  0  0
 18 59  1  0  0  0  0
 19 47  1  0  0  0  0
 19 48  1  0  0  0  0
 19 49  1  0  0  0  0
 20 21  1  0  0  0  0
 20 50  1  0  0  0  0
 20 51  1  0  0  0  0
 21 22  1  0  0  0  0
 21 52  1  0  0  0  0
 21 53  1  0  0  0  0
 22 54  1  0  0  0  0
 23 30  1  0  0  0  0
 23 24  1  0  0  0  0
 24 55  1  0  0  0  0
 24 56  1  0  0  0  0
 24 57  1  0  0  0  0
 25 26  1  0  0  0  0
 26 27  2  0  0  0  0
 26 58  1  0  0  0  0
 27 28  1  0  0  0  0
M  CHG  1  18   1
M  END
> <s_m_source_file>
AV-unprocessed.smi

> <i_m_source_file_index>
290

> <i_lp_mmshare_version>
43012

> <i_f3d_flags>
0

> <s_epik_input>
W0NIMl0xW0NIMl1PW0NAQEhdKFtDSDNdKVtDQEBdMShbT0hdKVtDSDJdbihbY0hdbjIpYyhjMjMpbltjSF1uYzNONFtDSDJdW0NIMl1bQ0BIXShbQ0BIXTRbQ0gzXSlOKFtDSDNdKVtDSDJdW0NIMl1bT0hd

> <s_epik_cmdline>
J2VwaWtfcHl0aG9uJywgJy1waCcsICc3LjAnLCAnLXRuJywgJzgnLCAnLW1hJywgJzIwMCcsICctbWV0YWxfYmluZGluZycsICctaW1hZScsICc8aW5maWxlLm1hZT4nLCAnLW9tYWUnLCAnPG91dGZpbGUubWFlPic=

> <r_lp_tautomer_probability>
1

> <r_epik_Ionization_Penalty>
0.0036983

> <r_epik_Ionization_Penalty_Charging>
0.0032725

> <r_epik_Ionization_Penalty_Neutral>
0.000425798

> <r_epik_State_Penalty>
-0

> <r_epik_Charging_Adjusted_Penalty>
0.0032725

> <i_epik_Tot_Q>
1

> <i_epik_Tot_abs_Q>
1

> <r_epik_Metal_State_Penalty>
-0

> <b_epik_Metal_Only>
0

> <s_lp_Force_Field>
OPLS_2005

> <r_lp_Energy>
66.2506

> <b_lp_Chiralities_Consistent>
1

> <s_lp_Variant>
AV-unprocessed.smi:290-25

> <Gold.Version>
5.8.1

> <Gold.Id.Protein>
6NUR|6NUR_protein|mol2

> <Gold.PLP.Fitness>
50.5202

> <Gold.PLP.PLP>
-40.3048

> <Gold.PLP.part.hbond>
-4.3666

> <Gold.PLP.part.metal>
0.0000

> <Gold.PLP.part.buried>
-0.4366

> <Gold.PLP.part.nonpolar>
-37.0858

> <Gold.PLP.part.repulsive>
0.2758

> <Gold.PLP.ligand.clash>
0.0000

> <Gold.PLP.ligand.torsion>
0.9888

> <Gold.PLP.Chemscore.Hbond>
4.0000

> <Gold.PLP.Chemscore.CHOScore>
0.0000

> <Gold.PLP.Chemscore.Metal>
0.0000

> <Gold.Chemscore.Hbonds>
donor molecule, donor type, donor heavy atom, donor atom, acceptor molecule, acceptor atom, score
      L1  H     7    39       P1  8028  1.00
      L1  H    18    59       P1  7948  2.00
      L1  H    22    54       P1  7948  1.00

> <Gold.PLP.Chemscore.Internal.Correction>
0.1929

> <Gold.Rescore>
     Score         DG    S(hbond)    S(metal)    S(lipo)     H(rot)  DE(clash)    DE(int)     intcor
     14.38     -18.01       2.76        0.00     101.74       3.35       1.53       2.10       ----

> <Gold.Chemscore.Fitness>
14.3795

> <Gold.Chemscore.DG>
-18.0105

> <Gold.Chemscore.ZeroCoef>
-5.4800

> <Gold.Chemscore.Hbond>
2.7567

> <Gold.Chemscore.Metal>
0.0000

> <Gold.Chemscore.Lipo>
101.7414

> <Gold.Chemscore.Internal_Hbond>
0.0000

> <Gold.Chemscore.DEClash>
1.5318

> <Gold.Chemscore.DEInternal>
2.0993

> <Gold.Chemscore.Rot>
3.3518

> <Gold.Chemscore.Internal.Correction>
   9.000000E+99

> <Gold.Chemscore.Hbonds>
donor molecule, donor type, donor heavy atom, donor atom, acceptor molecule, acceptor atom, score
      L1  H     7    39       P1  8028  0.99
      L1  H    18    59       P1  7948  1.00
      L1  H    22    54       P1  7948  0.50

> <Gold.Chemscore.Hbond.Weighted>
-9.2073

> <Gold.Chemscore.Metal.Weighted>
-0.0000

> <Gold.Chemscore.Lipo.Weighted>
-11.9037

> <Gold.Chemscore.Internal_Hbond.Weighted>
0.0000

> <Gold.Chemscore.DEClash.Weighted>
1.5318

> <Gold.Chemscore.DEInternal.Weighted>
2.0993

> <Gold.Chemscore.Rot.Weighted>
8.5806

> <Gold.Chemscore.Internal.Correction.Weighted>
   9.000000E+99

> <Gold.Protein.RotatedTorsions>
[ 6907 6896 6895 6894 ] final  -44.48 input  -60.11 | X-H torsion
[ 7974 7965 7964 7962 ] final   10.68 input  175.53 | X-H torsion
[ 8008 7997 7996 7995 ] final -160.66 input   59.86 | X-H torsion
[ 10167 10162 10161 10158 ] final   77.76 input  -65.29 | X-H torsion
[ 10718 10713 10712 10709 ] final   -0.17 input   66.30 | X-H torsion
[ 10763 10752 10751 10750 ] final  122.63 input  -60.55 | X-H torsion
[ 11005 11000 10999 10996 ] final -140.72 input  -57.11 | X-H torsion

> <Gold.Protein.ActiveResidues>
 VAL166  LYS551  ARG553  GLY616  TRP617  ASP618  TYR619  PRO620  LYS621  CYS622 
 ASP623  PHE694  ASN695  SER759  ASP760  ASP761  ALA762  ILE779  LEU786  VAL792 
 PHE793  MET794  SER795  GLU796  ALA797  LYS798  CYS799  TRP800  GLU811  SER814 

> <Gold.Protein.RotatedAtoms>
  150.9323  134.8738  159.7559 H   0  0  0  0  0  0  0  0  0  0  0  0  # atno 6907 bound_to 6896
  152.5043  134.4061  159.9443 H   0  0  0  0  0  0  0  0  0  0  0  0  # atno 6908 bound_to 6896
  151.4087  133.3694  159.2776 H   0  0  0  0  0  0  0  0  0  0  0  0  # atno 6909 bound_to 6896
  146.2384  139.9599  142.8460 H   0  0  0  0  0  0  0  0  0  0  0  0  # atno 7974 bound_to 7965
  155.7808  140.0865  157.2060 H   0  0  0  0  0  0  0  0  0  0  0  0  # atno 8008 bound_to 7997
  154.3990  140.1508  156.3107 H   0  0  0  0  0  0  0  0  0  0  0  0  # atno 8009 bound_to 7997
  155.8656  140.3428  155.5788 H   0  0  0  0  0  0  0  0  0  0  0  0  # atno 8010 bound_to 7997
  139.9782  144.5846  150.7924 H   0  0  0  0  0  0  0  0  0  0  0  0  # atno 10167 bound_to 10162
  156.8243  130.5467  149.5693 H   0  0  0  0  0  0  0  0  0  0  0  0  # atno 10718 bound_to 10713
  153.6327  135.3393  155.3047 H   0  0  0  0  0  0  0  0  0  0  0  0  # atno 10763 bound_to 10752
  154.8577  135.4299  154.2088 H   0  0  0  0  0  0  0  0  0  0  0  0  # atno 10764 bound_to 10752
  153.2988  135.7023  153.7296 H   0  0  0  0  0  0  0  0  0  0  0  0  # atno 10765 bound_to 10752
  140.8395  134.2420  157.4817 H   0  0  0  0  0  0  0  0  0  0  0  0  # atno 11005 bound_to 11000
  145.1781  140.9754  143.4282 LP  0  0  0  0  0  0  0  0  0  0  0  0  # atno 17320 bound_to 7965
  144.9967  139.3637  143.6188 LP  0  0  0  0  0  0  0  0  0  0  0  0  # atno 17321 bound_to 7965
  140.7498  143.2945  151.3241 LP  0  0  0  0  0  0  0  0  0  0  0  0  # atno 17342 bound_to 10162
  139.6430  144.0504  152.2569 LP  0  0  0  0  0  0  0  0  0  0  0  0  # atno 17343 bound_to 10162
  156.0970  130.5940  150.9831 LP  0  0  0  0  0  0  0  0  0  0  0  0  # atno 17370 bound_to 10713
  157.6440  131.0906  150.8192 LP  0  0  0  0  0  0  0  0  0  0  0  0  # atno 17371 bound_to 10713
  139.8703  134.9628  156.4440 LP  0  0  0  0  0  0  0  0  0  0  0  0  # atno 17394 bound_to 11000
  140.8911  133.7847  155.9573 LP  0  0  0  0  0  0  0  0  0  0  0  0  # atno 17395 bound_to 11000

$$$$
