AV-unprocessed.smi:72|AV-procd|sdf|668|dock6
  -GOLD-   2262016573D 1   1.00000     0.00000
 Structure written by MMmdl.
 29 30  0  0  0  0  0  0  0  0  1 V2000
  152.4753  136.9484  159.6190 N   0  0  0  0  0  0  0  0  0  0  0  0
  151.9628  137.5239  158.5902 C   0  0  0  0  0  0  0  0  0  0  0  0
  150.5994  137.8030  158.4126 N   0  0  0  0  0  0  0  0  0  0  0  0
  150.2202  138.3900  157.3193 C   0  0  0  0  0  0  0  0  0  0  0  0
  151.1629  138.7717  156.2764 N   0  0  0  0  0  0  0  0  0  0  0  0
  150.7268  139.4574  154.9929 C   0  0  1  0  0  0  0  0  0  0  0  0
  149.6365  138.7825  154.4341 O   0  0  0  0  0  0  0  0  0  0  0  0
  148.4477  139.5500  154.5987 C   0  0  2  0  0  0  0  0  0  0  0  0
  147.3740  139.1384  153.5768 C   0  0  0  0  0  0  0  0  0  0  0  0
  147.9840  138.5477  152.4492 O   0  0  0  0  0  0  0  0  0  0  0  0
  148.9556  140.9922  154.4857 C   0  0  2  0  0  0  0  0  0  0  0  0
  149.1284  141.3688  153.1314 O   0  0  0  0  0  0  0  0  0  0  0  0
  150.3018  140.9335  155.1961 C   0  0  1  0  0  0  0  0  0  0  0  0
  150.1399  141.3048  156.5544 O   0  0  0  0  0  0  0  0  0  0  0  0
  152.5422  138.4967  156.4423 C   0  0  0  0  0  0  0  0  0  0  0  0
  153.3814  138.8064  155.5968 O   0  0  0  0  0  0  0  0  0  0  0  0
  152.8822  137.8809  157.5950 N   0  0  0  0  0  0  0  0  0  0  0  0
  151.5667  139.3455  154.3049 H   0  0  0  0  0  0  0  0  0  0  0  0
  148.0683  139.4095  155.6124 H   0  0  0  0  0  0  0  0  0  0  0  0
  148.2676  141.7030  154.9461 H   0  0  0  0  0  0  0  0  0  0  0  0
  151.0405  141.5968  154.7441 H   0  0  0  0  0  0  0  0  0  0  0  0
  153.4751  136.8590  159.5135 H   0  0  0  0  0  0  0  0  0  0  0  0
  149.1760  138.6291  157.1205 H   0  0  0  0  0  0  0  0  0  0  0  0
  146.7053  138.3956  154.0125 H   0  0  0  0  0  0  0  0  0  0  0  0
  146.7645  139.9904  153.2739 H   0  0  0  0  0  0  0  0  0  0  0  0
  148.4515  139.2175  151.9741 H   0  0  0  0  0  0  0  0  0  0  0  0
  149.2669  140.5883  152.6175 H   0  0  0  0  0  0  0  0  0  0  0  0
  149.5365  140.7000  156.9584 H   0  0  0  0  0  0  0  0  0  0  0  0
  153.8592  137.6734  157.7407 H   0  0  0  0  0  0  0  0  0  0  0  0
  1  2  2  0  0  0  0
  1 22  1  0  0  0  0
  2 17  1  0  0  0  0
  2  3  1  0  0  0  0
  3  4  2  0  0  0  0
  4  5  1  0  0  0  0
  4 23  1  0  0  0  0
  5  6  1  0  0  0  0
  5 15  1  0  0  0  0
  6 18  1  0  0  0  0
  6 13  1  0  0  0  0
  6  7  1  0  0  0  0
  7  8  1  0  0  0  0
  8 19  1  0  0  0  0
  8  9  1  0  0  0  0
  8 11  1  0  0  0  0
  9 10  1  0  0  0  0
  9 24  1  0  0  0  0
  9 25  1  0  0  0  0
 10 26  1  0  0  0  0
 11 20  1  0  0  0  0
 11 12  1  0  0  0  0
 11 13  1  0  0  0  0
 12 27  1  0  0  0  0
 13 21  1  0  0  0  0
 13 14  1  0  0  0  0
 14 28  1  0  0  0  0
 15 16  2  0  0  0  0
 15 17  1  0  0  0  0
 17 29  1  0  0  0  0
M  END
> <s_m_source_file>
AV-unprocessed.smi

> <i_m_source_file_index>
72

> <i_lp_mmshare_version>
43012

> <i_f3d_flags>
0

> <s_epik_input>
W05IMl1jMW5bY0hdbihjKD1PKW4xKVtDQEBIXTJPW0NASF0oW0NIMl1bT0hdKVtDQEBIXShbT0hdKVtDQEhdMltPSF0=

> <s_epik_cmdline>
J2VwaWtfcHl0aG9uJywgJy1waCcsICc3LjAnLCAnLXRuJywgJzgnLCAnLW1hJywgJzIwMCcsICctbWV0YWxfYmluZGluZycsICctaW1hZScsICc8aW5maWxlLm1hZT4nLCAnLW9tYWUnLCAnPG91dGZpbGUubWFlPic=

> <r_lp_tautomer_probability>
7.17554e-07

> <r_epik_Ionization_Penalty>
0.0066451

> <r_epik_Ionization_Penalty_Charging>
0.00663793

> <r_epik_Ionization_Penalty_Neutral>
7.17052e-06

> <r_epik_State_Penalty>
0.419231

> <r_epik_Charging_Adjusted_Penalty>
0.425868

> <i_epik_Tot_Q>
0

> <i_epik_Tot_abs_Q>
0

> <r_epik_Metal_State_Penalty>
1.44144

> <b_epik_Metal_Only>
0

> <s_epik_Chemistry_Notes>
This compound contains an acetal/aminal-like group ( X-CH(R)-Y where X, Y are N, S, or O) that may be acid/base labile, releasing an aldehyde.

> <s_lp_Force_Field>
OPLS_2005

> <r_lp_Energy>
43.5158

> <b_lp_Chiralities_Consistent>
1

> <s_lp_Variant>
AV-unprocessed.smi:72-6

> <Gold.Version>
5.8.1

> <Gold.Id.Protein>
6NUR|6NUR_protein|mol2

> <Gold.PLP.Fitness>
35.8205

> <Gold.PLP.PLP>
-22.7207

> <Gold.PLP.part.hbond>
-6.5580

> <Gold.PLP.part.metal>
0.0000

> <Gold.PLP.part.buried>
-2.3631

> <Gold.PLP.part.nonpolar>
-13.6499

> <Gold.PLP.part.repulsive>
0.3402

> <Gold.PLP.ligand.clash>
0.0000

> <Gold.PLP.ligand.torsion>
0.7215

> <Gold.PLP.Chemscore.Hbond>
4.8240

> <Gold.PLP.Chemscore.CHOScore>
0.0000

> <Gold.PLP.Chemscore.Metal>
0.0000

> <Gold.Chemscore.Hbonds>
donor molecule, donor type, donor heavy atom, donor atom, acceptor molecule, acceptor atom, score
      L1  H    10    26       P1  7957  1.00
      L1  H    12    27       P1  7957  0.86
      P1  H  6896  6907       L1     1  0.85
      P1  H  7997  8010       L1    16  0.98
      P1  H  8011  8017       L1    12  0.86

> <Gold.PLP.Chemscore.Internal.Correction>
0.0709

> <Gold.Rescore>
     Score         DG    S(hbond)    S(metal)    S(lipo)     H(rot)  DE(clash)    DE(int)     intcor
      9.26     -10.25       3.75        0.00      22.48       4.06       0.00       1.00       ----

> <Gold.Chemscore.Fitness>
9.2578

> <Gold.Chemscore.DG>
-10.2549

> <Gold.Chemscore.ZeroCoef>
-5.4800

> <Gold.Chemscore.Hbond>
3.7540

> <Gold.Chemscore.Metal>
0.0000

> <Gold.Chemscore.Lipo>
22.4805

> <Gold.Chemscore.Internal_Hbond>
0.0000

> <Gold.Chemscore.DEClash>
0.0009

> <Gold.Chemscore.DEInternal>
0.9963

> <Gold.Chemscore.Rot>
4.0600

> <Gold.Chemscore.Internal.Correction>
   9.000000E+99

> <Gold.Chemscore.Hbonds>
donor molecule, donor type, donor heavy atom, donor atom, acceptor molecule, acceptor atom, score
      L1  H    10    26       P1  7957  0.98
      L1  H    12    27       P1  7957  0.85
      P1  H  6896  6907       L1     1  0.13
      P1  H  7997  8010       L1    16  0.85
      P1  H  8011  8017       L1    12  0.32

> <Gold.Chemscore.Hbond.Weighted>
-12.5383

> <Gold.Chemscore.Metal.Weighted>
-0.0000

> <Gold.Chemscore.Lipo.Weighted>
-2.6302

> <Gold.Chemscore.Internal_Hbond.Weighted>
0.0000

> <Gold.Chemscore.DEClash.Weighted>
0.0009

> <Gold.Chemscore.DEInternal.Weighted>
0.9963

> <Gold.Chemscore.Rot.Weighted>
10.3936

> <Gold.Chemscore.Internal.Correction.Weighted>
   9.000000E+99

> <Gold.Protein.RotatedTorsions>
[ 6907 6896 6895 6894 ] final   32.65 input  -60.11 | X-H torsion
[ 7974 7965 7964 7962 ] final   15.65 input  175.53 | X-H torsion
[ 8008 7997 7996 7995 ] final   98.26 input   59.86 | X-H torsion
[ 10167 10162 10161 10158 ] final   12.39 input  -65.29 | X-H torsion
[ 10718 10713 10712 10709 ] final  -41.68 input   66.30 | X-H torsion
[ 10763 10752 10751 10750 ] final   63.47 input  -60.55 | X-H torsion
[ 11005 11000 10999 10996 ] final -143.46 input  -57.11 | X-H torsion

> <Gold.Protein.ActiveResidues>
 VAL166  LYS551  ARG553  GLY616  TRP617  ASP618  TYR619  PRO620  LYS621  CYS622 
 ASP623  PHE694  ASN695  SER759  ASP760  ASP761  ALA762  ILE779  LEU786  VAL792 
 PHE793  MET794  SER795  GLU796  ALA797  LYS798  CYS799  TRP800  GLU811  SER814 

> <Gold.Protein.RotatedAtoms>
  152.0774  134.9493  160.0573 H   0  0  0  0  0  0  0  0  0  0  0  0  # atno 6907 bound_to 6896
  152.0795  133.4141  159.4503 H   0  0  0  0  0  0  0  0  0  0  0  0  # atno 6908 bound_to 6896
  150.6836  134.2918  159.4713 H   0  0  0  0  0  0  0  0  0  0  0  0  # atno 6909 bound_to 6896
  146.2272  139.8863  142.8562 H   0  0  0  0  0  0  0  0  0  0  0  0  # atno 7974 bound_to 7965
  156.0986  140.3246  155.7911 H   0  0  0  0  0  0  0  0  0  0  0  0  # atno 8008 bound_to 7997
  155.4875  140.0559  157.2975 H   0  0  0  0  0  0  0  0  0  0  0  0  # atno 8009 bound_to 7997
  154.4682  140.1999  156.0078 H   0  0  0  0  0  0  0  0  0  0  0  0  # atno 8010 bound_to 7997
  140.6071  143.8485  150.7025 H   0  0  0  0  0  0  0  0  0  0  0  0  # atno 10167 bound_to 10162
  156.2677  130.4203  149.8472 H   0  0  0  0  0  0  0  0  0  0  0  0  # atno 10718 bound_to 10713
  153.0019  135.5428  154.6356 H   0  0  0  0  0  0  0  0  0  0  0  0  # atno 10763 bound_to 10752
  154.5624  135.2835  155.0909 H   0  0  0  0  0  0  0  0  0  0  0  0  # atno 10764 bound_to 10752
  154.2106  135.6468  153.5167 H   0  0  0  0  0  0  0  0  0  0  0  0  # atno 10765 bound_to 10752
  140.8123  134.2730  157.4936 H   0  0  0  0  0  0  0  0  0  0  0  0  # atno 11005 bound_to 11000
  145.2462  141.0027  143.3907 LP  0  0  0  0  0  0  0  0  0  0  0  0  # atno 17320 bound_to 7965
  144.9411  139.4188  143.6448 LP  0  0  0  0  0  0  0  0  0  0  0  0  # atno 17321 bound_to 7965
  140.2045  143.3933  152.1766 LP  0  0  0  0  0  0  0  0  0  0  0  0  # atno 17342 bound_to 10162
  139.5333  144.7183  151.4980 LP  0  0  0  0  0  0  0  0  0  0  0  0  # atno 17343 bound_to 10162
  156.5964  130.8528  151.3421 LP  0  0  0  0  0  0  0  0  0  0  0  0  # atno 17370 bound_to 10713
  157.7273  130.9641  150.1694 LP  0  0  0  0  0  0  0  0  0  0  0  0  # atno 17371 bound_to 10713
  139.8713  134.9490  156.4012 LP  0  0  0  0  0  0  0  0  0  0  0  0  # atno 17394 bound_to 11000
  140.9185  133.7661  155.9878 LP  0  0  0  0  0  0  0  0  0  0  0  0  # atno 17395 bound_to 11000

$$$$
