#       Name:                AV-unprocessed.smi:3282
#       Creating user name   scv26
#       Creation time:       Fri Mar 27 18:48:35 2020


#       File generated by GOLD software.
#

@<TRIPOS>MOLECULE
AV-unprocessed.smi:3282
    41    42     1
SMALL
NO_CHARGES


@<TRIPOS>ATOM
      1 ****        -1.8988   5.2182  -0.2794 C.3            1 S1                 0.0000
      2 ****        -1.3567   3.7932  -0.0815 C.3            1 S1                 0.0000
      3 ****         0.1620   3.6729  -0.2930 C.2            1 S1                 0.0000
      4 ****         0.8343   4.6839  -0.5022 O.2            1 S1                 0.0000
      5 ****         0.7163   2.4436  -0.2430 N.am           1 S1                 0.0000
      6 ****         2.1410   2.1930  -0.4438 C.3            1 S1                 0.0000
      7 ****         2.2912   0.6753  -0.5465 C.3            1 S1                 0.0000
      8 ****         1.0779   0.1164   0.1914 C.3            1 S1                 0.0000
      9 ****         0.6641  -1.1734  -0.3523 N.am           1 S1                 0.0000
     10 ****        -0.2005  -2.0168   0.2313 C.2            1 S1                 0.0000
     11 ****        -0.7252  -1.7625   1.3201 O.2            1 S1                 0.0000
     12 ****        -0.3507  -3.1632  -0.5308 N.2            1 S1                 0.0000
     13 ****        -0.5075  -4.2927   0.0866 C.2            1 S1                 0.0000
     14 ****        -0.6956  -5.5472  -0.4710 N.pl3          1 S1                 0.0000
     15 ****        -0.8005  -6.4534   0.5479 C.2            1 S1                 0.0000
     16 ****        -0.6828  -5.7981   1.6993 C.2            1 S1                 0.0000
     17 ****        -0.5012  -4.4709   1.4514 O.3            1 S1                 0.0000
     18 ****         0.0006   1.1955   0.0146 C.3            1 S1                 0.0000
     19 ****        -2.9782   5.2425  -0.1298 H              1 S1                 0.0000
     20 ****        -1.6984   5.5843  -1.2871 H              1 S1                 0.0000
     21 ****        -1.4536   5.9169   0.4300 H              1 S1                 0.0000
     22 ****        -1.5992   3.4553   0.9265 H              1 S1                 0.0000
     23 ****        -1.8661   3.1223  -0.7739 H              1 S1                 0.0000
     24 ****         2.5236   2.6902  -1.3366 H              1 S1                 0.0000
     25 ****         2.6914   2.5735   0.4179 H              1 S1                 0.0000
     26 ****         2.2580   0.3862  -1.5984 H              1 S1                 0.0000
     27 ****         3.2358   0.3179  -0.1356 H              1 S1                 0.0000
     28 ****         1.3266   0.0214   1.2501 H              1 S1                 0.0000
     29 ****         1.0683  -1.4476  -1.2362 H              1 S1                 0.0000
     30 ****        -0.7484  -5.7959  -1.4483 H              1 S1                 0.0000
     31 ****        -0.9517  -7.5010   0.3336 H              1 S1                 0.0000
     32 ****        -0.7042  -6.1170   2.7309 H              1 S1                 0.0000
     33 ****        -0.6325   1.2587   0.9006 H              1 S1                 0.0000
     34 ****        -0.6380   0.9773  -0.8433 H              1 S1                 0.0000
     35 ****         0.3924   5.5804  -0.5342 LP             1 S1                 0.0000
     36 ****         1.8218   4.6080  -0.6400 LP             1 S1                 0.0000
     37 ****        -0.5091  -0.9076   1.7918 LP             1 S1                 0.0000
     38 ****        -1.3662  -2.4114   1.7300 LP             1 S1                 0.0000
     39 ****        -0.3386  -3.1212  -1.5298 LP             1 S1                 0.0000
     40 ****        -1.2419  -3.9428   1.8668 LP             1 S1                 0.0000
     41 ****         0.3746  -4.1710   1.8295 LP             1 S1                 0.0000
@<TRIPOS>BOND
    1    1    2 1     
    2    1   19 1     
    3    1   20 1     
    4    1   21 1     
    5    2    3 1     
    6    2   22 1     
    7    2   23 1     
    8    3    4 2     
    9    3    5 am    
   10    5   18 1     
   11    5    6 1     
   12    6    7 1     
   13    6   24 1     
   14    6   25 1     
   15    7    8 1     
   16    7   26 1     
   17    7   27 1     
   18    8    9 1     
   19    8   18 1     
   20    8   28 1     
   21    9   29 1     
   22    9   10 am    
   23   10   12 1     
   24   10   11 2     
   25   12   13 2     
   26   13   17 1     
   27   13   14 1     
   28   14   30 1     
   29   14   15 1     
   30   15   31 1     
   31   15   16 2     
   32   16   32 1     
   33   16   17 1     
   34   18   33 1     
   35   18   34 1     
   36    4   35 1     
   37    4   36 1     
   38   11   37 1     
   39   11   38 1     
   40   12   39 1     
   41   17   40 1     
   42   17   41 1     
@<TRIPOS>SUBSTRUCTURE
      1 S1             1
@<TRIPOS>SET
LONE_PAIRS      STATIC     ATOMS    <user>   **** ""
7 35 36 37 38 39 40 41
DONOR_HYDROGENS      STATIC     ATOMS    <user>   **** ""
2 29 30
ATOM$BLUE        STATIC     ATOMS    COLORGROUP SYSTEM
7 35 36 37 38 39 40 41
ATOM$RED        STATIC     ATOMS    COLORGROUP SYSTEM
2 29 30
