AV-unprocessed.smi:331|AV-procd|sdf|2350|dock10
  -GOLD-   2262022263D 1   1.00000     0.00000
 Structure written by MMmdl.
 36 37  0  0  0  0  0  0  0  0  1 V2000
  147.3451  138.1282  153.5527 O   0  0  0  0  0  0  0  0  0  0  0  0
  146.4079  138.6917  152.9909 C   0  0  0  0  0  0  0  0  0  0  0  0
  145.6892  138.1295  152.0053 N   0  0  0  0  0  0  0  0  0  0  0  0
  145.9711  136.8358  151.3933 C   0  0  0  0  0  0  0  0  0  0  0  0
  144.9632  135.7557  151.8305 C   0  0  0  0  0  0  0  0  0  0  0  0
  145.1608  134.4292  151.1164 C   0  0  0  0  0  0  0  0  0  0  0  0
  144.0725  133.7527  150.5268 C   0  0  0  0  0  0  0  0  0  0  0  0
  144.3046  132.5170  149.8932 C   0  0  0  0  0  0  0  0  0  0  0  0
  145.6195  132.0107  149.8730 C   0  0  0  0  0  0  0  0  0  0  0  0
  146.6693  132.6502  150.4324 N   0  0  0  0  0  0  0  0  0  0  0  0
  146.4378  133.8343  151.0390 C   0  0  0  0  0  0  0  0  0  0  0  0
  146.0189  139.9341  153.3280 N   0  0  0  0  0  0  0  0  0  0  0  0
  146.5929  140.8081  154.3543 C   0  0  0  0  0  0  0  0  0  0  0  0
  145.5727  141.0707  155.4784 C   0  0  0  0  0  0  0  0  0  0  0  0
  145.6050  142.5779  155.7352 C   0  0  0  0  0  0  0  0  0  0  0  0
  145.9635  143.1809  154.3811 C   0  0  0  0  0  0  0  0  0  0  0  0
  146.9651  142.1919  153.7836 C   0  0  0  0  0  0  0  0  0  0  0  0
  144.9256  138.6614  151.6136 H   0  0  0  0  0  0  0  0  0  0  0  0
  145.9934  136.9214  150.3059 H   0  0  0  0  0  0  0  0  0  0  0  0
  146.9754  136.5416  151.6993 H   0  0  0  0  0  0  0  0  0  0  0  0
  145.0413  135.5929  152.9063 H   0  0  0  0  0  0  0  0  0  0  0  0
  143.9463  136.1073  151.6521 H   0  0  0  0  0  0  0  0  0  0  0  0
  143.0757  134.1675  150.5665 H   0  0  0  0  0  0  0  0  0  0  0  0
  143.4944  131.9699  149.4344 H   0  0  0  0  0  0  0  0  0  0  0  0
  145.8335  131.0657  149.3958 H   0  0  0  0  0  0  0  0  0  0  0  0
  147.2962  134.3184  151.4811 H   0  0  0  0  0  0  0  0  0  0  0  0
  145.1918  140.2855  152.8673 H   0  0  0  0  0  0  0  0  0  0  0  0
  147.4794  140.3408  154.7876 H   0  0  0  0  0  0  0  0  0  0  0  0
  144.5673  140.7891  155.1595 H   0  0  0  0  0  0  0  0  0  0  0  0
  145.7961  140.4982  156.3794 H   0  0  0  0  0  0  0  0  0  0  0  0
  144.6615  142.9570  156.1287 H   0  0  0  0  0  0  0  0  0  0  0  0
  146.3867  142.8113  156.4595 H   0  0  0  0  0  0  0  0  0  0  0  0
  145.0729  143.2275  153.7528 H   0  0  0  0  0  0  0  0  0  0  0  0
  146.3674  144.1906  154.4632 H   0  0  0  0  0  0  0  0  0  0  0  0
  147.9708  142.4555  154.1134 H   0  0  0  0  0  0  0  0  0  0  0  0
  146.9674  142.2270  152.6932 H   0  0  0  0  0  0  0  0  0  0  0  0
  1  2  2  0  0  0  0
  2  3  1  0  0  0  0
  2 12  1  0  0  0  0
  3  4  1  0  0  0  0
  3 18  1  0  0  0  0
  4  5  1  0  0  0  0
  4 19  1  0  0  0  0
  4 20  1  0  0  0  0
  5  6  1  0  0  0  0
  5 21  1  0  0  0  0
  5 22  1  0  0  0  0
  6 11  1  0  0  0  0
  6  7  2  0  0  0  0
  7  8  1  0  0  0  0
  7 23  1  0  0  0  0
  8  9  2  0  0  0  0
  8 24  1  0  0  0  0
  9 10  1  0  0  0  0
  9 25  1  0  0  0  0
 10 11  2  0  0  0  0
 11 26  1  0  0  0  0
 12 13  1  0  0  0  0
 12 27  1  0  0  0  0
 13 17  1  0  0  0  0
 13 14  1  0  0  0  0
 13 28  1  0  0  0  0
 14 15  1  0  0  0  0
 14 29  1  0  0  0  0
 14 30  1  0  0  0  0
 15 16  1  0  0  0  0
 15 31  1  0  0  0  0
 15 32  1  0  0  0  0
 16 17  1  0  0  0  0
 16 33  1  0  0  0  0
 16 34  1  0  0  0  0
 17 35  1  0  0  0  0
 17 36  1  0  0  0  0
M  END
> <s_m_source_file>
AV-unprocessed.smi

> <i_m_source_file_index>
331

> <i_lp_mmshare_version>
43012

> <i_f3d_flags>
0

> <s_epik_input>
W0NIMl0xW0NIMl1bQ0gyXVtDSDJdW0NIXTFbTkhdQyg9TylbTkhdW0NIMl1bQ0gyXWMyW2NIXVtjSF1bY0hdbltjSF0y

> <s_epik_cmdline>
J2VwaWtfcHl0aG9uJywgJy1waCcsICc3LjAnLCAnLXRuJywgJzgnLCAnLW1hJywgJzIwMCcsICctbWV0YWxfYmluZGluZycsICctaW1hZScsICc8aW5maWxlLm1hZT4nLCAnLW9tYWUnLCAnPG91dGZpbGUubWFlPic=

> <r_epik_Ionization_Penalty>
0.0144384

> <r_epik_Ionization_Penalty_Charging>
0

> <r_epik_Ionization_Penalty_Neutral>
0.0144384

> <r_epik_State_Penalty>
0.0112394

> <r_epik_Charging_Adjusted_Penalty>
0.0112394

> <i_epik_Tot_Q>
0

> <i_epik_Tot_abs_Q>
0

> <r_epik_Metal_State_Penalty>
0.0109726

> <b_epik_Metal_Only>
0

> <s_lp_Force_Field>
OPLS_2005

> <r_lp_Energy>
25.692

> <b_lp_Chiralities_Consistent>
1

> <s_lp_Variant>
AV-unprocessed.smi:331-1

> <Gold.Version>
5.8.1

> <Gold.Id.Protein>
6NUR|6NUR_protein|mol2

> <Gold.PLP.Fitness>
38.7880

> <Gold.PLP.PLP>
-31.2196

> <Gold.PLP.part.hbond>
-2.8116

> <Gold.PLP.part.metal>
0.0000

> <Gold.PLP.part.buried>
-4.3397

> <Gold.PLP.part.nonpolar>
-26.8503

> <Gold.PLP.part.repulsive>
2.1403

> <Gold.PLP.ligand.clash>
0.0000

> <Gold.PLP.ligand.torsion>
0.2274

> <Gold.PLP.Chemscore.Hbond>
1.6720

> <Gold.PLP.Chemscore.CHOScore>
1.0000

> <Gold.PLP.Chemscore.Metal>
0.0000

> <Gold.Chemscore.Hbonds>
donor molecule, donor type, donor heavy atom, donor atom, acceptor molecule, acceptor atom, score
      L1  H     3    18       P1 10171  0.62
      L1  H    12    27       P1 10175  1.00
      L1  C    11    26       P1  7948  1.00

> <Gold.PLP.Chemscore.Internal.Correction>
0.0072

> <Gold.Rescore>
     Score         DG    S(hbond)    S(metal)    S(lipo)     H(rot)  DE(clash)    DE(int)     intcor
     15.38     -15.83       1.85        0.00      68.76       1.51       0.29       0.17       ----

> <Gold.Chemscore.Fitness>
15.3751

> <Gold.Chemscore.DG>
-15.8342

> <Gold.Chemscore.ZeroCoef>
-5.4800

> <Gold.Chemscore.Hbond>
1.8457

> <Gold.Chemscore.Metal>
0.0000

> <Gold.Chemscore.Lipo>
68.7585

> <Gold.Chemscore.Internal_Hbond>
0.0000

> <Gold.Chemscore.DEClash>
0.2859

> <Gold.Chemscore.DEInternal>
0.1731

> <Gold.Chemscore.Rot>
1.5060

> <Gold.Chemscore.Internal.Correction>
   9.000000E+99

> <Gold.Chemscore.Hbonds>
donor molecule, donor type, donor heavy atom, donor atom, acceptor molecule, acceptor atom, score
      L1  H     3    18       P1 10171  0.60
      L1  H    12    27       P1 10175  0.93

> <Gold.Chemscore.Hbond.Weighted>
-6.1647

> <Gold.Chemscore.Metal.Weighted>
-0.0000

> <Gold.Chemscore.Lipo.Weighted>
-8.0447

> <Gold.Chemscore.Internal_Hbond.Weighted>
0.0000

> <Gold.Chemscore.DEClash.Weighted>
0.2859

> <Gold.Chemscore.DEInternal.Weighted>
0.1731

> <Gold.Chemscore.Rot.Weighted>
3.8553

> <Gold.Chemscore.Internal.Correction.Weighted>
   9.000000E+99

> <Gold.Protein.RotatedTorsions>
[ 6907 6896 6895 6894 ] final   18.95 input  -60.11 | X-H torsion
[ 7974 7965 7964 7962 ] final  -29.55 input  175.53 | X-H torsion
[ 8008 7997 7996 7995 ] final  169.17 input   59.86 | X-H torsion
[ 10167 10162 10161 10158 ] final -142.56 input  -65.29 | X-H torsion
[ 10718 10713 10712 10709 ] final  -49.07 input   66.30 | X-H torsion
[ 10763 10752 10751 10750 ] final   96.43 input  -60.55 | X-H torsion
[ 11005 11000 10999 10996 ] final  -38.88 input  -57.11 | X-H torsion

> <Gold.Protein.ActiveResidues>
 VAL166  LYS551  ARG553  GLY616  TRP617  ASP618  TYR619  PRO620  LYS621  CYS622 
 ASP623  PHE694  ASN695  SER759  ASP760  ASP761  ALA762  ILE779  LEU786  VAL792 
 PHE793  MET794  SER795  GLU796  ALA797  LYS798  CYS799  TRP800  GLU811  SER814 

> <Gold.Protein.RotatedAtoms>
  151.8733  135.0481  160.0481 H   0  0  0  0  0  0  0  0  0  0  0  0  # atno 6907 bound_to 6896
  152.2571  133.5260  159.5368 H   0  0  0  0  0  0  0  0  0  0  0  0  # atno 6908 bound_to 6896
  150.7103  134.0797  159.3936 H   0  0  0  0  0  0  0  0  0  0  0  0  # atno 6909 bound_to 6896
  146.1208  140.5427  142.8736 H   0  0  0  0  0  0  0  0  0  0  0  0  # atno 7974 bound_to 7965
  156.1481  140.1571  156.8814 H   0  0  0  0  0  0  0  0  0  0  0  0  # atno 8008 bound_to 7997
  154.5046  140.0816  156.7906 H   0  0  0  0  0  0  0  0  0  0  0  0  # atno 8009 bound_to 7997
  155.3949  140.3411  155.4256 H   0  0  0  0  0  0  0  0  0  0  0  0  # atno 8010 bound_to 7997
  139.8077  143.7746  152.2662 H   0  0  0  0  0  0  0  0  0  0  0  0  # atno 10167 bound_to 10162
  156.1928  130.4153  149.9348 H   0  0  0  0  0  0  0  0  0  0  0  0  # atno 10718 bound_to 10713
  153.2649  135.4219  155.0930 H   0  0  0  0  0  0  0  0  0  0  0  0  # atno 10763 bound_to 10752
  154.8434  135.3458  154.6326 H   0  0  0  0  0  0  0  0  0  0  0  0  # atno 10764 bound_to 10752
  153.6746  135.7042  153.5194 H   0  0  0  0  0  0  0  0  0  0  0  0  # atno 10765 bound_to 10752
  141.0060  133.6931  156.2112 H   0  0  0  0  0  0  0  0  0  0  0  0  # atno 11005 bound_to 11000
  144.7595  140.5389  143.6745 LP  0  0  0  0  0  0  0  0  0  0  0  0  # atno 17320 bound_to 7965
  145.5470  139.1476  143.3415 LP  0  0  0  0  0  0  0  0  0  0  0  0  # atno 17321 bound_to 7965
  139.7885  144.7419  150.9988 LP  0  0  0  0  0  0  0  0  0  0  0  0  # atno 17342 bound_to 10162
  140.7819  143.4467  151.0473 LP  0  0  0  0  0  0  0  0  0  0  0  0  # atno 17343 bound_to 10162
  156.7083  130.8960  151.3607 LP  0  0  0  0  0  0  0  0  0  0  0  0  # atno 17370 bound_to 10713
  157.6939  130.9262  150.0590 LP  0  0  0  0  0  0  0  0  0  0  0  0  # atno 17371 bound_to 10713
  140.6811  134.4766  157.5589 LP  0  0  0  0  0  0  0  0  0  0  0  0  # atno 17394 bound_to 11000
  139.9064  134.8440  156.1692 LP  0  0  0  0  0  0  0  0  0  0  0  0  # atno 17395 bound_to 11000

$$$$
