AV-unprocessed.smi:1661|AV-procd|sdf|6653|dock10
  -GOLD-   22720 7363D 1   1.00000     0.00000
 Structure written by MMmdl.
 38 39  0  0  0  0  0  0  0  0  2 V2000
  143.9275  132.3745  149.6167 C   0  0  0  0  0  0  0  0  0  0  0  0
  144.8490  132.4659  150.8410 C   0  0  2  0  0  0  0  0  0  0  0  0
  146.1334  133.2524  150.5306 C   0  0  0  0  0  0  0  0  0  0  0  0
  147.0632  133.3101  151.7543 C   0  0  0  0  0  0  0  0  0  0  0  0
  147.3990  131.9466  152.2397 N   0  3  1  0  0  0  0  0  0  0  0  0
  148.3965  131.9725  153.3385 C   0  0  0  0  0  0  0  0  0  0  0  0
  148.4414  130.6459  154.1220 C   0  0  0  0  0  0  0  0  0  0  0  0
  149.0579  129.5813  153.3388 N   0  0  0  0  0  0  0  0  0  0  0  0
  148.4011  128.5254  152.8365 C   0  0  0  0  0  0  0  0  0  0  0  0
  147.1942  128.3427  152.9991 O   0  0  0  0  0  0  0  0  0  0  0  0
  149.2267  127.7156  152.1505 N   0  0  0  0  0  0  0  0  0  0  0  0
  148.9126  126.5037  151.4798 C   0  0  0  0  0  0  0  0  0  0  0  0
  148.1381  125.5415  152.0053 N   0  0  0  0  0  0  0  0  0  0  0  0
  147.9927  124.4627  151.1428 N   0  0  0  0  0  0  0  0  0  0  0  0
  148.6619  124.6534  150.0022 C   0  0  0  0  0  0  0  0  0  0  0  0
  149.5352  126.1702  149.8702 S   0  0  0  0  0  0  0  0  0  0  0  0
  146.1734  131.1759  152.5820 C   0  0  0  0  0  0  0  0  0  0  0  0
  145.2257  131.0740  151.3752 C   0  0  0  0  0  0  0  0  0  0  0  0
  144.4126  131.8519  148.7916 H   0  0  0  0  0  0  0  0  0  0  0  0
  143.6456  133.3664  149.2624 H   0  0  0  0  0  0  0  0  0  0  0  0
  143.0090  131.8381  149.8564 H   0  0  0  0  0  0  0  0  0  0  0  0
  144.3069  132.9960  151.6256 H   0  0  0  0  0  0  0  0  0  0  0  0
  146.6599  132.7882  149.6954 H   0  0  0  0  0  0  0  0  0  0  0  0
  145.8834  134.2653  150.2129 H   0  0  0  0  0  0  0  0  0  0  0  0
  147.9765  133.8401  151.4812 H   0  0  0  0  0  0  0  0  0  0  0  0
  146.5943  133.8792  152.5587 H   0  0  0  0  0  0  0  0  0  0  0  0
  149.3892  132.1483  152.9214 H   0  0  0  0  0  0  0  0  0  0  0  0
  148.1884  132.8163  153.9983 H   0  0  0  0  0  0  0  0  0  0  0  0
  148.9822  130.7524  155.0626 H   0  0  0  0  0  0  0  0  0  0  0  0
  147.4294  130.3334  154.3807 H   0  0  0  0  0  0  0  0  0  0  0  0
  150.0482  129.6598  153.1578 H   0  0  0  0  0  0  0  0  0  0  0  0
  150.1946  127.9975  152.1009 H   0  0  0  0  0  0  0  0  0  0  0  0
  148.6408  123.8955  149.2331 H   0  0  0  0  0  0  0  0  0  0  0  0
  146.4339  130.1701  152.9089 H   0  0  0  0  0  0  0  0  0  0  0  0
  145.6624  131.6547  153.4191 H   0  0  0  0  0  0  0  0  0  0  0  0
  144.3258  130.5288  151.6625 H   0  0  0  0  0  0  0  0  0  0  0  0
  145.7020  130.4896  150.5866 H   0  0  0  0  0  0  0  0  0  0  0  0
  147.8392  131.4735  151.4636 H   0  0  0  0  0  0  0  0  0  0  0  0
  1  2  1  0  0  0  0
  1 19  1  0  0  0  0
  1 20  1  0  0  0  0
  1 21  1  0  0  0  0
  2 18  1  0  0  0  0
  2  3  1  0  0  0  0
  2 22  1  0  0  0  0
  3  4  1  0  0  0  0
  3 23  1  0  0  0  0
  3 24  1  0  0  0  0
  4  5  1  0  0  0  0
  4 25  1  0  0  0  0
  4 26  1  0  0  0  0
  5  6  1  0  0  0  0
  5 17  1  0  0  0  0
  5 38  1  0  0  0  0
  6  7  1  0  0  0  0
  6 27  1  0  0  0  0
  6 28  1  0  0  0  0
  7  8  1  0  0  0  0
  7 29  1  0  0  0  0
  7 30  1  0  0  0  0
  8  9  1  0  0  0  0
  8 31  1  0  0  0  0
  9 10  2  0  0  0  0
  9 11  1  0  0  0  0
 11 12  1  0  0  0  0
 11 32  1  0  0  0  0
 12 16  1  0  0  0  0
 12 13  2  0  0  0  0
 13 14  1  0  0  0  0
 14 15  2  0  0  0  0
 15 16  1  0  0  0  0
 15 33  1  0  0  0  0
 17 18  1  0  0  0  0
 17 34  1  0  0  0  0
 17 35  1  0  0  0  0
 18 36  1  0  0  0  0
 18 37  1  0  0  0  0
M  CHG  1   5   1
M  END
> <s_m_source_file>
AV-unprocessed.smi

> <i_m_source_file_index>
1661

> <i_lp_mmshare_version>
43012

> <i_f3d_flags>
0

> <s_epik_input>
W0NIM11bQ0hdMVtDSDJdW0NIMl1OKFtDSDJdW0NIMl0xKVtDSDJdW0NIMl1bTkhdQyg9TylbTkhdYzJubltjSF1zMg==

> <s_epik_cmdline>
J2VwaWtfcHl0aG9uJywgJy1waCcsICc3LjAnLCAnLXRuJywgJzgnLCAnLW1hJywgJzIwMCcsICctbWV0YWxfYmluZGluZycsICctaW1hZScsICc8aW5maWxlLm1hZT4nLCAnLW9tYWUnLCAnPG91dGZpbGUubWFlPic=

> <r_lp_tautomer_probability>
1

> <r_epik_Ionization_Penalty>
0.0053917

> <r_epik_Ionization_Penalty_Charging>
0.00168873

> <r_epik_Ionization_Penalty_Neutral>
0.00370297

> <r_epik_State_Penalty>
-0

> <r_epik_Charging_Adjusted_Penalty>
0.00168873

> <i_epik_Tot_Q>
1

> <i_epik_Tot_abs_Q>
1

> <r_epik_Metal_State_Penalty>
0.36997

> <b_epik_Metal_Only>
0

> <s_lp_Force_Field>
OPLS_2005

> <r_lp_Energy>
14.0049

> <b_lp_Chiralities_Consistent>
1

> <s_lp_Variant>
AV-unprocessed.smi:1661-1

> <Gold.Version>
5.8.1

> <Gold.Id.Protein>
6NUR|6NUR_protein|mol2

> <Gold.PLP.Fitness>
40.9287

> <Gold.PLP.PLP>
-36.2100

> <Gold.PLP.part.hbond>
-3.7988

> <Gold.PLP.part.metal>
0.0000

> <Gold.PLP.part.buried>
-4.5810

> <Gold.PLP.part.nonpolar>
-27.7094

> <Gold.PLP.part.repulsive>
0.2554

> <Gold.PLP.ligand.clash>
0.0000

> <Gold.PLP.ligand.torsion>
0.6489

> <Gold.PLP.Chemscore.Hbond>
2.0000

> <Gold.PLP.Chemscore.CHOScore>
0.0000

> <Gold.PLP.Chemscore.Metal>
0.0000

> <Gold.Chemscore.Hbonds>
donor molecule, donor type, donor heavy atom, donor atom, acceptor molecule, acceptor atom, score
      L1  H     5    38       P1 10747  1.00
      L1  H    11    32       P1 10737  1.00

> <Gold.PLP.Chemscore.Internal.Correction>
0.0165

> <Gold.Rescore>
     Score         DG    S(hbond)    S(metal)    S(lipo)     H(rot)  DE(clash)    DE(int)     intcor
     16.02     -16.76       1.98        0.00      77.19       1.70       0.10       0.64       ----

> <Gold.Chemscore.Fitness>
16.0163

> <Gold.Chemscore.DG>
-16.7581

> <Gold.Chemscore.ZeroCoef>
-5.4800

> <Gold.Chemscore.Hbond>
1.9793

> <Gold.Chemscore.Metal>
0.0000

> <Gold.Chemscore.Lipo>
77.1894

> <Gold.Chemscore.Internal_Hbond>
0.0000

> <Gold.Chemscore.DEClash>
0.1005

> <Gold.Chemscore.DEInternal>
0.6413

> <Gold.Chemscore.Rot>
1.7046

> <Gold.Chemscore.Internal.Correction>
   9.000000E+99

> <Gold.Chemscore.Hbonds>
donor molecule, donor type, donor heavy atom, donor atom, acceptor molecule, acceptor atom, score
      L1  H     5    38       P1 10747  1.00
      L1  H    11    32       P1 10737  0.97

> <Gold.Chemscore.Hbond.Weighted>
-6.6108

> <Gold.Chemscore.Metal.Weighted>
-0.0000

> <Gold.Chemscore.Lipo.Weighted>
-9.0312

> <Gold.Chemscore.Internal_Hbond.Weighted>
0.0000

> <Gold.Chemscore.DEClash.Weighted>
0.1005

> <Gold.Chemscore.DEInternal.Weighted>
0.6413

> <Gold.Chemscore.Rot.Weighted>
4.3638

> <Gold.Chemscore.Internal.Correction.Weighted>
   9.000000E+99

> <Gold.Protein.RotatedTorsions>
[ 6907 6896 6895 6894 ] final   87.94 input  -60.11 | X-H torsion
[ 7974 7965 7964 7962 ] final -169.00 input  175.53 | X-H torsion
[ 8008 7997 7996 7995 ] final -166.82 input   59.86 | X-H torsion
[ 10167 10162 10161 10158 ] final   18.98 input  -65.29 | X-H torsion
[ 10718 10713 10712 10709 ] final    1.60 input   66.30 | X-H torsion
[ 10763 10752 10751 10750 ] final  -38.54 input  -60.55 | X-H torsion
[ 11005 11000 10999 10996 ] final -103.00 input  -57.11 | X-H torsion

> <Gold.Protein.ActiveResidues>
 VAL166  LYS551  ARG553  GLY616  TRP617  ASP618  TYR619  PRO620  LYS621  CYS622 
 ASP623  PHE694  ASN695  SER759  ASP760  ASP761  ALA762  ILE779  LEU786  VAL792 
 PHE793  MET794  SER795  GLU796  ALA797  LYS798  CYS799  TRP800  GLU811  SER814 

> <Gold.Protein.RotatedAtoms>
  152.5418  134.2199  159.8783 H   0  0  0  0  0  0  0  0  0  0  0  0  # atno 6907 bound_to 6896
  151.2176  133.4513  159.2607 H   0  0  0  0  0  0  0  0  0  0  0  0  # atno 6908 bound_to 6896
  151.0836  134.9886  159.8424 H   0  0  0  0  0  0  0  0  0  0  0  0  # atno 6909 bound_to 6896
  144.7193  140.2286  143.6307 H   0  0  0  0  0  0  0  0  0  0  0  0  # atno 7974 bound_to 7965
  155.8692  140.0990  157.1562 H   0  0  0  0  0  0  0  0  0  0  0  0  # atno 8008 bound_to 7997
  154.3996  140.1350  156.4120 H   0  0  0  0  0  0  0  0  0  0  0  0  # atno 8009 bound_to 7997
  155.7770  140.3459  155.5279 H   0  0  0  0  0  0  0  0  0  0  0  0  # atno 8010 bound_to 7997
  140.5613  143.9332  150.6644 H   0  0  0  0  0  0  0  0  0  0  0  0  # atno 10167 bound_to 10162
  156.8506  130.5552  149.5670 H   0  0  0  0  0  0  0  0  0  0  0  0  # atno 10718 bound_to 10713
  153.9145  135.6789  153.4750 H   0  0  0  0  0  0  0  0  0  0  0  0  # atno 10763 bound_to 10752
  153.1061  135.4805  154.8951 H   0  0  0  0  0  0  0  0  0  0  0  0  # atno 10764 bound_to 10752
  154.7510  135.3185  154.8513 H   0  0  0  0  0  0  0  0  0  0  0  0  # atno 10765 bound_to 10752
  141.1165  133.8605  157.1431 H   0  0  0  0  0  0  0  0  0  0  0  0  # atno 11005 bound_to 11000
  145.8432  139.2140  143.1815 LP  0  0  0  0  0  0  0  0  0  0  0  0  # atno 17320 bound_to 7965
  146.0328  140.8242  142.9867 LP  0  0  0  0  0  0  0  0  0  0  0  0  # atno 17321 bound_to 7965
  140.2784  143.3407  152.1174 LP  0  0  0  0  0  0  0  0  0  0  0  0  # atno 17342 bound_to 10162
  139.5071  144.6826  151.5969 LP  0  0  0  0  0  0  0  0  0  0  0  0  # atno 17343 bound_to 10162
  156.0830  130.5836  150.9597 LP  0  0  0  0  0  0  0  0  0  0  0  0  # atno 17370 bound_to 10713
  157.6305  131.0921  150.8450 LP  0  0  0  0  0  0  0  0  0  0  0  0  # atno 17371 bound_to 10713
  140.0090  134.9996  157.0355 LP  0  0  0  0  0  0  0  0  0  0  0  0  # atno 17394 bound_to 11000
  140.4632  134.1463  155.7194 LP  0  0  0  0  0  0  0  0  0  0  0  0  # atno 17395 bound_to 11000

$$$$
