AV-unprocessed.smi:3248|AV-procd|sdf|12413|dock6
  -GOLD-   2272018293D 1   1.00000     0.00000
 Structure written by MMmdl.
 38 39  0  0  0  0  0  0  0  0  1 V2000
  150.2849  143.4345  158.5597 C   0  0  0  0  0  0  0  0  0  0  0  0
  150.8639  142.0188  158.4028 C   0  0  2  0  0  0  0  0  0  0  0  0
  152.3602  141.9297  158.7802 C   0  0  0  0  0  0  0  0  0  0  0  0
  152.6181  142.2482  160.1731 N   0  0  0  0  0  0  0  0  0  0  0  0
  153.3336  141.5201  161.1007 C   0  0  0  0  0  0  0  0  0  0  0  0
  153.2906  142.2089  162.2788 C   0  0  0  0  0  0  0  0  0  0  0  0
  152.5109  143.3586  161.9697 C   0  0  0  0  0  0  0  0  0  0  0  0
  152.1056  143.3766  160.7103 N   0  0  0  0  0  0  0  0  0  0  0  0
  150.6631  141.5709  157.0276 N   0  0  0  0  0  0  0  0  0  0  0  0
  149.4901  141.5589  156.3710 C   0  0  0  0  0  0  0  0  0  0  0  0
  148.4495  141.9834  156.8731 O   0  0  0  0  0  0  0  0  0  0  0  0
  149.6004  141.1507  155.0823 N   0  0  0  0  0  0  0  0  0  0  0  0
  150.5760  140.1213  154.6922 C   0  0  0  0  0  0  0  0  0  0  0  0
  149.8636  138.7545  154.6875 C   0  0  0  0  0  0  0  0  0  0  0  0
  148.7542  138.7884  153.7923 O   0  0  0  0  0  0  0  0  0  0  0  0
  147.8079  139.8099  154.1011 C   0  0  0  0  0  0  0  0  0  0  0  0
  148.5139  141.1806  154.0827 C   0  0  1  0  0  0  0  0  0  0  0  0
  147.5261  142.3600  154.2042 C   0  0  0  0  0  0  0  0  0  0  0  0
  150.3342  143.7746  159.5943 H   0  0  0  0  0  0  0  0  0  0  0  0
  149.2366  143.4638  158.2609 H   0  0  0  0  0  0  0  0  0  0  0  0
  150.8267  144.1549  157.9459 H   0  0  0  0  0  0  0  0  0  0  0  0
  150.2965  141.3606  159.0636 H   0  0  0  0  0  0  0  0  0  0  0  0
  152.7459  140.9278  158.5868 H   0  0  0  0  0  0  0  0  0  0  0  0
  152.9440  142.6115  158.1600 H   0  0  0  0  0  0  0  0  0  0  0  0
  153.8089  140.5836  160.8480 H   0  0  0  0  0  0  0  0  0  0  0  0
  153.7453  141.9331  163.2187 H   0  0  0  0  0  0  0  0  0  0  0  0
  152.2272  144.1735  162.6192 H   0  0  0  0  0  0  0  0  0  0  0  0
  151.4816  141.2500  156.5314 H   0  0  0  0  0  0  0  0  0  0  0  0
  150.9723  140.3440  153.7004 H   0  0  0  0  0  0  0  0  0  0  0  0
  151.4432  140.0746  155.3515 H   0  0  0  0  0  0  0  0  0  0  0  0
  150.5508  137.9715  154.3668 H   0  0  0  0  0  0  0  0  0  0  0  0
  149.5230  138.4896  155.6899 H   0  0  0  0  0  0  0  0  0  0  0  0
  147.0121  139.7806  153.3566 H   0  0  0  0  0  0  0  0  0  0  0  0
  147.3470  139.6153  155.0709 H   0  0  0  0  0  0  0  0  0  0  0  0
  148.9840  141.2992  153.1049 H   0  0  0  0  0  0  0  0  0  0  0  0
  146.8955  142.4198  153.3168 H   0  0  0  0  0  0  0  0  0  0  0  0
  148.0523  143.3109  154.2936 H   0  0  0  0  0  0  0  0  0  0  0  0
  146.8557  142.2573  155.0570 H   0  0  0  0  0  0  0  0  0  0  0  0
  1  2  1  0  0  0  0
  1 19  1  0  0  0  0
  1 20  1  0  0  0  0
  1 21  1  0  0  0  0
  2  3  1  0  0  0  0
  2  9  1  0  0  0  0
  2 22  1  0  0  0  0
  3  4  1  0  0  0  0
  3 23  1  0  0  0  0
  3 24  1  0  0  0  0
  4  8  1  0  0  0  0
  4  5  1  0  0  0  0
  5  6  2  0  0  0  0
  5 25  1  0  0  0  0
  6  7  1  0  0  0  0
  6 26  1  0  0  0  0
  7  8  2  0  0  0  0
  7 27  1  0  0  0  0
  9 10  1  0  0  0  0
  9 28  1  0  0  0  0
 10 11  2  0  0  0  0
 10 12  1  0  0  0  0
 12 17  1  0  0  0  0
 12 13  1  0  0  0  0
 13 14  1  0  0  0  0
 13 29  1  0  0  0  0
 13 30  1  0  0  0  0
 14 15  1  0  0  0  0
 14 31  1  0  0  0  0
 14 32  1  0  0  0  0
 15 16  1  0  0  0  0
 16 17  1  0  0  0  0
 16 33  1  0  0  0  0
 16 34  1  0  0  0  0
 17 18  1  0  0  0  0
 17 35  1  0  0  0  0
 18 36  1  0  0  0  0
 18 37  1  0  0  0  0
 18 38  1  0  0  0  0
M  END
> <s_m_source_file>
AV-unprocessed.smi

> <i_m_source_file_index>
3248

> <i_lp_mmshare_version>
43012

> <i_f3d_flags>
0

> <s_epik_input>
bjFbY0hdW2NIXVtjSF1uMVtDSDJdW0NAQEhdKFtDSDNdKVtOSF1DKD1PKU4yW0NIMl1bQ0gyXU9bQ0gyXVtDQEhdMltDSDNd

> <s_epik_cmdline>
J2VwaWtfcHl0aG9uJywgJy1waCcsICc3LjAnLCAnLXRuJywgJzgnLCAnLW1hJywgJzIwMCcsICctbWV0YWxfYmluZGluZycsICctaW1hZScsICc8aW5maWxlLm1hZT4nLCAnLW9tYWUnLCAnPG91dGZpbGUubWFlPic=

> <r_lp_tautomer_probability>
1

> <r_epik_Ionization_Penalty>
4.45233e-05

> <r_epik_Ionization_Penalty_Charging>
0

> <r_epik_Ionization_Penalty_Neutral>
4.45233e-05

> <r_epik_State_Penalty>
-0

> <r_epik_Charging_Adjusted_Penalty>
0

> <i_epik_Tot_Q>
0

> <i_epik_Tot_abs_Q>
0

> <r_epik_Metal_State_Penalty>
-0

> <b_epik_Metal_Only>
0

> <s_lp_Force_Field>
OPLS_2005

> <r_lp_Energy>
31.5175

> <b_lp_Chiralities_Consistent>
1

> <s_lp_Variant>
AV-unprocessed.smi:3248-1

> <Gold.Version>
5.8.1

> <Gold.Id.Protein>
6NUR|6NUR_protein|mol2

> <Gold.PLP.Fitness>
38.3210

> <Gold.PLP.PLP>
-38.5451

> <Gold.PLP.part.hbond>
0.0000

> <Gold.PLP.part.metal>
0.0000

> <Gold.PLP.part.buried>
-2.8859

> <Gold.PLP.part.nonpolar>
-36.7969

> <Gold.PLP.part.repulsive>
1.2098

> <Gold.PLP.ligand.clash>
0.0000

> <Gold.PLP.ligand.torsion>
0.3351

> <Gold.PLP.Chemscore.Hbond>
0.0000

> <Gold.PLP.Chemscore.CHOScore>
0.0000

> <Gold.PLP.Chemscore.Metal>
0.0000

> <Gold.PLP.Chemscore.Internal.Correction>
0.4461

> <Gold.Rescore>
     Score         DG    S(hbond)    S(metal)    S(lipo)     H(rot)  DE(clash)    DE(int)     intcor
      8.77     -12.14       0.00        0.00      88.01       1.42       0.22       3.15       ----

> <Gold.Chemscore.Fitness>
8.7675

> <Gold.Chemscore.DG>
-12.1444

> <Gold.Chemscore.ZeroCoef>
-5.4800

> <Gold.Chemscore.Hbond>
0.0000

> <Gold.Chemscore.Metal>
0.0000

> <Gold.Chemscore.Lipo>
88.0122

> <Gold.Chemscore.Internal_Hbond>
0.0000

> <Gold.Chemscore.DEClash>
0.2230

> <Gold.Chemscore.DEInternal>
3.1539

> <Gold.Chemscore.Rot>
1.4191

> <Gold.Chemscore.Internal.Correction>
   9.000000E+99

> <Gold.Chemscore.Hbond.Weighted>
-0.0000

> <Gold.Chemscore.Metal.Weighted>
-0.0000

> <Gold.Chemscore.Lipo.Weighted>
-10.2974

> <Gold.Chemscore.Internal_Hbond.Weighted>
0.0000

> <Gold.Chemscore.DEClash.Weighted>
0.2230

> <Gold.Chemscore.DEInternal.Weighted>
3.1539

> <Gold.Chemscore.Rot.Weighted>
3.6330

> <Gold.Chemscore.Internal.Correction.Weighted>
   9.000000E+99

> <Gold.Protein.RotatedTorsions>
[ 6907 6896 6895 6894 ] final  120.19 input  -60.11 | X-H torsion
[ 7974 7965 7964 7962 ] final  -42.18 input  175.53 | X-H torsion
[ 8008 7997 7996 7995 ] final  117.18 input   59.86 | X-H torsion
[ 10167 10162 10161 10158 ] final  -31.84 input  -65.29 | X-H torsion
[ 10718 10713 10712 10709 ] final  128.02 input   66.30 | X-H torsion
[ 10763 10752 10751 10750 ] final -106.65 input  -60.55 | X-H torsion
[ 11005 11000 10999 10996 ] final  -92.05 input  -57.11 | X-H torsion

> <Gold.Protein.ActiveResidues>
 VAL166  LYS551  ARG553  GLY616  TRP617  ASP618  TYR619  PRO620  LYS621  CYS622 
 ASP623  PHE694  ASN695  SER759  ASP760  ASP761  ALA762  ILE779  LEU786  VAL792 
 PHE793  MET794  SER795  GLU796  ALA797  LYS798  CYS799  TRP800  GLU811  SER814 

> <Gold.Protein.RotatedAtoms>
  152.4416  133.7459  159.6666 H   0  0  0  0  0  0  0  0  0  0  0  0  # atno 6907 bound_to 6896
  150.8308  133.8084  159.3105 H   0  0  0  0  0  0  0  0  0  0  0  0  # atno 6908 bound_to 6896
  151.5739  135.1064  160.0053 H   0  0  0  0  0  0  0  0  0  0  0  0  # atno 6909 bound_to 6896
  146.0141  140.6929  142.9210 H   0  0  0  0  0  0  0  0  0  0  0  0  # atno 7974 bound_to 7965
  156.2480  140.2901  156.0639 H   0  0  0  0  0  0  0  0  0  0  0  0  # atno 8008 bound_to 7997
  155.1746  140.0402  157.2887 H   0  0  0  0  0  0  0  0  0  0  0  0  # atno 8009 bound_to 7997
  154.6302  140.2497  155.7450 H   0  0  0  0  0  0  0  0  0  0  0  0  # atno 8010 bound_to 7997
  140.7230  143.3740  151.1725 H   0  0  0  0  0  0  0  0  0  0  0  0  # atno 10167 bound_to 10162
  157.5282  131.1098  150.9051 H   0  0  0  0  0  0  0  0  0  0  0  0  # atno 10718 bound_to 10713
  154.8026  135.4704  154.0312 H   0  0  0  0  0  0  0  0  0  0  0  0  # atno 10763 bound_to 10752
  153.1806  135.6840  153.8490 H   0  0  0  0  0  0  0  0  0  0  0  0  # atno 10764 bound_to 10752
  153.8041  135.3226  155.3371 H   0  0  0  0  0  0  0  0  0  0  0  0  # atno 10765 bound_to 10752
  141.1531  133.7795  156.9965 H   0  0  0  0  0  0  0  0  0  0  0  0  # atno 11005 bound_to 11000
  144.6964  140.3450  143.7192 LP  0  0  0  0  0  0  0  0  0  0  0  0  # atno 17320 bound_to 7965
  145.7296  139.1732  143.2438 LP  0  0  0  0  0  0  0  0  0  0  0  0  # atno 17321 bound_to 7965
  139.7316  143.9063  152.3021 LP  0  0  0  0  0  0  0  0  0  0  0  0  # atno 17342 bound_to 10162
  139.8854  144.6995  150.8830 LP  0  0  0  0  0  0  0  0  0  0  0  0  # atno 17343 bound_to 10162
  156.9640  130.5466  149.5287 LP  0  0  0  0  0  0  0  0  0  0  0  0  # atno 17370 bound_to 10713
  156.0402  130.5485  150.8753 LP  0  0  0  0  0  0  0  0  0  0  0  0  # atno 17371 bound_to 10713
  140.0968  134.9559  157.1862 LP  0  0  0  0  0  0  0  0  0  0  0  0  # atno 17394 bound_to 11000
  140.3372  134.2744  155.7218 LP  0  0  0  0  0  0  0  0  0  0  0  0  # atno 17395 bound_to 11000

$$$$
