AV-unprocessed.smi:716|AV-procd|sdf|3489|dock4
  -GOLD-   22720 0483D 1   1.00000     0.00000
 Structure written by MMmdl.
 48 50  0  0  0  0  0  0  0  0  1 V2000
  142.7461  139.8223  157.3561 C   0  0  0  0  0  0  0  0  0  0  0  0
  143.4337  140.8638  156.4708 C   0  0  0  0  0  0  0  0  0  0  0  0
  144.7605  140.4373  156.2095 O   0  0  0  0  0  0  0  0  0  0  0  0
  145.5355  141.4129  155.5241 C   0  0  1  0  0  0  0  0  0  0  0  0
  146.2487  142.3635  156.4953 C   0  0  0  0  0  0  0  0  0  0  0  0
  147.3951  141.3500  156.5059 C   0  0  2  0  0  0  0  0  0  0  0  0
  148.7047  141.9893  156.5328 N   0  0  0  0  0  0  0  0  0  0  0  0
  149.8492  141.3587  156.8317 C   0  0  0  0  0  0  0  0  0  0  0  0
  149.8969  140.1870  157.2069 O   0  0  0  0  0  0  0  0  0  0  0  0
  151.1347  142.1792  156.6729 C   0  0  0  0  0  0  0  0  0  0  0  0
  151.7967  142.3972  157.9658 N   0  0  0  0  0  0  0  0  0  0  0  0
  151.5921  143.6654  158.4865 N   0  0  0  0  0  0  0  0  0  0  0  0
  152.1531  144.0323  159.5912 C   0  0  0  0  0  0  0  0  0  0  0  0
  151.8921  145.4302  160.0692 C   0  0  0  0  0  0  0  0  0  0  0  0
  152.9961  143.0953  160.3088 C   0  0  0  0  0  0  0  0  0  0  0  0
  153.1905  141.8586  159.8027 C   0  0  0  0  0  0  0  0  0  0  0  0
  152.5762  141.4364  158.5454 C   0  0  0  0  0  0  0  0  0  0  0  0
  152.7504  140.3228  158.0513 O   0  0  0  0  0  0  0  0  0  0  0  0
  146.9305  140.8855  155.1010 C   0  0  0  0  0  0  0  0  0  0  0  0
  147.5300  141.5386  153.8477 C   0  0  0  0  0  0  0  0  0  0  0  0
  147.1081  140.6799  152.6527 C   0  0  0  0  0  0  0  0  0  0  0  0
  146.7944  139.2962  153.2308 C   0  0  0  0  0  0  0  0  0  0  0  0
  147.0566  139.4078  154.7349 C   0  0  0  0  0  0  0  0  0  0  0  0
  141.7192  140.1149  157.5762 H   0  0  0  0  0  0  0  0  0  0  0  0
  143.2717  139.7065  158.3044 H   0  0  0  0  0  0  0  0  0  0  0  0
  142.7188  138.8486  156.8663 H   0  0  0  0  0  0  0  0  0  0  0  0
  142.8865  140.9758  155.5337 H   0  0  0  0  0  0  0  0  0  0  0  0
  143.4331  141.8333  156.9707 H   0  0  0  0  0  0  0  0  0  0  0  0
  144.9936  141.9079  154.7161 H   0  0  0  0  0  0  0  0  0  0  0  0
  146.5103  143.3181  156.0348 H   0  0  0  0  0  0  0  0  0  0  0  0
  145.7598  142.5035  157.4595 H   0  0  0  0  0  0  0  0  0  0  0  0
  147.2539  140.5828  157.2711 H   0  0  0  0  0  0  0  0  0  0  0  0
  148.7510  142.9568  156.2468 H   0  0  0  0  0  0  0  0  0  0  0  0
  151.8231  141.6649  155.9990 H   0  0  0  0  0  0  0  0  0  0  0  0
  150.8914  143.1197  156.1764 H   0  0  0  0  0  0  0  0  0  0  0  0
  152.5041  145.6710  160.9387 H   0  0  0  0  0  0  0  0  0  0  0  0
  150.8460  145.5538  160.3509 H   0  0  0  0  0  0  0  0  0  0  0  0
  152.1212  146.1574  159.2894 H   0  0  0  0  0  0  0  0  0  0  0  0
  153.4594  143.3915  161.2385 H   0  0  0  0  0  0  0  0  0  0  0  0
  153.8185  141.1620  160.3380 H   0  0  0  0  0  0  0  0  0  0  0  0
  147.2173  142.5755  153.7207 H   0  0  0  0  0  0  0  0  0  0  0  0
  148.6192  141.5434  153.8992 H   0  0  0  0  0  0  0  0  0  0  0  0
  146.2159  141.0963  152.1834 H   0  0  0  0  0  0  0  0  0  0  0  0
  147.8909  140.6402  151.8944 H   0  0  0  0  0  0  0  0  0  0  0  0
  145.7476  139.0491  153.0497 H   0  0  0  0  0  0  0  0  0  0  0  0
  147.4016  138.5129  152.7759 H   0  0  0  0  0  0  0  0  0  0  0  0
  148.0685  139.0612  154.9477 H   0  0  0  0  0  0  0  0  0  0  0  0
  146.3864  138.7645  155.3047 H   0  0  0  0  0  0  0  0  0  0  0  0
  1  2  1  0  0  0  0
  1 24  1  0  0  0  0
  1 25  1  0  0  0  0
  1 26  1  0  0  0  0
  2  3  1  0  0  0  0
  2 27  1  0  0  0  0
  2 28  1  0  0  0  0
  3  4  1  0  0  0  0
  4 19  1  0  0  0  0
  4  5  1  0  0  0  0
  4 29  1  0  0  0  0
  5  6  1  0  0  0  0
  5 30  1  0  0  0  0
  5 31  1  0  0  0  0
  6  7  1  0  0  0  0
  6 19  1  0  0  0  0
  6 32  1  0  0  0  0
  7  8  1  0  0  0  0
  7 33  1  0  0  0  0
  8  9  2  0  0  0  0
  8 10  1  0  0  0  0
 10 11  1  0  0  0  0
 10 34  1  0  0  0  0
 10 35  1  0  0  0  0
 11 17  1  0  0  0  0
 11 12  1  0  0  0  0
 12 13  2  0  0  0  0
 13 14  1  0  0  0  0
 13 15  1  0  0  0  0
 14 36  1  0  0  0  0
 14 37  1  0  0  0  0
 14 38  1  0  0  0  0
 15 16  2  0  0  0  0
 15 39  1  0  0  0  0
 16 17  1  0  0  0  0
 16 40  1  0  0  0  0
 17 18  2  0  0  0  0
 19 23  1  0  0  0  0
 19 20  1  0  0  0  0
 20 21  1  0  0  0  0
 20 41  1  0  0  0  0
 20 42  1  0  0  0  0
 21 22  1  0  0  0  0
 21 43  1  0  0  0  0
 21 44  1  0  0  0  0
 22 23  1  0  0  0  0
 22 45  1  0  0  0  0
 22 46  1  0  0  0  0
 23 47  1  0  0  0  0
 23 48  1  0  0  0  0
M  END
> <s_m_source_file>
AV-unprocessed.smi

> <i_m_source_file_index>
716

> <i_lp_mmshare_version>
43012

> <i_f3d_flags>
0

> <s_epik_input>
W0NIMl0xW0NIMl1bQ0gyXVtDSDJdQzEyW0NASF0oT1tDSDJdW0NIM10pW0NIMl1bQ0BIXTJbTkhdQyg9TylbQ0gyXW4zbmMoW0NIM10pW2NIXVtjSF1jMz1P

> <s_epik_cmdline>
J2VwaWtfcHl0aG9uJywgJy1waCcsICc3LjAnLCAnLXRuJywgJzgnLCAnLW1hJywgJzIwMCcsICctbWV0YWxfYmluZGluZycsICctaW1hZScsICc8aW5maWxlLm1hZT4nLCAnLW9tYWUnLCAnPG91dGZpbGUubWFlPic=

> <r_lp_tautomer_probability>
1

> <r_epik_Ionization_Penalty>
4.75561e-08

> <r_epik_Ionization_Penalty_Charging>
2.86617e-08

> <r_epik_Ionization_Penalty_Neutral>
1.88944e-08

> <r_epik_State_Penalty>
-0

> <r_epik_Charging_Adjusted_Penalty>
2.86617e-08

> <i_epik_Tot_Q>
0

> <i_epik_Tot_abs_Q>
0

> <r_epik_Metal_State_Penalty>
-0

> <b_epik_Metal_Only>
0

> <s_lp_Force_Field>
OPLS_2005

> <r_lp_Energy>
50.6956

> <b_lp_Chiralities_Consistent>
1

> <s_lp_Variant>
AV-unprocessed.smi:716-4

> <Gold.Version>
5.8.1

> <Gold.Id.Protein>
6NUR|6NUR_protein|mol2

> <Gold.PLP.Fitness>
41.1478

> <Gold.PLP.PLP>
-37.5784

> <Gold.PLP.part.hbond>
-1.9347

> <Gold.PLP.part.metal>
0.0000

> <Gold.PLP.part.buried>
-4.9150

> <Gold.PLP.part.nonpolar>
-29.8047

> <Gold.PLP.part.repulsive>
0.1651

> <Gold.PLP.ligand.clash>
0.0000

> <Gold.PLP.ligand.torsion>
0.7563

> <Gold.PLP.Chemscore.Hbond>
1.5577

> <Gold.PLP.Chemscore.CHOScore>
0.0000

> <Gold.PLP.Chemscore.Metal>
0.0000

> <Gold.Chemscore.Hbonds>
donor molecule, donor type, donor heavy atom, donor atom, acceptor molecule, acceptor atom, score
      L1  H     7    33       P1  8028  1.00
      P1  H  7997  8009       L1    18  0.77

> <Gold.PLP.Chemscore.Internal.Correction>
0.4089

> <Gold.Rescore>
     Score         DG    S(hbond)    S(metal)    S(lipo)     H(rot)  DE(clash)    DE(int)     intcor
     16.44     -17.51       1.82        0.00      88.91       1.73       0.24       0.83       ----

> <Gold.Chemscore.Fitness>
16.4363

> <Gold.Chemscore.DG>
-17.5109

> <Gold.Chemscore.ZeroCoef>
-5.4800

> <Gold.Chemscore.Hbond>
1.8173

> <Gold.Chemscore.Metal>
0.0000

> <Gold.Chemscore.Lipo>
88.9077

> <Gold.Chemscore.Internal_Hbond>
0.0000

> <Gold.Chemscore.DEClash>
0.2450

> <Gold.Chemscore.DEInternal>
0.8296

> <Gold.Chemscore.Rot>
1.7348

> <Gold.Chemscore.Internal.Correction>
   9.000000E+99

> <Gold.Chemscore.Hbonds>
donor molecule, donor type, donor heavy atom, donor atom, acceptor molecule, acceptor atom, score
      L1  H     7    33       P1  8028  0.99
      P1  H  7997  8009       L1    18  0.69

> <Gold.Chemscore.Hbond.Weighted>
-6.0698

> <Gold.Chemscore.Metal.Weighted>
-0.0000

> <Gold.Chemscore.Lipo.Weighted>
-10.4022

> <Gold.Chemscore.Internal_Hbond.Weighted>
0.0000

> <Gold.Chemscore.DEClash.Weighted>
0.2450

> <Gold.Chemscore.DEInternal.Weighted>
0.8296

> <Gold.Chemscore.Rot.Weighted>
4.4411

> <Gold.Chemscore.Internal.Correction.Weighted>
   9.000000E+99

> <Gold.Protein.RotatedTorsions>
[ 6907 6896 6895 6894 ] final  104.07 input  -60.11 | X-H torsion
[ 7974 7965 7964 7962 ] final -171.03 input  175.53 | X-H torsion
[ 8008 7997 7996 7995 ] final  164.27 input   59.86 | X-H torsion
[ 10167 10162 10161 10158 ] final    1.41 input  -65.29 | X-H torsion
[ 10718 10713 10712 10709 ] final   41.39 input   66.30 | X-H torsion
[ 10763 10752 10751 10750 ] final -158.48 input  -60.55 | X-H torsion
[ 11005 11000 10999 10996 ] final   26.65 input  -57.11 | X-H torsion

> <Gold.Protein.ActiveResidues>
 VAL166  LYS551  ARG553  GLY616  TRP617  ASP618  TYR619  PRO620  LYS621  CYS622 
 ASP623  PHE694  ASN695  SER759  ASP760  ASP761  ALA762  ILE779  LEU786  VAL792 
 PHE793  MET794  SER795  GLU796  ALA797  LYS798  CYS799  TRP800  GLU811  SER814 

> <Gold.Protein.RotatedAtoms>
  152.5276  133.9731  159.7770 H   0  0  0  0  0  0  0  0  0  0  0  0  # atno 6907 bound_to 6896
  150.9999  133.6058  159.2703 H   0  0  0  0  0  0  0  0  0  0  0  0  # atno 6908 bound_to 6896
  151.3171  135.0815  159.9346 H   0  0  0  0  0  0  0  0  0  0  0  0  # atno 6909 bound_to 6896
  144.7162  140.1982  143.6341 H   0  0  0  0  0  0  0  0  0  0  0  0  # atno 7974 bound_to 7965
  156.1893  140.1701  156.8124 H   0  0  0  0  0  0  0  0  0  0  0  0  # atno 8008 bound_to 7997
  154.5451  140.0729  156.8608 H   0  0  0  0  0  0  0  0  0  0  0  0  # atno 8009 bound_to 7997
  155.3137  140.3369  155.4245 H   0  0  0  0  0  0  0  0  0  0  0  0  # atno 8010 bound_to 7997
  140.6684  143.7117  150.7873 H   0  0  0  0  0  0  0  0  0  0  0  0  # atno 10167 bound_to 10162
  157.3930  130.7817  149.7285 H   0  0  0  0  0  0  0  0  0  0  0  0  # atno 10718 bound_to 10713
  154.7553  135.3103  154.8481 H   0  0  0  0  0  0  0  0  0  0  0  0  # atno 10763 bound_to 10752
  153.9257  135.6791  153.4751 H   0  0  0  0  0  0  0  0  0  0  0  0  # atno 10764 bound_to 10752
  153.1150  135.4848  154.9030 H   0  0  0  0  0  0  0  0  0  0  0  0  # atno 10765 bound_to 10752
  140.3348  134.2398  155.7697 H   0  0  0  0  0  0  0  0  0  0  0  0  # atno 11005 bound_to 11000
  145.8704  139.2269  143.1664 LP  0  0  0  0  0  0  0  0  0  0  0  0  # atno 17320 bound_to 7965
  146.0090  140.8453  142.9980 LP  0  0  0  0  0  0  0  0  0  0  0  0  # atno 17321 bound_to 7965
  140.0798  143.4980  152.2536 LP  0  0  0  0  0  0  0  0  0  0  0  0  # atno 17342 bound_to 10162
  139.5942  144.7561  151.3327 LP  0  0  0  0  0  0  0  0  0  0  0  0  # atno 17343 bound_to 10162
  155.9803  130.4031  150.3535 LP  0  0  0  0  0  0  0  0  0  0  0  0  # atno 17370 bound_to 10713
  157.1654  131.0355  151.2821 LP  0  0  0  0  0  0  0  0  0  0  0  0  # atno 17371 bound_to 10713
  141.2054  133.7861  157.0234 LP  0  0  0  0  0  0  0  0  0  0  0  0  # atno 17394 bound_to 11000
  140.0830  134.9637  157.1655 LP  0  0  0  0  0  0  0  0  0  0  0  0  # atno 17395 bound_to 11000

$$$$
