#       Name:                AV-unprocessed.smi:3328
#       Creating user name   scv26
#       Creation time:       Fri Mar 27 19:14:38 2020


#       File generated by GOLD software.
#

@<TRIPOS>MOLECULE
AV-unprocessed.smi:3328
    44    45     1
SMALL
NO_CHARGES


@<TRIPOS>ATOM
      1 ****        -2.0319   1.4207   4.8135 C.3            1 S1                 0.0000
      2 ****        -1.7893   0.2334   3.9270 C.2            1 S1                 0.0000
      3 ****        -0.8043  -0.7841   4.0762 C.2            1 S1                 0.0000
      4 ****        -0.8579  -1.6968   3.1201 N.2            1 S1                 0.0000
      5 ****        -1.8718  -1.2931   2.3252 N.pl3          1 S1                 0.0000
      6 ****        -2.2259  -2.0687   1.1487 C.3            1 S1                 0.0000
      7 ****        -1.7747  -1.3919  -0.1613 C.3            1 S1                 0.0000
      8 ****        -2.3390  -2.1334  -1.3861 C.3            1 S1                 0.0000
      9 ****        -0.3163  -1.3815  -0.2116 N.3            1 S1                 0.0000
     10 ****         0.2009  -0.3658  -1.1153 C.3            1 S1                 0.0000
     11 ****         1.7361  -0.3850  -1.0765 C.3            1 S1                 0.0000
     12 ****         2.3025   0.6343  -1.9546 N.am           1 S1                 0.0000
     13 ****         2.9119   1.8328  -1.4039 C.3            1 S1                 0.0000
     14 ****         3.1955   2.7293  -2.6180 C.3            1 S1                 0.0000
     15 ****         3.0451   1.8262  -3.8472 C.3            1 S1                 0.0000
     16 ****         2.3715   0.5836  -3.2902 C.2            1 S1                 0.0000
     17 ****         1.9580  -0.3283  -4.0046 O.2            1 S1                 0.0000
     18 ****        -2.4539  -0.1335   2.7911 C.2            1 S1                 0.0000
     19 ****        -1.2239   1.5625   5.5316 H              1 S1                 0.0000
     20 ****        -2.9541   1.3131   5.3845 H              1 S1                 0.0000
     21 ****        -2.1146   2.3427   4.2377 H              1 S1                 0.0000
     22 ****        -0.0566  -0.8860   4.8489 H              1 S1                 0.0000
     23 ****        -1.8050  -3.0723   1.2343 H              1 S1                 0.0000
     24 ****        -3.3101  -2.1880   1.1507 H              1 S1                 0.0000
     25 ****        -2.1450  -0.3657  -0.1616 H              1 S1                 0.0000
     26 ****        -3.4269  -2.1874  -1.3383 H              1 S1                 0.0000
     27 ****        -1.9612  -3.1549  -1.4421 H              1 S1                 0.0000
     28 ****        -2.0871  -1.6323  -2.3203 H              1 S1                 0.0000
     29 ****         0.0317  -2.2953  -0.4651 H              1 S1                 0.0000
     30 ****        -0.1493  -0.5499  -2.1305 H              1 S1                 0.0000
     31 ****        -0.1677   0.6152  -0.8127 H              1 S1                 0.0000
     32 ****         2.0869  -0.2176  -0.0569 H              1 S1                 0.0000
     33 ****         2.1112  -1.3653  -1.3754 H              1 S1                 0.0000
     34 ****         2.2517   2.3204  -0.6855 H              1 S1                 0.0000
     35 ****         3.8365   1.5635  -0.8917 H              1 S1                 0.0000
     36 ****         2.4666   3.5396  -2.6633 H              1 S1                 0.0000
     37 ****         4.1861   3.1820  -2.5627 H              1 S1                 0.0000
     38 ****         2.4429   2.2902  -4.6289 H              1 S1                 0.0000
     39 ****         4.0155   1.5563  -4.2648 H              1 S1                 0.0000
     40 ****        -3.2837   0.3310   2.2790 H              1 S1                 0.0000
     41 ****        -0.2780  -2.5041   3.0107 LP             1 S1                 0.0000
     42 ****         0.0108  -1.1482   0.7041 LP             1 S1                 0.0000
     43 ****         1.5216  -1.1280  -3.5921 LP             1 S1                 0.0000
     44 ****         2.0582  -0.2700  -4.9978 LP             1 S1                 0.0000
@<TRIPOS>BOND
    1    1    2 1     
    2    1   19 1     
    3    1   20 1     
    4    1   21 1     
    5    2   18 2     
    6    2    3 1     
    7    3    4 2     
    8    3   22 1     
    9    4    5 1     
   10    5    6 1     
   11    5   18 1     
   12    6    7 1     
   13    6   23 1     
   14    6   24 1     
   15    7    8 1     
   16    7    9 1     
   17    7   25 1     
   18    8   26 1     
   19    8   27 1     
   20    8   28 1     
   21    9   10 1     
   22    9   29 1     
   23   10   11 1     
   24   10   30 1     
   25   10   31 1     
   26   11   12 1     
   27   11   32 1     
   28   11   33 1     
   29   12   16 am    
   30   12   13 1     
   31   13   14 1     
   32   13   34 1     
   33   13   35 1     
   34   14   15 1     
   35   14   36 1     
   36   14   37 1     
   37   15   16 1     
   38   15   38 1     
   39   15   39 1     
   40   16   17 2     
   41   18   40 1     
   42    4   41 1     
   43    9   42 1     
   44   17   43 1     
   45   17   44 1     
@<TRIPOS>SUBSTRUCTURE
      1 S1             1
@<TRIPOS>SET
LONE_PAIRS      STATIC     ATOMS    <user>   **** ""
4 41 42 43 44
DONOR_HYDROGENS      STATIC     ATOMS    <user>   **** ""
1 29
ATOM$BLUE        STATIC     ATOMS    COLORGROUP SYSTEM
4 41 42 43 44
ATOM$RED        STATIC     ATOMS    COLORGROUP SYSTEM
1 29
