AV-unprocessed.smi:557|AV-procd|sdf|2915|dock6
  -GOLD-   2262023403D 1   1.00000     0.00000
 Structure written by MMmdl.
 47 49  0  0  0  0  0  0  0  0  2 V2000
  153.0182  138.3823  154.5629 C   0  0  0  0  0  0  0  0  0  0  0  0
  151.7074  138.9904  154.6394 N   0  0  0  0  0  0  0  0  0  0  0  0
  150.5178  138.5425  154.1064 C   0  0  0  0  0  0  0  0  0  0  0  0
  149.5518  139.4493  154.4410 C   0  0  0  0  0  0  0  0  0  0  0  0
  148.0870  139.4331  154.1047 C   0  0  0  0  0  0  0  0  0  0  0  0
  147.3958  138.1827  154.6642 C   0  0  0  0  0  0  0  0  0  0  0  0
  147.1726  137.2018  153.6055 N   0  0  0  0  0  0  0  0  0  0  0  0
  146.1645  136.3180  153.5150 C   0  0  0  0  0  0  0  0  0  0  0  0
  145.2838  136.2449  154.3697 O   0  0  0  0  0  0  0  0  0  0  0  0
  146.2079  135.5306  152.4270 N   0  0  0  0  0  0  0  0  0  0  0  0
  145.2346  134.4935  152.0988 C   0  0  1  0  0  0  0  0  0  0  0  0
  144.5190  134.7478  150.7603 C   0  0  0  0  0  0  0  0  0  0  0  0
  144.3532  133.3582  150.1144 C   0  0  0  0  0  0  0  0  0  0  0  0
  144.8645  132.3995  151.1121 N   0  3  1  0  0  0  0  0  0  0  0  0
  145.3417  131.0932  150.6084 C   0  0  0  0  0  0  0  0  0  0  0  0
  145.7496  130.2067  151.8022 C   0  0  0  0  0  0  0  0  0  0  0  0
  146.7604  130.9192  152.7240 C   0  0  0  0  0  0  0  0  0  0  0  0
  146.2506  132.3130  153.1383 C   0  0  0  0  0  0  0  0  0  0  0  0
  145.8860  133.1245  151.8833 C   0  0  2  0  0  0  0  0  0  0  0  0
  150.2636  140.4282  155.1916 C   0  0  0  0  0  0  0  0  0  0  0  0
  151.5521  140.1519  155.3071 N   0  0  0  0  0  0  0  0  0  0  0  0
  152.9709  137.4624  153.9796 H   0  0  0  0  0  0  0  0  0  0  0  0
  153.3745  138.1478  155.5664 H   0  0  0  0  0  0  0  0  0  0  0  0
  153.7174  139.0697  154.0856 H   0  0  0  0  0  0  0  0  0  0  0  0
  150.4570  137.6259  153.5385 H   0  0  0  0  0  0  0  0  0  0  0  0
  147.5956  140.3241  154.4976 H   0  0  0  0  0  0  0  0  0  0  0  0
  147.9468  139.4698  153.0237 H   0  0  0  0  0  0  0  0  0  0  0  0
  148.0116  137.7367  155.4472 H   0  0  0  0  0  0  0  0  0  0  0  0
  146.4409  138.4579  155.1155 H   0  0  0  0  0  0  0  0  0  0  0  0
  147.8598  137.1853  152.8654 H   0  0  0  0  0  0  0  0  0  0  0  0
  146.9698  135.6648  151.7781 H   0  0  0  0  0  0  0  0  0  0  0  0
  144.4779  134.4173  152.8829 H   0  0  0  0  0  0  0  0  0  0  0  0
  143.5585  135.2401  150.9163 H   0  0  0  0  0  0  0  0  0  0  0  0
  145.1120  135.3883  150.1059 H   0  0  0  0  0  0  0  0  0  0  0  0
  143.3157  133.1368  149.8626 H   0  0  0  0  0  0  0  0  0  0  0  0
  144.9446  133.2986  149.1994 H   0  0  0  0  0  0  0  0  0  0  0  0
  144.5504  130.6107  150.0336 H   0  0  0  0  0  0  0  0  0  0  0  0
  146.1871  131.2405  149.9346 H   0  0  0  0  0  0  0  0  0  0  0  0
  144.8604  129.9471  152.3785 H   0  0  0  0  0  0  0  0  0  0  0  0
  146.1687  129.2659  151.4441 H   0  0  0  0  0  0  0  0  0  0  0  0
  146.9549  130.3121  153.6086 H   0  0  0  0  0  0  0  0  0  0  0  0
  147.7138  131.0221  152.2039 H   0  0  0  0  0  0  0  0  0  0  0  0
  145.3801  132.2135  153.7880 H   0  0  0  0  0  0  0  0  0  0  0  0
  147.0168  132.8292  153.7170 H   0  0  0  0  0  0  0  0  0  0  0  0
  146.7736  133.2448  151.2578 H   0  0  0  0  0  0  0  0  0  0  0  0
  149.8828  141.3279  155.6519 H   0  0  0  0  0  0  0  0  0  0  0  0
  144.1037  132.2164  151.7509 H   0  0  0  0  0  0  0  0  0  0  0  0
  1  2  1  0  0  0  0
  1 22  1  0  0  0  0
  1 23  1  0  0  0  0
  1 24  1  0  0  0  0
  2 21  1  0  0  0  0
  2  3  1  0  0  0  0
  3  4  2  0  0  0  0
  3 25  1  0  0  0  0
  4  5  1  0  0  0  0
  4 20  1  0  0  0  0
  5  6  1  0  0  0  0
  5 26  1  0  0  0  0
  5 27  1  0  0  0  0
  6  7  1  0  0  0  0
  6 28  1  0  0  0  0
  6 29  1  0  0  0  0
  7  8  1  0  0  0  0
  7 30  1  0  0  0  0
  8  9  2  0  0  0  0
  8 10  1  0  0  0  0
 10 11  1  0  0  0  0
 10 31  1  0  0  0  0
 11 19  1  0  0  0  0
 11 12  1  0  0  0  0
 11 32  1  0  0  0  0
 12 13  1  0  0  0  0
 12 33  1  0  0  0  0
 12 34  1  0  0  0  0
 13 14  1  0  0  0  0
 13 35  1  0  0  0  0
 13 36  1  0  0  0  0
 14 19  1  0  0  0  0
 14 15  1  0  0  0  0
 14 47  1  0  0  0  0
 15 16  1  0  0  0  0
 15 37  1  0  0  0  0
 15 38  1  0  0  0  0
 16 17  1  0  0  0  0
 16 39  1  0  0  0  0
 16 40  1  0  0  0  0
 17 18  1  0  0  0  0
 17 41  1  0  0  0  0
 17 42  1  0  0  0  0
 18 19  1  0  0  0  0
 18 43  1  0  0  0  0
 18 44  1  0  0  0  0
 19 45  1  0  0  0  0
 20 21  2  0  0  0  0
 20 46  1  0  0  0  0
M  CHG  1  14   1
M  END
> <s_m_source_file>
AV-unprocessed.smi

> <i_m_source_file_index>
557

> <i_lp_mmshare_version>
43012

> <i_f3d_flags>
0

> <s_epik_input>
W0NIM11uMVtjSF1jKFtjSF1uMSlbQ0gyXVtDSDJdW05IXUMoPU8pW05IXVtDQEhdKFtDSDJdW0NIMl0yKVtDQEhdKE4yMylbQ0gyXVtDSDJdW0NIMl1bQ0gyXTM=

> <s_epik_cmdline>
J2VwaWtfcHl0aG9uJywgJy1waCcsICc3LjAnLCAnLXRuJywgJzgnLCAnLW1hJywgJzIwMCcsICctbWV0YWxfYmluZGluZycsICctaW1hZScsICc8aW5maWxlLm1hZT4nLCAnLW9tYWUnLCAnPG91dGZpbGUubWFlPic=

> <r_lp_tautomer_probability>
1

> <r_epik_Ionization_Penalty>
0.000956547

> <r_epik_Ionization_Penalty_Charging>
0.000435796

> <r_epik_Ionization_Penalty_Neutral>
0.000520752

> <r_epik_State_Penalty>
-0

> <r_epik_Charging_Adjusted_Penalty>
0.000435796

> <i_epik_Tot_Q>
1

> <i_epik_Tot_abs_Q>
1

> <r_epik_Metal_State_Penalty>
-0

> <b_epik_Metal_Only>
0

> <s_lp_Force_Field>
OPLS_2005

> <r_lp_Energy>
39.7592

> <b_lp_Chiralities_Consistent>
1

> <s_lp_Variant>
AV-unprocessed.smi:557-2

> <Gold.Version>
5.8.1

> <Gold.Id.Protein>
6NUR|6NUR_protein|mol2

> <Gold.PLP.Fitness>
44.0474

> <Gold.PLP.PLP>
-36.8868

> <Gold.PLP.part.hbond>
-3.0000

> <Gold.PLP.part.metal>
0.0000

> <Gold.PLP.part.buried>
-4.7627

> <Gold.PLP.part.nonpolar>
-29.2813

> <Gold.PLP.part.repulsive>
0.0920

> <Gold.PLP.ligand.clash>
0.0000

> <Gold.PLP.ligand.torsion>
0.5006

> <Gold.PLP.Chemscore.Hbond>
1.8115

> <Gold.PLP.Chemscore.CHOScore>
0.9051

> <Gold.PLP.Chemscore.Metal>
0.0000

> <Gold.Chemscore.Hbonds>
donor molecule, donor type, donor heavy atom, donor atom, acceptor molecule, acceptor atom, score
      L1  H     7    30       P1  7948  0.98
      L1  H    10    31       P1  7948  0.78
      P1  H  7989  7998       L1    21  0.02
      L1  C     3    25       P1  7948  0.67
      L1  C     3    25       P1  7949  0.29

> <Gold.PLP.Chemscore.Internal.Correction>
0.0121

> <Gold.Rescore>
     Score         DG    S(hbond)    S(metal)    S(lipo)     H(rot)  DE(clash)    DE(int)     intcor
     17.62     -18.12       1.82        0.00      91.23       1.60       0.02       0.49       ----

> <Gold.Chemscore.Fitness>
17.6217

> <Gold.Chemscore.DG>
-18.1248

> <Gold.Chemscore.ZeroCoef>
-5.4800

> <Gold.Chemscore.Hbond>
1.8177

> <Gold.Chemscore.Metal>
0.0000

> <Gold.Chemscore.Lipo>
91.2321

> <Gold.Chemscore.Internal_Hbond>
0.0000

> <Gold.Chemscore.DEClash>
0.0170

> <Gold.Chemscore.DEInternal>
0.4861

> <Gold.Chemscore.Rot>
1.6018

> <Gold.Chemscore.Internal.Correction>
   9.000000E+99

> <Gold.Chemscore.Hbonds>
donor molecule, donor type, donor heavy atom, donor atom, acceptor molecule, acceptor atom, score
      L1  H     7    30       P1  7948  0.93
      L1  H    10    31       P1  7948  0.73

> <Gold.Chemscore.Hbond.Weighted>
-6.0712

> <Gold.Chemscore.Metal.Weighted>
-0.0000

> <Gold.Chemscore.Lipo.Weighted>
-10.6742

> <Gold.Chemscore.Internal_Hbond.Weighted>
0.0000

> <Gold.Chemscore.DEClash.Weighted>
0.0170

> <Gold.Chemscore.DEInternal.Weighted>
0.4861

> <Gold.Chemscore.Rot.Weighted>
4.1006

> <Gold.Chemscore.Internal.Correction.Weighted>
   9.000000E+99

> <Gold.Protein.RotatedTorsions>
[ 6907 6896 6895 6894 ] final -122.26 input  -60.11 | X-H torsion
[ 7974 7965 7964 7962 ] final   82.16 input  175.53 | X-H torsion
[ 8008 7997 7996 7995 ] final  -43.70 input   59.86 | X-H torsion
[ 10167 10162 10161 10158 ] final  -54.38 input  -65.29 | X-H torsion
[ 10718 10713 10712 10709 ] final   52.40 input   66.30 | X-H torsion
[ 10763 10752 10751 10750 ] final  -29.88 input  -60.55 | X-H torsion
[ 11005 11000 10999 10996 ] final  -25.96 input  -57.11 | X-H torsion

> <Gold.Protein.ActiveResidues>
 VAL166  LYS551  ARG553  GLY616  TRP617  ASP618  TYR619  PRO620  LYS621  CYS622 
 ASP623  PHE694  ASN695  SER759  ASP760  ASP761  ALA762  ILE779  LEU786  VAL792 
 PHE793  MET794  SER795  GLU796  ALA797  LYS798  CYS799  TRP800  GLU811  SER814 

> <Gold.Protein.RotatedAtoms>
  150.8559  133.7716  159.3008 H   0  0  0  0  0  0  0  0  0  0  0  0  # atno 6907 bound_to 6896
  151.5373  135.1067  159.9927 H   0  0  0  0  0  0  0  0  0  0  0  0  # atno 6908 bound_to 6896
  152.4589  133.7738  159.6869 H   0  0  0  0  0  0  0  0  0  0  0  0  # atno 6909 bound_to 6896
  145.6287  139.2400  143.2097 H   0  0  0  0  0  0  0  0  0  0  0  0  # atno 7974 bound_to 7965
  154.3997  140.1441  156.3563 H   0  0  0  0  0  0  0  0  0  0  0  0  # atno 8008 bound_to 7997
  155.8223  140.3469  155.5500 H   0  0  0  0  0  0  0  0  0  0  0  0  # atno 8009 bound_to 7997
  155.8275  140.0907  157.1803 H   0  0  0  0  0  0  0  0  0  0  0  0  # atno 8010 bound_to 7997
  140.6433  143.2520  151.4928 H   0  0  0  0  0  0  0  0  0  0  0  0  # atno 10167 bound_to 10162
  157.5071  130.8476  149.8389 H   0  0  0  0  0  0  0  0  0  0  0  0  # atno 10718 bound_to 10713
  153.7718  135.6912  153.4905 H   0  0  0  0  0  0  0  0  0  0  0  0  # atno 10763 bound_to 10752
  153.1869  135.4485  155.0099 H   0  0  0  0  0  0  0  0  0  0  0  0  # atno 10764 bound_to 10752
  154.8115  135.3379  154.7227 H   0  0  0  0  0  0  0  0  0  0  0  0  # atno 10765 bound_to 10752
  140.8986  133.7539  156.0514 H   0  0  0  0  0  0  0  0  0  0  0  0  # atno 11005 bound_to 11000
  146.1374  140.7104  142.9383 LP  0  0  0  0  0  0  0  0  0  0  0  0  # atno 17320 bound_to 7965
  144.7202  140.4347  143.7014 LP  0  0  0  0  0  0  0  0  0  0  0  0  # atno 17321 bound_to 7965
  139.5643  144.2080  152.1740 LP  0  0  0  0  0  0  0  0  0  0  0  0  # atno 17342 bound_to 10162
  140.1357  144.5247  150.6775 LP  0  0  0  0  0  0  0  0  0  0  0  0  # atno 17343 bound_to 10162
  156.0265  130.3778  150.1807 LP  0  0  0  0  0  0  0  0  0  0  0  0  # atno 17370 bound_to 10713
  156.9997  130.9918  151.3394 LP  0  0  0  0  0  0  0  0  0  0  0  0  # atno 17371 bound_to 10713
  140.8258  134.3236  157.5366 LP  0  0  0  0  0  0  0  0  0  0  0  0  # atno 17394 bound_to 11000
  139.8739  134.9335  156.3583 LP  0  0  0  0  0  0  0  0  0  0  0  0  # atno 17395 bound_to 11000

$$$$
