AV-unprocessed.smi:72|AV-procd|sdf|744|dock2
  -GOLD-   2262017 73D 1   1.00000     0.00000
 Structure written by MMmdl.
 29 30  0  0  0  0  0  0  0  0  1 V2000
  153.3210  143.1705  160.1483 N   0  0  0  0  0  0  0  0  0  0  0  0
  152.4124  142.4752  159.3783 C   0  0  0  0  0  0  0  0  0  0  0  0
  151.6460  143.2336  158.4831 N   0  0  0  0  0  0  0  0  0  0  0  0
  150.7888  142.5860  157.7591 C   0  0  0  0  0  0  0  0  0  0  0  0
  150.6369  141.1453  157.8778 N   0  0  0  0  0  0  0  0  0  0  0  0
  149.6412  140.3589  157.0428 C   0  0  1  0  0  0  0  0  0  0  0  0
  148.8291  141.2365  156.3150 O   0  0  0  0  0  0  0  0  0  0  0  0
  149.1560  141.1763  154.9289 C   0  0  2  0  0  0  0  0  0  0  0  0
  147.9480  141.6192  154.0895 C   0  0  0  0  0  0  0  0  0  0  0  0
  147.9129  140.9018  152.8743 O   0  0  0  0  0  0  0  0  0  0  0  0
  149.5141  139.7005  154.7602 C   0  0  1  0  0  0  0  0  0  0  0  0
  150.2269  139.4336  153.5668 O   0  0  0  0  0  0  0  0  0  0  0  0
  150.3121  139.4042  156.0263 C   0  0  1  0  0  0  0  0  0  0  0  0
  151.7009  139.6427  155.8498 O   0  0  0  0  0  0  0  0  0  0  0  0
  151.4535  140.4391  158.8033 C   0  0  0  0  0  0  0  0  0  0  0  0
  151.3523  139.2164  158.9073 O   0  0  0  0  0  0  0  0  0  0  0  0
  152.3610  141.1871  159.5622 N   0  0  0  0  0  0  0  0  0  0  0  0
  148.9994  139.8432  157.7590 H   0  0  0  0  0  0  0  0  0  0  0  0
  150.0322  141.7929  154.7196 H   0  0  0  0  0  0  0  0  0  0  0  0
  148.6016  139.1020  154.7673 H   0  0  0  0  0  0  0  0  0  0  0  0
  150.1782  138.3719  156.3511 H   0  0  0  0  0  0  0  0  0  0  0  0
  153.9259  142.7293  160.8255 H   0  0  0  0  0  0  0  0  0  0  0  0
  153.4498  144.1703  160.0908 H   0  0  0  0  0  0  0  0  0  0  0  0
  150.1430  143.0750  157.0300 H   0  0  0  0  0  0  0  0  0  0  0  0
  147.0214  141.4035  154.6222 H   0  0  0  0  0  0  0  0  0  0  0  0
  147.9695  142.6922  153.8973 H   0  0  0  0  0  0  0  0  0  0  0  0
  148.7959  140.6545  152.6456 H   0  0  0  0  0  0  0  0  0  0  0  0
  149.6897  139.6921  152.8336 H   0  0  0  0  0  0  0  0  0  0  0  0
  152.1458  138.8096  155.8152 H   0  0  0  0  0  0  0  0  0  0  0  0
  1  2  1  0  0  0  0
  1 22  1  0  0  0  0
  1 23  1  0  0  0  0
  2 17  2  0  0  0  0
  2  3  1  0  0  0  0
  3  4  2  0  0  0  0
  4  5  1  0  0  0  0
  4 24  1  0  0  0  0
  5  6  1  0  0  0  0
  5 15  1  0  0  0  0
  6 18  1  0  0  0  0
  6 13  1  0  0  0  0
  6  7  1  0  0  0  0
  7  8  1  0  0  0  0
  8 19  1  0  0  0  0
  8  9  1  0  0  0  0
  8 11  1  0  0  0  0
  9 10  1  0  0  0  0
  9 25  1  0  0  0  0
  9 26  1  0  0  0  0
 10 27  1  0  0  0  0
 11 20  1  0  0  0  0
 11 12  1  0  0  0  0
 11 13  1  0  0  0  0
 12 28  1  0  0  0  0
 13 21  1  0  0  0  0
 13 14  1  0  0  0  0
 14 29  1  0  0  0  0
 15 16  2  0  0  0  0
 15 17  1  0  0  0  0
M  END
> <s_m_source_file>
AV-unprocessed.smi

> <i_m_source_file_index>
72

> <i_lp_mmshare_version>
43012

> <i_f3d_flags>
0

> <s_epik_input>
W05IMl1jMW5bY0hdbihjKD1PKW4xKVtDQEBIXTJPW0NASF0oW0NIMl1bT0hdKVtDQEBIXShbT0hdKVtDQEhdMltPSF0=

> <s_epik_cmdline>
J2VwaWtfcHl0aG9uJywgJy1waCcsICc3LjAnLCAnLXRuJywgJzgnLCAnLW1hJywgJzIwMCcsICctbWV0YWxfYmluZGluZycsICctaW1hZScsICc8aW5maWxlLm1hZT4nLCAnLW9tYWUnLCAnPG91dGZpbGUubWFlPic=

> <r_lp_tautomer_probability>
4.77166e-05

> <r_epik_Ionization_Penalty>
1.3546

> <r_epik_Ionization_Penalty_Charging>
1.46833e-10

> <r_epik_Ionization_Penalty_Neutral>
1.3546

> <r_epik_State_Penalty>
3.51908

> <r_epik_Charging_Adjusted_Penalty>
3.51908

> <i_epik_Tot_Q>
0

> <i_epik_Tot_abs_Q>
0

> <r_epik_Metal_State_Penalty>
3.44088

> <b_epik_Metal_Only>
1

> <s_epik_Chemistry_Notes>
This compound contains an acetal/aminal-like group ( X-CH(R)-Y where X, Y are N, S, or O) that may be acid/base labile, releasing an aldehyde.

> <s_lp_Force_Field>
OPLS_2005

> <r_lp_Energy>
34.5765

> <b_lp_Chiralities_Consistent>
1

> <s_lp_Variant>
AV-unprocessed.smi:72-82

> <Gold.Version>
5.8.1

> <Gold.Id.Protein>
6NUR|6NUR_protein|mol2

> <Gold.PLP.Fitness>
32.8177

> <Gold.PLP.PLP>
-23.2488

> <Gold.PLP.part.hbond>
-3.0000

> <Gold.PLP.part.metal>
0.0000

> <Gold.PLP.part.buried>
-3.2312

> <Gold.PLP.part.nonpolar>
-17.2403

> <Gold.PLP.part.repulsive>
0.1399

> <Gold.PLP.ligand.clash>
0.0000

> <Gold.PLP.ligand.torsion>
0.4721

> <Gold.PLP.Chemscore.Hbond>
2.4800

> <Gold.PLP.Chemscore.CHOScore>
1.0000

> <Gold.PLP.Chemscore.Metal>
0.0000

> <Gold.Chemscore.Hbonds>
donor molecule, donor type, donor heavy atom, donor atom, acceptor molecule, acceptor atom, score
      L1  H    10    27       P1  7957  0.69
      L1  H    12    28       P1  7957  0.93
      P1  H  7989  7998       L1    12  0.81
      L1  C     4    24       P1  8028  1.00

> <Gold.PLP.Chemscore.Internal.Correction>
0.0731

> <Gold.Rescore>
     Score         DG    S(hbond)    S(metal)    S(lipo)     H(rot)  DE(clash)    DE(int)     intcor
      3.79      -5.03       2.13        0.00      24.11       4.06       0.68       0.57       ----

> <Gold.Chemscore.Fitness>
3.7893

> <Gold.Chemscore.DG>
-5.0349

> <Gold.Chemscore.ZeroCoef>
-5.4800

> <Gold.Chemscore.Hbond>
2.1339

> <Gold.Chemscore.Metal>
0.0000

> <Gold.Chemscore.Lipo>
24.1117

> <Gold.Chemscore.Internal_Hbond>
0.0000

> <Gold.Chemscore.DEClash>
0.6777

> <Gold.Chemscore.DEInternal>
0.5679

> <Gold.Chemscore.Rot>
4.0600

> <Gold.Chemscore.Internal.Correction>
   9.000000E+99

> <Gold.Chemscore.Hbonds>
donor molecule, donor type, donor heavy atom, donor atom, acceptor molecule, acceptor atom, score
      L1  H    10    27       P1  7957  0.70
      L1  H    12    28       P1  7957  0.91
      P1  H  7989  7998       L1    12  0.09

> <Gold.Chemscore.Hbond.Weighted>
-7.1274

> <Gold.Chemscore.Metal.Weighted>
-0.0000

> <Gold.Chemscore.Lipo.Weighted>
-2.8211

> <Gold.Chemscore.Internal_Hbond.Weighted>
0.0000

> <Gold.Chemscore.DEClash.Weighted>
0.6777

> <Gold.Chemscore.DEInternal.Weighted>
0.5679

> <Gold.Chemscore.Rot.Weighted>
10.3936

> <Gold.Chemscore.Internal.Correction.Weighted>
   9.000000E+99

> <Gold.Protein.RotatedTorsions>
[ 6907 6896 6895 6894 ] final  128.39 input  -60.11 | X-H torsion
[ 7974 7965 7964 7962 ] final   71.69 input  175.53 | X-H torsion
[ 8008 7997 7996 7995 ] final  139.33 input   59.86 | X-H torsion
[ 10167 10162 10161 10158 ] final  176.34 input  -65.29 | X-H torsion
[ 10718 10713 10712 10709 ] final   -0.91 input   66.30 | X-H torsion
[ 10763 10752 10751 10750 ] final   45.85 input  -60.55 | X-H torsion
[ 11005 11000 10999 10996 ] final  -15.43 input  -57.11 | X-H torsion

> <Gold.Protein.ActiveResidues>
 VAL166  LYS551  ARG553  GLY616  TRP617  ASP618  TYR619  PRO620  LYS621  CYS622 
 ASP623  PHE694  ASN695  SER759  ASP760  ASP761  ALA762  ILE779  LEU786  VAL792 
 PHE793  MET794  SER795  GLU796  ALA797  LYS798  CYS799  TRP800  GLU811  SER814 

> <Gold.Protein.RotatedAtoms>
  152.3724  133.6436  159.6097 H   0  0  0  0  0  0  0  0  0  0  0  0  # atno 6907 bound_to 6896
  150.7678  133.9248  159.3418 H   0  0  0  0  0  0  0  0  0  0  0  0  # atno 6908 bound_to 6896
  151.7069  135.0921  160.0312 H   0  0  0  0  0  0  0  0  0  0  0  0  # atno 6909 bound_to 6896
  145.7627  139.2808  143.1367 H   0  0  0  0  0  0  0  0  0  0  0  0  # atno 7974 bound_to 7965
  156.2990  140.2370  156.4220 H   0  0  0  0  0  0  0  0  0  0  0  0  # atno 8008 bound_to 7997
  154.8347  140.0431  157.1521 H   0  0  0  0  0  0  0  0  0  0  0  0  # atno 8009 bound_to 7997
  154.9169  140.2998  155.5240 H   0  0  0  0  0  0  0  0  0  0  0  0  # atno 8010 bound_to 7997
  139.5211  144.2926  152.0450 H   0  0  0  0  0  0  0  0  0  0  0  0  # atno 10167 bound_to 10162
  156.8135  130.5432  149.5706 H   0  0  0  0  0  0  0  0  0  0  0  0  # atno 10718 bound_to 10713
  152.9818  135.6026  154.3504 H   0  0  0  0  0  0  0  0  0  0  0  0  # atno 10763 bound_to 10752
  154.3194  135.2770  155.2529 H   0  0  0  0  0  0  0  0  0  0  0  0  # atno 10764 bound_to 10752
  154.4702  135.5943  153.6372 H   0  0  0  0  0  0  0  0  0  0  0  0  # atno 10765 bound_to 10752
  140.7966  133.8247  155.9429 H   0  0  0  0  0  0  0  0  0  0  0  0  # atno 11005 bound_to 11000
  146.0248  140.8314  142.9905 LP  0  0  0  0  0  0  0  0  0  0  0  0  # atno 17320 bound_to 7965
  144.6827  140.2682  143.7309 LP  0  0  0  0  0  0  0  0  0  0  0  0  # atno 17321 bound_to 7965
  140.2377  144.4302  150.6273 LP  0  0  0  0  0  0  0  0  0  0  0  0  # atno 17342 bound_to 10162
  140.6312  143.2188  151.6491 LP  0  0  0  0  0  0  0  0  0  0  0  0  # atno 17343 bound_to 10162
  156.1030  130.5984  150.9926 LP  0  0  0  0  0  0  0  0  0  0  0  0  # atno 17370 bound_to 10713
  157.6494  131.0899  150.8084 LP  0  0  0  0  0  0  0  0  0  0  0  0  # atno 17371 bound_to 10713
  140.9337  134.1989  157.4846 LP  0  0  0  0  0  0  0  0  0  0  0  0  # atno 17394 bound_to 11000
  139.8726  134.9843  156.5235 LP  0  0  0  0  0  0  0  0  0  0  0  0  # atno 17395 bound_to 11000

$$$$
