AV-unprocessed.smi:814|AV-procd|sdf|3824|dock5
  -GOLD-   22720 1263D 1   1.00000     0.00000
 Structure written by MMmdl.
 36 37  0  0  0  0  0  0  0  0  1 V2000
  146.7052  142.0332  154.0767 C   0  0  0  0  0  0  0  0  0  0  0  0
  147.1903  140.7106  153.7313 N   0  0  0  0  0  0  0  0  0  0  0  0
  146.7169  139.9110  152.6994 C   0  0  0  0  0  0  0  0  0  0  0  0
  147.4470  138.7475  152.7361 C   0  0  0  0  0  0  0  0  0  0  0  0
  148.3677  138.8127  153.7766 N   0  0  0  0  0  0  0  0  0  0  0  0
  148.1739  140.0080  154.3260 C   0  0  0  0  0  0  0  0  0  0  0  0
  148.9409  140.5156  155.5067 C   0  0  0  0  0  0  0  0  0  0  0  0
  149.7901  141.7519  155.1689 C   0  0  0  0  0  0  0  0  0  0  0  0
  150.1069  142.5251  156.3637 N   0  0  0  0  0  0  0  0  0  0  0  0
  150.9607  142.1371  157.3239 C   0  0  0  0  0  0  0  0  0  0  0  0
  151.5831  141.0750  157.2819 O   0  0  0  0  0  0  0  0  0  0  0  0
  151.1371  143.0898  158.5137 C   0  0  1  0  0  0  0  0  0  0  0  0
  152.1068  142.4966  159.5619 C   0  0  0  0  0  0  0  0  0  0  0  0
  152.5100  143.5147  160.6136 C   0  0  0  0  0  0  0  0  0  0  0  0
  152.3285  144.8385  160.4689 C   0  0  0  0  0  0  0  0  0  0  0  0
  151.7032  145.4666  159.2360 C   0  0  0  0  0  0  0  0  0  0  0  0
  151.6219  144.4800  158.0556 C   0  0  0  0  0  0  0  0  0  0  0  0
  145.8015  142.2615  153.5115 H   0  0  0  0  0  0  0  0  0  0  0  0
  147.4668  142.7769  153.8420 H   0  0  0  0  0  0  0  0  0  0  0  0
  146.4740  142.0797  155.1411 H   0  0  0  0  0  0  0  0  0  0  0  0
  145.9191  140.2260  152.0431 H   0  0  0  0  0  0  0  0  0  0  0  0
  147.3810  137.8766  152.1008 H   0  0  0  0  0  0  0  0  0  0  0  0
  148.2318  140.7614  156.2981 H   0  0  0  0  0  0  0  0  0  0  0  0
  149.5661  139.7142  155.9014 H   0  0  0  0  0  0  0  0  0  0  0  0
  150.7109  141.4579  154.6622 H   0  0  0  0  0  0  0  0  0  0  0  0
  149.2488  142.3973  154.4766 H   0  0  0  0  0  0  0  0  0  0  0  0
  149.6392  143.4135  156.4721 H   0  0  0  0  0  0  0  0  0  0  0  0
  150.1643  143.2225  158.9914 H   0  0  0  0  0  0  0  0  0  0  0  0
  151.6348  141.6498  160.0617 H   0  0  0  0  0  0  0  0  0  0  0  0
  153.0181  142.1212  159.0940 H   0  0  0  0  0  0  0  0  0  0  0  0
  152.9769  143.1315  161.5091 H   0  0  0  0  0  0  0  0  0  0  0  0
  152.6260  145.5107  161.2605 H   0  0  0  0  0  0  0  0  0  0  0  0
  150.7061  145.8160  159.5052 H   0  0  0  0  0  0  0  0  0  0  0  0
  152.2808  146.3448  158.9465 H   0  0  0  0  0  0  0  0  0  0  0  0
  152.6092  144.3890  157.5994 H   0  0  0  0  0  0  0  0  0  0  0  0
  150.9640  144.8849  157.2853 H   0  0  0  0  0  0  0  0  0  0  0  0
  1  2  1  0  0  0  0
  1 18  1  0  0  0  0
  1 19  1  0  0  0  0
  1 20  1  0  0  0  0
  2  6  1  0  0  0  0
  2  3  1  0  0  0  0
  3  4  2  0  0  0  0
  3 21  1  0  0  0  0
  4  5  1  0  0  0  0
  4 22  1  0  0  0  0
  5  6  2  0  0  0  0
  6  7  1  0  0  0  0
  7  8  1  0  0  0  0
  7 23  1  0  0  0  0
  7 24  1  0  0  0  0
  8  9  1  0  0  0  0
  8 25  1  0  0  0  0
  8 26  1  0  0  0  0
  9 10  1  0  0  0  0
  9 27  1  0  0  0  0
 10 11  2  0  0  0  0
 10 12  1  0  0  0  0
 12 17  1  0  0  0  0
 12 13  1  0  0  0  0
 12 28  1  0  0  0  0
 13 14  1  0  0  0  0
 13 29  1  0  0  0  0
 13 30  1  0  0  0  0
 14 15  2  0  0  0  0
 14 31  1  0  0  0  0
 15 16  1  0  0  0  0
 15 32  1  0  0  0  0
 16 17  1  0  0  0  0
 16 33  1  0  0  0  0
 16 34  1  0  0  0  0
 17 35  1  0  0  0  0
 17 36  1  0  0  0  0
M  END
> <s_m_source_file>
AV-unprocessed.smi

> <i_m_source_file_index>
814

> <i_lp_mmshare_version>
43012

> <i_f3d_flags>
0

> <s_epik_input>
W0NIM11uMVtjSF1bY0hdbmMxW0NIMl1bQ0gyXVtOSF1DKD1PKVtDQEBIXTJbQ0gyXVtDSF09W0NIXVtDSDJdW0NIMl0y

> <s_epik_cmdline>
J2VwaWtfcHl0aG9uJywgJy1waCcsICc3LjAnLCAnLXRuJywgJzgnLCAnLW1hJywgJzIwMCcsICctbWV0YWxfYmluZGluZycsICctaW1hZScsICc8aW5maWxlLm1hZT4nLCAnLW9tYWUnLCAnPG91dGZpbGUubWFlPic=

> <r_lp_tautomer_probability>
1

> <r_epik_Ionization_Penalty>
1.21249

> <r_epik_Ionization_Penalty_Charging>
1.21249

> <r_epik_Ionization_Penalty_Neutral>
1.60917e-08

> <r_epik_State_Penalty>
1.27906

> <r_epik_Charging_Adjusted_Penalty>
2.49154

> <i_epik_Tot_Q>
0

> <i_epik_Tot_abs_Q>
0

> <r_epik_Metal_State_Penalty>
0.409603

> <b_epik_Metal_Only>
0

> <s_lp_Force_Field>
OPLS_2005

> <r_lp_Energy>
6.01065

> <b_lp_Chiralities_Consistent>
1

> <s_lp_Variant>
AV-unprocessed.smi:814-4

> <Gold.Version>
5.8.1

> <Gold.Id.Protein>
6NUR|6NUR_protein|mol2

> <Gold.PLP.Fitness>
44.4676

> <Gold.PLP.PLP>
-36.4379

> <Gold.PLP.part.hbond>
-1.0000

> <Gold.PLP.part.metal>
0.0000

> <Gold.PLP.part.buried>
-0.2875

> <Gold.PLP.part.nonpolar>
-35.4943

> <Gold.PLP.part.repulsive>
0.2865

> <Gold.PLP.ligand.clash>
0.0000

> <Gold.PLP.ligand.torsion>
0.1966

> <Gold.PLP.Chemscore.Hbond>
0.9920

> <Gold.PLP.Chemscore.CHOScore>
1.8077

> <Gold.PLP.Chemscore.Metal>
0.0000

> <Gold.Chemscore.Hbonds>
donor molecule, donor type, donor heavy atom, donor atom, acceptor molecule, acceptor atom, score
      L1  H     9    27       P1  8028  0.93
      L1  C     3    21       P1 10175  1.00
      L1  C     4    22       P1  7948  0.94

> <Gold.PLP.Chemscore.Internal.Correction>
0.0240

> <Gold.Rescore>
     Score         DG    S(hbond)    S(metal)    S(lipo)     H(rot)  DE(clash)    DE(int)     intcor
     16.01     -17.01       0.95        0.00     105.95       1.58       0.77       0.23       ----

> <Gold.Chemscore.Fitness>
16.0105

> <Gold.Chemscore.DG>
-17.0139

> <Gold.Chemscore.ZeroCoef>
-5.4800

> <Gold.Chemscore.Hbond>
0.9537

> <Gold.Chemscore.Metal>
0.0000

> <Gold.Chemscore.Lipo>
105.9455

> <Gold.Chemscore.Internal_Hbond>
0.0000

> <Gold.Chemscore.DEClash>
0.7719

> <Gold.Chemscore.DEInternal>
0.2315

> <Gold.Chemscore.Rot>
1.5809

> <Gold.Chemscore.Internal.Correction>
   9.000000E+99

> <Gold.Chemscore.Hbonds>
donor molecule, donor type, donor heavy atom, donor atom, acceptor molecule, acceptor atom, score
      L1  H     9    27       P1  8028  0.90

> <Gold.Chemscore.Hbond.Weighted>
-3.1854

> <Gold.Chemscore.Metal.Weighted>
-0.0000

> <Gold.Chemscore.Lipo.Weighted>
-12.3956

> <Gold.Chemscore.Internal_Hbond.Weighted>
0.0000

> <Gold.Chemscore.DEClash.Weighted>
0.7719

> <Gold.Chemscore.DEInternal.Weighted>
0.2315

> <Gold.Chemscore.Rot.Weighted>
4.0472

> <Gold.Chemscore.Internal.Correction.Weighted>
   9.000000E+99

> <Gold.Protein.RotatedTorsions>
[ 6907 6896 6895 6894 ] final -168.10 input  -60.11 | X-H torsion
[ 7974 7965 7964 7962 ] final  -26.08 input  175.53 | X-H torsion
[ 8008 7997 7996 7995 ] final  -63.74 input   59.86 | X-H torsion
[ 10167 10162 10161 10158 ] final  -88.23 input  -65.29 | X-H torsion
[ 10718 10713 10712 10709 ] final   26.85 input   66.30 | X-H torsion
[ 10763 10752 10751 10750 ] final  -98.55 input  -60.55 | X-H torsion
[ 11005 11000 10999 10996 ] final  -31.04 input  -57.11 | X-H torsion

> <Gold.Protein.ActiveResidues>
 VAL166  LYS551  ARG553  GLY616  TRP617  ASP618  TYR619  PRO620  LYS621  CYS622 
 ASP623  PHE694  ASN695  SER759  ASP760  ASP761  ALA762  ILE779  LEU786  VAL792 
 PHE793  MET794  SER795  GLU796  ALA797  LYS798  CYS799  TRP800  GLU811  SER814 

> <Gold.Protein.RotatedAtoms>
  151.4701  133.3571  159.2821 H   0  0  0  0  0  0  0  0  0  0  0  0  # atno 6907 bound_to 6896
  150.8967  134.8377  159.7342 H   0  0  0  0  0  0  0  0  0  0  0  0  # atno 6908 bound_to 6896
  152.4855  134.4617  159.9659 H   0  0  0  0  0  0  0  0  0  0  0  0  # atno 6909 bound_to 6896
  146.1449  140.4972  142.8636 H   0  0  0  0  0  0  0  0  0  0  0  0  # atno 7974 bound_to 7965
  154.4571  140.0968  156.6789 H   0  0  0  0  0  0  0  0  0  0  0  0  # atno 8008 bound_to 7997
  155.5104  140.3476  155.4369 H   0  0  0  0  0  0  0  0  0  0  0  0  # atno 8009 bound_to 7997
  156.0799  140.1370  156.9713 H   0  0  0  0  0  0  0  0  0  0  0  0  # atno 8010 bound_to 7997
  140.3767  143.2768  151.9434 H   0  0  0  0  0  0  0  0  0  0  0  0  # atno 10167 bound_to 10162
  157.2124  130.6940  149.6234 H   0  0  0  0  0  0  0  0  0  0  0  0  # atno 10718 bound_to 10713
  154.7424  135.5005  153.9145 H   0  0  0  0  0  0  0  0  0  0  0  0  # atno 10763 bound_to 10752
  153.1056  135.6696  153.9600 H   0  0  0  0  0  0  0  0  0  0  0  0  # atno 10764 bound_to 10752
  153.9374  135.3071  155.3423 H   0  0  0  0  0  0  0  0  0  0  0  0  # atno 10765 bound_to 10752
  140.9434  133.7265  156.1110 H   0  0  0  0  0  0  0  0  0  0  0  0  # atno 11005 bound_to 11000
  144.7834  140.5888  143.6590 LP  0  0  0  0  0  0  0  0  0  0  0  0  # atno 17320 bound_to 7965
  145.4961  139.1486  143.3683 LP  0  0  0  0  0  0  0  0  0  0  0  0  # atno 17321 bound_to 7965
  139.4799  144.5856  151.7858 LP  0  0  0  0  0  0  0  0  0  0  0  0  # atno 17342 bound_to 10162
  140.4979  144.1213  150.5964 LP  0  0  0  0  0  0  0  0  0  0  0  0  # atno 17343 bound_to 10162
  155.9689  130.4547  150.5859 LP  0  0  0  0  0  0  0  0  0  0  0  0  # atno 17370 bound_to 10713
  157.3659  131.0757  151.1598 LP  0  0  0  0  0  0  0  0  0  0  0  0  # atno 17371 bound_to 10713
  140.7703  134.3840  157.5509 LP  0  0  0  0  0  0  0  0  0  0  0  0  # atno 17394 bound_to 11000
  139.8826  134.9017  156.2817 LP  0  0  0  0  0  0  0  0  0  0  0  0  # atno 17395 bound_to 11000

$$$$
