AV-unprocessed.smi:1693|AV-procd|sdf|6785|dock2
  -GOLD-   22720 7543D 1   1.00000     0.00000
 Structure written by MMmdl.
 36 37  0  0  0  0  0  0  0  0  1 V2000
  150.4660  142.1155  156.0500 C   0  0  0  0  0  0  0  0  0  0  0  0
  150.1418  140.9092  155.2369 C   0  0  0  0  0  0  0  0  0  0  0  0
  151.0756  140.0550  154.8004 N   0  0  0  0  0  0  0  0  0  0  0  0
  150.5309  139.0093  154.0683 N   0  0  0  0  0  0  0  0  0  0  0  0
  149.1976  139.1066  153.9741 C   0  0  0  0  0  0  0  0  0  0  0  0
  148.3843  138.1694  153.2840 N   0  0  0  0  0  0  0  0  0  0  0  0
  147.0423  138.0989  153.2453 C   0  0  0  0  0  0  0  0  0  0  0  0
  146.2719  138.8617  153.8286 O   0  0  0  0  0  0  0  0  0  0  0  0
  146.6355  137.0747  152.4823 N   0  0  0  0  0  0  0  0  0  0  0  0
  145.2440  136.6864  152.2646 C   0  0  0  0  0  0  0  0  0  0  0  0
  145.0854  135.4772  151.3075 C   0  0  0  0  0  0  0  0  0  0  0  0
  145.1163  135.9859  149.9864 O   0  0  0  0  0  0  0  0  0  0  0  0
  146.3039  134.5342  151.4589 C   0  0  0  0  0  0  0  0  0  0  0  0
  146.1910  133.2557  150.6094 C   0  0  0  0  0  0  0  0  0  0  0  0
  144.8866  132.5046  150.9070 C   0  0  0  0  0  0  0  0  0  0  0  0
  143.6713  133.4140  150.6827 C   0  0  0  0  0  0  0  0  0  0  0  0
  143.7628  134.6975  151.5272 C   0  0  0  0  0  0  0  0  0  0  0  0
  148.4935  140.4987  154.7788 S   0  0  0  0  0  0  0  0  0  0  0  0
  151.5436  142.2077  156.1902 H   0  0  0  0  0  0  0  0  0  0  0  0
  149.9914  142.0431  157.0287 H   0  0  0  0  0  0  0  0  0  0  0  0
  150.1012  143.0118  155.5485 H   0  0  0  0  0  0  0  0  0  0  0  0
  148.8842  137.4692  152.7564 H   0  0  0  0  0  0  0  0  0  0  0  0
  147.3394  136.5022  152.0402 H   0  0  0  0  0  0  0  0  0  0  0  0
  144.7275  136.5099  153.2102 H   0  0  0  0  0  0  0  0  0  0  0  0
  144.7587  137.5575  151.8237 H   0  0  0  0  0  0  0  0  0  0  0  0
  145.4449  135.3108  149.4129 H   0  0  0  0  0  0  0  0  0  0  0  0
  147.2249  135.0619  151.2070 H   0  0  0  0  0  0  0  0  0  0  0  0
  146.4038  134.2415  152.5050 H   0  0  0  0  0  0  0  0  0  0  0  0
  146.2360  133.5076  149.5492 H   0  0  0  0  0  0  0  0  0  0  0  0
  147.0447  132.6065  150.8055 H   0  0  0  0  0  0  0  0  0  0  0  0
  144.8124  131.6211  150.2726 H   0  0  0  0  0  0  0  0  0  0  0  0
  144.8943  132.1477  151.9376 H   0  0  0  0  0  0  0  0  0  0  0  0
  143.5984  133.6725  149.6257 H   0  0  0  0  0  0  0  0  0  0  0  0
  142.7560  132.8753  150.9291 H   0  0  0  0  0  0  0  0  0  0  0  0
  143.6777  134.4300  152.5813 H   0  0  0  0  0  0  0  0  0  0  0  0
  142.9014  135.3277  151.3031 H   0  0  0  0  0  0  0  0  0  0  0  0
  1  2  1  0  0  0  0
  1 19  1  0  0  0  0
  1 20  1  0  0  0  0
  1 21  1  0  0  0  0
  2 18  1  0  0  0  0
  2  3  2  0  0  0  0
  3  4  1  0  0  0  0
  4  5  2  0  0  0  0
  5  6  1  0  0  0  0
  5 18  1  0  0  0  0
  6  7  1  0  0  0  0
  6 22  1  0  0  0  0
  7  8  2  0  0  0  0
  7  9  1  0  0  0  0
  9 10  1  0  0  0  0
  9 23  1  0  0  0  0
 10 11  1  0  0  0  0
 10 24  1  0  0  0  0
 10 25  1  0  0  0  0
 11 17  1  0  0  0  0
 11 12  1  0  0  0  0
 11 13  1  0  0  0  0
 12 26  1  0  0  0  0
 13 14  1  0  0  0  0
 13 27  1  0  0  0  0
 13 28  1  0  0  0  0
 14 15  1  0  0  0  0
 14 29  1  0  0  0  0
 14 30  1  0  0  0  0
 15 16  1  0  0  0  0
 15 31  1  0  0  0  0
 15 32  1  0  0  0  0
 16 17  1  0  0  0  0
 16 33  1  0  0  0  0
 16 34  1  0  0  0  0
 17 35  1  0  0  0  0
 17 36  1  0  0  0  0
M  END
> <s_m_source_file>
AV-unprocessed.smi

> <i_m_source_file_index>
1693

> <i_lp_mmshare_version>
43012

> <i_f3d_flags>
0

> <s_epik_input>
W0NIM11jMW5uYyhzMSlbTkhdQyg9TylbTkhdW0NIMl1DMihbT0hdKVtDSDJdW0NIMl1bQ0gyXVtDSDJdW0NIMl0y

> <s_epik_cmdline>
J2VwaWtfcHl0aG9uJywgJy1waCcsICc3LjAnLCAnLXRuJywgJzgnLCAnLW1hJywgJzIwMCcsICctbWV0YWxfYmluZGluZycsICctaW1hZScsICc8aW5maWxlLm1hZT4nLCAnLW9tYWUnLCAnPG91dGZpbGUubWFlPic=

> <r_lp_tautomer_probability>
1

> <r_epik_Ionization_Penalty>
0.000488803

> <r_epik_Ionization_Penalty_Charging>
0

> <r_epik_Ionization_Penalty_Neutral>
0.000488803

> <r_epik_State_Penalty>
-0

> <r_epik_Charging_Adjusted_Penalty>
0

> <i_epik_Tot_Q>
0

> <i_epik_Tot_abs_Q>
0

> <r_epik_Metal_State_Penalty>
0.215163

> <b_epik_Metal_Only>
0

> <s_lp_Force_Field>
OPLS_2005

> <r_lp_Energy>
12.5822

> <b_lp_Chiralities_Consistent>
1

> <s_lp_Variant>
AV-unprocessed.smi:1693-1

> <Gold.Version>
5.8.1

> <Gold.Id.Protein>
6NUR|6NUR_protein|mol2

> <Gold.PLP.Fitness>
39.9555

> <Gold.PLP.PLP>
-30.0096

> <Gold.PLP.part.hbond>
-5.5808

> <Gold.PLP.part.metal>
0.0000

> <Gold.PLP.part.buried>
-1.5792

> <Gold.PLP.part.nonpolar>
-23.5688

> <Gold.PLP.part.repulsive>
0.4756

> <Gold.PLP.ligand.clash>
0.0000

> <Gold.PLP.ligand.torsion>
0.4457

> <Gold.PLP.Chemscore.Hbond>
3.6100

> <Gold.PLP.Chemscore.CHOScore>
0.0000

> <Gold.PLP.Chemscore.Metal>
0.0000

> <Gold.Chemscore.Hbonds>
donor molecule, donor type, donor heavy atom, donor atom, acceptor molecule, acceptor atom, score
      L1  H     6    22       P1  7948  0.94
      L1  H     9    23       P1  7948  0.93
      L1  H    12    26       P1  7921  0.94
      P1  H  7989  7998       L1     3  0.75

> <Gold.PLP.Chemscore.Internal.Correction>
0.0072

> <Gold.Rescore>
     Score         DG    S(hbond)    S(metal)    S(lipo)     H(rot)  DE(clash)    DE(int)     intcor
     16.06     -17.75       2.91        0.00      62.36       1.86       0.05       1.63       ----

> <Gold.Chemscore.Fitness>
16.0640

> <Gold.Chemscore.DG>
-17.7468

> <Gold.Chemscore.ZeroCoef>
-5.4800

> <Gold.Chemscore.Hbond>
2.9114

> <Gold.Chemscore.Metal>
0.0000

> <Gold.Chemscore.Lipo>
62.3647

> <Gold.Chemscore.Internal_Hbond>
0.0000

> <Gold.Chemscore.DEClash>
0.0544

> <Gold.Chemscore.DEInternal>
1.6284

> <Gold.Chemscore.Rot>
1.8570

> <Gold.Chemscore.Internal.Correction>
   9.000000E+99

> <Gold.Chemscore.Hbonds>
donor molecule, donor type, donor heavy atom, donor atom, acceptor molecule, acceptor atom, score
      L1  H     6    22       P1  7948  0.88
      L1  H     9    23       P1  7948  0.90
      L1  H    12    26       P1  7921  0.89
      P1  H  7989  7998       L1     3  0.02

> <Gold.Chemscore.Hbond.Weighted>
-9.7241

> <Gold.Chemscore.Metal.Weighted>
-0.0000

> <Gold.Chemscore.Lipo.Weighted>
-7.2967

> <Gold.Chemscore.Internal_Hbond.Weighted>
0.0000

> <Gold.Chemscore.DEClash.Weighted>
0.0544

> <Gold.Chemscore.DEInternal.Weighted>
1.6284

> <Gold.Chemscore.Rot.Weighted>
4.7540

> <Gold.Chemscore.Internal.Correction.Weighted>
   9.000000E+99

> <Gold.Protein.RotatedTorsions>
[ 6907 6896 6895 6894 ] final    2.58 input  -60.11 | X-H torsion
[ 7974 7965 7964 7962 ] final    9.71 input  175.53 | X-H torsion
[ 8008 7997 7996 7995 ] final   86.76 input   59.86 | X-H torsion
[ 10167 10162 10161 10158 ] final   25.45 input  -65.29 | X-H torsion
[ 10718 10713 10712 10709 ] final  105.42 input   66.30 | X-H torsion
[ 10763 10752 10751 10750 ] final   70.96 input  -60.55 | X-H torsion
[ 11005 11000 10999 10996 ] final  165.16 input  -57.11 | X-H torsion

> <Gold.Protein.ActiveResidues>
 VAL166  LYS551  ARG553  GLY616  TRP617  ASP618  TYR619  PRO620  LYS621  CYS622 
 ASP623  PHE694  ASN695  SER759  ASP760  ASP761  ALA762  ILE779  LEU786  VAL792 
 PHE793  MET794  SER795  GLU796  ALA797  LYS798  CYS799  TRP800  GLU811  SER814 

> <Gold.Protein.RotatedAtoms>
  151.6112  135.1040  160.0081 H   0  0  0  0  0  0  0  0  0  0  0  0  # atno 6907 bound_to 6896
  152.4207  133.7107  159.6488 H   0  0  0  0  0  0  0  0  0  0  0  0  # atno 6908 bound_to 6896
  150.8095  133.8375  159.3211 H   0  0  0  0  0  0  0  0  0  0  0  0  # atno 6909 bound_to 6896
  146.2399  139.9743  142.8443 H   0  0  0  0  0  0  0  0  0  0  0  0  # atno 7974 bound_to 7965
  155.9669  140.3389  155.6540 H   0  0  0  0  0  0  0  0  0  0  0  0  # atno 8008 bound_to 7997
  155.6726  140.0728  157.2532 H   0  0  0  0  0  0  0  0  0  0  0  0  # atno 8009 bound_to 7997
  154.4156  140.1689  156.1883 H   0  0  0  0  0  0  0  0  0  0  0  0  # atno 8010 bound_to 7997
  140.5105  144.0168  150.6370 H   0  0  0  0  0  0  0  0  0  0  0  0  # atno 10167 bound_to 10162
  157.6706  131.0827  150.5853 H   0  0  0  0  0  0  0  0  0  0  0  0  # atno 10718 bound_to 10713
  153.0371  135.5154  154.7521 H   0  0  0  0  0  0  0  0  0  0  0  0  # atno 10763 bound_to 10752
  154.6488  135.2922  155.0015 H   0  0  0  0  0  0  0  0  0  0  0  0  # atno 10764 bound_to 10752
  154.0906  135.6650  153.4904 H   0  0  0  0  0  0  0  0  0  0  0  0  # atno 10765 bound_to 10752
  140.2533  134.7960  157.3522 H   0  0  0  0  0  0  0  0  0  0  0  0  # atno 11005 bound_to 11000
  145.1652  140.9693  143.4354 LP  0  0  0  0  0  0  0  0  0  0  0  0  # atno 17320 bound_to 7965
  145.0079  139.3537  143.6134 LP  0  0  0  0  0  0  0  0  0  0  0  0  # atno 17321 bound_to 7965
  140.3490  143.2974  152.0508 LP  0  0  0  0  0  0  0  0  0  0  0  0  # atno 17342 bound_to 10162
  139.4895  144.6388  151.6920 LP  0  0  0  0  0  0  0  0  0  0  0  0  # atno 17343 bound_to 10162
  156.6154  130.4391  149.5843 LP  0  0  0  0  0  0  0  0  0  0  0  0  # atno 17370 bound_to 10713
  156.2397  130.6844  151.1544 LP  0  0  0  0  0  0  0  0  0  0  0  0  # atno 17371 bound_to 10713
  140.1537  134.4817  155.7943 LP  0  0  0  0  0  0  0  0  0  0  0  0  # atno 17394 bound_to 11000
  141.2199  133.6872  156.7422 LP  0  0  0  0  0  0  0  0  0  0  0  0  # atno 17395 bound_to 11000

$$$$
