AV-unprocessed.smi:2862|AV-procd|sdf|11008|dock10
  -GOLD-   2272015463D 1   1.00000     0.00000
 Structure written by MMmdl.
 52 54  0  0  0  0  0  0  0  0  1 V2000
  149.3836  144.2547  160.3813 C   0  0  0  0  0  0  0  0  0  0  0  0
  150.0679  144.7723  159.1046 C   0  0  2  0  0  0  0  0  0  0  0  0
  149.8175  143.8441  158.0054 N   0  0  0  0  0  0  0  0  0  0  0  0
  150.1337  142.5362  158.0003 C   0  0  0  0  0  0  0  0  0  0  0  0
  150.6335  141.9694  158.9715 O   0  0  0  0  0  0  0  0  0  0  0  0
  149.8772  141.7226  156.7200 C   0  0  0  0  0  0  0  0  0  0  0  0
  150.4153  140.3505  156.7354 N   0  0  0  0  0  0  0  0  0  0  0  0
  151.2605  139.9905  155.6655 C   0  0  0  0  0  0  0  0  0  0  0  0
  151.8138  138.7713  155.5692 C   0  0  0  0  0  0  0  0  0  0  0  0
  151.5245  137.8054  156.6006 C   0  0  0  0  0  0  0  0  0  0  0  0
  150.6963  138.1332  157.6137 C   0  0  0  0  0  0  0  0  0  0  0  0
  150.4187  137.1841  158.6903 C   0  0  0  0  0  0  0  0  0  0  0  0
  151.3050  136.8192  159.4651 O   0  0  0  0  0  0  0  0  0  0  0  0
  149.1463  136.6989  158.7803 N   0  0  0  0  0  0  0  0  0  0  0  0
  148.1797  137.1127  157.7527 C   0  0  0  0  0  0  0  0  0  0  0  0
  148.5761  135.9055  159.8948 C   0  0  2  0  0  0  0  0  0  0  0  0
  147.9942  134.5716  159.3898 C   0  0  0  0  0  0  0  0  0  0  0  0
  147.5915  136.6755  160.7615 C   0  0  0  0  0  0  0  0  0  0  0  0
  147.6117  136.5418  162.2652 C   0  0  0  0  0  0  0  0  0  0  0  0
  146.4585  135.9717  161.4704 C   0  0  0  0  0  0  0  0  0  0  0  0
  150.1008  139.4820  157.7464 C   0  0  0  0  0  0  0  0  0  0  0  0
  149.3767  139.8259  158.6841 O   0  0  0  0  0  0  0  0  0  0  0  0
  151.5462  145.0095  159.3520 C   0  0  0  0  0  0  0  0  0  0  0  0
  152.4423  143.8735  159.7879 C   0  0  0  0  0  0  0  0  0  0  0  0
  152.1251  144.9955  160.7472 C   0  0  0  0  0  0  0  0  0  0  0  0
  149.5238  144.9483  161.2106 H   0  0  0  0  0  0  0  0  0  0  0  0
  149.7893  143.2887  160.6847 H   0  0  0  0  0  0  0  0  0  0  0  0
  148.3094  144.1342  160.2387 H   0  0  0  0  0  0  0  0  0  0  0  0
  149.6240  145.7370  158.8510 H   0  0  0  0  0  0  0  0  0  0  0  0
  149.4077  144.2334  157.1685 H   0  0  0  0  0  0  0  0  0  0  0  0
  148.7983  141.6868  156.5611 H   0  0  0  0  0  0  0  0  0  0  0  0
  150.2602  142.2868  155.8679 H   0  0  0  0  0  0  0  0  0  0  0  0
  151.4239  140.7662  154.9311 H   0  0  0  0  0  0  0  0  0  0  0  0
  152.4562  138.5183  154.7385 H   0  0  0  0  0  0  0  0  0  0  0  0
  151.9701  136.8219  156.5504 H   0  0  0  0  0  0  0  0  0  0  0  0
  148.0924  138.1999  157.7186 H   0  0  0  0  0  0  0  0  0  0  0  0
  147.1765  136.7237  157.9207 H   0  0  0  0  0  0  0  0  0  0  0  0
  148.4988  136.7655  156.7690 H   0  0  0  0  0  0  0  0  0  0  0  0
  149.3606  135.6062  160.5861 H   0  0  0  0  0  0  0  0  0  0  0  0
  147.6975  133.9379  160.2236 H   0  0  0  0  0  0  0  0  0  0  0  0
  148.7246  134.0138  158.8046 H   0  0  0  0  0  0  0  0  0  0  0  0
  147.1109  134.7121  158.7681 H   0  0  0  0  0  0  0  0  0  0  0  0
  147.3525  137.6671  160.3824 H   0  0  0  0  0  0  0  0  0  0  0  0
  148.3171  135.8375  162.7016 H   0  0  0  0  0  0  0  0  0  0  0  0
  147.4260  137.4397  162.8510 H   0  0  0  0  0  0  0  0  0  0  0  0
  145.5029  136.4888  161.5272 H   0  0  0  0  0  0  0  0  0  0  0  0
  146.3983  134.8885  161.3918 H   0  0  0  0  0  0  0  0  0  0  0  0
  151.9959  145.7146  158.6551 H   0  0  0  0  0  0  0  0  0  0  0  0
  151.9822  142.9062  159.9800 H   0  0  0  0  0  0  0  0  0  0  0  0
  153.4461  143.8378  159.3696 H   0  0  0  0  0  0  0  0  0  0  0  0
  152.9296  145.6923  160.9713 H   0  0  0  0  0  0  0  0  0  0  0  0
  151.4530  144.7766  161.5746 H   0  0  0  0  0  0  0  0  0  0  0  0
  1  2  1  0  0  0  0
  1 26  1  0  0  0  0
  1 27  1  0  0  0  0
  1 28  1  0  0  0  0
  2  3  1  0  0  0  0
  2 23  1  0  0  0  0
  2 29  1  0  0  0  0
  3  4  1  0  0  0  0
  3 30  1  0  0  0  0
  4  5  2  0  0  0  0
  4  6  1  0  0  0  0
  6  7  1  0  0  0  0
  6 31  1  0  0  0  0
  6 32  1  0  0  0  0
  7 21  1  0  0  0  0
  7  8  1  0  0  0  0
  8  9  2  0  0  0  0
  8 33  1  0  0  0  0
  9 10  1  0  0  0  0
  9 34  1  0  0  0  0
 10 11  2  0  0  0  0
 10 35  1  0  0  0  0
 11 12  1  0  0  0  0
 11 21  1  0  0  0  0
 12 13  2  0  0  0  0
 12 14  1  0  0  0  0
 14 15  1  0  0  0  0
 14 16  1  0  0  0  0
 15 36  1  0  0  0  0
 15 37  1  0  0  0  0
 15 38  1  0  0  0  0
 16 17  1  0  0  0  0
 16 18  1  0  0  0  0
 16 39  1  0  0  0  0
 17 40  1  0  0  0  0
 17 41  1  0  0  0  0
 17 42  1  0  0  0  0
 18 20  1  0  0  0  0
 18 19  1  0  0  0  0
 18 43  1  0  0  0  0
 19 20  1  0  0  0  0
 19 44  1  0  0  0  0
 19 45  1  0  0  0  0
 20 46  1  0  0  0  0
 20 47  1  0  0  0  0
 21 22  2  0  0  0  0
 23 25  1  0  0  0  0
 23 24  1  0  0  0  0
 23 48  1  0  0  0  0
 24 25  1  0  0  0  0
 24 49  1  0  0  0  0
 24 50  1  0  0  0  0
 25 51  1  0  0  0  0
 25 52  1  0  0  0  0
M  END
> <s_m_source_file>
AV-unprocessed.smi

> <i_m_source_file_index>
2862

> <i_lp_mmshare_version>
43012

> <i_f3d_flags>
0

> <s_epik_input>
W0NIMl0xW0NIMl1bQ0hdMVtDQEhdKFtDSDNdKVtOSF1DKD1PKVtDSDJdbjJbY0hdW2NIXVtjSF1jKGMyPU8pQyg9TylOKFtDSDNdKVtDQEhdKFtDSDNdKVtDSF0zW0NIMl1bQ0gyXTM=

> <s_epik_cmdline>
J2VwaWtfcHl0aG9uJywgJy1waCcsICc3LjAnLCAnLXRuJywgJzgnLCAnLW1hJywgJzIwMCcsICctbWV0YWxfYmluZGluZycsICctaW1hZScsICc8aW5maWxlLm1hZT4nLCAnLW9tYWUnLCAnPG91dGZpbGUubWFlPic=

> <r_lp_tautomer_probability>
1

> <r_epik_Ionization_Penalty>
4.00841e-08

> <r_epik_Ionization_Penalty_Charging>
2.07773e-08

> <r_epik_Ionization_Penalty_Neutral>
1.93069e-08

> <r_epik_State_Penalty>
-0

> <r_epik_Charging_Adjusted_Penalty>
2.07773e-08

> <i_epik_Tot_Q>
0

> <i_epik_Tot_abs_Q>
0

> <r_epik_Metal_State_Penalty>
-0

> <b_epik_Metal_Only>
0

> <s_lp_Force_Field>
OPLS_2005

> <r_lp_Energy>
63.2381

> <b_lp_Chiralities_Consistent>
1

> <s_lp_Variant>
AV-unprocessed.smi:2862-1

> <Gold.Version>
5.8.1

> <Gold.Id.Protein>
6NUR|6NUR_protein|mol2

> <Gold.PLP.Fitness>
42.9381

> <Gold.PLP.PLP>
-39.7666

> <Gold.PLP.part.hbond>
-4.4135

> <Gold.PLP.part.metal>
0.0000

> <Gold.PLP.part.buried>
-0.4884

> <Gold.PLP.part.nonpolar>
-35.8501

> <Gold.PLP.part.repulsive>
0.0476

> <Gold.PLP.ligand.clash>
1.1158

> <Gold.PLP.ligand.torsion>
3.1672

> <Gold.PLP.Chemscore.Hbond>
2.0000

> <Gold.PLP.Chemscore.CHOScore>
0.0000

> <Gold.PLP.Chemscore.Metal>
0.0000

> <Gold.Chemscore.Hbonds>
donor molecule, donor type, donor heavy atom, donor atom, acceptor molecule, acceptor atom, score
      L1  H     3    30       P1  8028  0.95
      P1  H  6896  6907       L1    13  1.00

> <Gold.PLP.Chemscore.Internal.Correction>
4.6217

> <Gold.Rescore>
     Score         DG    S(hbond)    S(metal)    S(lipo)     H(rot)  DE(clash)    DE(int)     intcor
      9.74     -20.35       1.90        0.00     110.90       1.73       0.28      10.34       ----

> <Gold.Chemscore.Fitness>
9.7383

> <Gold.Chemscore.DG>
-20.3507

> <Gold.Chemscore.ZeroCoef>
-5.4800

> <Gold.Chemscore.Hbond>
1.8971

> <Gold.Chemscore.Metal>
0.0000

> <Gold.Chemscore.Lipo>
110.9033

> <Gold.Chemscore.Internal_Hbond>
0.0000

> <Gold.Chemscore.DEClash>
0.2768

> <Gold.Chemscore.DEInternal>
10.3357

> <Gold.Chemscore.Rot>
1.7348

> <Gold.Chemscore.Internal.Correction>
   9.000000E+99

> <Gold.Chemscore.Hbonds>
donor molecule, donor type, donor heavy atom, donor atom, acceptor molecule, acceptor atom, score
      L1  H     3    30       P1  8028  0.21
      P1  H  6896  6907       L1    13  0.97

> <Gold.Chemscore.Hbond.Weighted>
-6.3362

> <Gold.Chemscore.Metal.Weighted>
-0.0000

> <Gold.Chemscore.Lipo.Weighted>
-12.9757

> <Gold.Chemscore.Internal_Hbond.Weighted>
0.0000

> <Gold.Chemscore.DEClash.Weighted>
0.2768

> <Gold.Chemscore.DEInternal.Weighted>
10.3357

> <Gold.Chemscore.Rot.Weighted>
4.4412

> <Gold.Chemscore.Internal.Correction.Weighted>
   9.000000E+99

> <Gold.Protein.RotatedTorsions>
[ 6907 6896 6895 6894 ] final    5.30 input  -60.11 | X-H torsion
[ 7974 7965 7964 7962 ] final  102.85 input  175.53 | X-H torsion
[ 8008 7997 7996 7995 ] final  -15.04 input   59.86 | X-H torsion
[ 10167 10162 10161 10158 ] final -113.09 input  -65.29 | X-H torsion
[ 10718 10713 10712 10709 ] final  131.14 input   66.30 | X-H torsion
[ 10763 10752 10751 10750 ] final  100.62 input  -60.55 | X-H torsion
[ 11005 11000 10999 10996 ] final   38.65 input  -57.11 | X-H torsion

> <Gold.Protein.ActiveResidues>
 VAL166  LYS551  ARG553  GLY616  TRP617  ASP618  TYR619  PRO620  LYS621  CYS622 
 ASP623  PHE694  ASN695  SER759  ASP760  ASP761  ALA762  ILE779  LEU786  VAL792 
 PHE793  MET794  SER795  GLU796  ALA797  LYS798  CYS799  TRP800  GLU811  SER814 

> <Gold.Protein.RotatedAtoms>
  151.6552  135.0996  160.0168 H   0  0  0  0  0  0  0  0  0  0  0  0  # atno 6907 bound_to 6896
  152.3978  133.6768  159.6299 H   0  0  0  0  0  0  0  0  0  0  0  0  # atno 6908 bound_to 6896
  150.7882  133.8760  159.3313 H   0  0  0  0  0  0  0  0  0  0  0  0  # atno 6909 bound_to 6896
  145.3536  139.2433  143.3545 H   0  0  0  0  0  0  0  0  0  0  0  0  # atno 7974 bound_to 7965
  154.5162  140.2207  155.9062 H   0  0  0  0  0  0  0  0  0  0  0  0  # atno 8008 bound_to 7997
  156.1610  140.3142  155.8773 H   0  0  0  0  0  0  0  0  0  0  0  0  # atno 8009 bound_to 7997
  155.3751  140.0469  157.3035 H   0  0  0  0  0  0  0  0  0  0  0  0  # atno 8010 bound_to 7997
  140.1156  143.4488  152.1724 H   0  0  0  0  0  0  0  0  0  0  0  0  # atno 10167 bound_to 10162
  157.4996  131.1093  150.9445 H   0  0  0  0  0  0  0  0  0  0  0  0  # atno 10718 bound_to 10713
  153.3163  135.4072  155.1379 H   0  0  0  0  0  0  0  0  0  0  0  0  # atno 10763 bound_to 10752
  154.8589  135.3576  154.5656 H   0  0  0  0  0  0  0  0  0  0  0  0  # atno 10764 bound_to 10752
  153.6087  135.7068  153.5414 H   0  0  0  0  0  0  0  0  0  0  0  0  # atno 10765 bound_to 10752
  140.2105  134.3761  155.8051 H   0  0  0  0  0  0  0  0  0  0  0  0  # atno 11005 bound_to 11000
  146.2957  140.4157  142.8722 LP  0  0  0  0  0  0  0  0  0  0  0  0  # atno 17320 bound_to 7965
  144.8699  140.7258  143.6053 LP  0  0  0  0  0  0  0  0  0  0  0  0  # atno 17321 bound_to 7965
  139.5596  144.7396  151.4194 LP  0  0  0  0  0  0  0  0  0  0  0  0  # atno 17342 bound_to 10162
  140.6901  143.7882  150.7243 LP  0  0  0  0  0  0  0  0  0  0  0  0  # atno 17343 bound_to 10162
  157.0120  130.5640  149.5322 LP  0  0  0  0  0  0  0  0  0  0  0  0  # atno 17370 bound_to 10713
  156.0221  130.5316  150.8305 LP  0  0  0  0  0  0  0  0  0  0  0  0  # atno 17371 bound_to 10713
  141.2226  133.7141  156.8410 LP  0  0  0  0  0  0  0  0  0  0  0  0  # atno 17394 bound_to 11000
  140.1956  134.8934  157.3110 LP  0  0  0  0  0  0  0  0  0  0  0  0  # atno 17395 bound_to 11000

$$$$
