AV-unprocessed.smi:767|AV-procd|sdf|3668|dock7
  -GOLD-   22720 1 73D 1   1.00000     0.00000
 Structure written by MMmdl.
 48 50  0  0  0  0  0  0  0  0  2 V2000
  145.9349  129.9644  151.3604 C   0  0  0  0  0  0  0  0  0  0  0  0
  145.6562  131.4461  151.2235 C   0  0  0  0  0  0  0  0  0  0  0  0
  144.3442  131.9653  151.1899 C   0  0  0  0  0  0  0  0  0  0  0  0
  144.1579  133.3564  151.0532 C   0  0  0  0  0  0  0  0  0  0  0  0
  145.2860  134.2006  150.9526 C   0  0  0  0  0  0  0  0  0  0  0  0
  145.1210  135.6983  150.7588 C   0  0  0  0  0  0  0  0  0  0  0  0
  145.1674  136.5006  152.0748 C   0  0  0  0  0  0  0  0  0  0  0  0
  146.5015  137.0206  152.3679 N   0  0  0  0  0  0  0  0  0  0  0  0
  146.8232  137.7824  153.4236 C   0  0  0  0  0  0  0  0  0  0  0  0
  146.0196  138.1515  154.2804 O   0  0  0  0  0  0  0  0  0  0  0  0
  148.1291  138.0774  153.4469 N   0  0  0  0  0  0  0  0  0  0  0  0
  148.7737  138.8440  154.5075 C   0  0  1  0  0  0  0  0  0  0  0  0
  150.1476  139.3911  154.0907 C   0  0  2  0  0  0  0  0  0  0  0  0
  151.3910  138.8887  154.7722 C   0  0  0  0  0  0  0  0  0  0  0  0
  151.6185  139.9260  155.8757 C   0  0  0  0  0  0  0  0  0  0  0  0
  150.3444  140.5373  156.0665 O   0  0  0  0  0  0  0  0  0  0  0  0
  149.7418  140.6838  154.7827 C   0  0  2  0  0  0  0  0  0  0  0  0
  148.2524  140.2943  154.6690 C   0  0  0  0  0  0  0  0  0  0  0  0
  147.5256  140.9242  153.4721 C   0  0  0  0  0  0  0  0  0  0  0  0
  147.3902  140.5681  155.9022 C   0  0  0  0  0  0  0  0  0  0  0  0
  146.5739  133.6252  151.0027 C   0  0  0  0  0  0  0  0  0  0  0  0
  146.7103  132.2876  151.1322 N   0  3  0  0  0  0  0  0  0  0  0  0
  145.0501  129.3767  151.1136 H   0  0  0  0  0  0  0  0  0  0  0  0
  146.2291  129.7282  152.3833 H   0  0  0  0  0  0  0  0  0  0  0  0
  146.7402  129.6601  150.6907 H   0  0  0  0  0  0  0  0  0  0  0  0
  143.4903  131.3077  151.2616 H   0  0  0  0  0  0  0  0  0  0  0  0
  143.1594  133.7664  151.0117 H   0  0  0  0  0  0  0  0  0  0  0  0
  145.8963  136.0600  150.0821 H   0  0  0  0  0  0  0  0  0  0  0  0
  144.1715  135.8803  150.2540 H   0  0  0  0  0  0  0  0  0  0  0  0
  144.4844  137.3476  152.0079 H   0  0  0  0  0  0  0  0  0  0  0  0
  144.8069  135.8885  152.9035 H   0  0  0  0  0  0  0  0  0  0  0  0
  147.2361  136.7742  151.7206 H   0  0  0  0  0  0  0  0  0  0  0  0
  148.7175  137.7363  152.7009 H   0  0  0  0  0  0  0  0  0  0  0  0
  148.8240  138.3150  155.4623 H   0  0  0  0  0  0  0  0  0  0  0  0
  150.2398  139.5249  153.0113 H   0  0  0  0  0  0  0  0  0  0  0  0
  151.2293  137.8975  155.1969 H   0  0  0  0  0  0  0  0  0  0  0  0
  152.2450  138.8291  154.0968 H   0  0  0  0  0  0  0  0  0  0  0  0
  151.9931  139.4825  156.7985 H   0  0  0  0  0  0  0  0  0  0  0  0
  152.3299  140.6850  155.5472 H   0  0  0  0  0  0  0  0  0  0  0  0
  150.0474  141.5883  154.2547 H   0  0  0  0  0  0  0  0  0  0  0  0
  147.4033  141.9998  153.6028 H   0  0  0  0  0  0  0  0  0  0  0  0
  146.5315  140.4979  153.3331 H   0  0  0  0  0  0  0  0  0  0  0  0
  148.0745  140.7775  152.5416 H   0  0  0  0  0  0  0  0  0  0  0  0
  147.2854  141.6375  156.0875 H   0  0  0  0  0  0  0  0  0  0  0  0
  147.8207  140.1256  156.8007 H   0  0  0  0  0  0  0  0  0  0  0  0
  146.3887  140.1515  155.7899 H   0  0  0  0  0  0  0  0  0  0  0  0
  147.4924  134.1881  150.9245 H   0  0  0  0  0  0  0  0  0  0  0  0
  147.6513  131.8943  151.1552 H   0  0  0  0  0  0  0  0  0  0  0  0
  1  2  1  0  0  0  0
  1 23  1  0  0  0  0
  1 24  1  0  0  0  0
  1 25  1  0  0  0  0
  2 22  1  0  0  0  0
  2  3  2  0  0  0  0
  3  4  1  0  0  0  0
  3 26  1  0  0  0  0
  4  5  2  0  0  0  0
  4 27  1  0  0  0  0
  5  6  1  0  0  0  0
  5 21  1  0  0  0  0
  6  7  1  0  0  0  0
  6 28  1  0  0  0  0
  6 29  1  0  0  0  0
  7  8  1  0  0  0  0
  7 30  1  0  0  0  0
  7 31  1  0  0  0  0
  8  9  1  0  0  0  0
  8 32  1  0  0  0  0
  9 10  2  0  0  0  0
  9 11  1  0  0  0  0
 11 12  1  0  0  0  0
 11 33  1  0  0  0  0
 12 18  1  0  0  0  0
 12 13  1  0  0  0  0
 12 34  1  0  0  0  0
 13 17  1  0  0  0  0
 13 14  1  0  0  0  0
 13 35  1  0  0  0  0
 14 15  1  0  0  0  0
 14 36  1  0  0  0  0
 14 37  1  0  0  0  0
 15 16  1  0  0  0  0
 15 38  1  0  0  0  0
 15 39  1  0  0  0  0
 16 17  1  0  0  0  0
 17 18  1  0  0  0  0
 17 40  1  0  0  0  0
 18 19  1  0  0  0  0
 18 20  1  0  0  0  0
 19 41  1  0  0  0  0
 19 42  1  0  0  0  0
 19 43  1  0  0  0  0
 20 44  1  0  0  0  0
 20 45  1  0  0  0  0
 20 46  1  0  0  0  0
 21 22  2  0  0  0  0
 21 47  1  0  0  0  0
 22 48  1  0  0  0  0
M  CHG  1  22   1
M  END
> <s_m_source_file>
AV-unprocessed.smi

> <i_m_source_file_index>
767

> <i_lp_mmshare_version>
43012

> <i_f3d_flags>
0

> <s_epik_input>
W0NIM11jMVtjSF1bY0hdYyhbY0hdbjEpW0NIMl1bQ0gyXVtOSF1DKD1PKVtOSF1bQ0BIXTJDKFtDSDNdKShbQ0gzXSlbQ0BIXShbQ0BASF0yMylPW0NIMl1bQ0gyXTM=

> <s_epik_cmdline>
J2VwaWtfcHl0aG9uJywgJy1waCcsICc3LjAnLCAnLXRuJywgJzgnLCAnLW1hJywgJzIwMCcsICctbWV0YWxfYmluZGluZycsICctaW1hZScsICc8aW5maWxlLm1hZT4nLCAnLW9tYWUnLCAnPG91dGZpbGUubWFlPic=

> <r_epik_Ionization_Penalty>
1.41853

> <r_epik_Ionization_Penalty_Charging>
1.41848

> <r_epik_Ionization_Penalty_Neutral>
5.17407e-05

> <r_epik_State_Penalty>
1.50205

> <r_epik_Charging_Adjusted_Penalty>
2.92053

> <i_epik_Tot_Q>
1

> <i_epik_Tot_abs_Q>
1

> <r_epik_Metal_State_Penalty>
1.5544

> <b_epik_Metal_Only>
0

> <s_lp_Force_Field>
OPLS_2005

> <r_lp_Energy>
39.2779

> <b_lp_Chiralities_Consistent>
1

> <s_lp_Variant>
AV-unprocessed.smi:767-12

> <Gold.Version>
5.8.1

> <Gold.Id.Protein>
6NUR|6NUR_protein|mol2

> <Gold.PLP.Fitness>
46.9525

> <Gold.PLP.PLP>
-40.6097

> <Gold.PLP.part.hbond>
-3.0000

> <Gold.PLP.part.metal>
0.0000

> <Gold.PLP.part.buried>
-3.0252

> <Gold.PLP.part.nonpolar>
-34.4922

> <Gold.PLP.part.repulsive>
0.2367

> <Gold.PLP.ligand.clash>
0.0000

> <Gold.PLP.ligand.torsion>
0.7104

> <Gold.PLP.Chemscore.Hbond>
2.5280

> <Gold.PLP.Chemscore.CHOScore>
0.0000

> <Gold.PLP.Chemscore.Metal>
0.0000

> <Gold.Chemscore.Hbonds>
donor molecule, donor type, donor heavy atom, donor atom, acceptor molecule, acceptor atom, score
      L1  H     8    32       P1  7948  0.75
      L1  H    11    33       P1  7948  0.77
      L1  H    22    48       P1 10747  0.96

> <Gold.PLP.Chemscore.Internal.Correction>
0.1796

> <Gold.Rescore>
     Score         DG    S(hbond)    S(metal)    S(lipo)     H(rot)  DE(clash)    DE(int)     intcor
     21.87     -22.75       2.58        0.00     107.24       1.52       0.22       0.67       ----

> <Gold.Chemscore.Fitness>
21.8678

> <Gold.Chemscore.DG>
-22.7534

> <Gold.Chemscore.ZeroCoef>
-5.4800

> <Gold.Chemscore.Hbond>
2.5827

> <Gold.Chemscore.Metal>
0.0000

> <Gold.Chemscore.Lipo>
107.2361

> <Gold.Chemscore.Internal_Hbond>
0.0000

> <Gold.Chemscore.DEClash>
0.2161

> <Gold.Chemscore.DEInternal>
0.6694

> <Gold.Chemscore.Rot>
1.5233

> <Gold.Chemscore.Internal.Correction>
   9.000000E+99

> <Gold.Chemscore.Hbonds>
donor molecule, donor type, donor heavy atom, donor atom, acceptor molecule, acceptor atom, score
      L1  H     8    32       P1  7948  0.74
      L1  H    11    33       P1  7948  0.76
      L1  H    22    48       P1 10747  0.92

> <Gold.Chemscore.Hbond.Weighted>
-8.6263

> <Gold.Chemscore.Metal.Weighted>
-0.0000

> <Gold.Chemscore.Lipo.Weighted>
-12.5466

> <Gold.Chemscore.Internal_Hbond.Weighted>
0.0000

> <Gold.Chemscore.DEClash.Weighted>
0.2161

> <Gold.Chemscore.DEInternal.Weighted>
0.6694

> <Gold.Chemscore.Rot.Weighted>
3.8995

> <Gold.Chemscore.Internal.Correction.Weighted>
   9.000000E+99

> <Gold.Protein.RotatedTorsions>
[ 6907 6896 6895 6894 ] final   51.67 input  -60.11 | X-H torsion
[ 7974 7965 7964 7962 ] final  -12.62 input  175.53 | X-H torsion
[ 8008 7997 7996 7995 ] final  -20.26 input   59.86 | X-H torsion
[ 10167 10162 10161 10158 ] final   26.98 input  -65.29 | X-H torsion
[ 10718 10713 10712 10709 ] final  -66.59 input   66.30 | X-H torsion
[ 10763 10752 10751 10750 ] final -118.67 input  -60.55 | X-H torsion
[ 11005 11000 10999 10996 ] final  174.66 input  -57.11 | X-H torsion

> <Gold.Protein.ActiveResidues>
 VAL166  LYS551  ARG553  GLY616  TRP617  ASP618  TYR619  PRO620  LYS621  CYS622 
 ASP623  PHE694  ASN695  SER759  ASP760  ASP761  ALA762  ILE779  LEU786  VAL792 
 PHE793  MET794  SER795  GLU796  ALA797  LYS798  CYS799  TRP800  GLU811  SER814 

> <Gold.Protein.RotatedAtoms>
  152.3152  134.7449  160.0326 H   0  0  0  0  0  0  0  0  0  0  0  0  # atno 6907 bound_to 6896
  151.7916  133.3354  159.3509 H   0  0  0  0  0  0  0  0  0  0  0  0  # atno 6908 bound_to 6896
  150.7340  134.5768  159.5962 H   0  0  0  0  0  0  0  0  0  0  0  0  # atno 6909 bound_to 6896
  146.2145  140.3083  142.8380 H   0  0  0  0  0  0  0  0  0  0  0  0  # atno 7974 bound_to 7965
  154.4782  140.2066  155.9828 H   0  0  0  0  0  0  0  0  0  0  0  0  # atno 8008 bound_to 7997
  156.1122  140.3227  155.8059 H   0  0  0  0  0  0  0  0  0  0  0  0  # atno 8009 bound_to 7997
  155.4614  140.0524  157.2981 H   0  0  0  0  0  0  0  0  0  0  0  0  # atno 8010 bound_to 7997
  140.4977  144.0365  150.6321 H   0  0  0  0  0  0  0  0  0  0  0  0  # atno 10167 bound_to 10162
  156.0604  130.4264  150.1731 H   0  0  0  0  0  0  0  0  0  0  0  0  # atno 10718 bound_to 10713
  154.8594  135.4265  154.2177 H   0  0  0  0  0  0  0  0  0  0  0  0  # atno 10763 bound_to 10752
  153.3188  135.6981  153.7054 H   0  0  0  0  0  0  0  0  0  0  0  0  # atno 10764 bound_to 10752
  153.6117  135.3518  155.2955 H   0  0  0  0  0  0  0  0  0  0  0  0  # atno 10765 bound_to 10752
  140.3537  134.7173  157.4285 H   0  0  0  0  0  0  0  0  0  0  0  0  # atno 11005 bound_to 11000
  144.9006  140.7638  143.5869 LP  0  0  0  0  0  0  0  0  0  0  0  0  # atno 17320 bound_to 7965
  145.3009  139.1851  143.4690 LP  0  0  0  0  0  0  0  0  0  0  0  0  # atno 17321 bound_to 7965
  140.3652  143.2885  152.0339 LP  0  0  0  0  0  0  0  0  0  0  0  0  # atno 17342 bound_to 10162
  139.4865  144.6272  151.7141 LP  0  0  0  0  0  0  0  0  0  0  0  0  # atno 17343 bound_to 10162
  156.9800  130.9861  151.3439 LP  0  0  0  0  0  0  0  0  0  0  0  0  # atno 17370 bound_to 10713
  157.5608  130.8244  149.8263 LP  0  0  0  0  0  0  0  0  0  0  0  0  # atno 17371 bound_to 10713
  140.0682  134.5899  155.8671 LP  0  0  0  0  0  0  0  0  0  0  0  0  # atno 17394 bound_to 11000
  141.2004  133.6612  156.5898 LP  0  0  0  0  0  0  0  0  0  0  0  0  # atno 17395 bound_to 11000

$$$$
