AV-unprocessed.smi:2172|AV-procd|sdf|8835|dock6
  -GOLD-   2272012 23D 1   1.00000     0.00000
 Structure written by MMmdl.
 36 38  0  0  0  0  0  0  0  0  1 V2000
  153.3100  139.6064  154.7490 O   0  0  0  0  0  0  0  0  0  0  0  0
  152.3208  139.2816  155.7021 C   0  0  0  0  0  0  0  0  0  0  0  0
  151.0092  139.9518  155.4265 C   0  0  0  0  0  0  0  0  0  0  0  0
  150.3879  139.8284  154.2533 N   0  0  0  0  0  0  0  0  0  0  0  0
  149.2417  140.5773  154.4359 C   0  0  0  0  0  0  0  0  0  0  0  0
  148.1668  140.8396  153.5565 C   0  0  0  0  0  0  0  0  0  0  0  0
  147.0868  141.6466  153.9702 C   0  0  0  0  0  0  0  0  0  0  0  0
  147.0656  142.2015  155.2663 C   0  0  0  0  0  0  0  0  0  0  0  0
  148.1265  141.9522  156.1583 C   0  0  0  0  0  0  0  0  0  0  0  0
  149.2023  141.1458  155.7406 C   0  0  0  0  0  0  0  0  0  0  0  0
  150.3755  140.7146  156.3527 N   0  0  0  0  0  0  0  0  0  0  0  0
  150.8070  141.0262  157.7088 C   0  0  0  0  0  0  0  0  0  0  0  0
  151.4395  142.4271  157.8310 C   0  0  1  0  0  0  0  0  0  0  0  0
  150.5322  143.4123  157.3750 O   0  0  0  0  0  0  0  0  0  0  0  0
  151.9171  142.6891  159.2511 C   0  0  0  0  0  0  0  0  0  0  0  0
  151.4675  143.8190  159.9704 C   0  0  0  0  0  0  0  0  0  0  0  0
  151.9080  144.0420  161.2896 C   0  0  0  0  0  0  0  0  0  0  0  0
  152.7966  143.1352  161.8990 C   0  0  0  0  0  0  0  0  0  0  0  0
  153.3346  143.4075  163.5156 Cl  0  0  0  0  0  0  0  0  0  0  0  0
  153.2437  142.0045  161.1886 C   0  0  0  0  0  0  0  0  0  0  0  0
  152.8045  141.7820  159.8691 C   0  0  0  0  0  0  0  0  0  0  0  0
  153.3887  138.8872  154.1412 H   0  0  0  0  0  0  0  0  0  0  0  0
  152.1886  138.2007  155.7322 H   0  0  0  0  0  0  0  0  0  0  0  0
  152.6772  139.5797  156.6888 H   0  0  0  0  0  0  0  0  0  0  0  0
  148.1733  140.4184  152.5621 H   0  0  0  0  0  0  0  0  0  0  0  0
  146.2709  141.8412  153.2897 H   0  0  0  0  0  0  0  0  0  0  0  0
  146.2349  142.8189  155.5754 H   0  0  0  0  0  0  0  0  0  0  0  0
  148.1154  142.3783  157.1506 H   0  0  0  0  0  0  0  0  0  0  0  0
  149.9476  140.9403  158.3750 H   0  0  0  0  0  0  0  0  0  0  0  0
  151.5142  140.2628  158.0341 H   0  0  0  0  0  0  0  0  0  0  0  0
  152.3056  142.4853  157.1716 H   0  0  0  0  0  0  0  0  0  0  0  0
  150.4742  143.3533  156.4337 H   0  0  0  0  0  0  0  0  0  0  0  0
  150.7804  144.5172  159.5153 H   0  0  0  0  0  0  0  0  0  0  0  0
  151.5616  144.9086  161.8335 H   0  0  0  0  0  0  0  0  0  0  0  0
  153.9222  141.3052  161.6548 H   0  0  0  0  0  0  0  0  0  0  0  0
  153.1495  140.9096  159.3335 H   0  0  0  0  0  0  0  0  0  0  0  0
  1  2  1  0  0  0  0
  1 22  1  0  0  0  0
  2  3  1  0  0  0  0
  2 23  1  0  0  0  0
  2 24  1  0  0  0  0
  3 11  1  0  0  0  0
  3  4  2  0  0  0  0
  4  5  1  0  0  0  0
  5 10  2  0  0  0  0
  5  6  1  0  0  0  0
  6  7  2  0  0  0  0
  6 25  1  0  0  0  0
  7  8  1  0  0  0  0
  7 26  1  0  0  0  0
  8  9  2  0  0  0  0
  8 27  1  0  0  0  0
  9 10  1  0  0  0  0
  9 28  1  0  0  0  0
 10 11  1  0  0  0  0
 11 12  1  0  0  0  0
 12 13  1  0  0  0  0
 12 29  1  0  0  0  0
 12 30  1  0  0  0  0
 13 14  1  0  0  0  0
 13 15  1  0  0  0  0
 13 31  1  0  0  0  0
 14 32  1  0  0  0  0
 15 21  1  0  0  0  0
 15 16  2  0  0  0  0
 16 17  1  0  0  0  0
 16 33  1  0  0  0  0
 17 18  2  0  0  0  0
 17 34  1  0  0  0  0
 18 19  1  0  0  0  0
 18 20  1  0  0  0  0
 20 21  2  0  0  0  0
 20 35  1  0  0  0  0
 21 36  1  0  0  0  0
M  END
> <s_m_source_file>
AV-unprocessed.smi

> <i_m_source_file_index>
2172

> <i_lp_mmshare_version>
43012

> <i_f3d_flags>
0

> <s_epik_input>
W2NIXTFbY0hdW2NIXVtjSF1jKGMxMiluKGMobjIpW0NIMl1bT0hdKVtDSDJdW0NASF0oW09IXSljM1tjSF1bY0hdYyhDbClbY0hdW2NIXTM=

> <s_epik_cmdline>
J2VwaWtfcHl0aG9uJywgJy1waCcsICc3LjAnLCAnLXRuJywgJzgnLCAnLW1hJywgJzIwMCcsICctbWV0YWxfYmluZGluZycsICctaW1hZScsICc8aW5maWxlLm1hZT4nLCAnLW9tYWUnLCAnPG91dGZpbGUubWFlPic=

> <r_epik_Ionization_Penalty>
0.0634726

> <r_epik_Ionization_Penalty_Charging>
0

> <r_epik_Ionization_Penalty_Neutral>
0.0634726

> <r_epik_State_Penalty>
0.0551572

> <r_epik_Charging_Adjusted_Penalty>
0.0551572

> <i_epik_Tot_Q>
0

> <i_epik_Tot_abs_Q>
0

> <r_epik_Metal_State_Penalty>
5.78034e-05

> <b_epik_Metal_Only>
0

> <s_lp_Force_Field>
OPLS_2005

> <r_lp_Energy>
11.6759

> <b_lp_Chiralities_Consistent>
1

> <s_lp_Variant>
AV-unprocessed.smi:2172-2

> <Gold.Version>
5.8.1

> <Gold.Id.Protein>
6NUR|6NUR_protein|mol2

> <Gold.PLP.Fitness>
56.1353

> <Gold.PLP.PLP>
-51.9669

> <Gold.PLP.part.hbond>
-4.0000

> <Gold.PLP.part.metal>
0.0000

> <Gold.PLP.part.buried>
-0.0968

> <Gold.PLP.part.nonpolar>
-46.3497

> <Gold.PLP.part.repulsive>
0.1440

> <Gold.PLP.ligand.clash>
0.0000

> <Gold.PLP.ligand.torsion>
0.3321

> <Gold.PLP.Chemscore.Hbond>
1.5980

> <Gold.PLP.Chemscore.CHOScore>
0.0000

> <Gold.PLP.Chemscore.Metal>
0.0000

> <Gold.Chemscore.Hbonds>
donor molecule, donor type, donor heavy atom, donor atom, acceptor molecule, acceptor atom, score
      L1  H    14    32       P1  8028  0.11
      P1  H  7989  7998       L1     4  0.50
      P1  H  7997  8008       L1     1  1.00

> <Gold.PLP.Chemscore.Internal.Correction>
0.0385

> <Gold.Rescore>
     Score         DG    S(hbond)    S(metal)    S(lipo)     H(rot)  DE(clash)    DE(int)     intcor
     15.36     -17.23       0.84        0.00     134.01       2.62       0.99       0.88       ----

> <Gold.Chemscore.Fitness>
15.3631

> <Gold.Chemscore.DG>
-17.2348

> <Gold.Chemscore.ZeroCoef>
-5.4800

> <Gold.Chemscore.Hbond>
0.8357

> <Gold.Chemscore.Metal>
0.0000

> <Gold.Chemscore.Lipo>
134.0085

> <Gold.Chemscore.Internal_Hbond>
0.0000

> <Gold.Chemscore.DEClash>
0.9925

> <Gold.Chemscore.DEInternal>
0.8792

> <Gold.Chemscore.Rot>
2.6232

> <Gold.Chemscore.Internal.Correction>
   9.000000E+99

> <Gold.Chemscore.Hbonds>
donor molecule, donor type, donor heavy atom, donor atom, acceptor molecule, acceptor atom, score
      L1  H    14    32       P1  8028  0.11
      P1  H  7989  7998       L1     4  0.01
      P1  H  7997  8008       L1     1  0.40

> <Gold.Chemscore.Hbond.Weighted>
-2.7913

> <Gold.Chemscore.Metal.Weighted>
-0.0000

> <Gold.Chemscore.Lipo.Weighted>
-15.6790

> <Gold.Chemscore.Internal_Hbond.Weighted>
0.0000

> <Gold.Chemscore.DEClash.Weighted>
0.9925

> <Gold.Chemscore.DEInternal.Weighted>
0.8792

> <Gold.Chemscore.Rot.Weighted>
6.7154

> <Gold.Chemscore.Internal.Correction.Weighted>
   9.000000E+99

> <Gold.Protein.RotatedTorsions>
[ 6907 6896 6895 6894 ] final -150.10 input  -60.11 | X-H torsion
[ 7974 7965 7964 7962 ] final   53.48 input  175.53 | X-H torsion
[ 8008 7997 7996 7995 ] final   -2.40 input   59.86 | X-H torsion
[ 10167 10162 10161 10158 ] final  169.52 input  -65.29 | X-H torsion
[ 10718 10713 10712 10709 ] final  125.17 input   66.30 | X-H torsion
[ 10763 10752 10751 10750 ] final  178.56 input  -60.55 | X-H torsion
[ 11005 11000 10999 10996 ] final -166.70 input  -57.11 | X-H torsion

> <Gold.Protein.ActiveResidues>
 VAL166  LYS551  ARG553  GLY616  TRP617  ASP618  TYR619  PRO620  LYS621  CYS622 
 ASP623  PHE694  ASN695  SER759  ASP760  ASP761  ALA762  ILE779  LEU786  VAL792 
 PHE793  MET794  SER795  GLU796  ALA797  LYS798  CYS799  TRP800  GLU811  SER814 

> <Gold.Protein.RotatedAtoms>
  151.1937  133.4652  159.2595 H   0  0  0  0  0  0  0  0  0  0  0  0  # atno 6907 bound_to 6896
  151.1138  135.0041  159.8516 H   0  0  0  0  0  0  0  0  0  0  0  0  # atno 6908 bound_to 6896
  152.5452  134.1854  159.8705 H   0  0  0  0  0  0  0  0  0  0  0  0  # atno 6909 bound_to 6896
  145.9707  139.4146  143.0192 H   0  0  0  0  0  0  0  0  0  0  0  0  # atno 7974 bound_to 7965
  154.6362  140.2535  155.7375 H   0  0  0  0  0  0  0  0  0  0  0  0  # atno 8008 bound_to 7997
  156.2505  140.2897  156.0656 H   0  0  0  0  0  0  0  0  0  0  0  0  # atno 8009 bound_to 7997
  155.1667  140.0385  157.2844 H   0  0  0  0  0  0  0  0  0  0  0  0  # atno 8010 bound_to 7997
  139.4994  144.3697  151.9738 H   0  0  0  0  0  0  0  0  0  0  0  0  # atno 10167 bound_to 10162
  157.5525  131.1093  150.8678 H   0  0  0  0  0  0  0  0  0  0  0  0  # atno 10718 bound_to 10713
  154.5093  135.2787  155.1356 H   0  0  0  0  0  0  0  0  0  0  0  0  # atno 10763 bound_to 10752
  154.2958  135.6258  153.5408 H   0  0  0  0  0  0  0  0  0  0  0  0  # atno 10764 bound_to 10752
  152.9916  135.5685  154.5554 H   0  0  0  0  0  0  0  0  0  0  0  0  # atno 10765 bound_to 10752
  140.5615  134.5328  157.5144 H   0  0  0  0  0  0  0  0  0  0  0  0  # atno 11005 bound_to 11000
  145.7910  140.9814  143.1049 LP  0  0  0  0  0  0  0  0  0  0  0  0  # atno 17320 bound_to 7965
  144.6836  139.9682  143.7481 LP  0  0  0  0  0  0  0  0  0  0  0  0  # atno 17321 bound_to 7965
  140.3133  144.3513  150.6028 LP  0  0  0  0  0  0  0  0  0  0  0  0  # atno 17342 bound_to 10162
  140.5781  143.2175  151.7477 LP  0  0  0  0  0  0  0  0  0  0  0  0  # atno 17343 bound_to 10162
  156.9199  130.5311  149.5279 LP  0  0  0  0  0  0  0  0  0  0  0  0  # atno 17370 bound_to 10713
  156.0589  130.5645  150.9151 LP  0  0  0  0  0  0  0  0  0  0  0  0  # atno 17371 bound_to 10713
  139.9405  134.7795  156.0690 LP  0  0  0  0  0  0  0  0  0  0  0  0  # atno 17394 bound_to 11000
  141.1111  133.6643  156.2982 LP  0  0  0  0  0  0  0  0  0  0  0  0  # atno 17395 bound_to 11000

$$$$
