AV-unprocessed.smi:1813|AV-procd|sdf|7345|dock6
  -GOLD-   22720 9 03D 1   1.00000     0.00000
 Structure written by MMmdl.
 39 40  0  0  0  0  0  0  0  0  3 V2000
  143.7444  146.0821  155.8203 C   0  0  0  0  0  0  0  0  0  0  0  0
  143.6715  144.7042  155.3488 N   0  5  0  0  0  0  0  0  0  0  0  0
  144.2841  143.6639  155.9752 C   0  0  0  0  0  0  0  0  0  0  0  0
  145.0095  143.6390  156.9752 O   0  0  0  0  0  0  0  0  0  0  0  0
  143.9561  142.3339  155.2871 C   0  0  0  0  0  0  0  0  0  0  0  0
  145.1918  141.7245  154.7352 N   0  3  2  0  0  0  0  0  0  0  0  0
  145.9535  140.9707  155.7628 C   0  0  0  0  0  0  0  0  0  0  0  0
  147.1464  140.2268  155.1370 C   0  0  0  0  0  0  0  0  0  0  0  0
  148.0785  141.1786  154.3612 C   0  0  2  0  0  0  0  0  0  0  0  0
  148.8209  142.0652  155.2571 N   0  0  0  0  0  0  0  0  0  0  0  0
  149.8337  141.6915  156.0528 C   0  0  0  0  0  0  0  0  0  0  0  0
  150.2498  140.5347  156.1221 O   0  0  0  0  0  0  0  0  0  0  0  0
  150.3168  142.7352  156.7497 N   0  0  0  0  0  0  0  0  0  0  0  0
  151.3743  142.7434  157.6971 C   0  0  0  0  0  0  0  0  0  0  0  0
  151.8486  141.6515  158.3081 N   0  0  0  0  0  0  0  0  0  0  0  0
  152.8878  141.9547  159.1915 C   0  0  0  0  0  0  0  0  0  0  0  0
  153.1921  143.2923  159.2423 C   0  0  0  0  0  0  0  0  0  0  0  0
  152.1820  144.2296  158.1740 S   0  0  0  0  0  0  0  0  0  0  0  0
  147.2559  141.9981  153.3522 C   0  0  0  0  0  0  0  0  0  0  0  0
  146.0568  142.6990  154.0163 C   0  0  0  0  0  0  0  0  0  0  0  0
  143.2284  146.7680  155.1490 H   0  0  0  0  0  0  0  0  0  0  0  0
  144.7703  146.4423  155.9010 H   0  0  0  0  0  0  0  0  0  0  0  0
  143.2870  146.2084  156.8021 H   0  0  0  0  0  0  0  0  0  0  0  0
  143.4424  141.6290  155.9450 H   0  0  0  0  0  0  0  0  0  0  0  0
  143.2599  142.5619  154.4787 H   0  0  0  0  0  0  0  0  0  0  0  0
  146.2959  141.6556  156.5402 H   0  0  0  0  0  0  0  0  0  0  0  0
  145.2985  140.2455  156.2471 H   0  0  0  0  0  0  0  0  0  0  0  0
  147.6985  139.6890  155.9085 H   0  0  0  0  0  0  0  0  0  0  0  0
  146.7687  139.4643  154.4543 H   0  0  0  0  0  0  0  0  0  0  0  0
  148.8032  140.5838  153.8020 H   0  0  0  0  0  0  0  0  0  0  0  0
  148.5498  143.0378  155.2622 H   0  0  0  0  0  0  0  0  0  0  0  0
  149.8773  143.6287  156.5852 H   0  0  0  0  0  0  0  0  0  0  0  0
  153.3558  141.1545  159.7459 H   0  0  0  0  0  0  0  0  0  0  0  0
  153.9471  143.7806  159.8405 H   0  0  0  0  0  0  0  0  0  0  0  0
  147.8899  142.7321  152.8532 H   0  0  0  0  0  0  0  0  0  0  0  0
  146.8880  141.3346  152.5683 H   0  0  0  0  0  0  0  0  0  0  0  0
  145.4839  143.2166  153.2467 H   0  0  0  0  0  0  0  0  0  0  0  0
  146.4024  143.4631  154.7141 H   0  0  0  0  0  0  0  0  0  0  0  0
  144.8823  141.0459  154.0540 H   0  0  0  0  0  0  0  0  0  0  0  0
  1  2  1  0  0  0  0
  1 21  1  0  0  0  0
  1 22  1  0  0  0  0
  1 23  1  0  0  0  0
  2  3  1  0  0  0  0
  3  4  2  0  0  0  0
  3  5  1  0  0  0  0
  5  6  1  0  0  0  0
  5 24  1  0  0  0  0
  5 25  1  0  0  0  0
  6 20  1  0  0  0  0
  6  7  1  0  0  0  0
  6 39  1  0  0  0  0
  7  8  1  0  0  0  0
  7 26  1  0  0  0  0
  7 27  1  0  0  0  0
  8  9  1  0  0  0  0
  8 28  1  0  0  0  0
  8 29  1  0  0  0  0
  9 10  1  0  0  0  0
  9 19  1  0  0  0  0
  9 30  1  0  0  0  0
 10 11  1  0  0  0  0
 10 31  1  0  0  0  0
 11 12  2  0  0  0  0
 11 13  1  0  0  0  0
 13 14  1  0  0  0  0
 13 32  1  0  0  0  0
 14 18  1  0  0  0  0
 14 15  2  0  0  0  0
 15 16  1  0  0  0  0
 16 17  2  0  0  0  0
 16 33  1  0  0  0  0
 17 18  1  0  0  0  0
 17 34  1  0  0  0  0
 19 20  1  0  0  0  0
 19 35  1  0  0  0  0
 19 36  1  0  0  0  0
 20 37  1  0  0  0  0
 20 38  1  0  0  0  0
M  CHG  1   2  -1
M  CHG  1   6   1
M  END
> <s_m_source_file>
AV-unprocessed.smi

> <i_m_source_file_index>
1813

> <i_lp_mmshare_version>
43012

> <i_f3d_flags>
0

> <s_epik_input>
W0NIM11bTkhdQyg9TylbQ0gyXU4xW0NIMl1bQ0gyXVtDSF0oW0NIMl1bQ0gyXTEpW05IXUMoPU8pW05IXWMybltjSF1bY0hdczI=

> <s_epik_cmdline>
J2VwaWtfcHl0aG9uJywgJy1waCcsICc3LjAnLCAnLXRuJywgJzgnLCAnLW1hJywgJzIwMCcsICctbWV0YWxfYmluZGluZycsICctaW1hZScsICc8aW5maWxlLm1hZT4nLCAnLW9tYWUnLCAnPG91dGZpbGUubWFlPic=

> <r_lp_tautomer_probability>
0.999

> <r_epik_Ionization_Penalty>
6.14232

> <r_epik_Ionization_Penalty_Charging>
6.14218

> <r_epik_Ionization_Penalty_Neutral>
0.000139308

> <r_epik_State_Penalty>
6.98503

> <r_epik_Charging_Adjusted_Penalty>
13.1272

> <i_epik_Tot_Q>
0

> <i_epik_Tot_abs_Q>
2

> <r_epik_Metal_State_Penalty>
2.95036

> <b_epik_Metal_Only>
1

> <s_lp_Force_Field>
OPLS_2005

> <r_lp_Energy>
8.34863

> <b_lp_Chiralities_Consistent>
1

> <s_lp_Variant>
AV-unprocessed.smi:1813-6

> <Gold.Version>
5.8.1

> <Gold.Id.Protein>
6NUR|6NUR_protein|mol2

> <Gold.PLP.Fitness>
44.8705

> <Gold.PLP.PLP>
-33.7137

> <Gold.PLP.part.hbond>
-3.0000

> <Gold.PLP.part.metal>
0.0000

> <Gold.PLP.part.buried>
-6.4251

> <Gold.PLP.part.nonpolar>
-26.1222

> <Gold.PLP.part.repulsive>
0.4135

> <Gold.PLP.ligand.clash>
0.0000

> <Gold.PLP.ligand.torsion>
0.4207

> <Gold.PLP.Chemscore.Hbond>
3.9825

> <Gold.PLP.Chemscore.CHOScore>
0.0000

> <Gold.PLP.Chemscore.Metal>
0.0000

> <Gold.Chemscore.Hbonds>
donor molecule, donor type, donor heavy atom, donor atom, acceptor molecule, acceptor atom, score
      L1  H     6    39       P1 10175  1.92
      L1  H    10    31       P1  8028  1.00
      L1  H    13    32       P1  8028  1.00

> <Gold.PLP.Chemscore.Internal.Correction>
0.0507

> <Gold.Rescore>
     Score         DG    S(hbond)    S(metal)    S(lipo)     H(rot)  DE(clash)    DE(int)     intcor
     15.81     -18.66       2.75        0.00      72.07       1.73       1.24       1.61       ----

> <Gold.Chemscore.Fitness>
15.8075

> <Gold.Chemscore.DG>
-18.6586

> <Gold.Chemscore.ZeroCoef>
-5.4800

> <Gold.Chemscore.Hbond>
2.7481

> <Gold.Chemscore.Metal>
0.0000

> <Gold.Chemscore.Lipo>
72.0663

> <Gold.Chemscore.Internal_Hbond>
0.0000

> <Gold.Chemscore.DEClash>
1.2365

> <Gold.Chemscore.DEInternal>
1.6147

> <Gold.Chemscore.Rot>
1.7312

> <Gold.Chemscore.Internal.Correction>
   9.000000E+99

> <Gold.Chemscore.Hbonds>
donor molecule, donor type, donor heavy atom, donor atom, acceptor molecule, acceptor atom, score
      L1  H     6    39       P1 10175  0.74
      L1  H    10    31       P1  8028  0.96
      L1  H    13    32       P1  8028  0.98

> <Gold.Chemscore.Hbond.Weighted>
-9.1787

> <Gold.Chemscore.Metal.Weighted>
-0.0000

> <Gold.Chemscore.Lipo.Weighted>
-8.4318

> <Gold.Chemscore.Internal_Hbond.Weighted>
0.0000

> <Gold.Chemscore.DEClash.Weighted>
1.2365

> <Gold.Chemscore.DEInternal.Weighted>
1.6147

> <Gold.Chemscore.Rot.Weighted>
4.4319

> <Gold.Chemscore.Internal.Correction.Weighted>
   9.000000E+99

> <Gold.Protein.RotatedTorsions>
[ 6907 6896 6895 6894 ] final -101.39 input  -60.11 | X-H torsion
[ 7974 7965 7964 7962 ] final  143.44 input  175.53 | X-H torsion
[ 8008 7997 7996 7995 ] final   -2.54 input   59.86 | X-H torsion
[ 10167 10162 10161 10158 ] final -102.34 input  -65.29 | X-H torsion
[ 10718 10713 10712 10709 ] final    7.06 input   66.30 | X-H torsion
[ 10763 10752 10751 10750 ] final  132.57 input  -60.55 | X-H torsion
[ 11005 11000 10999 10996 ] final   93.79 input  -57.11 | X-H torsion

> <Gold.Protein.ActiveResidues>
 VAL166  LYS551  ARG553  GLY616  TRP617  ASP618  TYR619  PRO620  LYS621  CYS622 
 ASP623  PHE694  ASN695  SER759  ASP760  ASP761  ALA762  ILE779  LEU786  VAL792 
 PHE793  MET794  SER795  GLU796  ALA797  LYS798  CYS799  TRP800  GLU811  SER814 

> <Gold.Protein.RotatedAtoms>
  150.7153  134.0741  159.3874 H   0  0  0  0  0  0  0  0  0  0  0  0  # atno 6907 bound_to 6896
  151.8724  135.0482  160.0490 H   0  0  0  0  0  0  0  0  0  0  0  0  # atno 6908 bound_to 6896
  152.2632  133.5280  159.5431 H   0  0  0  0  0  0  0  0  0  0  0  0  # atno 6909 bound_to 6896
  144.8920  139.5544  143.5794 H   0  0  0  0  0  0  0  0  0  0  0  0  # atno 7974 bound_to 7965
  154.6346  140.2532  155.7393 H   0  0  0  0  0  0  0  0  0  0  0  0  # atno 8008 bound_to 7997
  156.2497  140.2900  156.0633 H   0  0  0  0  0  0  0  0  0  0  0  0  # atno 8009 bound_to 7997
  155.1691  140.0386  157.2849 H   0  0  0  0  0  0  0  0  0  0  0  0  # atno 8010 bound_to 7997
  140.2317  143.3602  152.0881 H   0  0  0  0  0  0  0  0  0  0  0  0  # atno 10167 bound_to 10162
  156.9313  130.5827  149.5649 H   0  0  0  0  0  0  0  0  0  0  0  0  # atno 10718 bound_to 10713
  153.7929  135.3152  155.3381 H   0  0  0  0  0  0  0  0  0  0  0  0  # atno 10763 bound_to 10752
  154.8118  135.4662  154.0541 H   0  0  0  0  0  0  0  0  0  0  0  0  # atno 10764 bound_to 10752
  153.1865  135.6902  153.8496 H   0  0  0  0  0  0  0  0  0  0  0  0  # atno 10765 bound_to 10752
  139.8806  134.8809  156.3769 H   0  0  0  0  0  0  0  0  0  0  0  0  # atno 11005 bound_to 11000
  146.3059  139.7580  142.9056 LP  0  0  0  0  0  0  0  0  0  0  0  0  # atno 17320 bound_to 7965
  145.3766  141.0351  143.3201 LP  0  0  0  0  0  0  0  0  0  0  0  0  # atno 17321 bound_to 7965
  139.5108  144.6890  151.5811 LP  0  0  0  0  0  0  0  0  0  0  0  0  # atno 17342 bound_to 10162
  140.6180  143.9311  150.6504 LP  0  0  0  0  0  0  0  0  0  0  0  0  # atno 17343 bound_to 10162
  156.0446  130.5524  150.8850 LP  0  0  0  0  0  0  0  0  0  0  0  0  # atno 17370 bound_to 10713
  157.5845  131.0946  150.9218 LP  0  0  0  0  0  0  0  0  0  0  0  0  # atno 17371 bound_to 10713
  140.9425  133.7505  156.0166 LP  0  0  0  0  0  0  0  0  0  0  0  0  # atno 17394 bound_to 11000
  140.8202  134.3298  157.5384 LP  0  0  0  0  0  0  0  0  0  0  0  0  # atno 17395 bound_to 11000

$$$$
