#       Name:                AV-unprocessed.smi:2953
#       Creating user name   scv26
#       Creation time:       Fri Mar 27 16:19:05 2020


#       File generated by GOLD software.
#

@<TRIPOS>MOLECULE
AV-unprocessed.smi:2953
    50    52     1
SMALL
NO_CHARGES


@<TRIPOS>ATOM
      1 ****         6.3666   1.0740   4.7079 C.3            1 S1                 0.0000
      2 ****         7.7163   1.7510   4.8517 C.ar           1 S1                 0.0000
      3 ****         8.4529   1.5645   6.0403 C.ar           1 S1                 0.0000
      4 ****         9.7063   2.1804   6.2040 C.ar           1 S1                 0.0000
      5 ****        10.2264   2.9882   5.1779 C.ar           1 S1                 0.0000
      6 ****         9.4953   3.1795   3.9903 C.ar           1 S1                 0.0000
      7 ****         8.2298   2.5626   3.8115 C.ar           1 S1                 0.0000
      8 ****         7.4634   2.7124   2.6726 O.3            1 S1                 0.0000
      9 ****         8.0303   3.4052   1.5675 C.3            1 S1                 0.0000
     10 ****         7.0687   3.3482   0.3728 C.3            1 S1                 0.0000
     11 ****         5.7750   3.9894   0.6550 N.pl3          1 S1                 0.0000
     12 ****         4.5730   3.4571   1.0281 C.2            1 S1                 0.0000
     13 ****         4.2459   2.0063   1.2374 C.3            1 S1                 0.0000
     14 ****         3.3989   1.8078   2.5033 C.3            1 S1                 0.0000
     15 ****         3.5369   1.4451   0.0937 N.am           1 S1                 0.0000
     16 ****         4.1072   1.1369  -1.0776 C.2            1 S1                 0.0000
     17 ****         5.3033   1.2984  -1.3042 O.2            1 S1                 0.0000
     18 ****         3.6928   4.4947   1.1324 N.pl3          1 S1                 1.0000
     19 ****         4.3372   5.6972   0.8443 C.ar           1 S1                 0.0000
     20 ****         3.8619   7.0049   0.8266 C.ar           1 S1                 0.0000
     21 ****         4.7892   8.0103   0.4827 C.ar           1 S1                 0.0000
     22 ****         6.1294   7.6985   0.1746 C.ar           1 S1                 0.0000
     23 ****         6.5991   6.3687   0.1972 C.ar           1 S1                 0.0000
     24 ****         5.6753   5.3804   0.5369 C.ar           1 S1                 0.0000
     25 ****         6.2824   0.2199   5.3806 H              1 S1                 0.0000
     26 ****         6.2119   0.7112   3.6914 H              1 S1                 0.0000
     27 ****         5.5721   1.7781   4.9529 H              1 S1                 0.0000
     28 ****         8.0580   0.9470   6.8337 H              1 S1                 0.0000
     29 ****        10.2670   2.0338   7.1154 H              1 S1                 0.0000
     30 ****        11.1882   3.4636   5.3017 H              1 S1                 0.0000
     31 ****         9.9305   3.8108   3.2308 H              1 S1                 0.0000
     32 ****         8.2287   4.4440   1.8356 H              1 S1                 0.0000
     33 ****         8.9774   2.9451   1.2814 H              1 S1                 0.0000
     34 ****         7.5101   3.8253  -0.5029 H              1 S1                 0.0000
     35 ****         6.8853   2.3121   0.0922 H              1 S1                 0.0000
     36 ****         5.1767   1.4544   1.3762 H              1 S1                 0.0000
     37 ****         3.8976   2.2254   3.3772 H              1 S1                 0.0000
     38 ****         3.2255   0.7487   2.6973 H              1 S1                 0.0000
     39 ****         2.4250   2.2914   2.4176 H              1 S1                 0.0000
     40 ****         2.5466   1.2778   0.1992 H              1 S1                 0.0000
     41 ****         3.3810   0.7268  -1.7955 H              1 S1                 0.0000
     42 ****         2.8355   7.2459   1.0618 H              1 S1                 0.0000
     43 ****         4.4662   9.0412   0.4541 H              1 S1                 0.0000
     44 ****         6.8113   8.4954  -0.0855 H              1 S1                 0.0000
     45 ****         7.6278   6.1407  -0.0395 H              1 S1                 0.0000
     46 ****         2.7194   4.3829   1.3846 H              1 S1                 0.0000
     47 ****         6.6333   3.2036   2.9363 LP             1 S1                 0.0000
     48 ****         7.2216   1.7954   2.3552 LP             1 S1                 0.0000
     49 ****         5.8998   1.6764  -0.5961 LP             1 S1                 0.0000
     50 ****         5.6809   1.0519  -2.1968 LP             1 S1                 0.0000
@<TRIPOS>BOND
    1    1    2 1     
    2    1   25 1     
    3    1   26 1     
    4    1   27 1     
    5    2    7 ar    
    6    2    3 ar    
    7    3    4 ar    
    8    3   28 1     
    9    4    5 ar    
   10    4   29 1     
   11    5    6 ar    
   12    5   30 1     
   13    6    7 ar    
   14    6   31 1     
   15    7    8 1     
   16    8    9 1     
   17    9   10 1     
   18    9   32 1     
   19    9   33 1     
   20   10   11 1     
   21   10   34 1     
   22   10   35 1     
   23   11   24 1     
   24   11   12 1     
   25   12   13 1     
   26   12   18 2     
   27   13   14 1     
   28   13   15 1     
   29   13   36 1     
   30   14   37 1     
   31   14   38 1     
   32   14   39 1     
   33   15   16 am    
   34   15   40 1     
   35   16   17 2     
   36   16   41 1     
   37   18   19 1     
   38   18   46 1     
   39   19   24 ar    
   40   19   20 ar    
   41   20   21 ar    
   42   20   42 1     
   43   21   22 ar    
   44   21   43 1     
   45   22   23 ar    
   46   22   44 1     
   47   23   24 ar    
   48   23   45 1     
   49    8   47 1     
   50    8   48 1     
   51   17   49 1     
   52   17   50 1     
@<TRIPOS>SUBSTRUCTURE
      1 S1             1
@<TRIPOS>SET
LONE_PAIRS      STATIC     ATOMS    <user>   **** ""
4 47 48 49 50
DONOR_HYDROGENS      STATIC     ATOMS    <user>   **** ""
2 40 46
ATOM$BLUE        STATIC     ATOMS    COLORGROUP SYSTEM
4 47 48 49 50
ATOM$RED        STATIC     ATOMS    COLORGROUP SYSTEM
2 40 46
