#       Name:                AV-unprocessed.smi:3030
#       Creating user name   scv26
#       Creation time:       Fri Mar 27 16:48:02 2020


#       File generated by GOLD software.
#

@<TRIPOS>MOLECULE
AV-unprocessed.smi:3030
    56    57     1
SMALL
NO_CHARGES


@<TRIPOS>ATOM
      1 ****        -4.3179   4.1287   1.9620 C.3            1 S1                 0.0000
      2 ****        -4.0971   4.0987   0.4455 C.3            1 S1                 0.0000
      3 ****        -4.2003   2.7480  -0.0872 N.pl3          1 S1                 0.0000
      4 ****        -5.4100   2.2459  -0.5562 C.2            1 S1                 0.0000
      5 ****        -5.5611   1.0195  -1.0927 C.2            1 S1                 0.0000
      6 ****        -4.3870   0.1312  -1.2098 C.2            1 S1                 0.0000
      7 ****        -4.4909  -1.0002  -1.6836 O.2            1 S1                 0.0000
      8 ****        -3.0904   0.6764  -0.7283 C.2            1 S1                 0.0000
      9 ****        -1.9777  -0.1727  -0.8342 N.am           1 S1                 0.0000
     10 ****        -0.6710   0.1280  -0.7283 C.2            1 S1                 0.0000
     11 ****        -0.2036   1.2549  -0.5660 O.2            1 S1                 0.0000
     12 ****         0.0789  -0.9787  -0.8339 N.am           1 S1                 0.0000
     13 ****         1.5396  -1.0430  -0.7887 C.3            1 S1                 0.0000
     14 ****         2.0197  -1.7779  -2.0587 C.3            1 S1                 0.0000
     15 ****         3.5425  -2.0018  -2.0948 C.3            1 S1                 0.0000
     16 ****         4.3281  -0.7089  -2.3776 C.3            1 S1                 0.0000
     17 ****         4.0046  -2.7125  -0.8109 C.3            1 S1                 0.0000
     18 ****         3.5601  -1.9691   0.4584 C.3            1 S1                 0.0000
     19 ****         2.0280  -1.7567   0.5052 C.3            1 S1                 0.0000
     20 ****         1.5483  -1.0800   1.8251 C.3            1 S1                 0.0000
     21 ****         2.1353   0.3241   2.0614 C.3            1 S1                 0.0000
     22 ****         1.7728  -1.9725   3.0581 C.3            1 S1                 0.0000
     23 ****        -3.0798   1.9277  -0.2024 C.2            1 S1                 0.0000
     24 ****        -4.2374   5.1459   2.3452 H              1 S1                 0.0000
     25 ****        -3.5777   3.5182   2.4800 H              1 S1                 0.0000
     26 ****        -5.3071   3.7516   2.2234 H              1 S1                 0.0000
     27 ****        -4.8272   4.7411  -0.0479 H              1 S1                 0.0000
     28 ****        -3.1163   4.5106   0.2054 H              1 S1                 0.0000
     29 ****        -6.2447   2.9241  -0.4516 H              1 S1                 0.0000
     30 ****        -6.5222   0.6701  -1.4405 H              1 S1                 0.0000
     31 ****        -2.2031  -1.1354  -1.0384 H              1 S1                 0.0000
     32 ****        -0.4017  -1.8568  -0.9660 H              1 S1                 0.0000
     33 ****         1.9566  -0.0361  -0.8154 H              1 S1                 0.0000
     34 ****         1.5259  -2.7494  -2.1159 H              1 S1                 0.0000
     35 ****         1.7052  -1.2308  -2.9487 H              1 S1                 0.0000
     36 ****         3.7510  -2.6727  -2.9292 H              1 S1                 0.0000
     37 ****         4.1865   0.0389  -1.5978 H              1 S1                 0.0000
     38 ****         4.0157  -0.2615  -3.3215 H              1 S1                 0.0000
     39 ****         5.3970  -0.9108  -2.4500 H              1 S1                 0.0000
     40 ****         3.5914  -3.7219  -0.7923 H              1 S1                 0.0000
     41 ****         5.0887  -2.8304  -0.8143 H              1 S1                 0.0000
     42 ****         3.8912  -2.5413   1.3242 H              1 S1                 0.0000
     43 ****         4.0767  -1.0113   0.5125 H              1 S1                 0.0000
     44 ****         1.5781  -2.7511   0.4912 H              1 S1                 0.0000
     45 ****         0.4676  -0.9579   1.7585 H              1 S1                 0.0000
     46 ****         3.2129   0.2913   2.2192 H              1 S1                 0.0000
     47 ****         1.6933   0.7822   2.9464 H              1 S1                 0.0000
     48 ****         1.9393   0.9940   1.2253 H              1 S1                 0.0000
     49 ****         2.8312  -2.0862   3.2917 H              1 S1                 0.0000
     50 ****         1.3527  -2.9673   2.9090 H              1 S1                 0.0000
     51 ****         1.2925  -1.5449   3.9387 H              1 S1                 0.0000
     52 ****        -2.1894   2.3869   0.1977 H              1 S1                 0.0000
     53 ****        -5.3810  -1.3313  -1.9968 LP             1 S1                 0.0000
     54 ****        -3.6852  -1.5881  -1.7553 LP             1 S1                 0.0000
     55 ****        -0.8135   2.0448  -0.5019 LP             1 S1                 0.0000
     56 ****         0.7862   1.3807  -0.4983 LP             1 S1                 0.0000
@<TRIPOS>BOND
    1    1    2 1     
    2    1   24 1     
    3    1   25 1     
    4    1   26 1     
    5    2    3 1     
    6    2   27 1     
    7    2   28 1     
    8    3   23 1     
    9    3    4 1     
   10    4    5 2     
   11    4   29 1     
   12    5    6 1     
   13    5   30 1     
   14    6    7 2     
   15    6    8 1     
   16    8    9 1     
   17    8   23 2     
   18    9   10 am    
   19    9   31 1     
   20   10   11 2     
   21   10   12 am    
   22   12   13 1     
   23   12   32 1     
   24   13   19 1     
   25   13   14 1     
   26   13   33 1     
   27   14   15 1     
   28   14   34 1     
   29   14   35 1     
   30   15   16 1     
   31   15   17 1     
   32   15   36 1     
   33   16   37 1     
   34   16   38 1     
   35   16   39 1     
   36   17   18 1     
   37   17   40 1     
   38   17   41 1     
   39   18   19 1     
   40   18   42 1     
   41   18   43 1     
   42   19   20 1     
   43   19   44 1     
   44   20   21 1     
   45   20   22 1     
   46   20   45 1     
   47   21   46 1     
   48   21   47 1     
   49   21   48 1     
   50   22   49 1     
   51   22   50 1     
   52   22   51 1     
   53   23   52 1     
   54    7   53 1     
   55    7   54 1     
   56   11   55 1     
   57   11   56 1     
@<TRIPOS>SUBSTRUCTURE
      1 S1             1
@<TRIPOS>SET
LONE_PAIRS      STATIC     ATOMS    <user>   **** ""
4 53 54 55 56
DONOR_HYDROGENS      STATIC     ATOMS    <user>   **** ""
2 31 32
ATOM$BLUE        STATIC     ATOMS    COLORGROUP SYSTEM
4 53 54 55 56
ATOM$RED        STATIC     ATOMS    COLORGROUP SYSTEM
2 31 32
