#       Name:                AV-unprocessed.smi:1703
#       Creating user name   scv26
#       Creation time:       Fri Mar 27 08:06:04 2020


#       File generated by GOLD software.
#

@<TRIPOS>MOLECULE
AV-unprocessed.smi:1703
    56    58     1
SMALL
NO_CHARGES


@<TRIPOS>ATOM
      1 ****        -1.4098   3.9014  -0.8038 C.3            1 S1                 0.0000
      2 ****        -2.3280   2.9220  -1.5569 C.3            1 S1                 0.0000
      3 ****        -1.7912   1.4778  -1.5863 C.3            1 S1                 0.0000
      4 ****        -1.9332   0.8330  -0.2579 N.4            1 S1                 1.0000
      5 ****        -1.3641  -0.5371  -0.1946 C.3            1 S1                 0.0000
      6 ****         0.1719  -0.5285  -0.0700 C.3            1 S1                 0.0000
      7 ****         0.5249   0.0860   1.1550 O.3            1 S1                 0.0000
      8 ****         0.7585  -1.9533  -0.1235 C.3            1 S1                 0.0000
      9 ****         2.2132  -1.9657  -0.0412 N.pl3          1 S1                 0.0000
     10 ****         3.1109  -1.8666  -1.0542 C.2            1 S1                 0.0000
     11 ****         2.6914  -1.7358  -2.4865 C.3            1 S1                 0.0000
     12 ****         2.2635  -2.9603  -3.0431 O.3            1 S1                 0.0000
     13 ****         4.3950  -1.8975  -0.6968 N.2            1 S1                 0.0000
     14 ****         4.3256  -2.0354   0.6758 C.ar           1 S1                 0.0000
     15 ****         5.3523  -2.1274   1.6427 C.ar           1 S1                 0.0000
     16 ****         5.0352  -2.2663   3.0099 C.ar           1 S1                 0.0000
     17 ****         3.6900  -2.3158   3.4291 C.ar           1 S1                 0.0000
     18 ****         2.6517  -2.2259   2.4823 C.ar           1 S1                 0.0000
     19 ****         2.9734  -2.0855   1.1186 C.ar           1 S1                 0.0000
     20 ****        -3.3434   0.8882   0.1897 C.3            1 S1                 0.0000
     21 ****        -3.8370   2.3460   0.2262 C.3            1 S1                 0.0000
     22 ****        -5.3211   2.4397   0.5972 C.3            1 S1                 0.0000
     23 ****        -3.6662   2.9389  -1.0590 O.3            1 S1                 0.0000
     24 ****        -0.4334   3.9622  -1.2851 H              1 S1                 0.0000
     25 ****        -1.2410   3.6015   0.2301 H              1 S1                 0.0000
     26 ****        -1.8352   4.9051  -0.7963 H              1 S1                 0.0000
     27 ****        -2.3857   3.2749  -2.5871 H              1 S1                 0.0000
     28 ****        -2.3470   0.8971  -2.3246 H              1 S1                 0.0000
     29 ****        -0.7512   1.4812  -1.9106 H              1 S1                 0.0000
     30 ****        -1.7783  -1.0697   0.6632 H              1 S1                 0.0000
     31 ****        -1.6751  -1.0967  -1.0783 H              1 S1                 0.0000
     32 ****         0.6106   0.0591  -0.8751 H              1 S1                 0.0000
     33 ****         0.2521  -0.4746   1.8655 H              1 S1                 0.0000
     34 ****         0.3601  -2.5593   0.6914 H              1 S1                 0.0000
     35 ****         0.4531  -2.4530  -1.0429 H              1 S1                 0.0000
     36 ****         1.8933  -0.9992  -2.5744 H              1 S1                 0.0000
     37 ****         3.5298  -1.3607  -3.0746 H              1 S1                 0.0000
     38 ****         2.0670  -2.8231  -3.9571 H              1 S1                 0.0000
     39 ****         6.3859  -2.0912   1.3321 H              1 S1                 0.0000
     40 ****         5.8278  -2.3353   3.7405 H              1 S1                 0.0000
     41 ****         3.4559  -2.4223   4.4781 H              1 S1                 0.0000
     42 ****         1.6212  -2.2626   2.8021 H              1 S1                 0.0000
     43 ****        -3.9624   0.2907  -0.4818 H              1 S1                 0.0000
     44 ****        -3.4327   0.4496   1.1844 H              1 S1                 0.0000
     45 ****        -3.2682   2.9068   0.9680 H              1 S1                 0.0000
     46 ****        -5.5078   2.0094   1.5813 H              1 S1                 0.0000
     47 ****        -5.9438   1.9091  -0.1236 H              1 S1                 0.0000
     48 ****        -5.6516   3.4784   0.6217 H              1 S1                 0.0000
     49 ****        -1.4048   1.3883   0.4006 H              1 S1                 0.0000
     50 ****         0.0675   0.9721   1.2310 LP             1 S1                 0.0000
     51 ****         1.5154   0.2180   1.1920 LP             1 S1                 0.0000
     52 ****         1.4443  -3.2791  -2.5664 LP             1 S1                 0.0000
     53 ****         2.9885  -3.6430  -2.9531 LP             1 S1                 0.0000
     54 ****         5.2065  -1.8361  -1.2779 LP             1 S1                 0.0000
     55 ****        -4.2452   2.4454  -1.7080 LP             1 S1                 0.0000
     56 ****        -3.9649   3.8917  -1.0035 LP             1 S1                 0.0000
@<TRIPOS>BOND
    1    1    2 1     
    2    1   24 1     
    3    1   25 1     
    4    1   26 1     
    5    2   23 1     
    6    2    3 1     
    7    2   27 1     
    8    3    4 1     
    9    3   28 1     
   10    3   29 1     
   11    4    5 1     
   12    4   20 1     
   13    4   49 1     
   14    5    6 1     
   15    5   30 1     
   16    5   31 1     
   17    6    7 1     
   18    6    8 1     
   19    6   32 1     
   20    7   33 1     
   21    8    9 1     
   22    8   34 1     
   23    8   35 1     
   24    9   19 1     
   25    9   10 1     
   26   10   11 1     
   27   10   13 2     
   28   11   12 1     
   29   11   36 1     
   30   11   37 1     
   31   12   38 1     
   32   13   14 1     
   33   14   19 ar    
   34   14   15 ar    
   35   15   16 ar    
   36   15   39 1     
   37   16   17 ar    
   38   16   40 1     
   39   17   18 ar    
   40   17   41 1     
   41   18   19 ar    
   42   18   42 1     
   43   20   21 1     
   44   20   43 1     
   45   20   44 1     
   46   21   22 1     
   47   21   23 1     
   48   21   45 1     
   49   22   46 1     
   50   22   47 1     
   51   22   48 1     
   52    7   50 1     
   53    7   51 1     
   54   12   52 1     
   55   12   53 1     
   56   13   54 1     
   57   23   55 1     
   58   23   56 1     
@<TRIPOS>SUBSTRUCTURE
      1 S1             1
@<TRIPOS>SET
LONE_PAIRS      STATIC     ATOMS    <user>   **** ""
7 50 51 52 53 54 55 56
DONOR_HYDROGENS      STATIC     ATOMS    <user>   **** ""
3 49 33 38
ATOM$BLUE        STATIC     ATOMS    COLORGROUP SYSTEM
7 50 51 52 53 54 55 56
ATOM$RED        STATIC     ATOMS    COLORGROUP SYSTEM
3 49 33 38
