AV-unprocessed.smi:3037|AV-procd|sdf|11586|dock1
  -GOLD-   2272016563D 1   1.00000     0.00000
 Structure written by MMmdl.
 47 48  0  0  0  0  0  0  0  0  2 V2000
  152.0137  142.9939  158.2060 C   0  0  0  0  0  0  0  0  0  0  0  0
  151.1482  141.9581  157.5481 C   0  0  0  0  0  0  0  0  0  0  0  0
  150.7954  140.6709  158.0444 C   0  0  0  0  0  0  0  0  0  0  0  0
  150.0144  139.9970  157.2159 N   0  0  0  0  0  0  0  0  0  0  0  0
  149.8402  140.8272  156.1659 N   0  0  0  0  0  0  0  0  0  0  0  0
  149.0225  140.4093  155.0412 C   0  0  0  0  0  0  0  0  0  0  0  0
  149.4204  139.0260  154.4860 C   0  0  2  0  0  0  0  0  0  0  0  0
  150.9468  138.8615  154.3435 C   0  0  0  0  0  0  0  0  0  0  0  0
  148.7355  138.8108  153.1913 N   0  3  0  0  0  0  0  0  0  0  0  0
  147.2790  139.0642  153.1904 C   0  0  0  0  0  0  0  0  0  0  0  0
  146.5668  138.1639  152.1641 C   0  0  0  0  0  0  0  0  0  0  0  0
  145.3272  137.4447  152.7254 C   0  0  0  0  0  0  0  0  0  0  0  0
  144.8758  137.8036  153.8140 O   0  0  0  0  0  0  0  0  0  0  0  0
  144.7688  136.4383  152.0087 N   0  0  0  0  0  0  0  0  0  0  0  0
  145.3261  135.9721  150.7312 C   0  0  0  0  0  0  0  0  0  0  0  0
  145.9140  134.5622  150.9251 C   0  0  0  0  0  0  0  0  0  0  0  0
  144.8531  133.5946  151.4811 C   0  0  0  0  0  0  0  0  0  0  0  0
  144.1486  134.1775  152.7203 C   0  0  0  0  0  0  0  0  0  0  0  0
  143.6390  135.6038  152.4430 C   0  0  0  0  0  0  0  0  0  0  0  0
  150.5164  142.0165  156.3382 C   0  0  0  0  0  0  0  0  0  0  0  0
  152.1310  142.8054  159.2734 H   0  0  0  0  0  0  0  0  0  0  0  0
  151.5953  143.9951  158.1017 H   0  0  0  0  0  0  0  0  0  0  0  0
  153.0135  143.0153  157.7722 H   0  0  0  0  0  0  0  0  0  0  0  0
  151.0836  140.2091  158.9773 H   0  0  0  0  0  0  0  0  0  0  0  0
  147.9827  140.3971  155.3710 H   0  0  0  0  0  0  0  0  0  0  0  0
  149.0893  141.1655  154.2567 H   0  0  0  0  0  0  0  0  0  0  0  0
  149.0554  138.2731  155.1865 H   0  0  0  0  0  0  0  0  0  0  0  0
  151.4530  138.9871  155.3006 H   0  0  0  0  0  0  0  0  0  0  0  0
  151.3605  139.5965  153.6524 H   0  0  0  0  0  0  0  0  0  0  0  0
  151.2179  137.8713  153.9786 H   0  0  0  0  0  0  0  0  0  0  0  0
  149.1479  139.4450  152.5221 H   0  0  0  0  0  0  0  0  0  0  0  0
  146.8776  138.8786  154.1868 H   0  0  0  0  0  0  0  0  0  0  0  0
  147.0986  140.1145  152.9559 H   0  0  0  0  0  0  0  0  0  0  0  0
  146.2643  138.7656  151.3058 H   0  0  0  0  0  0  0  0  0  0  0  0
  147.2708  137.4123  151.8048 H   0  0  0  0  0  0  0  0  0  0  0  0
  144.5353  135.9490  149.9799 H   0  0  0  0  0  0  0  0  0  0  0  0
  146.0917  136.6387  150.3324 H   0  0  0  0  0  0  0  0  0  0  0  0
  146.3047  134.1847  149.9800 H   0  0  0  0  0  0  0  0  0  0  0  0
  146.7594  134.6120  151.6125 H   0  0  0  0  0  0  0  0  0  0  0  0
  144.1094  133.3989  150.7076 H   0  0  0  0  0  0  0  0  0  0  0  0
  145.3077  132.6333  151.7218 H   0  0  0  0  0  0  0  0  0  0  0  0
  143.3204  133.5330  153.0156 H   0  0  0  0  0  0  0  0  0  0  0  0
  144.8429  134.1954  153.5614 H   0  0  0  0  0  0  0  0  0  0  0  0
  143.1208  135.9838  153.3214 H   0  0  0  0  0  0  0  0  0  0  0  0
  142.8880  135.5820  151.6518 H   0  0  0  0  0  0  0  0  0  0  0  0
  150.4918  142.7990  155.5940 H   0  0  0  0  0  0  0  0  0  0  0  0
  148.9096  137.8646  152.8839 H   0  0  0  0  0  0  0  0  0  0  0  0
  1  2  1  0  0  0  0
  1 21  1  0  0  0  0
  1 22  1  0  0  0  0
  1 23  1  0  0  0  0
  2 20  2  0  0  0  0
  2  3  1  0  0  0  0
  3  4  2  0  0  0  0
  3 24  1  0  0  0  0
  4  5  1  0  0  0  0
  5  6  1  0  0  0  0
  5 20  1  0  0  0  0
  6  7  1  0  0  0  0
  6 25  1  0  0  0  0
  6 26  1  0  0  0  0
  7  8  1  0  0  0  0
  7  9  1  0  0  0  0
  7 27  1  0  0  0  0
  8 28  1  0  0  0  0
  8 29  1  0  0  0  0
  8 30  1  0  0  0  0
  9 10  1  0  0  0  0
  9 31  1  0  0  0  0
  9 47  1  0  0  0  0
 10 11  1  0  0  0  0
 10 32  1  0  0  0  0
 10 33  1  0  0  0  0
 11 12  1  0  0  0  0
 11 34  1  0  0  0  0
 11 35  1  0  0  0  0
 12 13  2  0  0  0  0
 12 14  1  0  0  0  0
 14 19  1  0  0  0  0
 14 15  1  0  0  0  0
 15 16  1  0  0  0  0
 15 36  1  0  0  0  0
 15 37  1  0  0  0  0
 16 17  1  0  0  0  0
 16 38  1  0  0  0  0
 16 39  1  0  0  0  0
 17 18  1  0  0  0  0
 17 40  1  0  0  0  0
 17 41  1  0  0  0  0
 18 19  1  0  0  0  0
 18 42  1  0  0  0  0
 18 43  1  0  0  0  0
 19 44  1  0  0  0  0
 19 45  1  0  0  0  0
 20 46  1  0  0  0  0
M  CHG  1   9   1
M  END
> <s_m_source_file>
AV-unprocessed.smi

> <i_m_source_file_index>
3037

> <i_lp_mmshare_version>
43012

> <i_f3d_flags>
0

> <s_epik_input>
W0NIM11jMVtjSF1ubihbY0hdMSlbQ0gyXVtDQEhdKFtDSDNdKVtOSF1bQ0gyXVtDSDJdQyg9TylOMltDSDJdW0NIMl1bQ0gyXVtDSDJdW0NIMl0y

> <s_epik_cmdline>
J2VwaWtfcHl0aG9uJywgJy1waCcsICc3LjAnLCAnLXRuJywgJzgnLCAnLW1hJywgJzIwMCcsICctbWV0YWxfYmluZGluZycsICctaW1hZScsICc8aW5maWxlLm1hZT4nLCAnLW9tYWUnLCAnPG91dGZpbGUubWFlPic=

> <r_lp_tautomer_probability>
1

> <r_epik_Ionization_Penalty>
0.00574983

> <r_epik_Ionization_Penalty_Charging>
0.00574185

> <r_epik_Ionization_Penalty_Neutral>
7.97936e-06

> <r_epik_State_Penalty>
0.00421386

> <r_epik_Charging_Adjusted_Penalty>
0.00995571

> <i_epik_Tot_Q>
1

> <i_epik_Tot_abs_Q>
1

> <r_epik_Metal_State_Penalty>
-0

> <b_epik_Metal_Only>
0

> <s_lp_Force_Field>
OPLS_2005

> <r_lp_Energy>
27.2307

> <b_lp_Chiralities_Consistent>
1

> <s_lp_Variant>
AV-unprocessed.smi:3037-1

> <Gold.Version>
5.8.1

> <Gold.Id.Protein>
6NUR|6NUR_protein|mol2

> <Gold.PLP.Fitness>
46.4869

> <Gold.PLP.PLP>
-36.3069

> <Gold.PLP.part.hbond>
-1.9834

> <Gold.PLP.part.metal>
0.0000

> <Gold.PLP.part.buried>
-2.0253

> <Gold.PLP.part.nonpolar>
-32.9781

> <Gold.PLP.part.repulsive>
0.2319

> <Gold.PLP.ligand.clash>
0.0000

> <Gold.PLP.ligand.torsion>
0.8693

> <Gold.PLP.Chemscore.Hbond>
3.0000

> <Gold.PLP.Chemscore.CHOScore>
0.8642

> <Gold.PLP.Chemscore.Metal>
0.0000

> <Gold.Chemscore.Hbonds>
donor molecule, donor type, donor heavy atom, donor atom, acceptor molecule, acceptor atom, score
      L1  H     9    31       P1  7957  1.00
      L1  H     9    47       P1  7948  2.00
      L1  C    20    46       P1  8028  0.88

> <Gold.PLP.Chemscore.Internal.Correction>
0.3261

> <Gold.Rescore>
     Score         DG    S(hbond)    S(metal)    S(lipo)     H(rot)  DE(clash)    DE(int)     intcor
     17.05     -18.26       1.97        0.00      93.14       1.84       0.44       0.77       ----

> <Gold.Chemscore.Fitness>
17.0475

> <Gold.Chemscore.DG>
-18.2597

> <Gold.Chemscore.ZeroCoef>
-5.4800

> <Gold.Chemscore.Hbond>
1.9728

> <Gold.Chemscore.Metal>
0.0000

> <Gold.Chemscore.Lipo>
93.1357

> <Gold.Chemscore.Internal_Hbond>
0.0000

> <Gold.Chemscore.DEClash>
0.4435

> <Gold.Chemscore.DEInternal>
0.7687

> <Gold.Chemscore.Rot>
1.8383

> <Gold.Chemscore.Internal.Correction>
   9.000000E+99

> <Gold.Chemscore.Hbonds>
donor molecule, donor type, donor heavy atom, donor atom, acceptor molecule, acceptor atom, score
      L1  H     9    31       P1  7957  0.95
      L1  H     9    47       P1  7948  1.00

> <Gold.Chemscore.Hbond.Weighted>
-6.5890

> <Gold.Chemscore.Metal.Weighted>
-0.0000

> <Gold.Chemscore.Lipo.Weighted>
-10.8969

> <Gold.Chemscore.Internal_Hbond.Weighted>
0.0000

> <Gold.Chemscore.DEClash.Weighted>
0.4435

> <Gold.Chemscore.DEInternal.Weighted>
0.7687

> <Gold.Chemscore.Rot.Weighted>
4.7062

> <Gold.Chemscore.Internal.Correction.Weighted>
   9.000000E+99

> <Gold.Protein.RotatedTorsions>
[ 6907 6896 6895 6894 ] final   80.62 input  -60.11 | X-H torsion
[ 7974 7965 7964 7962 ] final   11.84 input  175.53 | X-H torsion
[ 8008 7997 7996 7995 ] final   66.17 input   59.86 | X-H torsion
[ 10167 10162 10161 10158 ] final  157.26 input  -65.29 | X-H torsion
[ 10718 10713 10712 10709 ] final -166.04 input   66.30 | X-H torsion
[ 10763 10752 10751 10750 ] final   55.99 input  -60.55 | X-H torsion
[ 11005 11000 10999 10996 ] final  -23.17 input  -57.11 | X-H torsion

> <Gold.Protein.ActiveResidues>
 VAL166  LYS551  ARG553  GLY616  TRP617  ASP618  TYR619  PRO620  LYS621  CYS622 
 ASP623  PHE694  ASN695  SER759  ASP760  ASP761  ALA762  ILE779  LEU786  VAL792 
 PHE793  MET794  SER795  GLU796  ALA797  LYS798  CYS799  TRP800  GLU811  SER814 

> <Gold.Protein.RotatedAtoms>
  152.5241  134.3329  159.9189 H   0  0  0  0  0  0  0  0  0  0  0  0  # atno 6907 bound_to 6896
  151.3278  133.4006  159.2667 H   0  0  0  0  0  0  0  0  0  0  0  0  # atno 6908 bound_to 6896
  150.9905  134.9258  159.7954 H   0  0  0  0  0  0  0  0  0  0  0  0  # atno 6909 bound_to 6896
  146.2363  139.9425  142.8481 H   0  0  0  0  0  0  0  0  0  0  0  0  # atno 7974 bound_to 7965
  155.6731  140.3497  155.4826 H   0  0  0  0  0  0  0  0  0  0  0  0  # atno 8008 bound_to 7997
  155.9671  140.1148  157.0868 H   0  0  0  0  0  0  0  0  0  0  0  0  # atno 8009 bound_to 7997
  154.4157  140.1164  156.5242 H   0  0  0  0  0  0  0  0  0  0  0  0  # atno 8010 bound_to 7997
  139.4822  144.4933  151.8276 H   0  0  0  0  0  0  0  0  0  0  0  0  # atno 10167 bound_to 10162
  156.6621  130.9050  151.3031 H   0  0  0  0  0  0  0  0  0  0  0  0  # atno 10718 bound_to 10713
  152.9825  135.5692  154.5156 H   0  0  0  0  0  0  0  0  0  0  0  0  # atno 10763 bound_to 10752
  154.4653  135.2783  155.1685 H   0  0  0  0  0  0  0  0  0  0  0  0  # atno 10764 bound_to 10752
  154.3256  135.6260  153.5581 H   0  0  0  0  0  0  0  0  0  0  0  0  # atno 10765 bound_to 10752
  140.8727  133.7709  156.0205 H   0  0  0  0  0  0  0  0  0  0  0  0  # atno 11005 bound_to 11000
  145.1938  140.9824  143.4195 LP  0  0  0  0  0  0  0  0  0  0  0  0  # atno 17320 bound_to 7965
  144.9833  139.3761  143.6251 LP  0  0  0  0  0  0  0  0  0  0  0  0  # atno 17321 bound_to 7965
  140.4419  144.1974  150.5892 LP  0  0  0  0  0  0  0  0  0  0  0  0  # atno 17342 bound_to 10162
  140.4674  143.2426  151.9137 LP  0  0  0  0  0  0  0  0  0  0  0  0  # atno 17343 bound_to 10162
  157.7106  130.9436  150.1076 LP  0  0  0  0  0  0  0  0  0  0  0  0  # atno 17370 bound_to 10713
  156.2003  130.3660  149.8797 LP  0  0  0  0  0  0  0  0  0  0  0  0  # atno 17371 bound_to 10713
  140.8555  134.2903  157.5257 LP  0  0  0  0  0  0  0  0  0  0  0  0  # atno 17394 bound_to 11000
  139.8713  134.9490  156.4014 LP  0  0  0  0  0  0  0  0  0  0  0  0  # atno 17395 bound_to 11000

$$$$
