AV-unprocessed.smi:1809|AV-procd|sdf|7325|dock1
  -GOLD-   22720 8583D 1   1.00000     0.00000
 Structure written by MMmdl.
 39 41  0  0  0  0  0  0  0  0  3 V2000
  137.7173  141.4007  153.7367 C   0  0  0  0  0  0  0  0  0  0  0  0
  138.0092  139.9495  153.9061 C   0  0  0  0  0  0  0  0  0  0  0  0
  137.0522  139.0373  154.0935 N   0  0  0  0  0  0  0  0  0  0  0  0
  137.5696  137.7568  154.2259 N   0  0  0  0  0  0  0  0  0  0  0  0
  138.9076  137.7201  154.1502 C   0  0  0  0  0  0  0  0  0  0  0  0
  139.6042  136.5761  154.2536 N   0  5  0  0  0  0  0  0  0  0  0  0
  140.9031  136.5406  153.8803 C   0  0  0  0  0  0  0  0  0  0  0  0
  141.4965  137.3868  153.2077 O   0  0  0  0  0  0  0  0  0  0  0  0
  141.5574  135.4557  154.3127 N   0  0  0  0  0  0  0  0  0  0  0  0
  142.9618  135.1678  154.0563 C   0  0  0  0  0  0  0  0  0  0  0  0
  143.2245  135.0573  152.5485 C   0  0  2  0  0  0  0  0  0  0  0  0
  143.2135  133.5960  152.0718 C   0  0  0  0  0  0  0  0  0  0  0  0
  143.5189  133.4945  150.6223 N   0  3  2  0  0  0  0  0  0  0  0  0
  143.8038  132.1043  150.2056 C   0  0  0  0  0  0  0  0  0  0  0  0
  145.3350  131.9450  150.2240 C   0  0  0  0  0  0  0  0  0  0  0  0
  145.8952  133.3450  150.5044 C   0  0  0  0  0  0  0  0  0  0  0  0
  144.7121  134.2735  150.2256 C   0  0  2  0  0  0  0  0  0  0  0  0
  144.7757  135.6667  150.8845 C   0  0  0  0  0  0  0  0  0  0  0  0
  144.5169  135.5861  152.2781 O   0  0  0  0  0  0  0  0  0  0  0  0
  139.6404  139.3011  153.8798 S   0  0  0  0  0  0  0  0  0  0  0  0
  137.5358  141.8597  154.7086 H   0  0  0  0  0  0  0  0  0  0  0  0
  136.8346  141.5382  153.1116 H   0  0  0  0  0  0  0  0  0  0  0  0
  138.5609  141.9039  153.2639 H   0  0  0  0  0  0  0  0  0  0  0  0
  141.0381  134.7832  154.8573 H   0  0  0  0  0  0  0  0  0  0  0  0
  143.5862  135.9484  154.4943 H   0  0  0  0  0  0  0  0  0  0  0  0
  143.2225  134.2301  154.5494 H   0  0  0  0  0  0  0  0  0  0  0  0
  142.4635  135.6279  152.0120 H   0  0  0  0  0  0  0  0  0  0  0  0
  143.9450  133.0241  152.6454 H   0  0  0  0  0  0  0  0  0  0  0  0
  142.2398  133.1427  152.2616 H   0  0  0  0  0  0  0  0  0  0  0  0
  143.2974  131.3664  150.8296 H   0  0  0  0  0  0  0  0  0  0  0  0
  143.4362  131.9727  149.1872 H   0  0  0  0  0  0  0  0  0  0  0  0
  145.6545  131.2401  150.9924 H   0  0  0  0  0  0  0  0  0  0  0  0
  145.6880  131.5666  149.2642 H   0  0  0  0  0  0  0  0  0  0  0  0
  146.1959  133.4198  151.5504 H   0  0  0  0  0  0  0  0  0  0  0  0
  146.7659  133.5800  149.8914 H   0  0  0  0  0  0  0  0  0  0  0  0
  144.6570  134.4132  149.1446 H   0  0  0  0  0  0  0  0  0  0  0  0
  145.7564  136.1159  150.7270 H   0  0  0  0  0  0  0  0  0  0  0  0
  144.0497  136.3376  150.4223 H   0  0  0  0  0  0  0  0  0  0  0  0
  142.7164  133.8437  150.1177 H   0  0  0  0  0  0  0  0  0  0  0  0
  1  2  1  0  0  0  0
  1 21  1  0  0  0  0
  1 22  1  0  0  0  0
  1 23  1  0  0  0  0
  2 20  1  0  0  0  0
  2  3  2  0  0  0  0
  3  4  1  0  0  0  0
  4  5  2  0  0  0  0
  5  6  1  0  0  0  0
  5 20  1  0  0  0  0
  6  7  1  0  0  0  0
  7  8  2  0  0  0  0
  7  9  1  0  0  0  0
  9 10  1  0  0  0  0
  9 24  1  0  0  0  0
 10 11  1  0  0  0  0
 10 25  1  0  0  0  0
 10 26  1  0  0  0  0
 11 19  1  0  0  0  0
 11 12  1  0  0  0  0
 11 27  1  0  0  0  0
 12 13  1  0  0  0  0
 12 28  1  0  0  0  0
 12 29  1  0  0  0  0
 13 17  1  0  0  0  0
 13 14  1  0  0  0  0
 13 39  1  0  0  0  0
 14 15  1  0  0  0  0
 14 30  1  0  0  0  0
 14 31  1  0  0  0  0
 15 16  1  0  0  0  0
 15 32  1  0  0  0  0
 15 33  1  0  0  0  0
 16 17  1  0  0  0  0
 16 34  1  0  0  0  0
 16 35  1  0  0  0  0
 17 18  1  0  0  0  0
 17 36  1  0  0  0  0
 18 19  1  0  0  0  0
 18 37  1  0  0  0  0
 18 38  1  0  0  0  0
M  CHG  1   6  -1
M  CHG  1  13   1
M  END
> <s_m_source_file>
AV-unprocessed.smi

> <i_m_source_file_index>
1809

> <i_lp_mmshare_version>
43012

> <i_f3d_flags>
0

> <s_epik_input>
W0NIM11jMW5uYyhzMSlbTkhdQyg9TylbTkhdW0NIMl1bQ0BIXShbQ0gyXTIpT1tDSDJdW0NAQEhdKE4yMylbQ0gyXVtDSDJdW0NIMl0z

> <s_epik_cmdline>
J2VwaWtfcHl0aG9uJywgJy1waCcsICc3LjAnLCAnLXRuJywgJzgnLCAnLW1hJywgJzIwMCcsICctbWV0YWxfYmluZGluZycsICctaW1hZScsICc8aW5maWxlLm1hZT4nLCAnLW9tYWUnLCAnPG91dGZpbGUubWFlPic=

> <r_lp_tautomer_probability>
1

> <r_epik_Ionization_Penalty>
3.2601

> <r_epik_Ionization_Penalty_Charging>
3.1406

> <r_epik_Ionization_Penalty_Neutral>
0.119497

> <r_epik_State_Penalty>
3.08894

> <r_epik_Charging_Adjusted_Penalty>
6.22954

> <i_epik_Tot_Q>
0

> <i_epik_Tot_abs_Q>
2

> <r_epik_Metal_State_Penalty>
0.510807

> <b_epik_Metal_Only>
1

> <s_lp_Force_Field>
OPLS_2005

> <r_lp_Energy>
31.3106

> <b_lp_Chiralities_Consistent>
1

> <s_lp_Variant>
AV-unprocessed.smi:1809-17

> <Gold.Version>
5.8.1

> <Gold.Id.Protein>
6NUR|6NUR_protein|mol2

> <Gold.PLP.Fitness>
42.7289

> <Gold.PLP.PLP>
-34.8755

> <Gold.PLP.part.hbond>
-2.0000

> <Gold.PLP.part.metal>
0.0000

> <Gold.PLP.part.buried>
-4.8097

> <Gold.PLP.part.nonpolar>
-28.2495

> <Gold.PLP.part.repulsive>
0.5220

> <Gold.PLP.ligand.clash>
0.0074

> <Gold.PLP.ligand.torsion>
0.5840

> <Gold.PLP.Chemscore.Hbond>
3.0000

> <Gold.PLP.Chemscore.CHOScore>
0.0000

> <Gold.PLP.Chemscore.Metal>
0.0000

> <Gold.Chemscore.Hbonds>
donor molecule, donor type, donor heavy atom, donor atom, acceptor molecule, acceptor atom, score
      L1  H     9    24       P1 11000  1.00
      L1  H    13    39       P1 10186  2.00

> <Gold.PLP.Chemscore.Internal.Correction>
0.0288

> <Gold.Rescore>
     Score         DG    S(hbond)    S(metal)    S(lipo)     H(rot)  DE(clash)    DE(int)     intcor
     14.59     -17.84       1.95        0.00      79.03       1.32       0.07       3.18       ----

> <Gold.Chemscore.Fitness>
14.5929

> <Gold.Chemscore.DG>
-17.8412

> <Gold.Chemscore.ZeroCoef>
-5.4800

> <Gold.Chemscore.Hbond>
1.9479

> <Gold.Chemscore.Metal>
0.0000

> <Gold.Chemscore.Lipo>
79.0282

> <Gold.Chemscore.Internal_Hbond>
0.0000

> <Gold.Chemscore.DEClash>
0.0697

> <Gold.Chemscore.DEInternal>
3.1785

> <Gold.Chemscore.Rot>
1.3246

> <Gold.Chemscore.Internal.Correction>
   9.000000E+99

> <Gold.Chemscore.Hbonds>
donor molecule, donor type, donor heavy atom, donor atom, acceptor molecule, acceptor atom, score
      L1  H     9    24       P1 11000  0.75
      L1  H    13    39       P1 10186  1.00

> <Gold.Chemscore.Hbond.Weighted>
-6.5058

> <Gold.Chemscore.Metal.Weighted>
-0.0000

> <Gold.Chemscore.Lipo.Weighted>
-9.2463

> <Gold.Chemscore.Internal_Hbond.Weighted>
0.0000

> <Gold.Chemscore.DEClash.Weighted>
0.0697

> <Gold.Chemscore.DEInternal.Weighted>
3.1785

> <Gold.Chemscore.Rot.Weighted>
3.3910

> <Gold.Chemscore.Internal.Correction.Weighted>
   9.000000E+99

> <Gold.Protein.RotatedTorsions>
[ 6907 6896 6895 6894 ] final  -56.33 input  -60.11 | X-H torsion
[ 7974 7965 7964 7962 ] final -100.32 input  175.53 | X-H torsion
[ 8008 7997 7996 7995 ] final  118.20 input   59.86 | X-H torsion
[ 10167 10162 10161 10158 ] final   54.34 input  -65.29 | X-H torsion
[ 10718 10713 10712 10709 ] final  159.65 input   66.30 | X-H torsion
[ 10763 10752 10751 10750 ] final  -64.60 input  -60.55 | X-H torsion
[ 11005 11000 10999 10996 ] final -125.41 input  -57.11 | X-H torsion

> <Gold.Protein.ActiveResidues>
 VAL166  LYS551  ARG553  GLY616  TRP617  ASP618  TYR619  PRO620  LYS621  CYS622 
 ASP623  PHE694  ASN695  SER759  ASP760  ASP761  ALA762  ILE779  LEU786  VAL792 
 PHE793  MET794  SER795  GLU796  ALA797  LYS798  CYS799  TRP800  GLU811  SER814 

> <Gold.Protein.RotatedAtoms>
  150.8177  134.7367  159.6743 H   0  0  0  0  0  0  0  0  0  0  0  0  # atno 6907 bound_to 6896
  152.4294  134.5803  159.9955 H   0  0  0  0  0  0  0  0  0  0  0  0  # atno 6908 bound_to 6896
  151.5995  133.3320  159.3080 H   0  0  0  0  0  0  0  0  0  0  0  0  # atno 6909 bound_to 6896
  145.2961  140.9365  143.2850 H   0  0  0  0  0  0  0  0  0  0  0  0  # atno 7974 bound_to 7965
  156.2534  140.2880  156.0798 H   0  0  0  0  0  0  0  0  0  0  0  0  # atno 8008 bound_to 7997
  155.1579  140.0399  157.2853 H   0  0  0  0  0  0  0  0  0  0  0  0  # atno 8009 bound_to 7997
  154.6414  140.2523  155.7325 H   0  0  0  0  0  0  0  0  0  0  0  0  # atno 8010 bound_to 7997
  140.2311  144.3686  150.6414 H   0  0  0  0  0  0  0  0  0  0  0  0  # atno 10167 bound_to 10162
  157.1612  131.0587  151.2231 H   0  0  0  0  0  0  0  0  0  0  0  0  # atno 10718 bound_to 10713
  154.3325  135.6173  153.5558 H   0  0  0  0  0  0  0  0  0  0  0  0  # atno 10763 bound_to 10752
  152.9810  135.5750  154.4945 H   0  0  0  0  0  0  0  0  0  0  0  0  # atno 10764 bound_to 10752
  154.4634  135.2856  155.1673 H   0  0  0  0  0  0  0  0  0  0  0  0  # atno 10765 bound_to 10752
  140.9764  134.0734  157.3814 H   0  0  0  0  0  0  0  0  0  0  0  0  # atno 11005 bound_to 11000
  144.9132  139.4502  143.6577 LP  0  0  0  0  0  0  0  0  0  0  0  0  # atno 17320 bound_to 7965
  146.3168  139.7952  142.8977 LP  0  0  0  0  0  0  0  0  0  0  0  0  # atno 17321 bound_to 7965
  140.6184  143.2174  151.6744 LP  0  0  0  0  0  0  0  0  0  0  0  0  # atno 17342 bound_to 10162
  139.5110  144.3525  152.0639 LP  0  0  0  0  0  0  0  0  0  0  0  0  # atno 17343 bound_to 10162
  157.4131  130.7396  149.6854 LP  0  0  0  0  0  0  0  0  0  0  0  0  # atno 17370 bound_to 10713
  155.9753  130.4090  150.3856 LP  0  0  0  0  0  0  0  0  0  0  0  0  # atno 17371 bound_to 10713
  139.8932  135.0129  156.6887 LP  0  0  0  0  0  0  0  0  0  0  0  0  # atno 17394 bound_to 11000
  140.7253  133.9106  155.8174 LP  0  0  0  0  0  0  0  0  0  0  0  0  # atno 17395 bound_to 11000

$$$$
