AV-unprocessed.smi:3176|AV-procd|sdf|12126|dock1
  -GOLD-   2272017563D 1   1.00000     0.00000
 Structure written by MMmdl.
 33 34  0  0  0  0  0  0  0  0  2 V2000
  152.0959  144.6906  158.1016 O   0  0  0  0  0  0  0  0  0  0  0  0
  152.2535  143.5518  158.5423 C   0  0  0  0  0  0  0  0  0  0  0  0
  151.7003  142.4670  157.9771 N   0  0  0  0  0  0  0  0  0  0  0  0
  150.8581  142.4775  156.7875 C   0  0  0  0  0  0  0  0  0  0  0  0
  150.8176  141.0958  156.1147 C   0  0  0  0  0  0  0  0  0  0  0  0
  149.6074  140.9303  155.2166 C   0  0  0  0  0  0  0  0  0  0  0  0
  149.3087  139.7072  154.5781 C   0  0  0  0  0  0  0  0  0  0  0  0
  148.1708  139.6230  153.7488 C   0  0  0  0  0  0  0  0  0  0  0  0
  147.3573  140.7619  153.5752 C   0  0  0  0  0  0  0  0  0  0  0  0
  147.7041  141.9589  154.2346 C   0  0  0  0  0  0  0  0  0  0  0  0
  148.8030  142.0002  155.0199 N   0  3  0  0  0  0  0  0  0  0  0  0
  153.0971  143.3280  159.8044 C   0  0  2  0  0  0  0  0  0  0  0  0
  153.2407  141.8596  160.2043 C   0  0  0  0  0  0  0  0  0  0  0  0
  153.5821  141.9807  161.6735 C   0  0  0  0  0  0  0  0  0  0  0  0
  152.7555  143.1884  162.1134 C   0  0  0  0  0  0  0  0  0  0  0  0
  152.4813  143.9423  160.9347 O   0  0  0  0  0  0  0  0  0  0  0  0
  151.8847  141.5699  158.4035 H   0  0  0  0  0  0  0  0  0  0  0  0
  149.8514  142.8116  157.0448 H   0  0  0  0  0  0  0  0  0  0  0  0
  151.2625  143.2157  156.0944 H   0  0  0  0  0  0  0  0  0  0  0  0
  151.7223  140.9409  155.5256 H   0  0  0  0  0  0  0  0  0  0  0  0
  150.8043  140.3078  156.8691 H   0  0  0  0  0  0  0  0  0  0  0  0
  149.9431  138.8439  154.7191 H   0  0  0  0  0  0  0  0  0  0  0  0
  147.9258  138.6958  153.2511 H   0  0  0  0  0  0  0  0  0  0  0  0
  146.4812  140.7178  152.9447 H   0  0  0  0  0  0  0  0  0  0  0  0
  147.1405  142.8773  154.1583 H   0  0  0  0  0  0  0  0  0  0  0  0
  154.0833  143.7731  159.6637 H   0  0  0  0  0  0  0  0  0  0  0  0
  152.2985  141.3231  160.0788 H   0  0  0  0  0  0  0  0  0  0  0  0
  154.0123  141.3380  159.6371 H   0  0  0  0  0  0  0  0  0  0  0  0
  153.3548  141.0789  162.2424 H   0  0  0  0  0  0  0  0  0  0  0  0
  154.6455  142.1960  161.7887 H   0  0  0  0  0  0  0  0  0  0  0  0
  151.8073  142.8704  162.5482 H   0  0  0  0  0  0  0  0  0  0  0  0
  153.2807  143.7926  162.8537 H   0  0  0  0  0  0  0  0  0  0  0  0
  149.0354  142.8774  155.4869 H   0  0  0  0  0  0  0  0  0  0  0  0
  1  2  2  0  0  0  0
  2  3  1  0  0  0  0
  2 12  1  0  0  0  0
  3  4  1  0  0  0  0
  3 17  1  0  0  0  0
  4  5  1  0  0  0  0
  4 18  1  0  0  0  0
  4 19  1  0  0  0  0
  5  6  1  0  0  0  0
  5 20  1  0  0  0  0
  5 21  1  0  0  0  0
  6 11  1  0  0  0  0
  6  7  2  0  0  0  0
  7  8  1  0  0  0  0
  7 22  1  0  0  0  0
  8  9  2  0  0  0  0
  8 23  1  0  0  0  0
  9 10  1  0  0  0  0
  9 24  1  0  0  0  0
 10 11  2  0  0  0  0
 10 25  1  0  0  0  0
 11 33  1  0  0  0  0
 12 16  1  0  0  0  0
 12 13  1  0  0  0  0
 12 26  1  0  0  0  0
 13 14  1  0  0  0  0
 13 27  1  0  0  0  0
 13 28  1  0  0  0  0
 14 15  1  0  0  0  0
 14 29  1  0  0  0  0
 14 30  1  0  0  0  0
 15 16  1  0  0  0  0
 15 31  1  0  0  0  0
 15 32  1  0  0  0  0
M  CHG  1  11   1
M  END
> <s_m_source_file>
AV-unprocessed.smi

> <i_m_source_file_index>
3176

> <i_lp_mmshare_version>
43012

> <i_f3d_flags>
0

> <s_epik_input>
TzFbQ0gyXVtDSDJdW0NIMl1bQ0BIXTFDKD1PKVtOSF1bQ0gyXVtDSDJdYzJbY0hdW2NIXVtjSF1bY0hdbjI=

> <s_epik_cmdline>
J2VwaWtfcHl0aG9uJywgJy1waCcsICc3LjAnLCAnLXRuJywgJzgnLCAnLW1hJywgJzIwMCcsICctbWV0YWxfYmluZGluZycsICctaW1hZScsICc8aW5maWxlLm1hZT4nLCAnLW9tYWUnLCAnPG91dGZpbGUubWFlPic=

> <r_epik_Ionization_Penalty>
1.81664

> <r_epik_Ionization_Penalty_Charging>
1.81664

> <r_epik_Ionization_Penalty_Neutral>
5.71603e-08

> <r_epik_State_Penalty>
1.93152

> <r_epik_Charging_Adjusted_Penalty>
3.74817

> <i_epik_Tot_Q>
1

> <i_epik_Tot_abs_Q>
1

> <r_epik_Metal_State_Penalty>
1.95876

> <b_epik_Metal_Only>
0

> <s_lp_Force_Field>
OPLS_2005

> <r_lp_Energy>
22.4632

> <b_lp_Chiralities_Consistent>
1

> <s_lp_Variant>
AV-unprocessed.smi:3176-3

> <Gold.Version>
5.8.1

> <Gold.Id.Protein>
6NUR|6NUR_protein|mol2

> <Gold.PLP.Fitness>
45.7313

> <Gold.PLP.PLP>
-40.3249

> <Gold.PLP.part.hbond>
-1.0000

> <Gold.PLP.part.metal>
0.0000

> <Gold.PLP.part.buried>
-1.8197

> <Gold.PLP.part.nonpolar>
-37.0967

> <Gold.PLP.part.repulsive>
0.4160

> <Gold.PLP.ligand.clash>
0.0000

> <Gold.PLP.ligand.torsion>
0.3107

> <Gold.PLP.Chemscore.Hbond>
2.0000

> <Gold.PLP.Chemscore.CHOScore>
0.0000

> <Gold.PLP.Chemscore.Metal>
0.0000

> <Gold.Chemscore.Hbonds>
donor molecule, donor type, donor heavy atom, donor atom, acceptor molecule, acceptor atom, score
      L1  H    11    33       P1  8028  2.00

> <Gold.PLP.Chemscore.Internal.Correction>
0.0280

> <Gold.Rescore>
     Score         DG    S(hbond)    S(metal)    S(lipo)     H(rot)  DE(clash)    DE(int)     intcor
     15.37     -15.75       0.97        0.00      95.23       1.61       0.05       0.33       ----

> <Gold.Chemscore.Fitness>
15.3694

> <Gold.Chemscore.DG>
-15.7547

> <Gold.Chemscore.ZeroCoef>
-5.4800

> <Gold.Chemscore.Hbond>
0.9709

> <Gold.Chemscore.Metal>
0.0000

> <Gold.Chemscore.Lipo>
95.2269

> <Gold.Chemscore.Internal_Hbond>
0.0000

> <Gold.Chemscore.DEClash>
0.0550

> <Gold.Chemscore.DEInternal>
0.3303

> <Gold.Chemscore.Rot>
1.6054

> <Gold.Chemscore.Internal.Correction>
   9.000000E+99

> <Gold.Chemscore.Hbonds>
donor molecule, donor type, donor heavy atom, donor atom, acceptor molecule, acceptor atom, score
      L1  H    11    33       P1  8028  0.94

> <Gold.Chemscore.Hbond.Weighted>
-3.2429

> <Gold.Chemscore.Metal.Weighted>
-0.0000

> <Gold.Chemscore.Lipo.Weighted>
-11.1415

> <Gold.Chemscore.Internal_Hbond.Weighted>
0.0000

> <Gold.Chemscore.DEClash.Weighted>
0.0550

> <Gold.Chemscore.DEInternal.Weighted>
0.3303

> <Gold.Chemscore.Rot.Weighted>
4.1097

> <Gold.Chemscore.Internal.Correction.Weighted>
   9.000000E+99

> <Gold.Protein.RotatedTorsions>
[ 6907 6896 6895 6894 ] final -165.11 input  -60.11 | X-H torsion
[ 7974 7965 7964 7962 ] final  103.30 input  175.53 | X-H torsion
[ 8008 7997 7996 7995 ] final  -70.08 input   59.86 | X-H torsion
[ 10167 10162 10161 10158 ] final  -14.73 input  -65.29 | X-H torsion
[ 10718 10713 10712 10709 ] final -160.69 input   66.30 | X-H torsion
[ 10763 10752 10751 10750 ] final  133.39 input  -60.55 | X-H torsion
[ 11005 11000 10999 10996 ] final  173.08 input  -57.11 | X-H torsion

> <Gold.Protein.ActiveResidues>
 VAL166  LYS551  ARG553  GLY616  TRP617  ASP618  TYR619  PRO620  LYS621  CYS622 
 ASP623  PHE694  ASN695  SER759  ASP760  ASP761  ALA762  ILE779  LEU786  VAL792 
 PHE793  MET794  SER795  GLU796  ALA797  LYS798  CYS799  TRP800  GLU811  SER814 

> <Gold.Protein.RotatedAtoms>
  151.4225  133.3694  159.2757 H   0  0  0  0  0  0  0  0  0  0  0  0  # atno 6907 bound_to 6896
  150.9283  134.8701  159.7545 H   0  0  0  0  0  0  0  0  0  0  0  0  # atno 6908 bound_to 6896
  152.5016  134.4168  159.9519 H   0  0  0  0  0  0  0  0  0  0  0  0  # atno 6909 bound_to 6896
  145.3477  139.2447  143.3575 H   0  0  0  0  0  0  0  0  0  0  0  0  # atno 7974 bound_to 7965
  154.4986  140.0841  156.7749 H   0  0  0  0  0  0  0  0  0  0  0  0  # atno 8008 bound_to 7997
  155.4057  140.3439  155.4242 H   0  0  0  0  0  0  0  0  0  0  0  0  # atno 8009 bound_to 7997
  156.1426  140.1534  156.8884 H   0  0  0  0  0  0  0  0  0  0  0  0  # atno 8010 bound_to 7997
  140.7206  143.5291  150.9541 H   0  0  0  0  0  0  0  0  0  0  0  0  # atno 10167 bound_to 10162
  156.5857  130.8749  151.2876 H   0  0  0  0  0  0  0  0  0  0  0  0  # atno 10718 bound_to 10713
  153.8063  135.3135  155.3396 H   0  0  0  0  0  0  0  0  0  0  0  0  # atno 10763 bound_to 10752
  154.8069  135.4692  154.0418 H   0  0  0  0  0  0  0  0  0  0  0  0  # atno 10764 bound_to 10752
  153.1782  135.6889  153.8602 H   0  0  0  0  0  0  0  0  0  0  0  0  # atno 10765 bound_to 10752
  140.3366  134.7312  157.4173 H   0  0  0  0  0  0  0  0  0  0  0  0  # atno 11005 bound_to 11000
  146.2981  140.4087  142.8714 LP  0  0  0  0  0  0  0  0  0  0  0  0  # atno 17320 bound_to 7965
  144.8741  140.7313  143.6028 LP  0  0  0  0  0  0  0  0  0  0  0  0  # atno 17321 bound_to 7965
  139.9011  143.6834  152.3131 LP  0  0  0  0  0  0  0  0  0  0  0  0  # atno 17342 bound_to 10162
  139.7184  144.7607  151.0995 LP  0  0  0  0  0  0  0  0  0  0  0  0  # atno 17343 bound_to 10162
  157.7316  130.9702  150.1886 LP  0  0  0  0  0  0  0  0  0  0  0  0  # atno 17370 bound_to 10713
  156.2593  130.3709  149.8148 LP  0  0  0  0  0  0  0  0  0  0  0  0  # atno 17371 bound_to 10713
  140.0816  134.5724  155.8535 LP  0  0  0  0  0  0  0  0  0  0  0  0  # atno 17394 bound_to 11000
  141.2049  133.6643  156.6151 LP  0  0  0  0  0  0  0  0  0  0  0  0  # atno 17395 bound_to 11000

$$$$
