AV-unprocessed.smi:2883|AV-procd|sdf|11081|dock4
  -GOLD-   2272015553D 1   1.00000     0.00000
 Structure written by MMmdl.
 39 41  0  0  0  0  0  0  0  0  1 V2000
  152.2199  145.0963  160.6028 C   0  0  0  0  0  0  0  0  0  0  0  0
  151.7968  144.2542  159.3854 C   0  0  0  0  0  0  0  0  0  0  0  0
  150.2534  144.2323  159.2800 C   0  0  0  0  0  0  0  0  0  0  0  0
  152.3050  144.9282  158.0891 C   0  0  0  0  0  0  0  0  0  0  0  0
  152.3585  142.8295  159.5281 C   0  0  0  0  0  0  0  0  0  0  0  0
  153.0925  142.5642  160.6171 N   0  0  0  0  0  0  0  0  0  0  0  0
  153.4794  141.2858  160.8121 C   0  0  0  0  0  0  0  0  0  0  0  0
  153.1046  140.2543  159.9296 C   0  0  0  0  0  0  0  0  0  0  0  0
  152.2986  140.6270  158.8360 C   0  0  0  0  0  0  0  0  0  0  0  0
  151.8781  139.6489  157.9246 N   0  0  0  0  0  0  0  0  0  0  0  0
  151.2432  140.0240  156.6645 C   0  0  2  0  0  0  0  0  0  0  0  0
  149.9627  139.2357  156.3794 C   0  0  0  0  0  0  0  0  0  0  0  0
  150.2398  138.6817  154.9747 C   0  0  2  0  0  0  0  0  0  0  0  0
  151.2440  137.5229  155.0147 C   0  0  0  0  0  0  0  0  0  0  0  0
  152.5506  138.2555  155.3138 C   0  0  0  0  0  0  0  0  0  0  0  0
  152.0822  139.7178  155.4072 C   0  0  1  0  0  0  0  0  0  0  0  0
  151.0530  139.7091  154.4321 O   0  0  0  0  0  0  0  0  0  0  0  0
  151.9172  141.9126  158.6573 N   0  0  0  0  0  0  0  0  0  0  0  0
  151.8378  146.1153  160.5343 H   0  0  0  0  0  0  0  0  0  0  0  0
  153.3057  145.1568  160.6840 H   0  0  0  0  0  0  0  0  0  0  0  0
  151.8444  144.6657  161.5317 H   0  0  0  0  0  0  0  0  0  0  0  0
  149.7868  143.8374  160.1834 H   0  0  0  0  0  0  0  0  0  0  0  0
  149.9210  143.6182  158.4419 H   0  0  0  0  0  0  0  0  0  0  0  0
  149.8508  145.2348  159.1312 H   0  0  0  0  0  0  0  0  0  0  0  0
  151.8718  145.9210  157.9625 H   0  0  0  0  0  0  0  0  0  0  0  0
  152.0436  144.3422  157.2072 H   0  0  0  0  0  0  0  0  0  0  0  0
  153.3881  145.0566  158.0923 H   0  0  0  0  0  0  0  0  0  0  0  0
  154.0869  141.0831  161.6817 H   0  0  0  0  0  0  0  0  0  0  0  0
  153.4161  139.2328  160.0913 H   0  0  0  0  0  0  0  0  0  0  0  0
  152.2083  138.7011  158.0324 H   0  0  0  0  0  0  0  0  0  0  0  0
  150.9974  141.0868  156.6874 H   0  0  0  0  0  0  0  0  0  0  0  0
  149.7648  138.4404  157.0994 H   0  0  0  0  0  0  0  0  0  0  0  0
  149.1019  139.9050  156.3712 H   0  0  0  0  0  0  0  0  0  0  0  0
  149.3401  138.4668  154.3976 H   0  0  0  0  0  0  0  0  0  0  0  0
  150.9916  136.7796  155.7715 H   0  0  0  0  0  0  0  0  0  0  0  0
  151.2990  137.0220  154.0476 H   0  0  0  0  0  0  0  0  0  0  0  0
  153.0394  137.9031  156.2223 H   0  0  0  0  0  0  0  0  0  0  0  0
  153.2511  138.1312  154.4872 H   0  0  0  0  0  0  0  0  0  0  0  0
  152.8704  140.4453  155.2115 H   0  0  0  0  0  0  0  0  0  0  0  0
  1  2  1  0  0  0  0
  1 19  1  0  0  0  0
  1 20  1  0  0  0  0
  1 21  1  0  0  0  0
  2  3  1  0  0  0  0
  2  4  1  0  0  0  0
  2  5  1  0  0  0  0
  3 22  1  0  0  0  0
  3 23  1  0  0  0  0
  3 24  1  0  0  0  0
  4 25  1  0  0  0  0
  4 26  1  0  0  0  0
  4 27  1  0  0  0  0
  5 18  1  0  0  0  0
  5  6  2  0  0  0  0
  6  7  1  0  0  0  0
  7  8  2  0  0  0  0
  7 28  1  0  0  0  0
  8  9  1  0  0  0  0
  8 29  1  0  0  0  0
  9 10  1  0  0  0  0
  9 18  2  0  0  0  0
 10 11  1  0  0  0  0
 10 30  1  0  0  0  0
 11 16  1  0  0  0  0
 11 12  1  0  0  0  0
 11 31  1  0  0  0  0
 12 13  1  0  0  0  0
 12 32  1  0  0  0  0
 12 33  1  0  0  0  0
 13 17  1  0  0  0  0
 13 14  1  0  0  0  0
 13 34  1  0  0  0  0
 14 15  1  0  0  0  0
 14 35  1  0  0  0  0
 14 36  1  0  0  0  0
 15 16  1  0  0  0  0
 15 37  1  0  0  0  0
 15 38  1  0  0  0  0
 16 17  1  0  0  0  0
 16 39  1  0  0  0  0
M  END
> <s_m_source_file>
AV-unprocessed.smi

> <i_m_source_file_index>
2883

> <i_lp_mmshare_version>
43012

> <i_f3d_flags>
0

> <s_epik_input>
W0NIM11DKFtDSDNdKShbQ0gzXSljMW5bY0hdW2NIXWMobjEpW05IXVtDQEhdKFtDSDJdW0NAQEhdMjMpW0NAQEhdKE8zKVtDSDJdW0NIMl0y

> <s_epik_cmdline>
J2VwaWtfcHl0aG9uJywgJy1waCcsICc3LjAnLCAnLXRuJywgJzgnLCAnLW1hJywgJzIwMCcsICctbWV0YWxfYmluZGluZycsICctaW1hZScsICc8aW5maWxlLm1hZT4nLCAnLW9tYWUnLCAnPG91dGZpbGUubWFlPic=

> <r_lp_tautomer_probability>
1

> <r_epik_Ionization_Penalty>
0.453006

> <r_epik_Ionization_Penalty_Charging>
0

> <r_epik_Ionization_Penalty_Neutral>
0.453006

> <r_epik_State_Penalty>
0.455155

> <r_epik_Charging_Adjusted_Penalty>
0.455155

> <i_epik_Tot_Q>
0

> <i_epik_Tot_abs_Q>
0

> <r_epik_Metal_State_Penalty>
0.255592

> <b_epik_Metal_Only>
0

> <s_lp_Force_Field>
OPLS_2005

> <r_lp_Energy>
33.5757

> <b_lp_Chiralities_Consistent>
1

> <s_lp_Variant>
AV-unprocessed.smi:2883-7

> <Gold.Version>
5.8.1

> <Gold.Id.Protein>
6NUR|6NUR_protein|mol2

> <Gold.PLP.Fitness>
41.5987

> <Gold.PLP.PLP>
-38.9772

> <Gold.PLP.part.hbond>
-1.0000

> <Gold.PLP.part.metal>
0.0000

> <Gold.PLP.part.buried>
-5.0302

> <Gold.PLP.part.nonpolar>
-33.3344

> <Gold.PLP.part.repulsive>
0.1947

> <Gold.PLP.ligand.clash>
0.0000

> <Gold.PLP.ligand.torsion>
0.2613

> <Gold.PLP.Chemscore.Hbond>
1.0000

> <Gold.PLP.Chemscore.CHOScore>
0.0000

> <Gold.PLP.Chemscore.Metal>
0.0000

> <Gold.Chemscore.Hbonds>
donor molecule, donor type, donor heavy atom, donor atom, acceptor molecule, acceptor atom, score
      P1  H  7989  7998       L1    17  0.90

> <Gold.PLP.Chemscore.Internal.Correction>
0.1441

> <Gold.Rescore>
     Score         DG    S(hbond)    S(metal)    S(lipo)     H(rot)  DE(clash)    DE(int)     intcor
     17.01     -17.57       0.93        0.00     101.86       1.15       0.31       0.25       ----

> <Gold.Chemscore.Fitness>
17.0080

> <Gold.Chemscore.DG>
-17.5701

> <Gold.Chemscore.ZeroCoef>
-5.4800

> <Gold.Chemscore.Hbond>
0.9317

> <Gold.Chemscore.Metal>
0.0000

> <Gold.Chemscore.Lipo>
101.8579

> <Gold.Chemscore.Internal_Hbond>
0.0000

> <Gold.Chemscore.DEClash>
0.3142

> <Gold.Chemscore.DEInternal>
0.2480

> <Gold.Chemscore.Rot>
1.1482

> <Gold.Chemscore.Internal.Correction>
   9.000000E+99

> <Gold.Chemscore.Hbonds>
donor molecule, donor type, donor heavy atom, donor atom, acceptor molecule, acceptor atom, score
      P1  H  7989  7998       L1    17  0.18

> <Gold.Chemscore.Hbond.Weighted>
-3.1120

> <Gold.Chemscore.Metal.Weighted>
-0.0000

> <Gold.Chemscore.Lipo.Weighted>
-11.9174

> <Gold.Chemscore.Internal_Hbond.Weighted>
0.0000

> <Gold.Chemscore.DEClash.Weighted>
0.3142

> <Gold.Chemscore.DEInternal.Weighted>
0.2480

> <Gold.Chemscore.Rot.Weighted>
2.9393

> <Gold.Chemscore.Internal.Correction.Weighted>
   9.000000E+99

> <Gold.Protein.RotatedTorsions>
[ 6907 6896 6895 6894 ] final  135.37 input  -60.11 | X-H torsion
[ 7974 7965 7964 7962 ] final   18.06 input  175.53 | X-H torsion
[ 8008 7997 7996 7995 ] final    0.01 input   59.86 | X-H torsion
[ 10167 10162 10161 10158 ] final  -97.29 input  -65.29 | X-H torsion
[ 10718 10713 10712 10709 ] final  -32.62 input   66.30 | X-H torsion
[ 10763 10752 10751 10750 ] final -115.46 input  -60.55 | X-H torsion
[ 11005 11000 10999 10996 ] final  149.66 input  -57.11 | X-H torsion

> <Gold.Protein.ActiveResidues>
 VAL166  LYS551  ARG553  GLY616  TRP617  ASP618  TYR619  PRO620  LYS621  CYS622 
 ASP623  PHE694  ASN695  SER759  ASP760  ASP761  ALA762  ILE779  LEU786  VAL792 
 PHE793  MET794  SER795  GLU796  ALA797  LYS798  CYS799  TRP800  GLU811  SER814 

> <Gold.Protein.RotatedAtoms>
  152.3012  133.5657  159.5619 H   0  0  0  0  0  0  0  0  0  0  0  0  # atno 6907 bound_to 6896
  150.7278  134.0288  159.3735 H   0  0  0  0  0  0  0  0  0  0  0  0  # atno 6908 bound_to 6896
  151.8188  135.0658  160.0473 H   0  0  0  0  0  0  0  0  0  0  0  0  # atno 6909 bound_to 6896
  146.2198  139.8512  142.8622 H   0  0  0  0  0  0  0  0  0  0  0  0  # atno 7974 bound_to 7965
  154.6632  140.2595  155.7086 H   0  0  0  0  0  0  0  0  0  0  0  0  # atno 8008 bound_to 7997
  156.2627  140.2844  156.1033 H   0  0  0  0  0  0  0  0  0  0  0  0  # atno 8009 bound_to 7997
  155.1278  140.0378  157.2757 H   0  0  0  0  0  0  0  0  0  0  0  0  # atno 8010 bound_to 7997
  140.2849  143.3258  152.0404 H   0  0  0  0  0  0  0  0  0  0  0  0  # atno 10167 bound_to 10162
  156.3726  130.4342  149.7533 H   0  0  0  0  0  0  0  0  0  0  0  0  # atno 10718 bound_to 10713
  154.8482  135.4381  154.1667 H   0  0  0  0  0  0  0  0  0  0  0  0  # atno 10763 bound_to 10752
  153.2790  135.6952  153.7410 H   0  0  0  0  0  0  0  0  0  0  0  0  # atno 10764 bound_to 10752
  153.6621  135.3433  155.3105 H   0  0  0  0  0  0  0  0  0  0  0  0  # atno 10765 bound_to 10752
  140.1064  134.8951  157.1872 H   0  0  0  0  0  0  0  0  0  0  0  0  # atno 11005 bound_to 11000
  145.2800  141.0135  143.3723 LP  0  0  0  0  0  0  0  0  0  0  0  0  # atno 17320 bound_to 7965
  144.9157  139.4473  143.6565 LP  0  0  0  0  0  0  0  0  0  0  0  0  # atno 17321 bound_to 7965
  139.4953  144.6565  151.6560 LP  0  0  0  0  0  0  0  0  0  0  0  0  # atno 17342 bound_to 10162
  140.5781  143.9994  150.6252 LP  0  0  0  0  0  0  0  0  0  0  0  0  # atno 17343 bound_to 10162
  156.4654  130.7971  151.2991 LP  0  0  0  0  0  0  0  0  0  0  0  0  # atno 17370 bound_to 10713
  157.7485  131.0052  150.3106 LP  0  0  0  0  0  0  0  0  0  0  0  0  # atno 17371 bound_to 10713
  140.3150  134.2981  155.7258 LP  0  0  0  0  0  0  0  0  0  0  0  0  # atno 17394 bound_to 11000
  141.2119  133.7674  156.9830 LP  0  0  0  0  0  0  0  0  0  0  0  0  # atno 17395 bound_to 11000

$$$$
