#       Name:                AV-unprocessed.smi:258
#       Creating user name   scv26
#       Creation time:       Thu Mar 26 21:12:28 2020


#       File generated by GOLD software.
#

@<TRIPOS>MOLECULE
AV-unprocessed.smi:258
    69    72     1
SMALL
NO_CHARGES


@<TRIPOS>ATOM
      1 ****        -6.4968   2.8622  -2.2946 O.3            1 S1                 0.0000
      2 ****        -5.9980   2.6645  -0.9885 C.3            1 S1                 0.0000
      3 ****        -5.6695   1.1833  -0.7650 C.3            1 S1                 0.0000
      4 ****        -4.3729   0.9131  -1.2791 O.3            1 S1                 0.0000
      5 ****        -3.9381  -0.4289  -1.1032 C.3            1 S1                 0.0000
      6 ****        -4.5561  -1.3569  -2.1686 C.3            1 S1                 0.0000
      7 ****        -3.9589  -2.7677  -2.0560 C.3            1 S1                 0.0000
      8 ****        -2.4244  -2.7263  -2.1356 C.3            1 S1                 0.0000
      9 ****        -1.8761  -1.7977  -1.1453 N.3            1 S1                 0.0000
     10 ****        -0.5491  -1.8772  -0.8706 C.ar           1 S1                 0.0000
     11 ****         0.2997  -2.4351  -1.7754 N.ar           1 S1                 0.0000
     12 ****         1.6092  -2.5059  -1.5195 C.ar           1 S1                 0.0000
     13 ****         2.2720  -2.0887  -0.4395 N.ar           1 S1                 0.0000
     14 ****         1.4267  -1.5350   0.4760 C.ar           1 S1                 0.0000
     15 ****         0.0162  -1.3931   0.3434 C.ar           1 S1                 0.0000
     16 ****        -0.5078  -0.7980   1.4854 N.2            1 S1                 0.0000
     17 ****         0.5338  -0.5882   2.2432 C.2            1 S1                 0.0000
     18 ****         1.7370  -0.9908   1.7104 N.pl3          1 S1                 0.0000
     19 ****         3.0425  -0.8709   2.3369 C.3            1 S1                 0.0000
     20 ****         3.5424   0.5917   2.4294 C.3            1 S1                 0.0000
     21 ****         4.8872   0.6618   3.1914 C.3            1 S1                 0.0000
     22 ****         4.6994   0.3625   4.5588 O.3            1 S1                 0.0000
     23 ****         3.5737   1.3021   1.0463 C.3            1 S1                 0.0000
     24 ****         4.5983   0.7629   0.0492 C.3            1 S1                 0.0000
     25 ****         5.0326   2.0119  -0.7057 C.3            1 S1                 0.0000
     26 ****         5.0422   2.9976   0.3119 O.3            1 S1                 0.0000
     27 ****         3.8706   2.8118   1.0953 C.3            1 S1                 0.0000
     28 ****        -2.4040  -0.4352  -1.2185 C.3            1 S1                 0.0000
     29 ****        -6.6913   3.7802  -2.4060 H              1 S1                 0.0000
     30 ****        -5.1271   3.2963  -0.8112 H              1 S1                 0.0000
     31 ****        -6.7733   2.9798  -0.2901 H              1 S1                 0.0000
     32 ****        -5.6650   0.9805   0.3069 H              1 S1                 0.0000
     33 ****        -6.4326   0.5447  -1.2107 H              1 S1                 0.0000
     34 ****        -4.2054  -0.7806  -0.1049 H              1 S1                 0.0000
     35 ****        -5.6388  -1.4115  -2.0595 H              1 S1                 0.0000
     36 ****        -4.3618  -0.9554  -3.1640 H              1 S1                 0.0000
     37 ****        -4.2622  -3.2162  -1.1092 H              1 S1                 0.0000
     38 ****        -4.3562  -3.4077  -2.8442 H              1 S1                 0.0000
     39 ****        -2.0270  -3.7288  -1.9709 H              1 S1                 0.0000
     40 ****        -2.1121  -2.4142  -3.1333 H              1 S1                 0.0000
     41 ****         2.2122  -2.9605  -2.2917 H              1 S1                 0.0000
     42 ****         0.4538  -0.1264   3.2166 H              1 S1                 0.0000
     43 ****         2.9718  -1.3132   3.3309 H              1 S1                 0.0000
     44 ****         3.7571  -1.4796   1.7818 H              1 S1                 0.0000
     45 ****         2.8130   1.1411   3.0269 H              1 S1                 0.0000
     46 ****         5.6137  -0.0382   2.7790 H              1 S1                 0.0000
     47 ****         5.3327   1.6538   3.1300 H              1 S1                 0.0000
     48 ****         5.5347   0.4228   4.9972 H              1 S1                 0.0000
     49 ****         2.5888   1.2119   0.5869 H              1 S1                 0.0000
     50 ****         5.4633   0.3337   0.5525 H              1 S1                 0.0000
     51 ****         4.1873  -0.0009  -0.6108 H              1 S1                 0.0000
     52 ****         6.0108   1.9041  -1.1750 H              1 S1                 0.0000
     53 ****         4.3054   2.2800  -1.4739 H              1 S1                 0.0000
     54 ****         3.0515   3.3728   0.6424 H              1 S1                 0.0000
     55 ****         4.0108   3.2012   2.1035 H              1 S1                 0.0000
     56 ****        -2.1015   0.0025  -2.1709 H              1 S1                 0.0000
     57 ****        -1.9832   0.1993  -0.4393 H              1 S1                 0.0000
     58 ****        -7.3293   2.3231  -2.4229 LP             1 S1                 0.0000
     59 ****        -5.8101   2.5793  -2.9643 LP             1 S1                 0.0000
     60 ****        -3.7219   1.5156  -0.8175 LP             1 S1                 0.0000
     61 ****        -4.3768   1.1145  -2.2586 LP             1 S1                 0.0000
     62 ****        -2.2639  -2.1795  -0.3064 LP             1 S1                 0.0000
     63 ****        -0.0585  -2.7944  -2.6372 LP             1 S1                 0.0000
     64 ****         3.2610  -2.1714  -0.3172 LP             1 S1                 0.0000
     65 ****        -1.4640  -0.5805   1.6813 LP             1 S1                 0.0000
     66 ****         4.3346  -0.5637   4.6542 LP             1 S1                 0.0000
     67 ****         4.0590   1.0161   4.9621 LP             1 S1                 0.0000
     68 ****         5.0390   3.9104  -0.0965 LP             1 S1                 0.0000
     69 ****         5.8559   2.8909   0.8833 LP             1 S1                 0.0000
@<TRIPOS>BOND
    1    1    2 1     
    2    1   29 1     
    3    2    3 1     
    4    2   30 1     
    5    2   31 1     
    6    3    4 1     
    7    3   32 1     
    8    3   33 1     
    9    4    5 1     
   10    5   28 1     
   11    5    6 1     
   12    5   34 1     
   13    6    7 1     
   14    6   35 1     
   15    6   36 1     
   16    7    8 1     
   17    7   37 1     
   18    7   38 1     
   19    8    9 1     
   20    8   39 1     
   21    8   40 1     
   22    9   10 1     
   23    9   28 1     
   24   10   15 ar    
   25   10   11 ar    
   26   11   12 ar    
   27   12   13 ar    
   28   12   41 1     
   29   13   14 ar    
   30   14   18 1     
   31   14   15 ar    
   32   15   16 1     
   33   16   17 2     
   34   17   18 1     
   35   17   42 1     
   36   18   19 1     
   37   19   20 1     
   38   19   43 1     
   39   19   44 1     
   40   20   21 1     
   41   20   23 1     
   42   20   45 1     
   43   21   22 1     
   44   21   46 1     
   45   21   47 1     
   46   22   48 1     
   47   23   27 1     
   48   23   24 1     
   49   23   49 1     
   50   24   25 1     
   51   24   50 1     
   52   24   51 1     
   53   25   26 1     
   54   25   52 1     
   55   25   53 1     
   56   26   27 1     
   57   27   54 1     
   58   27   55 1     
   59   28   56 1     
   60   28   57 1     
   61    1   58 1     
   62    1   59 1     
   63    4   60 1     
   64    4   61 1     
   65    9   62 1     
   66   11   63 1     
   67   13   64 1     
   68   16   65 1     
   69   22   66 1     
   70   22   67 1     
   71   26   68 1     
   72   26   69 1     
@<TRIPOS>SUBSTRUCTURE
      1 S1             1
@<TRIPOS>SET
LONE_PAIRS      STATIC     ATOMS    <user>   **** ""
12 58 59 60 61 62 63 64 65 66 67 68 69
DONOR_HYDROGENS      STATIC     ATOMS    <user>   **** ""
2 29 48
ATOM$BLUE        STATIC     ATOMS    COLORGROUP SYSTEM
12 58 59 60 61 62 63 64 65 66 67 68 69
ATOM$RED        STATIC     ATOMS    COLORGROUP SYSTEM
2 29 48
