#       Name:                AV-unprocessed.smi:1207
#       Creating user name   scv26
#       Creation time:       Fri Mar 27 04:09:30 2020


#       File generated by GOLD software.
#

@<TRIPOS>MOLECULE
AV-unprocessed.smi:1207
    58    60     1
SMALL
NO_CHARGES


@<TRIPOS>ATOM
      1 ****        -5.3979   1.3511   2.3933 C.3            1 S1                 0.0000
      2 ****        -4.2619   1.5787   1.4105 C.ar           1 S1                 0.0000
      3 ****        -4.5825   1.8721   0.0658 C.ar           1 S1                 0.0000
      4 ****        -3.5220   2.0721  -0.8099 C.ar           1 S1                 0.0000
      5 ****        -3.5047   2.3710  -2.1739 N.pl3          1 S1                 1.0000
      6 ****        -2.2154   2.4726  -2.6010 C.2            1 S1                 0.0000
      7 ****        -1.4089   2.2405  -1.5292 N.pl3          1 S1                 0.0000
      8 ****         0.0571   2.2232  -1.4331 C.3            1 S1                 0.0000
      9 ****         0.6360   0.7952  -1.3973 C.3            1 S1                 0.0000
     10 ****         0.2498   0.1054  -2.5704 O.3            1 S1                 0.0000
     11 ****         2.1747   0.7919  -1.3007 C.3            1 S1                 0.0000
     12 ****         2.7075  -0.5704  -1.0445 N.4            1 S1                 1.0000
     13 ****         4.0577  -0.7660  -1.6214 C.3            1 S1                 0.0000
     14 ****         2.6348  -0.9691   0.3847 C.3            1 S1                 0.0000
     15 ****         2.5320  -2.4648   0.5194 C.2            1 S1                 0.0000
     16 ****         1.3726  -3.2719   0.3375 C.2            1 S1                 0.0000
     17 ****        -0.0161  -2.8381  -0.0364 C.3            1 S1                 0.0000
     18 ****         1.6284  -4.5542   0.5292 N.2            1 S1                 0.0000
     19 ****         2.9856  -4.6293   0.8558 O.3            1 S1                 0.0000
     20 ****         3.5016  -3.3743   0.8442 C.2            1 S1                 0.0000
     21 ****         4.9514  -3.2525   1.1721 C.3            1 S1                 0.0000
     22 ****        -2.1805   1.9905  -0.3893 C.ar           1 S1                 0.0000
     23 ****        -1.8467   1.7062   0.9327 C.ar           1 S1                 0.0000
     24 ****        -2.9112   1.4969   1.8384 C.ar           1 S1                 0.0000
     25 ****        -2.5785   1.1805   3.2867 C.3            1 S1                 0.0000
     26 ****        -6.3702   1.4552   1.9111 H              1 S1                 0.0000
     27 ****        -5.3515   2.0745   3.2077 H              1 S1                 0.0000
     28 ****        -5.3422   0.3479   2.8165 H              1 S1                 0.0000
     29 ****        -5.6084   1.9371  -0.2665 H              1 S1                 0.0000
     30 ****        -1.8929   2.6934  -3.6084 H              1 S1                 0.0000
     31 ****         0.4494   2.7727  -2.2901 H              1 S1                 0.0000
     32 ****         0.3472   2.7854  -0.5444 H              1 S1                 0.0000
     33 ****         0.2066   0.2657  -0.5479 H              1 S1                 0.0000
     34 ****         0.5665   0.5831  -3.3223 H              1 S1                 0.0000
     35 ****         2.5833   1.1900  -2.2311 H              1 S1                 0.0000
     36 ****         2.5152   1.4629  -0.5102 H              1 S1                 0.0000
     37 ****         4.7867  -0.1114  -1.1422 H              1 S1                 0.0000
     38 ****         4.0558  -0.5511  -2.6904 H              1 S1                 0.0000
     39 ****         4.3907  -1.7968  -1.5000 H              1 S1                 0.0000
     40 ****         3.4986  -0.5713   0.9188 H              1 S1                 0.0000
     41 ****         1.7709  -0.5050   0.8596 H              1 S1                 0.0000
     42 ****        -0.3465  -2.0049   0.5841 H              1 S1                 0.0000
     43 ****        -0.7388  -3.6454   0.0868 H              1 S1                 0.0000
     44 ****        -0.0553  -2.5139  -1.0764 H              1 S1                 0.0000
     45 ****         5.3324  -2.2635   0.9188 H              1 S1                 0.0000
     46 ****         5.5352  -3.9887   0.6193 H              1 S1                 0.0000
     47 ****         5.1205  -3.4176   2.2363 H              1 S1                 0.0000
     48 ****        -0.8192   1.6456   1.2588 H              1 S1                 0.0000
     49 ****        -1.5011   1.1460   3.4510 H              1 S1                 0.0000
     50 ****        -2.9896   0.2117   3.5716 H              1 S1                 0.0000
     51 ****        -2.9921   1.9409   3.9497 H              1 S1                 0.0000
     52 ****         2.0954  -1.1955  -1.5501 H              1 S1                 0.0000
     53 ****        -4.3119   2.4977  -2.7717 H              1 S1                 0.0000
     54 ****        -0.7473   0.0400  -2.6092 LP             1 S1                 0.0000
     55 ****         0.6442  -0.8136  -2.5654 LP             1 S1                 0.0000
     56 ****         0.9834  -5.3149   0.4557 LP             1 S1                 0.0000
     57 ****         3.4631  -5.1966   0.1848 LP             1 S1                 0.0000
     58 ****         3.0918  -5.0293   1.7661 LP             1 S1                 0.0000
@<TRIPOS>BOND
    1    1    2 1     
    2    1   26 1     
    3    1   27 1     
    4    1   28 1     
    5    2   24 ar    
    6    2    3 ar    
    7    3    4 ar    
    8    3   29 1     
    9    4   22 ar    
   10    4    5 1     
   11    5    6 2     
   12    5   53 1     
   13    6    7 1     
   14    6   30 1     
   15    7    8 1     
   16    7   22 1     
   17    8    9 1     
   18    8   31 1     
   19    8   32 1     
   20    9   10 1     
   21    9   11 1     
   22    9   33 1     
   23   10   34 1     
   24   11   12 1     
   25   11   35 1     
   26   11   36 1     
   27   12   13 1     
   28   12   14 1     
   29   12   52 1     
   30   13   37 1     
   31   13   38 1     
   32   13   39 1     
   33   14   15 1     
   34   14   40 1     
   35   14   41 1     
   36   15   20 2     
   37   15   16 1     
   38   16   17 1     
   39   16   18 2     
   40   17   42 1     
   41   17   43 1     
   42   17   44 1     
   43   18   19 1     
   44   19   20 1     
   45   20   21 1     
   46   21   45 1     
   47   21   46 1     
   48   21   47 1     
   49   22   23 ar    
   50   23   24 ar    
   51   23   48 1     
   52   24   25 1     
   53   25   49 1     
   54   25   50 1     
   55   25   51 1     
   56   10   54 1     
   57   10   55 1     
   58   18   56 1     
   59   19   57 1     
   60   19   58 1     
@<TRIPOS>SUBSTRUCTURE
      1 S1             1
@<TRIPOS>SET
LONE_PAIRS      STATIC     ATOMS    <user>   **** ""
5 54 55 56 57 58
DONOR_HYDROGENS      STATIC     ATOMS    <user>   **** ""
3 53 34 52
ATOM$BLUE        STATIC     ATOMS    COLORGROUP SYSTEM
5 54 55 56 57 58
ATOM$RED        STATIC     ATOMS    COLORGROUP SYSTEM
3 53 34 52
