AV-unprocessed.smi:898|AV-procd|sdf|4086|dock2
  -GOLD-   22720 1573D 1   1.00000     0.00000
 Structure written by MMmdl.
 33 35  0  0  0  0  0  0  0  0  2 V2000
  151.4246  139.6252  158.9961 O   0  0  0  0  0  0  0  0  0  0  0  0
  152.2015  140.3492  158.3690 C   0  0  0  0  0  0  0  0  0  0  0  0
  152.5330  140.2275  157.0634 N   0  5  0  0  0  0  0  0  0  0  0  0
  151.5736  140.2333  156.1235 C   0  0  0  0  0  0  0  0  0  0  0  0
  151.6867  139.5491  154.9764 N   0  0  0  0  0  0  0  0  0  0  0  0
  150.5861  139.6956  154.1445 N   0  0  0  0  0  0  0  0  0  0  0  0
  149.6576  140.4958  154.6735 C   0  0  0  0  0  0  0  0  0  0  0  0
  148.3783  140.8085  153.9720 C   0  0  0  0  0  0  0  0  0  0  0  0
  147.3569  141.7531  154.5678 C   0  0  0  0  0  0  0  0  0  0  0  0
  147.0629  140.2765  154.4925 C   0  0  0  0  0  0  0  0  0  0  0  0
  150.0711  141.1470  156.2515 S   0  0  0  0  0  0  0  0  0  0  0  0
  152.8021  141.3789  158.9832 N   0  0  0  0  0  0  0  0  0  0  0  0
  152.6285  141.7720  160.3792 C   0  0  1  0  0  0  0  0  0  0  0  0
  153.9439  141.5185  161.1406 C   0  0  0  0  0  0  0  0  0  0  0  0
  153.8367  141.8467  162.6386 C   0  0  0  0  0  0  0  0  0  0  0  0
  153.4919  143.3212  162.8899 C   0  0  0  0  0  0  0  0  0  0  0  0
  151.8770  143.7464  162.1844 S   0  0  0  0  0  0  0  0  0  0  0  0
  152.1927  143.2479  160.4686 C   0  0  0  0  0  0  0  0  0  0  0  0
  148.5277  140.8357  152.8944 H   0  0  0  0  0  0  0  0  0  0  0  0
  147.5535  142.1706  155.5533 H   0  0  0  0  0  0  0  0  0  0  0  0
  146.8203  142.4073  153.8839 H   0  0  0  0  0  0  0  0  0  0  0  0
  146.3306  139.9451  153.7592 H   0  0  0  0  0  0  0  0  0  0  0  0
  147.0792  139.7135  155.4238 H   0  0  0  0  0  0  0  0  0  0  0  0
  153.4298  141.9416  158.4282 H   0  0  0  0  0  0  0  0  0  0  0  0
  151.8525  141.1456  160.8235 H   0  0  0  0  0  0  0  0  0  0  0  0
  154.2312  140.4722  161.0290 H   0  0  0  0  0  0  0  0  0  0  0  0
  154.7497  142.1044  160.6960 H   0  0  0  0  0  0  0  0  0  0  0  0
  153.0862  141.2073  163.1050 H   0  0  0  0  0  0  0  0  0  0  0  0
  154.7833  141.6118  163.1260 H   0  0  0  0  0  0  0  0  0  0  0  0
  153.4703  143.5272  163.9602 H   0  0  0  0  0  0  0  0  0  0  0  0
  154.2525  143.9697  162.4541 H   0  0  0  0  0  0  0  0  0  0  0  0
  152.9589  143.8990  160.0463 H   0  0  0  0  0  0  0  0  0  0  0  0
  151.2807  143.4163  159.8951 H   0  0  0  0  0  0  0  0  0  0  0  0
  1  2  2  0  0  0  0
  2  3  1  0  0  0  0
  2 12  1  0  0  0  0
  3  4  1  0  0  0  0
  4 11  1  0  0  0  0
  4  5  2  0  0  0  0
  5  6  1  0  0  0  0
  6  7  2  0  0  0  0
  7  8  1  0  0  0  0
  7 11  1  0  0  0  0
  8 10  1  0  0  0  0
  8  9  1  0  0  0  0
  8 19  1  0  0  0  0
  9 10  1  0  0  0  0
  9 20  1  0  0  0  0
  9 21  1  0  0  0  0
 10 22  1  0  0  0  0
 10 23  1  0  0  0  0
 12 13  1  0  0  0  0
 12 24  1  0  0  0  0
 13 18  1  0  0  0  0
 13 14  1  0  0  0  0
 13 25  1  0  0  0  0
 14 15  1  0  0  0  0
 14 26  1  0  0  0  0
 14 27  1  0  0  0  0
 15 16  1  0  0  0  0
 15 28  1  0  0  0  0
 15 29  1  0  0  0  0
 16 17  1  0  0  0  0
 16 30  1  0  0  0  0
 16 31  1  0  0  0  0
 17 18  1  0  0  0  0
 18 32  1  0  0  0  0
 18 33  1  0  0  0  0
M  CHG  1   3  -1
M  END
> <s_m_source_file>
AV-unprocessed.smi

> <i_m_source_file_index>
898

> <i_lp_mmshare_version>
43012

> <i_f3d_flags>
0

> <s_epik_input>
W0NIMl0xU1tDSDJdW0NIMl1bQ0gyXVtDQEhdMVtOSF1DKD1PKVtOSF1jMm5uYyhzMilbQ0hdM1tDSDJdW0NIMl0z

> <s_epik_cmdline>
J2VwaWtfcHl0aG9uJywgJy1waCcsICc3LjAnLCAnLXRuJywgJzgnLCAnLW1hJywgJzIwMCcsICctbWV0YWxfYmluZGluZycsICctaW1hZScsICc8aW5maWxlLm1hZT4nLCAnLW9tYWUnLCAnPG91dGZpbGUubWFlPic=

> <r_lp_tautomer_probability>
1

> <r_epik_Ionization_Penalty>
4.71411

> <r_epik_Ionization_Penalty_Charging>
4.5615

> <r_epik_Ionization_Penalty_Neutral>
0.152604

> <r_epik_State_Penalty>
4.56123

> <r_epik_Charging_Adjusted_Penalty>
9.12273

> <i_epik_Tot_Q>
-1

> <i_epik_Tot_abs_Q>
1

> <r_epik_Metal_State_Penalty>
0.850765

> <b_epik_Metal_Only>
1

> <s_lp_Force_Field>
OPLS_2005

> <r_lp_Energy>
0.516701

> <b_lp_Chiralities_Consistent>
1

> <s_lp_Variant>
AV-unprocessed.smi:898-4

> <Gold.Version>
5.8.1

> <Gold.Id.Protein>
6NUR|6NUR_protein|mol2

> <Gold.PLP.Fitness>
41.4334

> <Gold.PLP.PLP>
-36.6030

> <Gold.PLP.part.hbond>
-3.0000

> <Gold.PLP.part.metal>
0.0000

> <Gold.PLP.part.buried>
1.2103

> <Gold.PLP.part.nonpolar>
-34.3303

> <Gold.PLP.part.repulsive>
0.2882

> <Gold.PLP.ligand.clash>
0.0000

> <Gold.PLP.ligand.torsion>
0.8553

> <Gold.PLP.Chemscore.Hbond>
2.1275

> <Gold.PLP.Chemscore.CHOScore>
0.0000

> <Gold.PLP.Chemscore.Metal>
0.0000

> <Gold.Chemscore.Hbonds>
donor molecule, donor type, donor heavy atom, donor atom, acceptor molecule, acceptor atom, score
      P1  H  7997  8009       L1     3  2.00

> <Gold.PLP.Chemscore.Internal.Correction>
0.1585

> <Gold.Rescore>
     Score         DG    S(hbond)    S(metal)    S(lipo)     H(rot)  DE(clash)    DE(int)     intcor
     13.80     -17.23       0.90        0.00     100.71       1.19       2.61       0.82       ----

> <Gold.Chemscore.Fitness>
13.7955

> <Gold.Chemscore.DG>
-17.2250

> <Gold.Chemscore.ZeroCoef>
-5.4800

> <Gold.Chemscore.Hbond>
0.9016

> <Gold.Chemscore.Metal>
0.0000

> <Gold.Chemscore.Lipo>
100.7090

> <Gold.Chemscore.Internal_Hbond>
0.0000

> <Gold.Chemscore.DEClash>
2.6092

> <Gold.Chemscore.DEInternal>
0.8203

> <Gold.Chemscore.Rot>
1.1911

> <Gold.Chemscore.Internal.Correction>
   9.000000E+99

> <Gold.Chemscore.Hbonds>
donor molecule, donor type, donor heavy atom, donor atom, acceptor molecule, acceptor atom, score
      P1  H  7997  8009       L1     3  0.91

> <Gold.Chemscore.Hbond.Weighted>
-3.0113

> <Gold.Chemscore.Metal.Weighted>
-0.0000

> <Gold.Chemscore.Lipo.Weighted>
-11.7830

> <Gold.Chemscore.Internal_Hbond.Weighted>
0.0000

> <Gold.Chemscore.DEClash.Weighted>
2.6092

> <Gold.Chemscore.DEInternal.Weighted>
0.8203

> <Gold.Chemscore.Rot.Weighted>
3.0492

> <Gold.Chemscore.Internal.Correction.Weighted>
   9.000000E+99

> <Gold.Protein.RotatedTorsions>
[ 6907 6896 6895 6894 ] final  -56.12 input  -60.11 | X-H torsion
[ 7974 7965 7964 7962 ] final  126.25 input  175.53 | X-H torsion
[ 8008 7997 7996 7995 ] final -179.12 input   59.86 | X-H torsion
[ 10167 10162 10161 10158 ] final  115.26 input  -65.29 | X-H torsion
[ 10718 10713 10712 10709 ] final -135.38 input   66.30 | X-H torsion
[ 10763 10752 10751 10750 ] final  -41.84 input  -60.55 | X-H torsion
[ 11005 11000 10999 10996 ] final   98.03 input  -57.11 | X-H torsion

> <Gold.Protein.ActiveResidues>
 VAL166  LYS551  ARG553  GLY616  TRP617  ASP618  TYR619  PRO620  LYS621  CYS622 
 ASP623  PHE694  ASN695  SER759  ASP760  ASP761  ALA762  ILE779  LEU786  VAL792 
 PHE793  MET794  SER795  GLU796  ALA797  LYS798  CYS799  TRP800  GLU811  SER814 

> <Gold.Protein.RotatedAtoms>
  150.8194  134.7394  159.6758 H   0  0  0  0  0  0  0  0  0  0  0  0  # atno 6907 bound_to 6896
  152.4311  134.5772  159.9947 H   0  0  0  0  0  0  0  0  0  0  0  0  # atno 6908 bound_to 6896
  151.5960  133.3324  159.3073 H   0  0  0  0  0  0  0  0  0  0  0  0  # atno 6909 bound_to 6896
  145.0638  139.3784  143.4992 H   0  0  0  0  0  0  0  0  0  0  0  0  # atno 7974 bound_to 7965
  156.0268  140.1273  157.0300 H   0  0  0  0  0  0  0  0  0  0  0  0  # atno 8008 bound_to 7997
  154.4334  140.1057  156.6113 H   0  0  0  0  0  0  0  0  0  0  0  0  # atno 8009 bound_to 7997
  155.5864  140.3469  155.4556 H   0  0  0  0  0  0  0  0  0  0  0  0  # atno 8010 bound_to 7997
  139.6329  144.7117  151.2394 H   0  0  0  0  0  0  0  0  0  0  0  0  # atno 10167 bound_to 10162
  156.2655  130.7235  151.1184 H   0  0  0  0  0  0  0  0  0  0  0  0  # atno 10718 bound_to 10713
  153.9691  135.6730  153.4746 H   0  0  0  0  0  0  0  0  0  0  0  0  # atno 10763 bound_to 10752
  153.0801  135.4928  154.8482 H   0  0  0  0  0  0  0  0  0  0  0  0  # atno 10764 bound_to 10752
  154.7229  135.3121  154.8979 H   0  0  0  0  0  0  0  0  0  0  0  0  # atno 10765 bound_to 10752
  139.8773  134.9029  156.4395 H   0  0  0  0  0  0  0  0  0  0  0  0  # atno 11005 bound_to 11000
  146.3526  140.0349  142.8647 LP  0  0  0  0  0  0  0  0  0  0  0  0  # atno 17320 bound_to 7965
  145.1376  140.9553  143.4507 LP  0  0  0  0  0  0  0  0  0  0  0  0  # atno 17321 bound_to 7965
  140.7449  143.6447  150.8302 LP  0  0  0  0  0  0  0  0  0  0  0  0  # atno 17342 bound_to 10162
  140.0075  143.5678  152.2852 LP  0  0  0  0  0  0  0  0  0  0  0  0  # atno 17343 bound_to 10162
  157.7266  131.0645  150.5904 LP  0  0  0  0  0  0  0  0  0  0  0  0  # atno 17370 bound_to 10713
  156.5995  130.4350  149.5903 LP  0  0  0  0  0  0  0  0  0  0  0  0  # atno 17371 bound_to 10713
  140.9010  133.7780  155.9680 LP  0  0  0  0  0  0  0  0  0  0  0  0  # atno 17394 bound_to 11000
  140.8651  134.2794  157.5217 LP  0  0  0  0  0  0  0  0  0  0  0  0  # atno 17395 bound_to 11000

$$$$
