#       Name:                AV-unprocessed.smi:169
#       Creating user name   scv26
#       Creation time:       Thu Mar 26 19:15:04 2020


#       File generated by GOLD software.
#

@<TRIPOS>MOLECULE
AV-unprocessed.smi:169
    64    68     1
SMALL
NO_CHARGES


@<TRIPOS>ATOM
      1 ****        -6.3407  -0.3859   0.8755 C.3            1 S1                 0.0000
      2 ****        -4.9199  -0.2979   1.4584 C.3            1 S1                 0.0000
      3 ****        -3.8583  -0.1596   0.4279 N.4            1 S1                 1.0000
      4 ****        -3.7167  -1.3915  -0.4261 C.3            1 S1                 0.0000
      5 ****        -2.3170  -1.5486  -1.1266 C.3            1 S1                 0.0000
      6 ****        -1.7345  -0.2077  -1.6177 C.3            1 S1                 0.0000
      7 ****        -1.7764   0.6383  -2.8954 C.3            1 S1                 0.0000
      8 ****        -2.4206   1.9502  -2.3343 C.3            1 S1                 0.0000
      9 ****        -2.5466   1.7230  -0.7898 C.3            1 S1                 0.0000
     10 ****        -3.9336   1.1526  -0.3168 C.3            1 S1                 0.0000
     11 ****        -1.5126   0.7327  -0.5348 N.3            1 S1                 0.0000
     12 ****        -0.2314   1.1042  -0.2589 C.ar           1 S1                 0.0000
     13 ****         0.0008   2.3438   0.2482 N.ar           1 S1                 0.0000
     14 ****         1.2431   2.7421   0.5339 C.ar           1 S1                 0.0000
     15 ****         2.3848   2.0665   0.4030 N.ar           1 S1                 0.0000
     16 ****         2.1640   0.8130  -0.0855 C.ar           1 S1                 0.0000
     17 ****         0.9019   0.2562  -0.4425 C.ar           1 S1                 0.0000
     18 ****         1.0819  -1.0433  -0.9038 N.2            1 S1                 0.0000
     19 ****         2.3694  -1.2385  -0.8305 C.2            1 S1                 0.0000
     20 ****         3.0954  -0.1810  -0.3325 N.pl3          1 S1                 0.0000
     21 ****         4.5380  -0.1228  -0.1416 C.3            1 S1                 0.0000
     22 ****         5.0418  -0.6881   1.2090 C.3            1 S1                 0.0000
     23 ****         6.5489  -0.4158   1.3033 C.3            1 S1                 0.0000
     24 ****         7.2643  -1.1549   0.3340 O.3            1 S1                 0.0000
     25 ****         4.2272  -0.3202   2.4621 C.3            1 S1                 0.0000
     26 ****         3.5712  -1.6055   2.4764 O.3            1 S1                 0.0000
     27 ****         4.5883  -2.1087   1.5848 C.3            1 S1                 0.0000
     28 ****        -7.0752  -0.4744   1.6762 H              1 S1                 0.0000
     29 ****        -6.4599  -1.2557   0.2297 H              1 S1                 0.0000
     30 ****        -6.5968   0.5017   0.2969 H              1 S1                 0.0000
     31 ****        -4.8581   0.5469   2.1454 H              1 S1                 0.0000
     32 ****        -4.7161  -1.1834   2.0615 H              1 S1                 0.0000
     33 ****        -3.8909  -2.2821   0.1788 H              1 S1                 0.0000
     34 ****        -4.5066  -1.3857  -1.1788 H              1 S1                 0.0000
     35 ****        -1.6177  -1.9800  -0.4096 H              1 S1                 0.0000
     36 ****        -2.3829  -2.2670  -1.9454 H              1 S1                 0.0000
     37 ****        -2.7759  -0.1763  -1.9151 H              1 S1                 0.0000
     38 ****        -0.7611   0.8383  -3.2403 H              1 S1                 0.0000
     39 ****        -2.3243   0.2014  -3.7363 H              1 S1                 0.0000
     40 ****        -1.7625   2.7953  -2.5400 H              1 S1                 0.0000
     41 ****        -3.3836   2.1699  -2.7960 H              1 S1                 0.0000
     42 ****        -2.3728   2.6610  -0.2625 H              1 S1                 0.0000
     43 ****        -4.6249   1.0499  -1.1544 H              1 S1                 0.0000
     44 ****        -4.3817   1.9057   0.3324 H              1 S1                 0.0000
     45 ****         1.3353   3.7443   0.9258 H              1 S1                 0.0000
     46 ****         2.8261  -2.1677  -1.1382 H              1 S1                 0.0000
     47 ****         4.9957  -0.6584  -0.9741 H              1 S1                 0.0000
     48 ****         4.8450   0.9175  -0.2564 H              1 S1                 0.0000
     49 ****         6.7661   0.6446   1.1711 H              1 S1                 0.0000
     50 ****         6.9344  -0.6902   2.2857 H              1 S1                 0.0000
     51 ****         8.1849  -0.9632   0.4288 H              1 S1                 0.0000
     52 ****         4.8348  -0.1720   3.3566 H              1 S1                 0.0000
     53 ****         3.5340   0.5096   2.3368 H              1 S1                 0.0000
     54 ****         4.1831  -2.6907   0.7582 H              1 S1                 0.0000
     55 ****         5.3439  -2.6844   2.1222 H              1 S1                 0.0000
     56 ****        -3.0027  -0.1077   0.9628 H              1 S1                 0.0000
     57 ****        -1.6102   0.3433   0.3810 LP             1 S1                 0.0000
     58 ****        -0.7669   2.9642   0.4090 LP             1 S1                 0.0000
     59 ****         3.2866   2.4319   0.6333 LP             1 S1                 0.0000
     60 ****         0.3820  -1.6836  -1.2203 LP             1 S1                 0.0000
     61 ****         6.9583  -0.8947  -0.5818 LP             1 S1                 0.0000
     62 ****         7.1076  -2.1328   0.4724 LP             1 S1                 0.0000
     63 ****         2.6494  -1.6014   2.0886 LP             1 S1                 0.0000
     64 ****         3.5537  -2.0486   3.3727 LP             1 S1                 0.0000
@<TRIPOS>BOND
    1    1    2 1     
    2    1   28 1     
    3    1   29 1     
    4    1   30 1     
    5    2    3 1     
    6    2   31 1     
    7    2   32 1     
    8    3   10 1     
    9    3    4 1     
   10    3   56 1     
   11    4    5 1     
   12    4   33 1     
   13    4   34 1     
   14    5    6 1     
   15    5   35 1     
   16    5   36 1     
   17    6   11 1     
   18    6    7 1     
   19    6   37 1     
   20    7    8 1     
   21    7   38 1     
   22    7   39 1     
   23    8    9 1     
   24    8   40 1     
   25    8   41 1     
   26    9   10 1     
   27    9   11 1     
   28    9   42 1     
   29   10   43 1     
   30   10   44 1     
   31   11   12 1     
   32   12   17 ar    
   33   12   13 ar    
   34   13   14 ar    
   35   14   15 ar    
   36   14   45 1     
   37   15   16 ar    
   38   16   20 1     
   39   16   17 ar    
   40   17   18 1     
   41   18   19 2     
   42   19   20 1     
   43   19   46 1     
   44   20   21 1     
   45   21   22 1     
   46   21   47 1     
   47   21   48 1     
   48   22   27 1     
   49   22   23 1     
   50   22   25 1     
   51   23   24 1     
   52   23   49 1     
   53   23   50 1     
   54   24   51 1     
   55   25   26 1     
   56   25   52 1     
   57   25   53 1     
   58   26   27 1     
   59   27   54 1     
   60   27   55 1     
   61   11   57 1     
   62   13   58 1     
   63   15   59 1     
   64   18   60 1     
   65   24   61 1     
   66   24   62 1     
   67   26   63 1     
   68   26   64 1     
@<TRIPOS>SUBSTRUCTURE
      1 S1             1
@<TRIPOS>SET
LONE_PAIRS      STATIC     ATOMS    <user>   **** ""
8 57 58 59 60 61 62 63 64
DONOR_HYDROGENS      STATIC     ATOMS    <user>   **** ""
2 56 51
ATOM$BLUE        STATIC     ATOMS    COLORGROUP SYSTEM
8 57 58 59 60 61 62 63 64
ATOM$RED        STATIC     ATOMS    COLORGROUP SYSTEM
2 56 51
