AV-unprocessed.smi:1056|AV-procd|sdf|4638|dock7
  -GOLD-   22720 3143D 1   1.00000     0.00000
 Structure written by MMmdl.
 44 46  0  0  0  0  0  0  0  0  1 V2000
  152.4488  143.0984  161.4125 C   0  0  0  0  0  0  0  0  0  0  0  0
  151.9501  142.7261  160.0274 C   0  0  0  0  0  0  0  0  0  0  0  0
  152.3879  141.5166  159.4421 C   0  0  0  0  0  0  0  0  0  0  0  0
  151.9477  141.1330  158.1563 C   0  0  0  0  0  0  0  0  0  0  0  0
  152.2445  140.0107  157.4019 N   0  0  0  0  0  0  0  0  0  0  0  0
  151.5282  140.2301  156.3027 C   0  0  0  0  0  0  0  0  0  0  0  0
  150.8013  141.3630  156.2566 N   0  0  0  0  0  0  0  0  0  0  0  0
  149.9481  141.8161  155.1722 C   0  0  0  0  0  0  0  0  0  0  0  0
  149.0662  140.6865  154.6018 C   0  0  2  0  0  0  0  0  0  0  0  0
  149.8701  139.8754  153.7649 O   0  0  0  0  0  0  0  0  0  0  0  0
  147.8730  141.2352  153.7863 C   0  0  0  0  0  0  0  0  0  0  0  0
  147.0158  142.1965  154.4885 N   0  0  0  0  0  0  0  0  0  0  0  0
  146.3245  141.6261  155.6455 C   0  0  0  0  0  0  0  0  0  0  0  0
  145.5385  142.6919  156.4255 C   0  0  0  0  0  0  0  0  0  0  0  0
  144.7523  143.5487  155.5443 N   0  0  0  0  0  0  0  0  0  0  0  0
  144.9721  143.6923  154.2273 C   0  0  0  0  0  0  0  0  0  0  0  0
  144.3104  144.4693  153.5430 O   0  0  0  0  0  0  0  0  0  0  0  0
  146.0637  142.8313  153.5633 C   0  0  0  0  0  0  0  0  0  0  0  0
  151.0489  141.9990  157.4677 C   0  0  0  0  0  0  0  0  0  0  0  0
  150.6050  143.2043  158.0395 C   0  0  0  0  0  0  0  0  0  0  0  0
  151.0553  143.5728  159.3245 C   0  0  0  0  0  0  0  0  0  0  0  0
  150.5702  144.8761  159.9338 C   0  0  0  0  0  0  0  0  0  0  0  0
  153.1657  142.3672  161.7874 H   0  0  0  0  0  0  0  0  0  0  0  0
  151.6174  143.1445  162.1164 H   0  0  0  0  0  0  0  0  0  0  0  0
  152.9424  144.0702  161.3948 H   0  0  0  0  0  0  0  0  0  0  0  0
  153.0680  140.8707  159.9775 H   0  0  0  0  0  0  0  0  0  0  0  0
  151.5292  139.5250  155.4842 H   0  0  0  0  0  0  0  0  0  0  0  0
  149.3251  142.6264  155.5528 H   0  0  0  0  0  0  0  0  0  0  0  0
  150.5743  142.2457  154.3885 H   0  0  0  0  0  0  0  0  0  0  0  0
  148.6982  140.0797  155.4306 H   0  0  0  0  0  0  0  0  0  0  0  0
  149.5232  139.9147  152.8870 H   0  0  0  0  0  0  0  0  0  0  0  0
  148.2853  141.7458  152.9143 H   0  0  0  0  0  0  0  0  0  0  0  0
  147.2785  140.4156  153.3774 H   0  0  0  0  0  0  0  0  0  0  0  0
  145.6475  140.8352  155.3174 H   0  0  0  0  0  0  0  0  0  0  0  0
  147.0328  141.1642  156.3319 H   0  0  0  0  0  0  0  0  0  0  0  0
  144.8797  142.2213  157.1556 H   0  0  0  0  0  0  0  0  0  0  0  0
  146.2281  143.3267  156.9832 H   0  0  0  0  0  0  0  0  0  0  0  0
  144.0206  144.1004  155.9683 H   0  0  0  0  0  0  0  0  0  0  0  0
  146.6049  143.4492  152.8452 H   0  0  0  0  0  0  0  0  0  0  0  0
  145.5459  142.0648  152.9839 H   0  0  0  0  0  0  0  0  0  0  0  0
  149.9228  143.8386  157.4930 H   0  0  0  0  0  0  0  0  0  0  0  0
  149.8725  145.3895  159.2715 H   0  0  0  0  0  0  0  0  0  0  0  0
  151.4096  145.5465  160.1197 H   0  0  0  0  0  0  0  0  0  0  0  0
  150.0584  144.6896  160.8782 H   0  0  0  0  0  0  0  0  0  0  0  0
  1  2  1  0  0  0  0
  1 23  1  0  0  0  0
  1 24  1  0  0  0  0
  1 25  1  0  0  0  0
  2 21  1  0  0  0  0
  2  3  2  0  0  0  0
  3  4  1  0  0  0  0
  3 26  1  0  0  0  0
  4 19  2  0  0  0  0
  4  5  1  0  0  0  0
  5  6  2  0  0  0  0
  6  7  1  0  0  0  0
  6 27  1  0  0  0  0
  7  8  1  0  0  0  0
  7 19  1  0  0  0  0
  8  9  1  0  0  0  0
  8 28  1  0  0  0  0
  8 29  1  0  0  0  0
  9 10  1  0  0  0  0
  9 11  1  0  0  0  0
  9 30  1  0  0  0  0
 10 31  1  0  0  0  0
 11 12  1  0  0  0  0
 11 32  1  0  0  0  0
 11 33  1  0  0  0  0
 12 18  1  0  0  0  0
 12 13  1  0  0  0  0
 13 14  1  0  0  0  0
 13 34  1  0  0  0  0
 13 35  1  0  0  0  0
 14 15  1  0  0  0  0
 14 36  1  0  0  0  0
 14 37  1  0  0  0  0
 15 16  1  0  0  0  0
 15 38  1  0  0  0  0
 16 17  2  0  0  0  0
 16 18  1  0  0  0  0
 18 39  1  0  0  0  0
 18 40  1  0  0  0  0
 19 20  1  0  0  0  0
 20 21  2  0  0  0  0
 20 41  1  0  0  0  0
 21 22  1  0  0  0  0
 22 42  1  0  0  0  0
 22 43  1  0  0  0  0
 22 44  1  0  0  0  0
M  END
> <s_m_source_file>
AV-unprocessed.smi

> <i_m_source_file_index>
1056

> <i_lp_mmshare_version>
43012

> <i_f3d_flags>
0

> <s_epik_input>
W0NIM11jKFtjSF0xKWMoW0NIM10pW2NIXWMoYzEyKW4oW2NIXW4yKVtDSDJdW0NASF0oW09IXSlbQ0gyXU4zW0NIMl1bQ0gyXVtOSF1DKD1PKVtDSDJdMw==

> <s_epik_cmdline>
J2VwaWtfcHl0aG9uJywgJy1waCcsICc3LjAnLCAnLXRuJywgJzgnLCAnLW1hJywgJzIwMCcsICctbWV0YWxfYmluZGluZycsICctaW1hZScsICc8aW5maWxlLm1hZT4nLCAnLW9tYWUnLCAnPG91dGZpbGUubWFlPic=

> <r_epik_Ionization_Penalty>
1.40166

> <r_epik_Ionization_Penalty_Charging>
0

> <r_epik_Ionization_Penalty_Neutral>
1.40166

> <r_epik_State_Penalty>
1.44226

> <r_epik_Charging_Adjusted_Penalty>
1.44226

> <i_epik_Tot_Q>
0

> <i_epik_Tot_abs_Q>
0

> <r_epik_Metal_State_Penalty>
1.50267

> <b_epik_Metal_Only>
0

> <s_lp_Force_Field>
OPLS_2005

> <r_lp_Energy>
30.6142

> <b_lp_Chiralities_Consistent>
1

> <s_lp_Variant>
AV-unprocessed.smi:1056-9

> <Gold.Version>
5.8.1

> <Gold.Id.Protein>
6NUR|6NUR_protein|mol2

> <Gold.PLP.Fitness>
54.7229

> <Gold.PLP.PLP>
-46.9199

> <Gold.PLP.part.hbond>
-3.0000

> <Gold.PLP.part.metal>
0.0000

> <Gold.PLP.part.buried>
-7.2029

> <Gold.PLP.part.nonpolar>
-36.9584

> <Gold.PLP.part.repulsive>
0.3040

> <Gold.PLP.ligand.clash>
0.0000

> <Gold.PLP.ligand.torsion>
0.3957

> <Gold.PLP.Chemscore.Hbond>
2.8480

> <Gold.PLP.Chemscore.CHOScore>
0.0000

> <Gold.PLP.Chemscore.Metal>
0.0000

> <Gold.Chemscore.Hbonds>
donor molecule, donor type, donor heavy atom, donor atom, acceptor molecule, acceptor atom, score
      L1  H    10    31       P1  7957  1.00
      P1  H  7989  7998       L1    10  0.76
      P1  H  7997  8008       L1     5  0.42

> <Gold.PLP.Chemscore.Internal.Correction>
0.0504

> <Gold.Rescore>
     Score         DG    S(hbond)    S(metal)    S(lipo)     H(rot)  DE(clash)    DE(int)     intcor
     17.49     -18.53       1.79        0.00     110.92       2.31       0.67       0.36       ----

> <Gold.Chemscore.Fitness>
17.4945

> <Gold.Chemscore.DG>
-18.5258

> <Gold.Chemscore.ZeroCoef>
-5.4800

> <Gold.Chemscore.Hbond>
1.7945

> <Gold.Chemscore.Metal>
0.0000

> <Gold.Chemscore.Lipo>
110.9217

> <Gold.Chemscore.Internal_Hbond>
0.0000

> <Gold.Chemscore.DEClash>
0.6682

> <Gold.Chemscore.DEInternal>
0.3631

> <Gold.Chemscore.Rot>
2.3147

> <Gold.Chemscore.Internal.Correction>
   9.000000E+99

> <Gold.Chemscore.Hbonds>
donor molecule, donor type, donor heavy atom, donor atom, acceptor molecule, acceptor atom, score
      L1  H    10    31       P1  7957  0.98
      P1  H  7989  7998       L1    10  0.10
      P1  H  7997  8008       L1     5  0.16

> <Gold.Chemscore.Hbond.Weighted>
-5.9935

> <Gold.Chemscore.Metal.Weighted>
-0.0000

> <Gold.Chemscore.Lipo.Weighted>
-12.9778

> <Gold.Chemscore.Internal_Hbond.Weighted>
0.0000

> <Gold.Chemscore.DEClash.Weighted>
0.6682

> <Gold.Chemscore.DEInternal.Weighted>
0.3631

> <Gold.Chemscore.Rot.Weighted>
5.9256

> <Gold.Chemscore.Internal.Correction.Weighted>
   9.000000E+99

> <Gold.Protein.RotatedTorsions>
[ 6907 6896 6895 6894 ] final -177.11 input  -60.11 | X-H torsion
[ 7974 7965 7964 7962 ] final   78.99 input  175.53 | X-H torsion
[ 8008 7997 7996 7995 ] final  -64.40 input   59.86 | X-H torsion
[ 10167 10162 10161 10158 ] final   74.98 input  -65.29 | X-H torsion
[ 10718 10713 10712 10709 ] final  -49.81 input   66.30 | X-H torsion
[ 10763 10752 10751 10750 ] final -153.20 input  -60.55 | X-H torsion
[ 11005 11000 10999 10996 ] final  -63.16 input  -57.11 | X-H torsion

> <Gold.Protein.ActiveResidues>
 VAL166  LYS551  ARG553  GLY616  TRP617  ASP618  TYR619  PRO620  LYS621  CYS622 
 ASP623  PHE694  ASN695  SER759  ASP760  ASP761  ALA762  ILE779  LEU786  VAL792 
 PHE793  MET794  SER795  GLU796  ALA797  LYS798  CYS799  TRP800  GLU811  SER814 

> <Gold.Protein.RotatedAtoms>
  151.6156  133.3343  159.3076 H   0  0  0  0  0  0  0  0  0  0  0  0  # atno 6907 bound_to 6896
  150.8133  134.7304  159.6719 H   0  0  0  0  0  0  0  0  0  0  0  0  # atno 6908 bound_to 6896
  152.4229  134.5927  160.0030 H   0  0  0  0  0  0  0  0  0  0  0  0  # atno 6909 bound_to 6896
  145.6701  139.2494  143.1873 H   0  0  0  0  0  0  0  0  0  0  0  0  # atno 7974 bound_to 7965
  154.4610  140.0954  156.6891 H   0  0  0  0  0  0  0  0  0  0  0  0  # atno 8008 bound_to 7997
  155.4996  140.3473  155.4350 H   0  0  0  0  0  0  0  0  0  0  0  0  # atno 8009 bound_to 7997
  156.0869  140.1387  156.9630 H   0  0  0  0  0  0  0  0  0  0  0  0  # atno 8010 bound_to 7997
  140.0078  144.5637  150.7683 H   0  0  0  0  0  0  0  0  0  0  0  0  # atno 10167 bound_to 10162
  156.1858  130.4151  149.9441 H   0  0  0  0  0  0  0  0  0  0  0  0  # atno 10718 bound_to 10713
  154.7943  135.3218  154.7703 H   0  0  0  0  0  0  0  0  0  0  0  0  # atno 10763 bound_to 10752
  153.8384  135.6873  153.4810 H   0  0  0  0  0  0  0  0  0  0  0  0  # atno 10764 bound_to 10752
  153.1628  135.4654  154.9737 H   0  0  0  0  0  0  0  0  0  0  0  0  # atno 10765 bound_to 10752
  141.1384  133.6648  156.5638 H   0  0  0  0  0  0  0  0  0  0  0  0  # atno 11005 bound_to 11000
  146.1053  140.7495  142.9529 LP  0  0  0  0  0  0  0  0  0  0  0  0  # atno 17320 bound_to 7965
  144.7060  140.3852  143.7118 LP  0  0  0  0  0  0  0  0  0  0  0  0  # atno 17321 bound_to 7965
  140.7393  143.2790  151.3656 LP  0  0  0  0  0  0  0  0  0  0  0  0  # atno 17342 bound_to 10162
  139.6226  144.0877  152.2405 LP  0  0  0  0  0  0  0  0  0  0  0  0  # atno 17343 bound_to 10162
  156.7197  130.9002  151.3617 LP  0  0  0  0  0  0  0  0  0  0  0  0  # atno 17370 bound_to 10713
  157.6898  130.9222  150.0482 LP  0  0  0  0  0  0  0  0  0  0  0  0  # atno 17371 bound_to 10713
  140.3967  134.7393  157.4755 LP  0  0  0  0  0  0  0  0  0  0  0  0  # atno 17394 bound_to 11000
  140.0526  134.6109  155.8843 LP  0  0  0  0  0  0  0  0  0  0  0  0  # atno 17395 bound_to 11000

$$$$
