AV-unprocessed.smi:2655|AV-procd|sdf|10299|dock3
  -GOLD-   2272014313D 1   1.00000     0.00000
 Structure written by MMmdl.
 34 35  0  0  0  0  0  0  0  0  1 V2000
  148.5301  141.6154  154.3858 C   0  0  0  0  0  0  0  0  0  0  0  0
  149.8292  141.3308  155.1084 C   0  0  0  0  0  0  0  0  0  0  0  0
  150.3853  142.2361  155.9647 N   0  0  0  0  0  0  0  0  0  0  0  0
  151.5639  141.7205  156.4411 N   0  0  0  0  0  0  0  0  0  0  0  0
  151.7698  140.4999  155.9194 C   0  0  0  0  0  0  0  0  0  0  0  0
  152.7309  139.7689  156.1499 O   0  0  0  0  0  0  0  0  0  0  0  0
  150.6296  140.2590  155.0422 C   0  0  0  0  0  0  0  0  0  0  0  0
  150.4323  138.9921  154.2322 C   0  0  0  0  0  0  0  0  0  0  0  0
  150.6477  137.7279  155.0795 C   0  0  0  0  0  0  0  0  0  0  0  0
  150.0858  136.5482  154.4332 N   0  0  0  0  0  0  0  0  0  0  0  0
  150.2115  135.2918  154.8848 C   0  0  0  0  0  0  0  0  0  0  0  0
  150.8276  134.9990  155.9097 O   0  0  0  0  0  0  0  0  0  0  0  0
  149.5839  134.4202  154.0773 N   0  0  0  0  0  0  0  0  0  0  0  0
  149.4709  133.0127  154.2165 C   0  0  0  0  0  0  0  0  0  0  0  0
  148.7197  132.1385  153.3779 C   0  0  0  0  0  0  0  0  0  0  0  0
  148.9436  130.9115  153.9356 C   0  0  0  0  0  0  0  0  0  0  0  0
  148.4772  129.5396  153.5878 C   0  0  0  0  0  0  0  0  0  0  0  0
  149.7571  131.0248  155.0196 O   0  0  0  0  0  0  0  0  0  0  0  0
  150.0891  132.3737  155.1927 N   0  0  0  0  0  0  0  0  0  0  0  0
  148.6793  141.5545  153.3074 H   0  0  0  0  0  0  0  0  0  0  0  0
  148.1562  142.6113  154.6255 H   0  0  0  0  0  0  0  0  0  0  0  0
  147.7723  140.8849  154.6698 H   0  0  0  0  0  0  0  0  0  0  0  0
  152.1205  142.2525  157.0944 H   0  0  0  0  0  0  0  0  0  0  0  0
  151.1291  139.0032  153.3933 H   0  0  0  0  0  0  0  0  0  0  0  0
  149.4305  138.9962  153.8007 H   0  0  0  0  0  0  0  0  0  0  0  0
  151.7109  137.5768  155.2757 H   0  0  0  0  0  0  0  0  0  0  0  0
  150.1669  137.8427  156.0514 H   0  0  0  0  0  0  0  0  0  0  0  0
  149.5632  136.7009  153.5829 H   0  0  0  0  0  0  0  0  0  0  0  0
  149.1213  134.8113  153.2701 H   0  0  0  0  0  0  0  0  0  0  0  0
  148.1144  132.3560  152.5110 H   0  0  0  0  0  0  0  0  0  0  0  0
  148.0337  129.5198  152.5923 H   0  0  0  0  0  0  0  0  0  0  0  0
  147.7270  129.1955  154.2997 H   0  0  0  0  0  0  0  0  0  0  0  0
  149.3069  128.8326  153.6018 H   0  0  0  0  0  0  0  0  0  0  0  0
  150.0769  143.1770  156.1646 H   0  0  0  0  0  0  0  0  0  0  0  0
  1 20  1  0  0  0  0
  1 21  1  0  0  0  0
  1 22  1  0  0  0  0
  1  2  1  0  0  0  0
  2  7  2  0  0  0  0
  2  3  1  0  0  0  0
  3  4  1  0  0  0  0
  3 34  1  0  0  0  0
  4 23  1  0  0  0  0
  4  5  1  0  0  0  0
  5  7  1  0  0  0  0
  5  6  2  0  0  0  0
  7  8  1  0  0  0  0
  8  9  1  0  0  0  0
  8 24  1  0  0  0  0
  8 25  1  0  0  0  0
  9 10  1  0  0  0  0
  9 26  1  0  0  0  0
  9 27  1  0  0  0  0
 10 11  1  0  0  0  0
 10 28  1  0  0  0  0
 11 12  2  0  0  0  0
 11 13  1  0  0  0  0
 13 14  1  0  0  0  0
 13 29  1  0  0  0  0
 14 19  2  0  0  0  0
 14 15  1  0  0  0  0
 15 16  2  0  0  0  0
 15 30  1  0  0  0  0
 16 17  1  0  0  0  0
 16 18  1  0  0  0  0
 17 31  1  0  0  0  0
 17 32  1  0  0  0  0
 17 33  1  0  0  0  0
 18 19  1  0  0  0  0
M  END
> <s_m_source_file>
AV-unprocessed.smi

> <i_m_source_file_index>
2655

> <i_lp_mmshare_version>
43012

> <i_f3d_flags>
0

> <s_epik_input>
W0NIM11DMT1OW05IXUMoPU8pW0NASF0xW0NIMl1bQ0gyXVtOSF1DKD1PKVtOSF1jMltjSF1jKFtDSDNdKW9uMg==

> <s_epik_cmdline>
J2VwaWtfcHl0aG9uJywgJy1waCcsICc3LjAnLCAnLXRuJywgJzgnLCAnLW1hJywgJzIwMCcsICctbWV0YWxfYmluZGluZycsICctaW1hZScsICc8aW5maWxlLm1hZT4nLCAnLW9tYWUnLCAnPG91dGZpbGUubWFlPic=

> <r_lp_tautomer_probability>
0.00220696

> <r_epik_Ionization_Penalty>
0.0273702

> <r_epik_Ionization_Penalty_Charging>
8.84748e-06

> <r_epik_Ionization_Penalty_Neutral>
0.0273613

> <r_epik_State_Penalty>
0.626781

> <r_epik_Charging_Adjusted_Penalty>
0.626789

> <i_epik_Tot_Q>
0

> <i_epik_Tot_abs_Q>
0

> <r_epik_Metal_State_Penalty>
2.03048

> <b_epik_Metal_Only>
0

> <s_lp_Force_Field>
OPLS_2005

> <r_lp_Energy>
17.132

> <b_lp_Chiralities_Consistent>
1

> <s_lp_Variant>
AV-unprocessed.smi:2655-2

> <Gold.Version>
5.8.1

> <Gold.Id.Protein>
6NUR|6NUR_protein|mol2

> <Gold.PLP.Fitness>
44.2718

> <Gold.PLP.PLP>
-33.4290

> <Gold.PLP.part.hbond>
-4.2319

> <Gold.PLP.part.metal>
0.0000

> <Gold.PLP.part.buried>
-3.5474

> <Gold.PLP.part.nonpolar>
-26.4995

> <Gold.PLP.part.repulsive>
0.3568

> <Gold.PLP.ligand.clash>
0.0000

> <Gold.PLP.ligand.torsion>
0.2126

> <Gold.PLP.Chemscore.Hbond>
3.7500

> <Gold.PLP.Chemscore.CHOScore>
0.0000

> <Gold.PLP.Chemscore.Metal>
0.0000

> <Gold.Chemscore.Hbonds>
donor molecule, donor type, donor heavy atom, donor atom, acceptor molecule, acceptor atom, score
      L1  H     3    34       P1  8028  0.96
      L1  H    10    28       P1  7948  1.00
      L1  H    13    29       P1  7948  0.70
      P1  H  7997  8009       L1     6  1.00

> <Gold.PLP.Chemscore.Internal.Correction>
0.0180

> <Gold.Rescore>
     Score         DG    S(hbond)    S(metal)    S(lipo)     H(rot)  DE(clash)    DE(int)     intcor
     14.95     -16.61       3.09        0.00      48.24       1.89       0.14       1.52       ----

> <Gold.Chemscore.Fitness>
14.9467

> <Gold.Chemscore.DG>
-16.6110

> <Gold.Chemscore.ZeroCoef>
-5.4800

> <Gold.Chemscore.Hbond>
3.0937

> <Gold.Chemscore.Metal>
0.0000

> <Gold.Chemscore.Lipo>
48.2361

> <Gold.Chemscore.Internal_Hbond>
0.0000

> <Gold.Chemscore.DEClash>
0.1440

> <Gold.Chemscore.DEInternal>
1.5203

> <Gold.Chemscore.Rot>
1.8929

> <Gold.Chemscore.Internal.Correction>
   9.000000E+99

> <Gold.Chemscore.Hbonds>
donor molecule, donor type, donor heavy atom, donor atom, acceptor molecule, acceptor atom, score
      L1  H     3    34       P1  8028  0.88
      L1  H    10    28       P1  7948  0.72
      L1  H    13    29       P1  7948  0.07
      P1  H  7997  8009       L1     6  1.00

> <Gold.Chemscore.Hbond.Weighted>
-10.3331

> <Gold.Chemscore.Metal.Weighted>
-0.0000

> <Gold.Chemscore.Lipo.Weighted>
-5.6436

> <Gold.Chemscore.Internal_Hbond.Weighted>
0.0000

> <Gold.Chemscore.DEClash.Weighted>
0.1440

> <Gold.Chemscore.DEInternal.Weighted>
1.5203

> <Gold.Chemscore.Rot.Weighted>
4.8457

> <Gold.Chemscore.Internal.Correction.Weighted>
   9.000000E+99

> <Gold.Protein.RotatedTorsions>
[ 6907 6896 6895 6894 ] final    7.79 input  -60.11 | X-H torsion
[ 7974 7965 7964 7962 ] final   95.08 input  175.53 | X-H torsion
[ 8008 7997 7996 7995 ] final -167.97 input   59.86 | X-H torsion
[ 10167 10162 10161 10158 ] final  113.68 input  -65.29 | X-H torsion
[ 10718 10713 10712 10709 ] final  -57.64 input   66.30 | X-H torsion
[ 10763 10752 10751 10750 ] final  -62.75 input  -60.55 | X-H torsion
[ 11005 11000 10999 10996 ] final -158.58 input  -57.11 | X-H torsion

> <Gold.Protein.ActiveResidues>
 VAL166  LYS551  ARG553  GLY616  TRP617  ASP618  TYR619  PRO620  LYS621  CYS622 
 ASP623  PHE694  ASN695  SER759  ASP760  ASP761  ALA762  ILE779  LEU786  VAL792 
 PHE793  MET794  SER795  GLU796  ALA797  LYS798  CYS799  TRP800  GLU811  SER814 

> <Gold.Protein.RotatedAtoms>
  151.6956  135.0939  160.0241 H   0  0  0  0  0  0  0  0  0  0  0  0  # atno 6907 bound_to 6896
  152.3752  133.6467  159.6126 H   0  0  0  0  0  0  0  0  0  0  0  0  # atno 6908 bound_to 6896
  150.7703  133.9122  159.3414 H   0  0  0  0  0  0  0  0  0  0  0  0  # atno 6909 bound_to 6896
  145.4570  139.2289  143.3008 H   0  0  0  0  0  0  0  0  0  0  0  0  # atno 7974 bound_to 7965
  155.8850  140.1015  157.1459 H   0  0  0  0  0  0  0  0  0  0  0  0  # atno 8008 bound_to 7997
  154.4009  140.1322  156.4307 H   0  0  0  0  0  0  0  0  0  0  0  0  # atno 8009 bound_to 7997
  155.7600  140.3463  155.5195 H   0  0  0  0  0  0  0  0  0  0  0  0  # atno 8010 bound_to 7997
  139.6444  144.7126  151.2173 H   0  0  0  0  0  0  0  0  0  0  0  0  # atno 10167 bound_to 10162
  156.1195  130.4167  150.0468 H   0  0  0  0  0  0  0  0  0  0  0  0  # atno 10718 bound_to 10713
  154.3046  135.6228  153.5439 H   0  0  0  0  0  0  0  0  0  0  0  0  # atno 10763 bound_to 10752
  152.9836  135.5686  154.5246 H   0  0  0  0  0  0  0  0  0  0  0  0  # atno 10764 bound_to 10752
  154.4883  135.2866  155.1493 H   0  0  0  0  0  0  0  0  0  0  0  0  # atno 10765 bound_to 10752
  140.6521  134.4439  157.5235 H   0  0  0  0  0  0  0  0  0  0  0  0  # atno 11005 bound_to 11000
  146.2472  140.5335  142.8908 LP  0  0  0  0  0  0  0  0  0  0  0  0  # atno 17320 bound_to 7965
  144.8026  140.6241  143.6468 LP  0  0  0  0  0  0  0  0  0  0  0  0  # atno 17321 bound_to 7965
  140.7507  143.6257  150.8471 LP  0  0  0  0  0  0  0  0  0  0  0  0  # atno 17342 bound_to 10162
  139.9898  143.5859  152.2914 LP  0  0  0  0  0  0  0  0  0  0  0  0  # atno 17343 bound_to 10162
  156.8410  130.9426  151.3632 LP  0  0  0  0  0  0  0  0  0  0  0  0  # atno 17370 bound_to 10713
  157.6379  130.8781  149.9393 LP  0  0  0  0  0  0  0  0  0  0  0  0  # atno 17371 bound_to 10713
  139.9042  134.8486  156.1772 LP  0  0  0  0  0  0  0  0  0  0  0  0  # atno 17394 bound_to 11000
  141.0529  133.6880  156.1805 LP  0  0  0  0  0  0  0  0  0  0  0  0  # atno 17395 bound_to 11000

$$$$
