AV-unprocessed.smi:2163|AV-procd|sdf|8807|dock9
  -GOLD-   2272011593D 1   1.00000     0.00000
 Structure written by MMmdl.
 44 46  0  0  0  0  0  0  0  0  2 V2000
  149.2198  140.5458  156.0035 C   0  0  0  0  0  0  0  0  0  0  0  0
  150.0673  141.2616  157.0008 C   0  0  0  0  0  0  0  0  0  0  0  0
  150.1305  142.6118  157.1761 N   0  3  0  0  0  0  0  0  0  0  0  0
  151.0302  142.9134  158.1996 C   0  0  0  0  0  0  0  0  0  0  0  0
  151.4258  144.1351  158.7357 C   0  0  0  0  0  0  0  0  0  0  0  0
  152.3704  144.0905  159.7822 C   0  0  0  0  0  0  0  0  0  0  0  0
  152.8845  142.8659  160.2562 C   0  0  0  0  0  0  0  0  0  0  0  0
  152.4761  141.6337  159.7045 C   0  0  0  0  0  0  0  0  0  0  0  0
  151.5412  141.6870  158.6712 C   0  0  0  0  0  0  0  0  0  0  0  0
  150.9176  140.6963  157.9053 N   0  0  0  0  0  0  0  0  0  0  0  0
  151.2379  139.2831  158.1610 C   0  0  0  0  0  0  0  0  0  0  0  0
  150.0257  138.3475  157.9743 C   0  0  1  0  0  0  0  0  0  0  0  0
  150.4630  137.1477  157.3662 O   0  0  0  0  0  0  0  0  0  0  0  0
  149.3558  138.0018  159.3136 C   0  0  0  0  0  0  0  0  0  0  0  0
  148.4857  136.8943  159.1202 O   0  0  0  0  0  0  0  0  0  0  0  0
  147.8765  136.3407  160.2260 C   0  0  0  0  0  0  0  0  0  0  0  0
  148.0402  136.8195  161.5507 C   0  0  0  0  0  0  0  0  0  0  0  0
  147.3871  136.1839  162.6246 C   0  0  0  0  0  0  0  0  0  0  0  0
  146.5608  135.0670  162.3927 C   0  0  0  0  0  0  0  0  0  0  0  0
  145.8648  134.3817  163.5501 C   0  0  0  0  0  0  0  0  0  0  0  0
  145.0425  133.2458  163.1073 C   0  0  0  0  0  0  0  0  0  0  0  0
  144.3958  132.3519  162.7585 N   0  0  0  0  0  0  0  0  0  0  0  0
  146.3857  134.5920  161.0786 C   0  0  0  0  0  0  0  0  0  0  0  0
  147.0404  135.2268  160.0056 C   0  0  0  0  0  0  0  0  0  0  0  0
  148.6129  141.2530  155.4377 H   0  0  0  0  0  0  0  0  0  0  0  0
  148.5548  139.8448  156.5082 H   0  0  0  0  0  0  0  0  0  0  0  0
  149.8476  139.9912  155.3058 H   0  0  0  0  0  0  0  0  0  0  0  0
  151.0337  145.0746  158.3746 H   0  0  0  0  0  0  0  0  0  0  0  0
  152.7069  145.0141  160.2305 H   0  0  0  0  0  0  0  0  0  0  0  0
  153.6063  142.8712  161.0601 H   0  0  0  0  0  0  0  0  0  0  0  0
  152.8739  140.7007  160.0750 H   0  0  0  0  0  0  0  0  0  0  0  0
  152.0445  138.9973  157.4849 H   0  0  0  0  0  0  0  0  0  0  0  0
  151.6421  139.2018  159.1709 H   0  0  0  0  0  0  0  0  0  0  0  0
  149.2999  138.8277  157.3173 H   0  0  0  0  0  0  0  0  0  0  0  0
  150.3684  136.4433  157.9889 H   0  0  0  0  0  0  0  0  0  0  0  0
  150.1089  137.7996  160.0776 H   0  0  0  0  0  0  0  0  0  0  0  0
  148.7580  138.8503  159.6503 H   0  0  0  0  0  0  0  0  0  0  0  0
  148.6624  137.6735  161.7705 H   0  0  0  0  0  0  0  0  0  0  0  0
  147.5223  136.5567  163.6295 H   0  0  0  0  0  0  0  0  0  0  0  0
  146.5998  134.0169  164.2680 H   0  0  0  0  0  0  0  0  0  0  0  0
  145.2219  135.0913  164.0713 H   0  0  0  0  0  0  0  0  0  0  0  0
  145.7507  133.7388  160.8901 H   0  0  0  0  0  0  0  0  0  0  0  0
  146.9023  134.8515  159.0022 H   0  0  0  0  0  0  0  0  0  0  0  0
  149.5941  143.2771  156.6341 H   0  0  0  0  0  0  0  0  0  0  0  0
  1  2  1  0  0  0  0
  1 25  1  0  0  0  0
  1 26  1  0  0  0  0
  1 27  1  0  0  0  0
  2 10  1  0  0  0  0
  2  3  2  0  0  0  0
  3  4  1  0  0  0  0
  3 44  1  0  0  0  0
  4  9  2  0  0  0  0
  4  5  1  0  0  0  0
  5  6  2  0  0  0  0
  5 28  1  0  0  0  0
  6  7  1  0  0  0  0
  6 29  1  0  0  0  0
  7  8  2  0  0  0  0
  7 30  1  0  0  0  0
  8  9  1  0  0  0  0
  8 31  1  0  0  0  0
  9 10  1  0  0  0  0
 10 11  1  0  0  0  0
 11 12  1  0  0  0  0
 11 32  1  0  0  0  0
 11 33  1  0  0  0  0
 12 13  1  0  0  0  0
 12 14  1  0  0  0  0
 12 34  1  0  0  0  0
 13 35  1  0  0  0  0
 14 15  1  0  0  0  0
 14 36  1  0  0  0  0
 14 37  1  0  0  0  0
 15 16  1  0  0  0  0
 16 24  1  0  0  0  0
 16 17  2  0  0  0  0
 17 18  1  0  0  0  0
 17 38  1  0  0  0  0
 18 19  2  0  0  0  0
 18 39  1  0  0  0  0
 19 20  1  0  0  0  0
 19 23  1  0  0  0  0
 20 21  1  0  0  0  0
 20 40  1  0  0  0  0
 20 41  1  0  0  0  0
 21 22  3  0  0  0  0
 23 24  2  0  0  0  0
 23 42  1  0  0  0  0
 24 43  1  0  0  0  0
M  CHG  1   3   1
M  END
> <s_m_source_file>
AV-unprocessed.smi

> <i_m_source_file_index>
2163

> <i_lp_mmshare_version>
43012

> <i_f3d_flags>
0

> <s_epik_input>
W2NIXTFbY0hdW2NIXVtjSF1jKGMxMiluKGMobjIpW0NIM10pW0NIMl1bQ0BIXShbT0hdKVtDSDJdT2MzW2NIXVtjSF1jKFtDSDJdQyNOKVtjSF1bY0hdMw==

> <s_epik_cmdline>
J2VwaWtfcHl0aG9uJywgJy1waCcsICc3LjAnLCAnLXRuJywgJzgnLCAnLW1hJywgJzIwMCcsICctbWV0YWxfYmluZGluZycsICctaW1hZScsICc8aW5maWxlLm1hZT4nLCAnLW9tYWUnLCAnPG91dGZpbGUubWFlPic=

> <r_lp_tautomer_probability>
1

> <r_epik_Ionization_Penalty>
1.03158

> <r_epik_Ionization_Penalty_Charging>
1.03158

> <r_epik_Ionization_Penalty_Neutral>
2.3994e-06

> <r_epik_State_Penalty>
1.08278

> <r_epik_Charging_Adjusted_Penalty>
2.11436

> <i_epik_Tot_Q>
1

> <i_epik_Tot_abs_Q>
1

> <r_epik_Metal_State_Penalty>
5.07177

> <b_epik_Metal_Only>
0

> <s_lp_Force_Field>
OPLS_2005

> <r_lp_Energy>
20.4003

> <b_lp_Chiralities_Consistent>
1

> <s_lp_Variant>
AV-unprocessed.smi:2163-4

> <Gold.Version>
5.8.1

> <Gold.Id.Protein>
6NUR|6NUR_protein|mol2

> <Gold.PLP.Fitness>
52.4828

> <Gold.PLP.PLP>
-48.3318

> <Gold.PLP.part.hbond>
-1.0000

> <Gold.PLP.part.metal>
0.0000

> <Gold.PLP.part.buried>
-3.7363

> <Gold.PLP.part.nonpolar>
-44.4666

> <Gold.PLP.part.repulsive>
0.1477

> <Gold.PLP.ligand.clash>
0.0000

> <Gold.PLP.ligand.torsion>
1.0002

> <Gold.PLP.Chemscore.Hbond>
1.9840

> <Gold.PLP.Chemscore.CHOScore>
0.0000

> <Gold.PLP.Chemscore.Metal>
0.0000

> <Gold.Chemscore.Hbonds>
donor molecule, donor type, donor heavy atom, donor atom, acceptor molecule, acceptor atom, score
      L1  H     3    44       P1  8028  2.00

> <Gold.PLP.Chemscore.Internal.Correction>
0.1995

> <Gold.Rescore>
     Score         DG    S(hbond)    S(metal)    S(lipo)     H(rot)  DE(clash)    DE(int)     intcor
     15.68     -16.63       1.00        0.00     123.75       2.60       0.20       0.75       ----

> <Gold.Chemscore.Fitness>
15.6797

> <Gold.Chemscore.DG>
-16.6321

> <Gold.Chemscore.ZeroCoef>
-5.4800

> <Gold.Chemscore.Hbond>
1.0000

> <Gold.Chemscore.Metal>
0.0000

> <Gold.Chemscore.Lipo>
123.7497

> <Gold.Chemscore.Internal_Hbond>
0.0000

> <Gold.Chemscore.DEClash>
0.2005

> <Gold.Chemscore.DEInternal>
0.7519

> <Gold.Chemscore.Rot>
2.6041

> <Gold.Chemscore.Internal.Correction>
   9.000000E+99

> <Gold.Chemscore.Hbonds>
donor molecule, donor type, donor heavy atom, donor atom, acceptor molecule, acceptor atom, score
      L1  H     3    44       P1  8028  1.00

> <Gold.Chemscore.Hbond.Weighted>
-3.3399

> <Gold.Chemscore.Metal.Weighted>
-0.0000

> <Gold.Chemscore.Lipo.Weighted>
-14.4787

> <Gold.Chemscore.Internal_Hbond.Weighted>
0.0000

> <Gold.Chemscore.DEClash.Weighted>
0.2005

> <Gold.Chemscore.DEInternal.Weighted>
0.7519

> <Gold.Chemscore.Rot.Weighted>
6.6665

> <Gold.Chemscore.Internal.Correction.Weighted>
   9.000000E+99

> <Gold.Protein.RotatedTorsions>
[ 6907 6896 6895 6894 ] final  -35.43 input  -60.11 | X-H torsion
[ 7974 7965 7964 7962 ] final  108.88 input  175.53 | X-H torsion
[ 8008 7997 7996 7995 ] final -101.17 input   59.86 | X-H torsion
[ 10167 10162 10161 10158 ] final   80.53 input  -65.29 | X-H torsion
[ 10718 10713 10712 10709 ] final  -17.34 input   66.30 | X-H torsion
[ 10763 10752 10751 10750 ] final  -45.65 input  -60.55 | X-H torsion
[ 11005 11000 10999 10996 ] final  -42.27 input  -57.11 | X-H torsion

> <Gold.Protein.ActiveResidues>
 VAL166  LYS551  ARG553  GLY616  TRP617  ASP618  TYR619  PRO620  LYS621  CYS622 
 ASP623  PHE694  ASN695  SER759  ASP760  ASP761  ALA762  ILE779  LEU786  VAL792 
 PHE793  MET794  SER795  GLU796  ALA797  LYS798  CYS799  TRP800  GLU811  SER814 

> <Gold.Protein.RotatedAtoms>
  151.0399  134.9600  159.8155 H   0  0  0  0  0  0  0  0  0  0  0  0  # atno 6907 bound_to 6896
  152.5362  134.2671  159.8967 H   0  0  0  0  0  0  0  0  0  0  0  0  # atno 6908 bound_to 6896
  151.2683  133.4225  159.2654 H   0  0  0  0  0  0  0  0  0  0  0  0  # atno 6909 bound_to 6896
  145.2750  139.2653  143.3946 H   0  0  0  0  0  0  0  0  0  0  0  0  # atno 7974 bound_to 7965
  154.8389  140.0436  157.1528 H   0  0  0  0  0  0  0  0  0  0  0  0  # atno 8008 bound_to 7997
  154.9069  140.3008  155.5267 H   0  0  0  0  0  0  0  0  0  0  0  0  # atno 8009 bound_to 7997
  156.2991  140.2365  156.4104 H   0  0  0  0  0  0  0  0  0  0  0  0  # atno 8010 bound_to 7997
  139.9488  144.6040  150.8180 H   0  0  0  0  0  0  0  0  0  0  0  0  # atno 10167 bound_to 10162
  156.5750  130.4759  149.6346 H   0  0  0  0  0  0  0  0  0  0  0  0  # atno 10718 bound_to 10713
  154.0320  135.6655  153.4781 H   0  0  0  0  0  0  0  0  0  0  0  0  # atno 10763 bound_to 10752
  153.0536  135.5069  154.7924 H   0  0  0  0  0  0  0  0  0  0  0  0  # atno 10764 bound_to 10752
  154.6872  135.3055  154.9496 H   0  0  0  0  0  0  0  0  0  0  0  0  # atno 10765 bound_to 10752
  141.0304  133.6822  156.2572 H   0  0  0  0  0  0  0  0  0  0  0  0  # atno 11005 bound_to 11000
  146.3234  140.3203  142.8633 LP  0  0  0  0  0  0  0  0  0  0  0  0  # atno 17320 bound_to 7965
  144.9302  140.7966  143.5694 LP  0  0  0  0  0  0  0  0  0  0  0  0  # atno 17321 bound_to 7965
  140.7589  143.3117  151.2829 LP  0  0  0  0  0  0  0  0  0  0  0  0  # atno 17342 bound_to 10162
  139.6645  144.0130  152.2714 LP  0  0  0  0  0  0  0  0  0  0  0  0  # atno 17343 bound_to 10162
  156.2681  130.7001  151.1791 LP  0  0  0  0  0  0  0  0  0  0  0  0  # atno 17370 bound_to 10713
  157.7340  131.0586  150.5549 LP  0  0  0  0  0  0  0  0  0  0  0  0  # atno 17371 bound_to 10713
  140.6416  134.5160  157.5570 LP  0  0  0  0  0  0  0  0  0  0  0  0  # atno 17394 bound_to 11000
  139.9204  134.8160  156.1229 LP  0  0  0  0  0  0  0  0  0  0  0  0  # atno 17395 bound_to 11000

$$$$
