#       Name:                AV-unprocessed.smi:1295
#       Creating user name   scv26
#       Creation time:       Fri Mar 27 04:56:29 2020


#       File generated by GOLD software.
#

@<TRIPOS>MOLECULE
AV-unprocessed.smi:1295
    48    49     1
SMALL
NO_CHARGES


@<TRIPOS>ATOM
      1 ****        -6.4315  -1.4619   1.2558 C.3            1 S1                 0.0000
      2 ****        -4.9256  -1.3086   1.2914 C.2            1 S1                 0.0000
      3 ****        -4.3202  -0.2088   1.5983 N.2            1 S1                 0.0000
      4 ****        -2.9185  -0.1873   1.5927 C.2            1 S1                 0.0000
      5 ****        -2.2813   1.1431   1.9561 C.3            1 S1                 0.0000
      6 ****        -2.1865  -1.2959   1.2769 C.2            1 S1                 0.0000
      7 ****        -0.6589  -1.3004   1.2577 C.3            1 S1                 0.0000
      8 ****        -0.0126  -0.7015   0.0063 C.2            1 S1                 0.0000
      9 ****        -0.5260  -0.8755  -1.0989 O.2            1 S1                 0.0000
     10 ****         1.1107   0.0067   0.2007 N.am           1 S1                 0.0000
     11 ****         1.8764   0.7044  -0.8312 C.3            1 S1                 0.0000
     12 ****         2.0403   2.1778  -0.4088 C.3            1 S1                 0.0000
     13 ****         2.8923   2.9662  -1.4135 C.3            1 S1                 0.0000
     14 ****         4.2611   2.3014  -1.6106 C.3            1 S1                 0.0000
     15 ****         4.1039   0.8384  -2.0514 C.3            1 S1                 0.0000
     16 ****         3.2513   0.0240  -1.0568 C.3            1 S1                 0.0000
     17 ****         3.1215  -1.4348  -1.5305 C.3            1 S1                 0.0000
     18 ****        -2.8884  -2.5472   0.9308 C.2            1 S1                 0.0000
     19 ****        -2.3299  -3.6007   0.6287 O.2            1 S1                 0.0000
     20 ****        -4.2381  -2.4746   0.9589 N.am           1 S1                 0.0000
     21 ****        -4.7645  -3.3040   0.7264 H              1 S1                 0.0000
     22 ****        -6.8616  -0.7661   0.5351 H              1 S1                 0.0000
     23 ****        -6.8542  -1.2447   2.2372 H              1 S1                 0.0000
     24 ****        -6.7276  -2.4731   0.9726 H              1 S1                 0.0000
     25 ****        -1.6835   1.0466   2.8624 H              1 S1                 0.0000
     26 ****        -3.0373   1.9085   2.1353 H              1 S1                 0.0000
     27 ****        -1.6372   1.4950   1.1503 H              1 S1                 0.0000
     28 ****        -0.3040  -0.7581   2.1349 H              1 S1                 0.0000
     29 ****        -0.2747  -2.3129   1.3851 H              1 S1                 0.0000
     30 ****         1.4547   0.0867   1.1466 H              1 S1                 0.0000
     31 ****         1.3306   0.6921  -1.7767 H              1 S1                 0.0000
     32 ****         1.0611   2.6486  -0.3116 H              1 S1                 0.0000
     33 ****         2.5061   2.2306   0.5765 H              1 S1                 0.0000
     34 ****         2.3710   3.0265  -2.3697 H              1 S1                 0.0000
     35 ****         3.0227   3.9916  -1.0667 H              1 S1                 0.0000
     36 ****         4.8396   2.8530  -2.3523 H              1 S1                 0.0000
     37 ****         4.8282   2.3450  -0.6800 H              1 S1                 0.0000
     38 ****         3.6452   0.8065  -3.0407 H              1 S1                 0.0000
     39 ****         5.0900   0.3845  -2.1557 H              1 S1                 0.0000
     40 ****         3.7830   0.0116  -0.1040 H              1 S1                 0.0000
     41 ****         2.5589  -1.4984  -2.4626 H              1 S1                 0.0000
     42 ****         2.6130  -2.0554  -0.7927 H              1 S1                 0.0000
     43 ****         4.1018  -1.8796  -1.7032 H              1 S1                 0.0000
     44 ****        -4.8416   0.6110   1.8352 LP             1 S1                 0.0000
     45 ****        -1.3676  -1.4094  -1.1808 LP             1 S1                 0.0000
     46 ****        -0.1015  -0.4830  -1.9148 LP             1 S1                 0.0000
     47 ****        -1.3313  -3.6486   0.6059 LP             1 S1                 0.0000
     48 ****        -2.8745  -4.4093   0.4059 LP             1 S1                 0.0000
@<TRIPOS>BOND
    1    1    2 1     
    2    1   22 1     
    3    1   23 1     
    4    1   24 1     
    5    2   20 1     
    6    2    3 2     
    7    3    4 1     
    8    4    5 1     
    9    4    6 2     
   10    5   25 1     
   11    5   26 1     
   12    5   27 1     
   13    6    7 1     
   14    6   18 1     
   15    7    8 1     
   16    7   28 1     
   17    7   29 1     
   18    8    9 2     
   19    8   10 am    
   20   10   11 1     
   21   10   30 1     
   22   11   16 1     
   23   11   12 1     
   24   11   31 1     
   25   12   13 1     
   26   12   32 1     
   27   12   33 1     
   28   13   14 1     
   29   13   34 1     
   30   13   35 1     
   31   14   15 1     
   32   14   36 1     
   33   14   37 1     
   34   15   16 1     
   35   15   38 1     
   36   15   39 1     
   37   16   17 1     
   38   16   40 1     
   39   17   41 1     
   40   17   42 1     
   41   17   43 1     
   42   18   19 2     
   43   18   20 am    
   44   20   21 1     
   45    3   44 1     
   46    9   45 1     
   47    9   46 1     
   48   19   47 1     
   49   19   48 1     
@<TRIPOS>SUBSTRUCTURE
      1 S1             1
@<TRIPOS>SET
LONE_PAIRS      STATIC     ATOMS    <user>   **** ""
5 44 45 46 47 48
DONOR_HYDROGENS      STATIC     ATOMS    <user>   **** ""
2 30 21
ATOM$BLUE        STATIC     ATOMS    COLORGROUP SYSTEM
5 44 45 46 47 48
ATOM$RED        STATIC     ATOMS    COLORGROUP SYSTEM
2 30 21
