AV-unprocessed.smi:1491|AV-procd|sdf|6035|dock2
  -GOLD-   22720 6143D 1   1.00000     0.00000
 Structure written by MMmdl.
 38 39  0  0  0  0  0  0  0  0  1 V2000
  144.9337  135.9915  153.6210 O   0  0  0  0  0  0  0  0  0  0  0  0
  146.0402  135.9864  153.0811 C   0  0  0  0  0  0  0  0  0  0  0  0
  146.9849  136.9138  153.2925 N   0  0  0  0  0  0  0  0  0  0  0  0
  146.8719  138.0331  154.2234 C   0  0  0  0  0  0  0  0  0  0  0  0
  147.1455  139.3820  153.5333 C   0  0  0  0  0  0  0  0  0  0  0  0
  148.2344  140.1155  154.1514 N   0  0  0  0  0  0  0  0  0  0  0  0
  148.2101  141.4278  154.6059 C   0  0  0  0  0  0  0  0  0  0  0  0
  149.4644  141.6935  155.1065 C   0  0  0  0  0  0  0  0  0  0  0  0
  150.2701  140.5649  154.9760 N   0  0  0  0  0  0  0  0  0  0  0  0
  149.4736  139.6719  154.4029 C   0  0  0  0  0  0  0  0  0  0  0  0
  146.4535  135.0448  152.2216 N   0  0  0  0  0  0  0  0  0  0  0  0
  145.6741  133.8829  151.8063 C   0  0  2  0  0  0  0  0  0  0  0  0
  146.2798  133.2866  150.5230 C   0  0  0  0  0  0  0  0  0  0  0  0
  145.4592  132.0874  150.0169 C   0  0  0  0  0  0  0  0  0  0  0  0
  143.9735  132.4404  149.8160 C   0  0  2  0  0  0  0  0  0  0  0  0
  143.8281  133.3102  148.7109 O   0  0  0  0  0  0  0  0  0  0  0  0
  143.3683  133.0827  151.0787 C   0  0  0  0  0  0  0  0  0  0  0  0
  144.1999  134.2744  151.5849 C   0  0  0  0  0  0  0  0  0  0  0  0
  147.8591  136.8220  152.7964 H   0  0  0  0  0  0  0  0  0  0  0  0
  145.8550  138.0312  154.6161 H   0  0  0  0  0  0  0  0  0  0  0  0
  147.5283  137.9011  155.0853 H   0  0  0  0  0  0  0  0  0  0  0  0
  147.3746  139.2321  152.4774 H   0  0  0  0  0  0  0  0  0  0  0  0
  146.2521  140.0063  153.5731 H   0  0  0  0  0  0  0  0  0  0  0  0
  147.3294  142.0484  154.5311 H   0  0  0  0  0  0  0  0  0  0  0  0
  149.8460  142.6029  155.5471 H   0  0  0  0  0  0  0  0  0  0  0  0
  149.8000  138.6721  154.1570 H   0  0  0  0  0  0  0  0  0  0  0  0
  147.3813  135.1302  151.8331 H   0  0  0  0  0  0  0  0  0  0  0  0
  145.7221  133.1195  152.5856 H   0  0  0  0  0  0  0  0  0  0  0  0
  146.3267  134.0499  149.7449 H   0  0  0  0  0  0  0  0  0  0  0  0
  147.3079  132.9723  150.7072 H   0  0  0  0  0  0  0  0  0  0  0  0
  145.8862  131.7053  149.0891 H   0  0  0  0  0  0  0  0  0  0  0  0
  145.5364  131.2768  150.7426 H   0  0  0  0  0  0  0  0  0  0  0  0
  143.4210  131.5307  149.5784 H   0  0  0  0  0  0  0  0  0  0  0  0
  144.6102  133.8354  148.6369 H   0  0  0  0  0  0  0  0  0  0  0  0
  142.3410  133.3964  150.8893 H   0  0  0  0  0  0  0  0  0  0  0  0
  143.3148  132.3310  151.8674 H   0  0  0  0  0  0  0  0  0  0  0  0
  143.7684  134.6501  152.5134 H   0  0  0  0  0  0  0  0  0  0  0  0
  144.1389  135.0921  150.8655 H   0  0  0  0  0  0  0  0  0  0  0  0
  1  2  2  0  0  0  0
  2  3  1  0  0  0  0
  2 11  1  0  0  0  0
  3  4  1  0  0  0  0
  3 19  1  0  0  0  0
  4  5  1  0  0  0  0
  4 20  1  0  0  0  0
  4 21  1  0  0  0  0
  5  6  1  0  0  0  0
  5 22  1  0  0  0  0
  5 23  1  0  0  0  0
  6 10  1  0  0  0  0
  6  7  1  0  0  0  0
  7  8  2  0  0  0  0
  7 24  1  0  0  0  0
  8  9  1  0  0  0  0
  8 25  1  0  0  0  0
  9 10  2  0  0  0  0
 10 26  1  0  0  0  0
 11 12  1  0  0  0  0
 11 27  1  0  0  0  0
 12 18  1  0  0  0  0
 12 13  1  0  0  0  0
 12 28  1  0  0  0  0
 13 14  1  0  0  0  0
 13 29  1  0  0  0  0
 13 30  1  0  0  0  0
 14 15  1  0  0  0  0
 14 31  1  0  0  0  0
 14 32  1  0  0  0  0
 15 16  1  0  0  0  0
 15 17  1  0  0  0  0
 15 33  1  0  0  0  0
 16 34  1  0  0  0  0
 17 18  1  0  0  0  0
 17 35  1  0  0  0  0
 17 36  1  0  0  0  0
 18 37  1  0  0  0  0
 18 38  1  0  0  0  0
M  END
> <s_m_source_file>
AV-unprocessed.smi

> <i_m_source_file_index>
1491

> <i_lp_mmshare_version>
43012

> <i_f3d_flags>
0

> <s_epik_input>
W0NIMl0xW0NIMl1bQ0BIXShbT0hdKVtDSDJdW0NIMl1bQ0BIXTFbTkhdQyg9TylbTkhdW0NIMl1bQ0gyXW4yW2NIXVtjSF1uW2NIXTI=

> <s_epik_cmdline>
J2VwaWtfcHl0aG9uJywgJy1waCcsICc3LjAnLCAnLXRuJywgJzgnLCAnLW1hJywgJzIwMCcsICctbWV0YWxfYmluZGluZycsICctaW1hZScsICc8aW5maWxlLm1hZT4nLCAnLW9tYWUnLCAnPG91dGZpbGUubWFlPic=

> <r_lp_tautomer_probability>
1

> <r_epik_Ionization_Penalty>
0.623245

> <r_epik_Ionization_Penalty_Charging>
0.623187

> <r_epik_Ionization_Penalty_Neutral>
5.75214e-05

> <r_epik_State_Penalty>
0.639392

> <r_epik_Charging_Adjusted_Penalty>
1.26258

> <i_epik_Tot_Q>
0

> <i_epik_Tot_abs_Q>
0

> <r_epik_Metal_State_Penalty>
0.307266

> <b_epik_Metal_Only>
0

> <s_lp_Force_Field>
OPLS_2005

> <r_lp_Energy>
9.71392

> <b_lp_Chiralities_Consistent>
1

> <s_lp_Variant>
AV-unprocessed.smi:1491-4

> <Gold.Version>
5.8.1

> <Gold.Id.Protein>
6NUR|6NUR_protein|mol2

> <Gold.PLP.Fitness>
48.0155

> <Gold.PLP.PLP>
-34.9159

> <Gold.PLP.part.hbond>
-4.3426

> <Gold.PLP.part.metal>
0.0000

> <Gold.PLP.part.buried>
-3.0058

> <Gold.PLP.part.nonpolar>
-27.4637

> <Gold.PLP.part.repulsive>
0.1732

> <Gold.PLP.ligand.clash>
0.0000

> <Gold.PLP.ligand.torsion>
0.6988

> <Gold.PLP.Chemscore.Hbond>
3.8313

> <Gold.PLP.Chemscore.CHOScore>
0.9912

> <Gold.PLP.Chemscore.Metal>
0.0000

> <Gold.Chemscore.Hbonds>
donor molecule, donor type, donor heavy atom, donor atom, acceptor molecule, acceptor atom, score
      L1  H     3    19       P1  7948  1.00
      L1  H    11    27       P1  7948  0.90
      L1  H    16    34       P1  7921  0.93
      P1  H  7989  7998       L1     9  0.94
      L1  C     8    25       P1  8028  0.99

> <Gold.PLP.Chemscore.Internal.Correction>
0.0297

> <Gold.Rescore>
     Score         DG    S(hbond)    S(metal)    S(lipo)     H(rot)  DE(clash)    DE(int)     intcor
     16.14     -18.67       3.38        0.00      72.54       2.57       0.34       2.20       ----

> <Gold.Chemscore.Fitness>
16.1403

> <Gold.Chemscore.DG>
-18.6738

> <Gold.Chemscore.ZeroCoef>
-5.4800

> <Gold.Chemscore.Hbond>
3.3819

> <Gold.Chemscore.Metal>
0.0000

> <Gold.Chemscore.Lipo>
72.5404

> <Gold.Chemscore.Internal_Hbond>
0.0000

> <Gold.Chemscore.DEClash>
0.3366

> <Gold.Chemscore.DEInternal>
2.1968

> <Gold.Chemscore.Rot>
2.5738

> <Gold.Chemscore.Internal.Correction>
   9.000000E+99

> <Gold.Chemscore.Hbonds>
donor molecule, donor type, donor heavy atom, donor atom, acceptor molecule, acceptor atom, score
      L1  H     3    19       P1  7948  0.95
      L1  H    11    27       P1  7948  0.82
      L1  H    16    34       P1  7921  0.87
      P1  H  7989  7998       L1     9  0.18

> <Gold.Chemscore.Hbond.Weighted>
-11.2955

> <Gold.Chemscore.Metal.Weighted>
-0.0000

> <Gold.Chemscore.Lipo.Weighted>
-8.4872

> <Gold.Chemscore.Internal_Hbond.Weighted>
0.0000

> <Gold.Chemscore.DEClash.Weighted>
0.3366

> <Gold.Chemscore.DEInternal.Weighted>
2.1968

> <Gold.Chemscore.Rot.Weighted>
6.5890

> <Gold.Chemscore.Internal.Correction.Weighted>
   9.000000E+99

> <Gold.Protein.RotatedTorsions>
[ 6907 6896 6895 6894 ] final  -99.66 input  -60.11 | X-H torsion
[ 7974 7965 7964 7962 ] final   87.21 input  175.53 | X-H torsion
[ 8008 7997 7996 7995 ] final  -30.89 input   59.86 | X-H torsion
[ 10167 10162 10161 10158 ] final -177.65 input  -65.29 | X-H torsion
[ 10718 10713 10712 10709 ] final  118.16 input   66.30 | X-H torsion
[ 10763 10752 10751 10750 ] final  -30.69 input  -60.55 | X-H torsion
[ 11005 11000 10999 10996 ] final   85.45 input  -57.11 | X-H torsion

> <Gold.Protein.ActiveResidues>
 VAL166  LYS551  ARG553  GLY616  TRP617  ASP618  TYR619  PRO620  LYS621  CYS622 
 ASP623  PHE694  ASN695  SER759  ASP760  ASP761  ALA762  ILE779  LEU786  VAL792 
 PHE793  MET794  SER795  GLU796  ALA797  LYS798  CYS799  TRP800  GLU811  SER814 

> <Gold.Protein.RotatedAtoms>
  150.7088  134.1007  159.3964 H   0  0  0  0  0  0  0  0  0  0  0  0  # atno 6907 bound_to 6896
  151.8993  135.0382  160.0514 H   0  0  0  0  0  0  0  0  0  0  0  0  # atno 6908 bound_to 6896
  152.2427  133.5113  159.5316 H   0  0  0  0  0  0  0  0  0  0  0  0  # atno 6909 bound_to 6896
  145.5620  139.2305  143.2454 H   0  0  0  0  0  0  0  0  0  0  0  0  # atno 7974 bound_to 7965
  154.4233  140.1779  156.1479 H   0  0  0  0  0  0  0  0  0  0  0  0  # atno 8008 bound_to 7997
  155.9939  140.3366  155.6754 H   0  0  0  0  0  0  0  0  0  0  0  0  # atno 8009 bound_to 7997
  155.6336  140.0672  157.2632 H   0  0  0  0  0  0  0  0  0  0  0  0  # atno 8010 bound_to 7997
  139.5470  144.2209  152.1006 H   0  0  0  0  0  0  0  0  0  0  0  0  # atno 10167 bound_to 10162
  157.6049  131.1045  150.7717 H   0  0  0  0  0  0  0  0  0  0  0  0  # atno 10718 bound_to 10713
  153.7851  135.6902  153.4881 H   0  0  0  0  0  0  0  0  0  0  0  0  # atno 10763 bound_to 10752
  153.1786  135.4515  154.9997 H   0  0  0  0  0  0  0  0  0  0  0  0  # atno 10764 bound_to 10752
  154.8066  135.3359  154.7351 H   0  0  0  0  0  0  0  0  0  0  0  0  # atno 10765 bound_to 10752
  139.8971  134.8288  156.2584 H   0  0  0  0  0  0  0  0  0  0  0  0  # atno 11005 bound_to 11000
  146.1845  140.6445  142.9174 LP  0  0  0  0  0  0  0  0  0  0  0  0  # atno 17320 bound_to 7965
  144.7478  140.5114  143.6823 LP  0  0  0  0  0  0  0  0  0  0  0  0  # atno 17321 bound_to 7965
  140.1698  144.4947  150.6586 LP  0  0  0  0  0  0  0  0  0  0  0  0  # atno 17342 bound_to 10162
  140.6721  143.2290  151.5598 LP  0  0  0  0  0  0  0  0  0  0  0  0  # atno 17343 bound_to 10162
  156.8107  130.4951  149.5356 LP  0  0  0  0  0  0  0  0  0  0  0  0  # atno 17370 bound_to 10713
  156.1132  130.6056  151.0080 LP  0  0  0  0  0  0  0  0  0  0  0  0  # atno 17371 bound_to 10713
  141.0178  133.7058  156.1218 LP  0  0  0  0  0  0  0  0  0  0  0  0  # atno 17394 bound_to 11000
  140.7276  134.4289  157.5569 LP  0  0  0  0  0  0  0  0  0  0  0  0  # atno 17395 bound_to 11000

$$$$
