AV-unprocessed.smi:1352|AV-procd|sdf|5530|dock8
  -GOLD-   22720 5123D 1   1.00000     0.00000
 Structure written by MMmdl.
 47 48  0  0  0  0  0  0  0  0  2 V2000
  142.0946  137.0840  153.8247 C   0  0  0  0  0  0  0  0  0  0  0  0
  143.0689  137.0175  152.6401 C   0  0  2  0  0  0  0  0  0  0  0  0
  143.4151  135.5635  152.2787 C   0  0  0  0  0  0  0  0  0  0  0  0
  144.4065  135.5186  151.1042 C   0  0  2  0  0  0  0  0  0  0  0  0
  144.7813  134.0745  150.7417 C   0  0  0  0  0  0  0  0  0  0  0  0
  145.6553  136.3612  151.4284 C   0  0  0  0  0  0  0  0  0  0  0  0
  145.2928  137.7613  151.7691 N   0  3  2  0  0  0  0  0  0  0  0  0
  146.4894  138.6227  151.9453 C   0  0  0  0  0  0  0  0  0  0  0  0
  146.9981  138.6314  153.3999 C   0  0  0  0  0  0  0  0  0  0  0  0
  147.9865  139.6814  153.6164 N   0  0  0  0  0  0  0  0  0  0  0  0
  147.9264  140.6056  154.5871 C   0  0  0  0  0  0  0  0  0  0  0  0
  146.9975  140.6727  155.3933 O   0  0  0  0  0  0  0  0  0  0  0  0
  149.0843  141.6132  154.6301 C   0  0  0  0  0  0  0  0  0  0  0  0
  150.0187  141.3826  155.7447 N   0  0  0  0  0  0  0  0  0  0  0  0
  149.8790  142.2052  156.8803 C   0  0  0  0  0  0  0  0  0  0  0  0
  150.6781  142.0784  157.9516 C   0  0  0  0  0  0  0  0  0  0  0  0
  151.7056  141.0647  157.9205 C   0  0  0  0  0  0  0  0  0  0  0  0
  151.8458  140.2703  156.8405 C   0  0  0  0  0  0  0  0  0  0  0  0
  150.9721  140.4030  155.6687 C   0  0  0  0  0  0  0  0  0  0  0  0
  151.0890  139.6786  154.6798 O   0  0  0  0  0  0  0  0  0  0  0  0
  144.3557  137.8167  152.9227 C   0  0  0  0  0  0  0  0  0  0  0  0
  142.5319  136.6473  154.7233 H   0  0  0  0  0  0  0  0  0  0  0  0
  141.1732  136.5432  153.6062 H   0  0  0  0  0  0  0  0  0  0  0  0
  141.8236  138.1151  154.0537 H   0  0  0  0  0  0  0  0  0  0  0  0
  142.5712  137.4705  151.7810 H   0  0  0  0  0  0  0  0  0  0  0  0
  143.8444  135.0587  153.1456 H   0  0  0  0  0  0  0  0  0  0  0  0
  142.5067  135.0181  152.0196 H   0  0  0  0  0  0  0  0  0  0  0  0
  143.9190  135.9592  150.2330 H   0  0  0  0  0  0  0  0  0  0  0  0
  145.2792  133.5730  151.5722 H   0  0  0  0  0  0  0  0  0  0  0  0
  145.4543  134.0461  149.8840 H   0  0  0  0  0  0  0  0  0  0  0  0
  143.8962  133.4920  150.4838 H   0  0  0  0  0  0  0  0  0  0  0  0
  146.2099  135.9177  152.2571 H   0  0  0  0  0  0  0  0  0  0  0  0
  146.3211  136.3579  150.5642 H   0  0  0  0  0  0  0  0  0  0  0  0
  147.2775  138.3091  151.2590 H   0  0  0  0  0  0  0  0  0  0  0  0
  146.2322  139.6459  151.6676 H   0  0  0  0  0  0  0  0  0  0  0  0
  146.1657  138.7555  154.0950 H   0  0  0  0  0  0  0  0  0  0  0  0
  147.4740  137.6848  153.6529 H   0  0  0  0  0  0  0  0  0  0  0  0
  148.7820  139.6985  152.9939 H   0  0  0  0  0  0  0  0  0  0  0  0
  149.6229  141.5870  153.6806 H   0  0  0  0  0  0  0  0  0  0  0  0
  148.6594  142.6165  154.6883 H   0  0  0  0  0  0  0  0  0  0  0  0
  149.0831  142.9338  156.8269 H   0  0  0  0  0  0  0  0  0  0  0  0
  150.5537  142.7156  158.8150 H   0  0  0  0  0  0  0  0  0  0  0  0
  152.3643  140.9424  158.7678 H   0  0  0  0  0  0  0  0  0  0  0  0
  152.6196  139.5167  156.8354 H   0  0  0  0  0  0  0  0  0  0  0  0
  144.0878  138.8505  153.1380 H   0  0  0  0  0  0  0  0  0  0  0  0
  144.8534  137.4292  153.8135 H   0  0  0  0  0  0  0  0  0  0  0  0
  144.7971  138.1238  150.9670 H   0  0  0  0  0  0  0  0  0  0  0  0
  1  2  1  0  0  0  0
  1 22  1  0  0  0  0
  1 23  1  0  0  0  0
  1 24  1  0  0  0  0
  2 21  1  0  0  0  0
  2  3  1  0  0  0  0
  2 25  1  0  0  0  0
  3  4  1  0  0  0  0
  3 26  1  0  0  0  0
  3 27  1  0  0  0  0
  4  5  1  0  0  0  0
  4  6  1  0  0  0  0
  4 28  1  0  0  0  0
  5 29  1  0  0  0  0
  5 30  1  0  0  0  0
  5 31  1  0  0  0  0
  6  7  1  0  0  0  0
  6 32  1  0  0  0  0
  6 33  1  0  0  0  0
  7  8  1  0  0  0  0
  7 21  1  0  0  0  0
  7 47  1  0  0  0  0
  8  9  1  0  0  0  0
  8 34  1  0  0  0  0
  8 35  1  0  0  0  0
  9 10  1  0  0  0  0
  9 36  1  0  0  0  0
  9 37  1  0  0  0  0
 10 11  1  0  0  0  0
 10 38  1  0  0  0  0
 11 12  2  0  0  0  0
 11 13  1  0  0  0  0
 13 14  1  0  0  0  0
 13 39  1  0  0  0  0
 13 40  1  0  0  0  0
 14 19  1  0  0  0  0
 14 15  1  0  0  0  0
 15 16  2  0  0  0  0
 15 41  1  0  0  0  0
 16 17  1  0  0  0  0
 16 42  1  0  0  0  0
 17 18  2  0  0  0  0
 17 43  1  0  0  0  0
 18 19  1  0  0  0  0
 18 44  1  0  0  0  0
 19 20  2  0  0  0  0
 21 45  1  0  0  0  0
 21 46  1  0  0  0  0
M  CHG  1   7   1
M  END
> <s_m_source_file>
AV-unprocessed.smi

> <i_m_source_file_index>
1352

> <i_lp_mmshare_version>
43012

> <i_f3d_flags>
0

> <s_epik_input>
W0NIM11bQ0BASF0xW0NIMl1bQ0BASF0oW0NIM10pW0NIMl1OKFtDSDJdMSlbQ0gyXVtDSDJdW05IXUMoPU8pW0NIMl1uMltjSF1bY0hdW2NIXVtjSF1jMj1P

> <s_epik_cmdline>
J2VwaWtfcHl0aG9uJywgJy1waCcsICc3LjAnLCAnLXRuJywgJzgnLCAnLW1hJywgJzIwMCcsICctbWV0YWxfYmluZGluZycsICctaW1hZScsICc8aW5maWxlLm1hZT4nLCAnLW9tYWUnLCAnPG91dGZpbGUubWFlPic=

> <r_lp_tautomer_probability>
1

> <r_epik_Ionization_Penalty>
0.00156146

> <r_epik_Ionization_Penalty_Charging>
0.00156138

> <r_epik_Ionization_Penalty_Neutral>
8.12891e-08

> <r_epik_State_Penalty>
0.00104868

> <r_epik_Charging_Adjusted_Penalty>
0.00261006

> <i_epik_Tot_Q>
1

> <i_epik_Tot_abs_Q>
1

> <r_epik_Metal_State_Penalty>
-0

> <b_epik_Metal_Only>
0

> <s_lp_Force_Field>
OPLS_2005

> <r_lp_Energy>
25.1883

> <b_lp_Chiralities_Consistent>
1

> <s_lp_Variant>
AV-unprocessed.smi:1352-3

> <Gold.Version>
5.8.1

> <Gold.Id.Protein>
6NUR|6NUR_protein|mol2

> <Gold.PLP.Fitness>
49.4403

> <Gold.PLP.PLP>
-38.9960

> <Gold.PLP.part.hbond>
-3.3570

> <Gold.PLP.part.metal>
0.0000

> <Gold.PLP.part.buried>
0.6536

> <Gold.PLP.part.nonpolar>
-36.7947

> <Gold.PLP.part.repulsive>
0.2420

> <Gold.PLP.ligand.clash>
0.0000

> <Gold.PLP.ligand.torsion>
0.7916

> <Gold.PLP.Chemscore.Hbond>
3.0000

> <Gold.PLP.Chemscore.CHOScore>
1.0000

> <Gold.PLP.Chemscore.Metal>
0.0000

> <Gold.Chemscore.Hbonds>
donor molecule, donor type, donor heavy atom, donor atom, acceptor molecule, acceptor atom, score
      L1  H     7    47       P1 10171  1.00
      L1  H    10    38       P1  7957  0.98
      P1  H  7989  7998       L1    20  1.00
      L1  C    15    41       P1  8028  1.00

> <Gold.PLP.Chemscore.Internal.Correction>
0.0276

> <Gold.Rescore>
     Score         DG    S(hbond)    S(metal)    S(lipo)     H(rot)  DE(clash)    DE(int)     intcor
     16.84     -19.85       2.80        0.00      82.97       1.83       2.25       0.75       ----

> <Gold.Chemscore.Fitness>
16.8429

> <Gold.Chemscore.DG>
-19.8468

> <Gold.Chemscore.ZeroCoef>
-5.4800

> <Gold.Chemscore.Hbond>
2.7999

> <Gold.Chemscore.Metal>
0.0000

> <Gold.Chemscore.Lipo>
82.9681

> <Gold.Chemscore.Internal_Hbond>
0.0000

> <Gold.Chemscore.DEClash>
2.2541

> <Gold.Chemscore.DEInternal>
0.7499

> <Gold.Chemscore.Rot>
1.8329

> <Gold.Chemscore.Internal.Correction>
   9.000000E+99

> <Gold.Chemscore.Hbonds>
donor molecule, donor type, donor heavy atom, donor atom, acceptor molecule, acceptor atom, score
      L1  H     7    47       P1 10171  0.95
      L1  H    10    38       P1  7957  0.88
      P1  H  7989  7998       L1    20  0.26

> <Gold.Chemscore.Hbond.Weighted>
-9.3517

> <Gold.Chemscore.Metal.Weighted>
-0.0000

> <Gold.Chemscore.Lipo.Weighted>
-9.7073

> <Gold.Chemscore.Internal_Hbond.Weighted>
0.0000

> <Gold.Chemscore.DEClash.Weighted>
2.2541

> <Gold.Chemscore.DEInternal.Weighted>
0.7499

> <Gold.Chemscore.Rot.Weighted>
4.6922

> <Gold.Chemscore.Internal.Correction.Weighted>
   9.000000E+99

> <Gold.Protein.RotatedTorsions>
[ 6907 6896 6895 6894 ] final  -30.81 input  -60.11 | X-H torsion
[ 7974 7965 7964 7962 ] final  -41.29 input  175.53 | X-H torsion
[ 8008 7997 7996 7995 ] final  -10.93 input   59.86 | X-H torsion
[ 10167 10162 10161 10158 ] final   60.60 input  -65.29 | X-H torsion
[ 10718 10713 10712 10709 ] final -164.07 input   66.30 | X-H torsion
[ 10763 10752 10751 10750 ] final  103.64 input  -60.55 | X-H torsion
[ 11005 11000 10999 10996 ] final -115.01 input  -57.11 | X-H torsion

> <Gold.Protein.ActiveResidues>
 VAL166  LYS551  ARG553  GLY616  TRP617  ASP618  TYR619  PRO620  LYS621  CYS622 
 ASP623  PHE694  ASN695  SER759  ASP760  ASP761  ALA762  ILE779  LEU786  VAL792 
 PHE793  MET794  SER795  GLU796  ALA797  LYS798  CYS799  TRP800  GLU811  SER814 

> <Gold.Protein.RotatedAtoms>
  151.1005  134.9969  159.8445 H   0  0  0  0  0  0  0  0  0  0  0  0  # atno 6907 bound_to 6896
  152.5436  134.1956  159.8701 H   0  0  0  0  0  0  0  0  0  0  0  0  # atno 6908 bound_to 6896
  151.1999  133.4573  159.2629 H   0  0  0  0  0  0  0  0  0  0  0  0  # atno 6909 bound_to 6896
  146.0225  140.6832  142.9171 H   0  0  0  0  0  0  0  0  0  0  0  0  # atno 7974 bound_to 7965
  154.5510  140.2316  155.8485 H   0  0  0  0  0  0  0  0  0  0  0  0  # atno 8008 bound_to 7997
  156.1946  140.3068  155.9362 H   0  0  0  0  0  0  0  0  0  0  0  0  # atno 8009 bound_to 7997
  155.3071  140.0434  157.3023 H   0  0  0  0  0  0  0  0  0  0  0  0  # atno 8010 bound_to 7997
  140.1639  144.4344  150.6695 H   0  0  0  0  0  0  0  0  0  0  0  0  # atno 10167 bound_to 10162
  156.6338  130.8940  151.2983 H   0  0  0  0  0  0  0  0  0  0  0  0  # atno 10718 bound_to 10713
  153.3554  135.3970  155.1678 H   0  0  0  0  0  0  0  0  0  0  0  0  # atno 10763 bound_to 10752
  154.8670  135.3666  154.5168 H   0  0  0  0  0  0  0  0  0  0  0  0  # atno 10764 bound_to 10752
  153.5623  135.7081  153.5602 H   0  0  0  0  0  0  0  0  0  0  0  0  # atno 10765 bound_to 10752
  141.0515  133.9679  157.2827 H   0  0  0  0  0  0  0  0  0  0  0  0  # atno 11005 bound_to 11000
  144.6996  140.3591  143.7167 LP  0  0  0  0  0  0  0  0  0  0  0  0  # atno 17320 bound_to 7965
  145.7170  139.1699  143.2506 LP  0  0  0  0  0  0  0  0  0  0  0  0  # atno 17321 bound_to 7965
  140.6626  143.2257  151.5820 LP  0  0  0  0  0  0  0  0  0  0  0  0  # atno 17342 bound_to 10162
  139.5369  144.2757  152.1269 LP  0  0  0  0  0  0  0  0  0  0  0  0  # atno 17343 bound_to 10162
  157.7192  130.9536  150.1371 LP  0  0  0  0  0  0  0  0  0  0  0  0  # atno 17370 bound_to 10713
  156.2213  130.3674  149.8552 LP  0  0  0  0  0  0  0  0  0  0  0  0  # atno 17371 bound_to 10713
  139.9355  135.0197  156.8540 LP  0  0  0  0  0  0  0  0  0  0  0  0  # atno 17394 bound_to 11000
  140.6045  134.0140  155.7551 LP  0  0  0  0  0  0  0  0  0  0  0  0  # atno 17395 bound_to 11000

$$$$
