AV-unprocessed.smi:235|AV-procd|sdf|1808|dock10
  -GOLD-   2262020393D 1   1.00000     0.00000
 Structure written by MMmdl.
 54 58  0  0  0  0  0  0  0  0  1 V2000
  144.9590  129.0974  152.3378 O   0  0  0  0  0  0  0  0  0  0  0  0
  145.9364  129.5971  151.7788 C   0  0  0  0  0  0  0  0  0  0  0  0
  146.9476  128.8761  151.2736 N   0  0  0  0  0  0  0  0  0  0  0  0
  147.0487  127.4533  151.3063 C   0  0  0  0  0  0  0  0  0  0  0  0
  147.4428  126.8051  152.6156 C   0  0  0  0  0  0  0  0  0  0  0  0
  148.4272  126.8538  151.4800 C   0  0  0  0  0  0  0  0  0  0  0  0
  146.0459  131.1219  151.6155 C   0  0  1  0  0  0  0  0  0  0  0  0
  144.8151  131.6979  150.8965 C   0  0  0  0  0  0  0  0  0  0  0  0
  144.7213  133.1259  151.4234 C   0  0  0  0  0  0  0  0  0  0  0  0
  145.1884  132.9970  152.8722 C   0  0  0  0  0  0  0  0  0  0  0  0
  146.0565  131.8265  152.9010 N   0  0  0  0  0  0  0  0  0  0  0  0
  147.1222  131.7972  153.7461 C   0  0  0  0  0  0  0  0  0  0  0  0
  147.8187  130.6394  153.9016 N   0  0  0  0  0  0  0  0  0  0  0  0
  148.8675  130.5824  154.7268 C   0  0  0  0  0  0  0  0  0  0  0  0
  149.3838  131.5488  155.4873 N   0  0  0  0  0  0  0  0  0  0  0  0
  148.6867  132.7117  155.3448 C   0  0  0  0  0  0  0  0  0  0  0  0
  147.5567  132.9239  154.5039 C   0  0  0  0  0  0  0  0  0  0  0  0
  147.1151  134.2365  154.6369 N   0  0  0  0  0  0  0  0  0  0  0  0
  147.9378  134.7681  155.4992 C   0  0  0  0  0  0  0  0  0  0  0  0
  148.9114  133.9213  155.9763 N   0  0  0  0  0  0  0  0  0  0  0  0
  149.9483  134.2399  156.9412 C   0  0  0  0  0  0  0  0  0  0  0  0
  149.8411  135.6858  157.4628 C   0  0  1  0  0  0  0  0  0  0  0  0
  150.6190  135.8542  158.6332 O   0  0  0  0  0  0  0  0  0  0  0  0
  150.2371  136.7329  156.4026 C   0  0  1  0  0  0  0  0  0  0  0  0
  150.0265  138.2070  156.7903 C   0  0  0  0  0  0  0  0  0  0  0  0
  151.3661  138.8589  156.4868 C   0  0  0  0  0  0  0  0  0  0  0  0
  152.0319  137.8665  155.5410 C   0  0  0  0  0  0  0  0  0  0  0  0
  151.6111  136.6125  156.0501 O   0  0  0  0  0  0  0  0  0  0  0  0
  147.7070  129.3749  150.8335 H   0  0  0  0  0  0  0  0  0  0  0  0
  146.3588  126.8880  150.6810 H   0  0  0  0  0  0  0  0  0  0  0  0
  147.6271  127.4547  153.4696 H   0  0  0  0  0  0  0  0  0  0  0  0
  146.9960  125.8416  152.8522 H   0  0  0  0  0  0  0  0  0  0  0  0
  148.6378  125.9231  150.9570 H   0  0  0  0  0  0  0  0  0  0  0  0
  149.2711  127.5344  151.5770 H   0  0  0  0  0  0  0  0  0  0  0  0
  146.9447  131.3850  151.0541 H   0  0  0  0  0  0  0  0  0  0  0  0
  144.9103  131.6621  149.8108 H   0  0  0  0  0  0  0  0  0  0  0  0
  143.9083  131.1540  151.1687 H   0  0  0  0  0  0  0  0  0  0  0  0
  145.4091  133.7658  150.8692 H   0  0  0  0  0  0  0  0  0  0  0  0
  143.7205  133.5494  151.3358 H   0  0  0  0  0  0  0  0  0  0  0  0
  145.6940  133.9069  153.1990 H   0  0  0  0  0  0  0  0  0  0  0  0
  144.3402  132.8199  153.5347 H   0  0  0  0  0  0  0  0  0  0  0  0
  149.3626  129.6243  154.7870 H   0  0  0  0  0  0  0  0  0  0  0  0
  147.8561  135.7985  155.8134 H   0  0  0  0  0  0  0  0  0  0  0  0
  149.8869  133.5269  157.7644 H   0  0  0  0  0  0  0  0  0  0  0  0
  150.9167  134.0827  156.4647 H   0  0  0  0  0  0  0  0  0  0  0  0
  148.8050  135.8738  157.7480 H   0  0  0  0  0  0  0  0  0  0  0  0
  150.7079  136.7802  158.7994 H   0  0  0  0  0  0  0  0  0  0  0  0
  149.6651  136.5384  155.4936 H   0  0  0  0  0  0  0  0  0  0  0  0
  149.2358  138.6448  156.1801 H   0  0  0  0  0  0  0  0  0  0  0  0
  149.7478  138.3477  157.8351 H   0  0  0  0  0  0  0  0  0  0  0  0
  151.2691  139.8559  156.0563 H   0  0  0  0  0  0  0  0  0  0  0  0
  151.9515  138.9411  157.4036 H   0  0  0  0  0  0  0  0  0  0  0  0
  151.6643  137.9903  154.5210 H   0  0  0  0  0  0  0  0  0  0  0  0
  153.1185  137.9551  155.5311 H   0  0  0  0  0  0  0  0  0  0  0  0
  1  2  2  0  0  0  0
  2  3  1  0  0  0  0
  2  7  1  0  0  0  0
  3  4  1  0  0  0  0
  3 29  1  0  0  0  0
  4  6  1  0  0  0  0
  4  5  1  0  0  0  0
  4 30  1  0  0  0  0
  5  6  1  0  0  0  0
  5 31  1  0  0  0  0
  5 32  1  0  0  0  0
  6 33  1  0  0  0  0
  6 34  1  0  0  0  0
  7 11  1  0  0  0  0
  7  8  1  0  0  0  0
  7 35  1  0  0  0  0
  8  9  1  0  0  0  0
  8 36  1  0  0  0  0
  8 37  1  0  0  0  0
  9 10  1  0  0  0  0
  9 38  1  0  0  0  0
  9 39  1  0  0  0  0
 10 11  1  0  0  0  0
 10 40  1  0  0  0  0
 10 41  1  0  0  0  0
 11 12  1  0  0  0  0
 12 17  1  0  0  0  0
 12 13  2  0  0  0  0
 13 14  1  0  0  0  0
 14 15  2  0  0  0  0
 14 42  1  0  0  0  0
 15 16  1  0  0  0  0
 16 20  1  0  0  0  0
 16 17  2  0  0  0  0
 17 18  1  0  0  0  0
 18 19  2  0  0  0  0
 19 20  1  0  0  0  0
 19 43  1  0  0  0  0
 20 21  1  0  0  0  0
 21 22  1  0  0  0  0
 21 44  1  0  0  0  0
 21 45  1  0  0  0  0
 22 23  1  0  0  0  0
 22 24  1  0  0  0  0
 22 46  1  0  0  0  0
 23 47  1  0  0  0  0
 24 28  1  0  0  0  0
 24 25  1  0  0  0  0
 24 48  1  0  0  0  0
 25 26  1  0  0  0  0
 25 49  1  0  0  0  0
 25 50  1  0  0  0  0
 26 27  1  0  0  0  0
 26 51  1  0  0  0  0
 26 52  1  0  0  0  0
 27 28  1  0  0  0  0
 27 53  1  0  0  0  0
 27 54  1  0  0  0  0
M  END
> <s_m_source_file>
AV-unprocessed.smi

> <i_m_source_file_index>
235

> <i_lp_mmshare_version>
43012

> <i_f3d_flags>
0

> <s_epik_input>
W0NIMl0xW0NIMl1bQ0hdMVtOSF1DKD1PKVtDQEBIXTJbQ0gyXVtDSDJdW0NIMl1OMmMobltjSF1uMyljKGMzNCluW2NIXW40W0NIMl1bQ0BIXShbT0hdKVtDQEBIXTVbQ0gyXVtDSDJdW0NIMl1PNQ==

> <s_epik_cmdline>
J2VwaWtfcHl0aG9uJywgJy1waCcsICc3LjAnLCAnLXRuJywgJzgnLCAnLW1hJywgJzIwMCcsICctbWV0YWxfYmluZGluZycsICctaW1hZScsICc8aW5maWxlLm1hZT4nLCAnLW9tYWUnLCAnPG91dGZpbGUubWFlPic=

> <r_lp_tautomer_probability>
1

> <r_epik_Ionization_Penalty>
0.000526714

> <r_epik_Ionization_Penalty_Charging>
0

> <r_epik_Ionization_Penalty_Neutral>
0.000526714

> <r_epik_State_Penalty>
0.000272704

> <r_epik_Charging_Adjusted_Penalty>
0.000272704

> <i_epik_Tot_Q>
0

> <i_epik_Tot_abs_Q>
0

> <r_epik_Metal_State_Penalty>
-0

> <b_epik_Metal_Only>
0

> <s_lp_Force_Field>
OPLS_2005

> <r_lp_Energy>
60.2581

> <b_lp_Chiralities_Consistent>
1

> <s_lp_Variant>
AV-unprocessed.smi:235-8

> <Gold.Version>
5.8.1

> <Gold.Id.Protein>
6NUR|6NUR_protein|mol2

> <Gold.PLP.Fitness>
52.6473

> <Gold.PLP.PLP>
-47.7581

> <Gold.PLP.part.hbond>
-2.8286

> <Gold.PLP.part.metal>
0.0000

> <Gold.PLP.part.buried>
-7.8501

> <Gold.PLP.part.nonpolar>
-38.8773

> <Gold.PLP.part.repulsive>
0.5957

> <Gold.PLP.ligand.clash>
0.0000

> <Gold.PLP.ligand.torsion>
0.7203

> <Gold.PLP.Chemscore.Hbond>
1.9760

> <Gold.PLP.Chemscore.CHOScore>
0.0000

> <Gold.PLP.Chemscore.Metal>
0.0000

> <Gold.Chemscore.Hbonds>
donor molecule, donor type, donor heavy atom, donor atom, acceptor molecule, acceptor atom, score
      L1  H     3    29       P1 10747  1.00
      P1  H  6896  6908       L1    23  0.10
      P1  H 10752 10765       L1    28  0.24

> <Gold.PLP.Chemscore.Internal.Correction>
0.4017

> <Gold.Rescore>
     Score         DG    S(hbond)    S(metal)    S(lipo)     H(rot)  DE(clash)    DE(int)     intcor
     12.59     -15.58       1.97        0.00      88.59       2.68       0.35       2.64       ----

> <Gold.Chemscore.Fitness>
12.5887

> <Gold.Chemscore.DG>
-15.5812

> <Gold.Chemscore.ZeroCoef>
-5.4800

> <Gold.Chemscore.Hbond>
1.9722

> <Gold.Chemscore.Metal>
0.0000

> <Gold.Chemscore.Lipo>
88.5873

> <Gold.Chemscore.Internal_Hbond>
0.0000

> <Gold.Chemscore.DEClash>
0.3538

> <Gold.Chemscore.DEInternal>
2.6387

> <Gold.Chemscore.Rot>
2.6760

> <Gold.Chemscore.Internal.Correction>
   9.000000E+99

> <Gold.Chemscore.Hbonds>
donor molecule, donor type, donor heavy atom, donor atom, acceptor molecule, acceptor atom, score
      L1  H     3    29       P1 10747  0.80
      P1  H  6896  6907       L1    23  0.01
      P1  H  6896  6908       L1    23  0.04
      P1  H 10752 10765       L1    28  0.01

> <Gold.Chemscore.Hbond.Weighted>
-6.5871

> <Gold.Chemscore.Metal.Weighted>
-0.0000

> <Gold.Chemscore.Lipo.Weighted>
-10.3647

> <Gold.Chemscore.Internal_Hbond.Weighted>
0.0000

> <Gold.Chemscore.DEClash.Weighted>
0.3538

> <Gold.Chemscore.DEInternal.Weighted>
2.6387

> <Gold.Chemscore.Rot.Weighted>
6.8506

> <Gold.Chemscore.Internal.Correction.Weighted>
   9.000000E+99

> <Gold.Protein.RotatedTorsions>
[ 6907 6896 6895 6894 ] final -111.52 input  -60.11 | X-H torsion
[ 7974 7965 7964 7962 ] final  -33.98 input  175.53 | X-H torsion
[ 8008 7997 7996 7995 ] final -122.24 input   59.86 | X-H torsion
[ 10167 10162 10161 10158 ] final  126.53 input  -65.29 | X-H torsion
[ 10718 10713 10712 10709 ] final -162.95 input   66.30 | X-H torsion
[ 10763 10752 10751 10750 ] final  178.74 input  -60.55 | X-H torsion
[ 11005 11000 10999 10996 ] final   60.54 input  -57.11 | X-H torsion

> <Gold.Protein.ActiveResidues>
 VAL166  LYS551  ARG553  GLY616  TRP617  ASP618  TYR619  PRO620  LYS621  CYS622 
 ASP623  PHE694  ASN695  SER759  ASP760  ASP761  ALA762  ILE779  LEU786  VAL792 
 PHE793  MET794  SER795  GLU796  ALA797  LYS798  CYS799  TRP800  GLU811  SER814 

> <Gold.Protein.RotatedAtoms>
  150.7696  133.9223  159.3401 H   0  0  0  0  0  0  0  0  0  0  0  0  # atno 6907 bound_to 6896
  151.7112  135.0910  160.0277 H   0  0  0  0  0  0  0  0  0  0  0  0  # atno 6908 bound_to 6896
  152.3708  133.6378  159.6121 H   0  0  0  0  0  0  0  0  0  0  0  0  # atno 6909 bound_to 6896
  146.0866  140.5983  142.8883 H   0  0  0  0  0  0  0  0  0  0  0  0  # atno 7974 bound_to 7965
  155.1610  140.0406  157.2842 H   0  0  0  0  0  0  0  0  0  0  0  0  # atno 8008 bound_to 7997
  154.6336  140.2530  155.7377 H   0  0  0  0  0  0  0  0  0  0  0  0  # atno 8009 bound_to 7997
  156.2497  140.2870  156.0699 H   0  0  0  0  0  0  0  0  0  0  0  0  # atno 8010 bound_to 7997
  139.5626  144.6891  151.4000 H   0  0  0  0  0  0  0  0  0  0  0  0  # atno 10167 bound_to 10162
  156.6178  130.8877  151.2951 H   0  0  0  0  0  0  0  0  0  0  0  0  # atno 10718 bound_to 10713
  154.5115  135.2789  155.1338 H   0  0  0  0  0  0  0  0  0  0  0  0  # atno 10763 bound_to 10752
  154.2931  135.6263  153.5397 H   0  0  0  0  0  0  0  0  0  0  0  0  # atno 10764 bound_to 10752
  152.9919  135.5679  154.5582 H   0  0  0  0  0  0  0  0  0  0  0  0  # atno 10765 bound_to 10752
  140.0224  134.6133  155.9620 H   0  0  0  0  0  0  0  0  0  0  0  0  # atno 11005 bound_to 11000
  144.7330  140.4728  143.6924 LP  0  0  0  0  0  0  0  0  0  0  0  0  # atno 17320 bound_to 7965
  145.6118  139.1514  143.3072 LP  0  0  0  0  0  0  0  0  0  0  0  0  # atno 17321 bound_to 7965
  140.6907  143.7868  150.7251 LP  0  0  0  0  0  0  0  0  0  0  0  0  # atno 17342 bound_to 10162
  140.1349  143.4492  152.2230 LP  0  0  0  0  0  0  0  0  0  0  0  0  # atno 17343 bound_to 10162
  157.7236  130.9592  150.1541 LP  0  0  0  0  0  0  0  0  0  0  0  0  # atno 17370 bound_to 10713
  156.2337  130.3684  149.8416 LP  0  0  0  0  0  0  0  0  0  0  0  0  # atno 17371 bound_to 10713
  141.1782  133.6543  156.4913 LP  0  0  0  0  0  0  0  0  0  0  0  0  # atno 17394 bound_to 11000
  140.4364  134.7055  157.4969 LP  0  0  0  0  0  0  0  0  0  0  0  0  # atno 17395 bound_to 11000

$$$$
