AV-unprocessed.smi:2198|AV-procd|sdf|8911|dock3
  -GOLD-   2272012123D 1   1.00000     0.00000
 Structure written by MMmdl.
 43 44  0  0  0  0  0  0  0  0  1 V2000
  157.5845  137.8546  160.6421 C   0  0  0  0  0  0  0  0  0  0  0  0
  156.1940  138.3857  160.3652 C   0  0  0  0  0  0  0  0  0  0  0  0
  155.8833  139.6402  160.3860 N   0  0  0  0  0  0  0  0  0  0  0  0
  154.5598  140.0112  160.1103 C   0  0  0  0  0  0  0  0  0  0  0  0
  154.2739  141.5025  160.1514 C   0  0  0  0  0  0  0  0  0  0  0  0
  153.6009  139.0825  159.8237 C   0  0  0  0  0  0  0  0  0  0  0  0
  152.1522  139.4568  159.5140 C   0  0  0  0  0  0  0  0  0  0  0  0
  151.9560  140.5663  158.4780 C   0  0  0  0  0  0  0  0  0  0  0  0
  152.5663  140.5369  157.4091 O   0  0  0  0  0  0  0  0  0  0  0  0
  151.0991  141.5427  158.8123 N   0  0  0  0  0  0  0  0  0  0  0  0
  150.7688  142.7041  157.9880 C   0  0  2  0  0  0  0  0  0  0  0  0
  152.0063  143.6062  157.8198 C   0  0  0  0  0  0  0  0  0  0  0  0
  152.3731  144.3373  159.1228 C   0  0  0  0  0  0  0  0  0  0  0  0
  151.1782  145.1317  159.6724 C   0  0  0  0  0  0  0  0  0  0  0  0
  149.9477  144.2294  159.8854 C   0  0  1  0  0  0  0  0  0  0  0  0
  148.7562  145.0281  160.4324 C   0  0  0  0  0  0  0  0  0  0  0  0
  149.5819  143.4977  158.5771 C   0  0  0  0  0  0  0  0  0  0  0  0
  153.9664  137.6530  159.8039 C   0  0  0  0  0  0  0  0  0  0  0  0
  153.1854  136.7359  159.5550 O   0  0  0  0  0  0  0  0  0  0  0  0
  155.2627  137.3882  160.0818 N   0  0  0  0  0  0  0  0  0  0  0  0
  155.5627  136.4243  160.0789 H   0  0  0  0  0  0  0  0  0  0  0  0
  158.2893  138.2481  159.9097 H   0  0  0  0  0  0  0  0  0  0  0  0
  157.6165  136.7653  160.5951 H   0  0  0  0  0  0  0  0  0  0  0  0
  157.9133  138.1625  161.6348 H   0  0  0  0  0  0  0  0  0  0  0  0
  153.5596  141.7336  160.9417 H   0  0  0  0  0  0  0  0  0  0  0  0
  153.8628  141.8428  159.2009 H   0  0  0  0  0  0  0  0  0  0  0  0
  155.1822  142.0748  160.3448 H   0  0  0  0  0  0  0  0  0  0  0  0
  151.5921  138.5819  159.1824 H   0  0  0  0  0  0  0  0  0  0  0  0
  151.6697  139.7573  160.4446 H   0  0  0  0  0  0  0  0  0  0  0  0
  150.6420  141.4810  159.7104 H   0  0  0  0  0  0  0  0  0  0  0  0
  150.4869  142.3437  156.9970 H   0  0  0  0  0  0  0  0  0  0  0  0
  152.8562  143.0208  157.4666 H   0  0  0  0  0  0  0  0  0  0  0  0
  151.8049  144.3460  157.0439 H   0  0  0  0  0  0  0  0  0  0  0  0
  152.7087  143.6172  159.8700 H   0  0  0  0  0  0  0  0  0  0  0  0
  153.2139  145.0087  158.9462 H   0  0  0  0  0  0  0  0  0  0  0  0
  151.4589  145.6084  160.6121 H   0  0  0  0  0  0  0  0  0  0  0  0
  150.9294  145.9375  158.9803 H   0  0  0  0  0  0  0  0  0  0  0  0
  150.2057  143.4790  160.6341 H   0  0  0  0  0  0  0  0  0  0  0  0
  148.4427  145.8028  159.7321 H   0  0  0  0  0  0  0  0  0  0  0  0
  149.0088  145.5142  161.3751 H   0  0  0  0  0  0  0  0  0  0  0  0
  147.8998  144.3788  160.6162 H   0  0  0  0  0  0  0  0  0  0  0  0
  149.2490  144.2297  157.8400 H   0  0  0  0  0  0  0  0  0  0  0  0
  148.7318  142.8347  158.7434 H   0  0  0  0  0  0  0  0  0  0  0  0
  1  2  1  0  0  0  0
  1 22  1  0  0  0  0
  1 23  1  0  0  0  0
  1 24  1  0  0  0  0
  2 20  1  0  0  0  0
  2  3  2  0  0  0  0
  3  4  1  0  0  0  0
  4  5  1  0  0  0  0
  4  6  2  0  0  0  0
  5 25  1  0  0  0  0
  5 26  1  0  0  0  0
  5 27  1  0  0  0  0
  6  7  1  0  0  0  0
  6 18  1  0  0  0  0
  7  8  1  0  0  0  0
  7 28  1  0  0  0  0
  7 29  1  0  0  0  0
  8  9  2  0  0  0  0
  8 10  1  0  0  0  0
 10 11  1  0  0  0  0
 10 30  1  0  0  0  0
 11 17  1  0  0  0  0
 11 12  1  0  0  0  0
 11 31  1  0  0  0  0
 12 13  1  0  0  0  0
 12 32  1  0  0  0  0
 12 33  1  0  0  0  0
 13 14  1  0  0  0  0
 13 34  1  0  0  0  0
 13 35  1  0  0  0  0
 14 15  1  0  0  0  0
 14 36  1  0  0  0  0
 14 37  1  0  0  0  0
 15 16  1  0  0  0  0
 15 17  1  0  0  0  0
 15 38  1  0  0  0  0
 16 39  1  0  0  0  0
 16 40  1  0  0  0  0
 16 41  1  0  0  0  0
 17 42  1  0  0  0  0
 17 43  1  0  0  0  0
 18 19  2  0  0  0  0
 18 20  1  0  0  0  0
 20 21  1  0  0  0  0
M  END
> <s_m_source_file>
AV-unprocessed.smi

> <i_m_source_file_index>
2198

> <i_lp_mmshare_version>
43012

> <i_f3d_flags>
0

> <s_epik_input>
W0NIM11jMW5jKFtDSDNdKWMoYyg9TylbbkhdMSlbQ0gyXUMoPU8pW05IXVtDQEBIXTJbQ0gyXVtDSDJdW0NIMl1bQ0BASF0oW0NIM10pW0NIMl0y

> <s_epik_cmdline>
J2VwaWtfcHl0aG9uJywgJy1waCcsICc3LjAnLCAnLXRuJywgJzgnLCAnLW1hJywgJzIwMCcsICctbWV0YWxfYmluZGluZycsICctaW1hZScsICc8aW5maWxlLm1hZT4nLCAnLW9tYWUnLCAnPG91dGZpbGUubWFlPic=

> <r_lp_tautomer_probability>
0.839158

> <r_epik_Ionization_Penalty>
0.000372587

> <r_epik_Ionization_Penalty_Charging>
0.000337977

> <r_epik_Ionization_Penalty_Neutral>
3.46101e-05

> <r_epik_State_Penalty>
0.09125

> <r_epik_Charging_Adjusted_Penalty>
0.091588

> <i_epik_Tot_Q>
0

> <i_epik_Tot_abs_Q>
0

> <r_epik_Metal_State_Penalty>
0.25197

> <b_epik_Metal_Only>
0

> <s_lp_Force_Field>
OPLS_2005

> <r_lp_Energy>
10.2455

> <b_lp_Chiralities_Consistent>
1

> <s_lp_Variant>
AV-unprocessed.smi:2198-1

> <Gold.Version>
5.8.1

> <Gold.Id.Protein>
6NUR|6NUR_protein|mol2

> <Gold.PLP.Fitness>
35.8127

> <Gold.PLP.PLP>
-30.9998

> <Gold.PLP.part.hbond>
-2.0000

> <Gold.PLP.part.metal>
0.0000

> <Gold.PLP.part.buried>
-3.2268

> <Gold.PLP.part.nonpolar>
-25.4579

> <Gold.PLP.part.repulsive>
0.1653

> <Gold.PLP.ligand.clash>
0.0000

> <Gold.PLP.ligand.torsion>
0.2986

> <Gold.PLP.Chemscore.Hbond>
1.7992

> <Gold.PLP.Chemscore.CHOScore>
0.0000

> <Gold.PLP.Chemscore.Metal>
0.0000

> <Gold.Chemscore.Hbonds>
donor molecule, donor type, donor heavy atom, donor atom, acceptor molecule, acceptor atom, score
      P1  H  6896  6909       L1    19  0.83
      P1  H  7997  8009       L1     9  0.82

> <Gold.PLP.Chemscore.Internal.Correction>
0.0124

> <Gold.Rescore>
     Score         DG    S(hbond)    S(metal)    S(lipo)     H(rot)  DE(clash)    DE(int)     intcor
     17.63     -19.06       1.84        0.00      96.07       1.48       1.23       0.20       ----

> <Gold.Chemscore.Fitness>
17.6312

> <Gold.Chemscore.DG>
-19.0632

> <Gold.Chemscore.ZeroCoef>
-5.4800

> <Gold.Chemscore.Hbond>
1.8360

> <Gold.Chemscore.Metal>
0.0000

> <Gold.Chemscore.Lipo>
96.0700

> <Gold.Chemscore.Internal_Hbond>
0.0000

> <Gold.Chemscore.DEClash>
1.2308

> <Gold.Chemscore.DEInternal>
0.2011

> <Gold.Chemscore.Rot>
1.4801

> <Gold.Chemscore.Internal.Correction>
   9.000000E+99

> <Gold.Chemscore.Hbonds>
donor molecule, donor type, donor heavy atom, donor atom, acceptor molecule, acceptor atom, score
      P1  H  6896  6909       L1    19  0.82
      P1  H  7997  8009       L1     9  0.77

> <Gold.Chemscore.Hbond.Weighted>
-6.1321

> <Gold.Chemscore.Metal.Weighted>
-0.0000

> <Gold.Chemscore.Lipo.Weighted>
-11.2402

> <Gold.Chemscore.Internal_Hbond.Weighted>
0.0000

> <Gold.Chemscore.DEClash.Weighted>
1.2308

> <Gold.Chemscore.DEInternal.Weighted>
0.2011

> <Gold.Chemscore.Rot.Weighted>
3.7891

> <Gold.Chemscore.Internal.Correction.Weighted>
   9.000000E+99

> <Gold.Protein.RotatedTorsions>
[ 6907 6896 6895 6894 ] final  146.83 input  -60.11 | X-H torsion
[ 7974 7965 7964 7962 ] final  149.98 input  175.53 | X-H torsion
[ 8008 7997 7996 7995 ] final  169.05 input   59.86 | X-H torsion
[ 10167 10162 10161 10158 ] final -165.01 input  -65.29 | X-H torsion
[ 10718 10713 10712 10709 ] final   34.94 input   66.30 | X-H torsion
[ 10763 10752 10751 10750 ] final    1.73 input  -60.55 | X-H torsion
[ 11005 11000 10999 10996 ] final  112.88 input  -57.11 | X-H torsion

> <Gold.Protein.ActiveResidues>
 VAL166  LYS551  ARG553  GLY616  TRP617  ASP618  TYR619  PRO620  LYS621  CYS622 
 ASP623  PHE694  ASN695  SER759  ASP760  ASP761  ALA762  ILE779  LEU786  VAL792 
 PHE793  MET794  SER795  GLU796  ALA797  LYS798  CYS799  TRP800  GLU811  SER814 

> <Gold.Protein.RotatedAtoms>
  152.1627  133.4592  159.4868 H   0  0  0  0  0  0  0  0  0  0  0  0  # atno 6907 bound_to 6896
  150.6909  134.2051  159.4346 H   0  0  0  0  0  0  0  0  0  0  0  0  # atno 6908 bound_to 6896
  151.9954  134.9956  160.0614 H   0  0  0  0  0  0  0  0  0  0  0  0  # atno 6909 bound_to 6896
  144.8398  139.6350  143.6022 H   0  0  0  0  0  0  0  0  0  0  0  0  # atno 7974 bound_to 7965
  156.1492  140.1574  156.8797 H   0  0  0  0  0  0  0  0  0  0  0  0  # atno 8008 bound_to 7997
  154.5056  140.0814  156.7924 H   0  0  0  0  0  0  0  0  0  0  0  0  # atno 8009 bound_to 7997
  155.3929  140.3411  155.4254 H   0  0  0  0  0  0  0  0  0  0  0  0  # atno 8010 bound_to 7997
  139.6211  144.0622  152.1934 H   0  0  0  0  0  0  0  0  0  0  0  0  # atno 10167 bound_to 10162
  157.3166  130.7426  149.6758 H   0  0  0  0  0  0  0  0  0  0  0  0  # atno 10718 bound_to 10713
  153.3044  135.6958  153.7173 H   0  0  0  0  0  0  0  0  0  0  0  0  # atno 10763 bound_to 10752
  153.6075  135.3450  155.2968 H   0  0  0  0  0  0  0  0  0  0  0  0  # atno 10764 bound_to 10752
  154.8559  135.4355  154.2164 H   0  0  0  0  0  0  0  0  0  0  0  0  # atno 10765 bound_to 10752
  139.8938  134.9539  156.6653 H   0  0  0  0  0  0  0  0  0  0  0  0  # atno 11005 bound_to 11000
  146.2692  139.6593  142.9308 LP  0  0  0  0  0  0  0  0  0  0  0  0  # atno 17320 bound_to 7965
  145.4719  141.0436  143.2694 LP  0  0  0  0  0  0  0  0  0  0  0  0  # atno 17321 bound_to 7965
  140.0264  144.6114  150.7524 LP  0  0  0  0  0  0  0  0  0  0  0  0  # atno 17342 bound_to 10162
  140.7383  143.2776  151.3695 LP  0  0  0  0  0  0  0  0  0  0  0  0  # atno 17343 bound_to 10162
  155.9682  130.4235  150.4567 LP  0  0  0  0  0  0  0  0  0  0  0  0  # atno 17370 bound_to 10713
  157.2575  131.0560  151.2341 LP  0  0  0  0  0  0  0  0  0  0  0  0  # atno 17371 bound_to 10713
  140.7415  133.8973  155.8282 LP  0  0  0  0  0  0  0  0  0  0  0  0  # atno 17394 bound_to 11000
  141.0073  134.1068  157.4257 LP  0  0  0  0  0  0  0  0  0  0  0  0  # atno 17395 bound_to 11000

$$$$
