#       Name:                AV-unprocessed.smi:72
#       Creating user name   scv26
#       Creation time:       Thu Mar 26 16:58:03 2020


#       File generated by GOLD software.
#

@<TRIPOS>MOLECULE
AV-unprocessed.smi:72
    41    42     1
SMALL
NO_CHARGES


@<TRIPOS>ATOM
      1 ****         1.0938   4.5868   1.0428 N.2            1 S1                 0.0000
      2 ****         0.5804   3.4917   0.6082 C.2            1 S1                 0.0000
      3 ****         0.7742   2.9581  -0.6739 N.2            1 S1                 0.0000
      4 ****         0.2231   1.8204  -0.9645 C.2            1 S1                 0.0000
      5 ****        -0.5504   1.0545   0.0070 N.am           1 S1                 0.0000
      6 ****        -1.2256  -0.2600  -0.3641 C.3            1 S1                 0.0000
      7 ****        -0.7246  -0.7190  -1.5908 O.3            1 S1                 0.0000
      8 ****         0.1689  -1.8187  -1.4226 C.3            1 S1                 0.0000
      9 ****         1.6193  -1.3250  -1.2151 C.3            1 S1                 0.0000
     10 ****         2.1490  -0.8634  -2.4395 O.3            1 S1                 0.0000
     11 ****        -0.4547  -2.5305  -0.2179 C.3            1 S1                 0.0000
     12 ****         0.4571  -3.3631   0.4718 O.3            1 S1                 0.0000
     13 ****        -0.9498  -1.3883   0.6600 C.3            1 S1                 0.0000
     14 ****        -2.1274  -1.7927   1.3291 O.3            1 S1                 0.0000
     15 ****        -0.8434   1.6392   1.2668 C.2            1 S1                 0.0000
     16 ****        -1.6007   1.1151   2.0829 O.2            1 S1                 0.0000
     17 ****        -0.2378   2.8186   1.5234 N.am           1 S1                 0.0000
     18 ****        -2.2805  -0.0018  -0.4719 H              1 S1                 0.0000
     19 ****         0.1307  -2.4678  -2.2985 H              1 S1                 0.0000
     20 ****        -1.2957  -3.1318  -0.5682 H              1 S1                 0.0000
     21 ****        -0.1766  -1.0823   1.3665 H              1 S1                 0.0000
     22 ****         0.8024   4.7633   1.9930 H              1 S1                 0.0000
     23 ****         0.3110   1.3734  -1.9548 H              1 S1                 0.0000
     24 ****         1.6948  -0.5552  -0.4487 H              1 S1                 0.0000
     25 ****         2.2600  -2.1466  -0.8956 H              1 S1                 0.0000
     26 ****         3.0438  -0.5944  -2.2977 H              1 S1                 0.0000
     27 ****         0.0059  -3.7559   1.2036 H              1 S1                 0.0000
     28 ****        -2.4406  -1.0648   1.8450 H              1 S1                 0.0000
     29 ****        -0.4090   3.2430   2.4232 H              1 S1                 0.0000
     30 ****         1.6983   5.1816   0.5129 LP             1 S1                 0.0000
     31 ****         1.3263   3.4449  -1.3508 LP             1 S1                 0.0000
     32 ****        -0.2360   0.0286  -2.0406 LP             1 S1                 0.0000
     33 ****        -1.4905  -1.0095  -2.1645 LP             1 S1                 0.0000
     34 ****         1.6115  -0.0867  -2.7679 LP             1 S1                 0.0000
     35 ****         2.1213  -1.5983  -3.1172 LP             1 S1                 0.0000
     36 ****         1.2281  -2.8190   0.8026 LP             1 S1                 0.0000
     37 ****         0.7926  -4.0780  -0.1417 LP             1 S1                 0.0000
     38 ****        -1.9272  -2.5693   1.9265 LP             1 S1                 0.0000
     39 ****        -2.8224  -2.0571   0.6604 LP             1 S1                 0.0000
     40 ****        -2.0381   0.2414   1.8698 LP             1 S1                 0.0000
     41 ****        -1.7787   1.5628   2.9591 LP             1 S1                 0.0000
@<TRIPOS>BOND
    1    1    2 2     
    2    1   22 1     
    3    2   17 1     
    4    2    3 1     
    5    3    4 2     
    6    4    5 1     
    7    4   23 1     
    8    5    6 1     
    9    5   15 am    
   10    6   18 1     
   11    6   13 1     
   12    6    7 1     
   13    7    8 1     
   14    8   19 1     
   15    8    9 1     
   16    8   11 1     
   17    9   10 1     
   18    9   24 1     
   19    9   25 1     
   20   10   26 1     
   21   11   20 1     
   22   11   12 1     
   23   11   13 1     
   24   12   27 1     
   25   13   21 1     
   26   13   14 1     
   27   14   28 1     
   28   15   16 2     
   29   15   17 am    
   30   17   29 1     
   31    1   30 1     
   32    3   31 1     
   33    7   32 1     
   34    7   33 1     
   35   10   34 1     
   36   10   35 1     
   37   12   36 1     
   38   12   37 1     
   39   14   38 1     
   40   14   39 1     
   41   16   40 1     
   42   16   41 1     
@<TRIPOS>SUBSTRUCTURE
      1 S1             1
@<TRIPOS>SET
LONE_PAIRS      STATIC     ATOMS    <user>   **** ""
12 30 31 32 33 34 35 36 37 38 39 40 41
DONOR_HYDROGENS      STATIC     ATOMS    <user>   **** ""
5 22 26 27 28 29
ATOM$BLUE        STATIC     ATOMS    COLORGROUP SYSTEM
12 30 31 32 33 34 35 36 37 38 39 40 41
ATOM$RED        STATIC     ATOMS    COLORGROUP SYSTEM
5 22 26 27 28 29
