AV-unprocessed.smi:1247|AV-procd|sdf|5243|dock2
  -GOLD-   22720 4353D 1   1.00000     0.00000
 Structure written by MMmdl.
 46 47  0  0  0  0  0  0  0  0  1 V2000
  151.2718  142.1580  157.7365 C   0  0  0  0  0  0  0  0  0  0  0  0
  150.9529  141.1724  156.6512 C   0  0  0  0  0  0  0  0  0  0  0  0
  149.9065  141.2379  155.6858 C   0  0  0  0  0  0  0  0  0  0  0  0
  150.0910  140.0908  154.9632 C   0  0  0  0  0  0  0  0  0  0  0  0
  149.3809  139.6254  153.9012 N   0  0  0  0  0  0  0  0  0  0  0  0
  148.1075  139.1949  153.8659 C   0  0  0  0  0  0  0  0  0  0  0  0
  147.3456  139.1384  154.8314 O   0  0  0  0  0  0  0  0  0  0  0  0
  147.7556  138.8240  152.6263 N   0  0  0  0  0  0  0  0  0  0  0  0
  146.4456  138.3075  152.2481 C   0  0  0  0  0  0  0  0  0  0  0  0
  146.5509  136.8902  151.6539 C   0  0  0  0  0  0  0  0  0  0  0  0
  145.2706  136.2395  151.3808 N   0  0  0  0  0  0  0  0  0  0  0  0
  144.4093  136.1742  152.5589 C   0  0  0  0  0  0  0  0  0  0  0  0
  143.0746  135.4645  152.2598 C   0  0  2  0  0  0  0  0  0  0  0  0
  142.2042  135.3158  153.5121 C   0  0  0  0  0  0  0  0  0  0  0  0
  143.3414  134.1636  151.7432 O   0  0  0  0  0  0  0  0  0  0  0  0
  144.1397  134.1796  150.5631 C   0  0  2  0  0  0  0  0  0  0  0  0
  144.3470  132.7331  150.1016 C   0  0  0  0  0  0  0  0  0  0  0  0
  145.4724  134.8886  150.8692 C   0  0  0  0  0  0  0  0  0  0  0  0
  151.1728  139.4108  155.4769 N   0  0  0  0  0  0  0  0  0  0  0  0
  151.7576  138.1540  155.0517 C   0  0  0  0  0  0  0  0  0  0  0  0
  151.7024  140.0836  156.5215 N   0  0  0  0  0  0  0  0  0  0  0  0
  150.5831  143.0030  157.7164 H   0  0  0  0  0  0  0  0  0  0  0  0
  152.2824  142.5515  157.6249 H   0  0  0  0  0  0  0  0  0  0  0  0
  151.1995  141.6948  158.7208 H   0  0  0  0  0  0  0  0  0  0  0  0
  149.1592  142.0071  155.5621 H   0  0  0  0  0  0  0  0  0  0  0  0
  149.8832  139.6011  153.0261 H   0  0  0  0  0  0  0  0  0  0  0  0
  148.4427  138.9023  151.8909 H   0  0  0  0  0  0  0  0  0  0  0  0
  145.8281  138.3066  153.1456 H   0  0  0  0  0  0  0  0  0  0  0  0
  145.9668  138.9848  151.5389 H   0  0  0  0  0  0  0  0  0  0  0  0
  147.1090  136.9607  150.7192 H   0  0  0  0  0  0  0  0  0  0  0  0
  147.1509  136.2604  152.3127 H   0  0  0  0  0  0  0  0  0  0  0  0
  144.9269  135.6511  153.3647 H   0  0  0  0  0  0  0  0  0  0  0  0
  144.1940  137.1776  152.9247 H   0  0  0  0  0  0  0  0  0  0  0  0
  142.5188  136.0338  151.5126 H   0  0  0  0  0  0  0  0  0  0  0  0
  141.9637  136.2890  153.9407 H   0  0  0  0  0  0  0  0  0  0  0  0
  142.7113  134.7281  154.2777 H   0  0  0  0  0  0  0  0  0  0  0  0
  141.2648  134.8155  153.2760 H   0  0  0  0  0  0  0  0  0  0  0  0
  143.6064  134.7242  149.7820 H   0  0  0  0  0  0  0  0  0  0  0  0
  144.9466  132.6939  149.1919 H   0  0  0  0  0  0  0  0  0  0  0  0
  143.3923  132.2504  149.8914 H   0  0  0  0  0  0  0  0  0  0  0  0
  144.8573  132.1447  150.8647 H   0  0  0  0  0  0  0  0  0  0  0  0
  146.0761  134.9256  149.9615 H   0  0  0  0  0  0  0  0  0  0  0  0
  146.0373  134.3012  151.5949 H   0  0  0  0  0  0  0  0  0  0  0  0
  152.1264  138.2497  154.0301 H   0  0  0  0  0  0  0  0  0  0  0  0
  151.0028  137.3680  155.0871 H   0  0  0  0  0  0  0  0  0  0  0  0
  152.5877  137.8762  155.7030 H   0  0  0  0  0  0  0  0  0  0  0  0
  1  2  1  0  0  0  0
  1 22  1  0  0  0  0
  1 23  1  0  0  0  0
  1 24  1  0  0  0  0
  2 21  2  0  0  0  0
  2  3  1  0  0  0  0
  3  4  2  0  0  0  0
  3 25  1  0  0  0  0
  4  5  1  0  0  0  0
  4 19  1  0  0  0  0
  5  6  1  0  0  0  0
  5 26  1  0  0  0  0
  6  7  2  0  0  0  0
  6  8  1  0  0  0  0
  8  9  1  0  0  0  0
  8 27  1  0  0  0  0
  9 10  1  0  0  0  0
  9 28  1  0  0  0  0
  9 29  1  0  0  0  0
 10 11  1  0  0  0  0
 10 30  1  0  0  0  0
 10 31  1  0  0  0  0
 11 18  1  0  0  0  0
 11 12  1  0  0  0  0
 12 13  1  0  0  0  0
 12 32  1  0  0  0  0
 12 33  1  0  0  0  0
 13 14  1  0  0  0  0
 13 15  1  0  0  0  0
 13 34  1  0  0  0  0
 14 35  1  0  0  0  0
 14 36  1  0  0  0  0
 14 37  1  0  0  0  0
 15 16  1  0  0  0  0
 16 17  1  0  0  0  0
 16 18  1  0  0  0  0
 16 38  1  0  0  0  0
 17 39  1  0  0  0  0
 17 40  1  0  0  0  0
 17 41  1  0  0  0  0
 18 42  1  0  0  0  0
 18 43  1  0  0  0  0
 19 20  1  0  0  0  0
 19 21  1  0  0  0  0
 20 44  1  0  0  0  0
 20 45  1  0  0  0  0
 20 46  1  0  0  0  0
M  END
> <s_m_source_file>
AV-unprocessed.smi

> <i_m_source_file_index>
1247

> <i_lp_mmshare_version>
43012

> <i_f3d_flags>
0

> <s_epik_input>
W0NIM11jMVtjSF1jKG4objEpW0NIM10pW05IXUMoPU8pW05IXVtDSDJdW0NIMl1OMltDSDJdW0NAQEhdKFtDSDNdKU9bQ0BASF0oW0NIM10pW0NIMl0y

> <s_epik_cmdline>
J2VwaWtfcHl0aG9uJywgJy1waCcsICc3LjAnLCAnLXRuJywgJzgnLCAnLW1hJywgJzIwMCcsICctbWV0YWxfYmluZGluZycsICctaW1hZScsICc8aW5maWxlLm1hZT4nLCAnLW9tYWUnLCAnPG91dGZpbGUubWFlPic=

> <r_lp_tautomer_probability>
1

> <r_epik_Ionization_Penalty>
0.233972

> <r_epik_Ionization_Penalty_Charging>
0

> <r_epik_Ionization_Penalty_Neutral>
0.233972

> <r_epik_State_Penalty>
0.224627

> <r_epik_Charging_Adjusted_Penalty>
0.224627

> <i_epik_Tot_Q>
0

> <i_epik_Tot_abs_Q>
0

> <r_epik_Metal_State_Penalty>
0.224624

> <b_epik_Metal_Only>
0

> <s_lp_Force_Field>
OPLS_2005

> <r_lp_Energy>
19.816

> <b_lp_Chiralities_Consistent>
1

> <s_lp_Variant>
AV-unprocessed.smi:1247-1

> <Gold.Version>
5.8.1

> <Gold.Id.Protein>
6NUR|6NUR_protein|mol2

> <Gold.PLP.Fitness>
42.9153

> <Gold.PLP.PLP>
-38.2724

> <Gold.PLP.part.hbond>
-2.6903

> <Gold.PLP.part.metal>
0.0000

> <Gold.PLP.part.buried>
-0.8959

> <Gold.PLP.part.nonpolar>
-35.6752

> <Gold.PLP.part.repulsive>
0.8984

> <Gold.PLP.ligand.clash>
0.0000

> <Gold.PLP.ligand.torsion>
0.6489

> <Gold.PLP.Chemscore.Hbond>
1.9760

> <Gold.PLP.Chemscore.CHOScore>
0.0000

> <Gold.PLP.Chemscore.Metal>
0.0000

> <Gold.Chemscore.Hbonds>
donor molecule, donor type, donor heavy atom, donor atom, acceptor molecule, acceptor atom, score
      L1  H     5    26       P1  7957  0.80
      L1  H     8    27       P1  7957  0.88

> <Gold.PLP.Chemscore.Internal.Correction>
0.0127

> <Gold.Rescore>
     Score         DG    S(hbond)    S(metal)    S(lipo)     H(rot)  DE(clash)    DE(int)     intcor
     15.11     -17.27       1.96        0.00      77.27       1.48       1.54       0.62       ----

> <Gold.Chemscore.Fitness>
15.1099

> <Gold.Chemscore.DG>
-17.2720

> <Gold.Chemscore.ZeroCoef>
-5.4800

> <Gold.Chemscore.Hbond>
1.9610

> <Gold.Chemscore.Metal>
0.0000

> <Gold.Chemscore.Lipo>
77.2712

> <Gold.Chemscore.Internal_Hbond>
0.0000

> <Gold.Chemscore.DEClash>
1.5401

> <Gold.Chemscore.DEInternal>
0.6219

> <Gold.Chemscore.Rot>
1.4838

> <Gold.Chemscore.Internal.Correction>
   9.000000E+99

> <Gold.Chemscore.Hbonds>
donor molecule, donor type, donor heavy atom, donor atom, acceptor molecule, acceptor atom, score
      L1  H     5    26       P1  7957  0.79
      L1  H     8    27       P1  7957  0.78

> <Gold.Chemscore.Hbond.Weighted>
-6.5497

> <Gold.Chemscore.Metal.Weighted>
-0.0000

> <Gold.Chemscore.Lipo.Weighted>
-9.0407

> <Gold.Chemscore.Internal_Hbond.Weighted>
0.0000

> <Gold.Chemscore.DEClash.Weighted>
1.5401

> <Gold.Chemscore.DEInternal.Weighted>
0.6219

> <Gold.Chemscore.Rot.Weighted>
3.7985

> <Gold.Chemscore.Internal.Correction.Weighted>
   9.000000E+99

> <Gold.Protein.RotatedTorsions>
[ 6907 6896 6895 6894 ] final  173.49 input  -60.11 | X-H torsion
[ 7974 7965 7964 7962 ] final    0.96 input  175.53 | X-H torsion
[ 8008 7997 7996 7995 ] final -105.37 input   59.86 | X-H torsion
[ 10167 10162 10161 10158 ] final  -96.65 input  -65.29 | X-H torsion
[ 10718 10713 10712 10709 ] final  150.37 input   66.30 | X-H torsion
[ 10763 10752 10751 10750 ] final  120.31 input  -60.55 | X-H torsion
[ 11005 11000 10999 10996 ] final  165.89 input  -57.11 | X-H torsion

> <Gold.Protein.ActiveResidues>
 VAL166  LYS551  ARG553  GLY616  TRP617  ASP618  TYR619  PRO620  LYS621  CYS622 
 ASP623  PHE694  ASN695  SER759  ASP760  ASP761  ALA762  ILE779  LEU786  VAL792 
 PHE793  MET794  SER795  GLU796  ALA797  LYS798  CYS799  TRP800  GLU811  SER814 

> <Gold.Protein.RotatedAtoms>
  151.7675  133.3338  159.3434 H   0  0  0  0  0  0  0  0  0  0  0  0  # atno 6907 bound_to 6896
  150.7474  134.6049  159.6065 H   0  0  0  0  0  0  0  0  0  0  0  0  # atno 6908 bound_to 6896
  152.3364  134.7194  160.0327 H   0  0  0  0  0  0  0  0  0  0  0  0  # atno 6909 bound_to 6896
  146.2437  140.1058  142.8346 H   0  0  0  0  0  0  0  0  0  0  0  0  # atno 7974 bound_to 7965
  154.8988  140.0413  157.1881 H   0  0  0  0  0  0  0  0  0  0  0  0  # atno 8008 bound_to 7997
  154.8465  140.2922  155.5604 H   0  0  0  0  0  0  0  0  0  0  0  0  # atno 8009 bound_to 7997
  156.2994  140.2473  156.3416 H   0  0  0  0  0  0  0  0  0  0  0  0  # atno 8010 bound_to 7997
  140.2916  143.3218  152.0340 H   0  0  0  0  0  0  0  0  0  0  0  0  # atno 10167 bound_to 10162
  157.2843  131.0841  151.1509 H   0  0  0  0  0  0  0  0  0  0  0  0  # atno 10718 bound_to 10713
  153.5965  135.3456  155.2930 H   0  0  0  0  0  0  0  0  0  0  0  0  # atno 10763 bound_to 10752
  154.8643  135.4217  154.2460 H   0  0  0  0  0  0  0  0  0  0  0  0  # atno 10764 bound_to 10752
  153.3278  135.7042  153.7045 H   0  0  0  0  0  0  0  0  0  0  0  0  # atno 10765 bound_to 10752
  140.2607  134.7904  157.3587 H   0  0  0  0  0  0  0  0  0  0  0  0  # atno 11005 bound_to 11000
  145.0529  140.9031  143.4985 LP  0  0  0  0  0  0  0  0  0  0  0  0  # atno 17320 bound_to 7965
  145.1159  139.2725  143.5613 LP  0  0  0  0  0  0  0  0  0  0  0  0  # atno 17321 bound_to 7965
  139.4936  144.6521  151.6653 LP  0  0  0  0  0  0  0  0  0  0  0  0  # atno 17342 bound_to 10162
  140.5727  144.0080  150.6225 LP  0  0  0  0  0  0  0  0  0  0  0  0  # atno 17343 bound_to 10162
  157.2930  130.6805  149.6124 LP  0  0  0  0  0  0  0  0  0  0  0  0  # atno 17370 bound_to 10713
  155.9665  130.4415  150.5342 LP  0  0  0  0  0  0  0  0  0  0  0  0  # atno 17371 bound_to 10713
  140.1467  134.4902  155.7991 LP  0  0  0  0  0  0  0  0  0  0  0  0  # atno 17394 bound_to 11000
  141.2190  133.6846  156.7306 LP  0  0  0  0  0  0  0  0  0  0  0  0  # atno 17395 bound_to 11000

$$$$
