#       Name:                AV-unprocessed.smi:3114
#       Creating user name   scv26
#       Creation time:       Fri Mar 27 17:23:58 2020


#       File generated by GOLD software.
#

@<TRIPOS>MOLECULE
AV-unprocessed.smi:3114
    38    38     1
SMALL
NO_CHARGES


@<TRIPOS>ATOM
      1 ****        -2.6181   3.8006  -0.6750 C.3            1 S1                 0.0000
      2 ****        -2.2962   3.2489  -1.9466 O.3            1 S1                 0.0000
      3 ****        -1.8678   1.9387  -1.9985 C.ar           1 S1                 0.0000
      4 ****        -1.5512   1.3640  -3.2458 C.ar           1 S1                 0.0000
      5 ****        -1.1229   0.0220  -3.2291 C.ar           1 S1                 0.0000
      6 ****        -1.0186  -0.6764  -2.0782 N.ar           1 S1                 0.0000
      7 ****        -1.3398  -0.0370  -0.9474 C.ar           1 S1                 0.0000
      8 ****        -1.2376  -0.7232   0.2494 N.pl3          1 S1                 0.0000
      9 ****        -0.6549  -2.0499   0.4004 C.3            1 S1                 0.0000
     10 ****         0.8786  -2.0216   0.3416 C.3            1 S1                 0.0000
     11 ****         1.3739  -1.3753   1.5024 O.3            1 S1                 0.0000
     12 ****         2.7887  -1.2821   1.5158 C.3            1 S1                 0.0000
     13 ****         3.2304  -0.5802   2.8050 C.3            1 S1                 0.0000
     14 ****         3.2582  -1.5043   3.8711 O.3            1 S1                 0.0000
     15 ****        -1.7583   1.2270  -0.8484 N.ar           1 S1                 0.0000
     16 ****        -2.9388   4.8345  -0.8014 H              1 S1                 0.0000
     17 ****        -1.7535   3.8014  -0.0098 H              1 S1                 0.0000
     18 ****        -3.4356   3.2567  -0.1995 H              1 S1                 0.0000
     19 ****        -1.6343   1.9222  -4.1665 H              1 S1                 0.0000
     20 ****        -0.8625  -0.4929  -4.1419 H              1 S1                 0.0000
     21 ****        -1.4595  -0.2101   1.0901 H              1 S1                 0.0000
     22 ****        -0.9839  -2.4731   1.3496 H              1 S1                 0.0000
     23 ****        -1.0464  -2.7038  -0.3796 H              1 S1                 0.0000
     24 ****         1.2586  -3.0436   0.3101 H              1 S1                 0.0000
     25 ****         1.2259  -1.5189  -0.5623 H              1 S1                 0.0000
     26 ****         3.2568  -2.2634   1.4206 H              1 S1                 0.0000
     27 ****         3.1059  -0.6869   0.6581 H              1 S1                 0.0000
     28 ****         4.2389  -0.1842   2.6838 H              1 S1                 0.0000
     29 ****         2.5785   0.2606   3.0444 H              1 S1                 0.0000
     30 ****         2.3866  -1.8511   3.9872 H              1 S1                 0.0000
     31 ****        -1.5710   3.8140  -2.3401 LP             1 S1                 0.0000
     32 ****        -3.1162   3.3156  -2.5150 LP             1 S1                 0.0000
     33 ****        -0.7149  -1.6291  -2.0712 LP             1 S1                 0.0000
     34 ****         1.0798  -1.8921   2.3064 LP             1 S1                 0.0000
     35 ****         0.9921  -0.4518   1.5418 LP             1 S1                 0.0000
     36 ****         3.5534  -1.0449   4.7089 LP             1 S1                 0.0000
     37 ****         3.8920  -2.2477   3.6575 LP             1 S1                 0.0000
     38 ****        -1.9821   1.6329   0.0377 LP             1 S1                 0.0000
@<TRIPOS>BOND
    1    1    2 1     
    2    1   16 1     
    3    1   17 1     
    4    1   18 1     
    5    2    3 1     
    6    3   15 ar    
    7    3    4 ar    
    8    4    5 ar    
    9    4   19 1     
   10    5    6 ar    
   11    5   20 1     
   12    6    7 ar    
   13    7    8 1     
   14    7   15 ar    
   15    8    9 1     
   16    8   21 1     
   17    9   10 1     
   18    9   22 1     
   19    9   23 1     
   20   10   11 1     
   21   10   24 1     
   22   10   25 1     
   23   11   12 1     
   24   12   13 1     
   25   12   26 1     
   26   12   27 1     
   27   13   14 1     
   28   13   28 1     
   29   13   29 1     
   30   14   30 1     
   31    2   31 1     
   32    2   32 1     
   33    6   33 1     
   34   11   34 1     
   35   11   35 1     
   36   14   36 1     
   37   14   37 1     
   38   15   38 1     
@<TRIPOS>SUBSTRUCTURE
      1 S1             1
@<TRIPOS>SET
LONE_PAIRS      STATIC     ATOMS    <user>   **** ""
8 31 32 33 34 35 36 37 38
DONOR_HYDROGENS      STATIC     ATOMS    <user>   **** ""
2 21 30
ATOM$BLUE        STATIC     ATOMS    COLORGROUP SYSTEM
8 31 32 33 34 35 36 37 38
ATOM$RED        STATIC     ATOMS    COLORGROUP SYSTEM
2 21 30
