AV-unprocessed.smi:2952|AV-procd|sdf|11291|dock5
  -GOLD-   2272016183D 1   1.00000     0.00000
 Structure written by MMmdl.
 38 40  0  0  0  0  0  0  0  0  1 V2000
  153.8890  138.7276  157.5114 O   0  0  0  0  0  0  0  0  0  0  0  0
  152.5656  138.2712  157.3279 C   0  0  0  0  0  0  0  0  0  0  0  0
  151.5768  139.0431  158.2175 C   0  0  0  0  0  0  0  0  0  0  0  0
  151.4490  140.4419  157.8289 N   0  0  0  0  0  0  0  0  0  0  0  0
  151.0403  140.9662  156.6438 C   0  0  0  0  0  0  0  0  0  0  0  0
  150.6234  140.1071  155.4797 C   0  0  0  0  0  0  0  0  0  0  0  0
  149.2265  140.2744  155.0785 N   0  0  0  0  0  0  0  0  0  0  0  0
  148.8029  139.2668  154.1085 C   0  0  0  0  0  0  0  0  0  0  0  0
  147.3375  139.4627  153.6843 C   0  0  0  0  0  0  0  0  0  0  0  0
  147.1635  140.7767  153.1628 O   0  0  0  0  0  0  0  0  0  0  0  0
  147.5255  141.7907  154.0950 C   0  0  0  0  0  0  0  0  0  0  0  0
  148.9919  141.6006  154.5203 C   0  0  0  0  0  0  0  0  0  0  0  0
  151.0498  142.2997  156.5713 N   0  0  0  0  0  0  0  0  0  0  0  0
  151.4830  142.6738  157.8270 C   0  0  0  0  0  0  0  0  0  0  0  0
  151.6947  143.9561  158.3817 C   0  0  0  0  0  0  0  0  0  0  0  0
  152.1500  144.0927  159.7095 C   0  0  0  0  0  0  0  0  0  0  0  0
  152.4001  142.9514  160.4994 C   0  0  0  0  0  0  0  0  0  0  0  0
  152.9580  143.1305  162.1219 Cl  0  0  0  0  0  0  0  0  0  0  0  0
  152.1959  141.6649  159.9647 C   0  0  0  0  0  0  0  0  0  0  0  0
  151.7410  141.5345  158.6391 C   0  0  0  0  0  0  0  0  0  0  0  0
  154.3325  138.1342  158.0984 H   0  0  0  0  0  0  0  0  0  0  0  0
  152.2979  138.3795  156.2766 H   0  0  0  0  0  0  0  0  0  0  0  0
  152.5267  137.2068  157.5601 H   0  0  0  0  0  0  0  0  0  0  0  0
  150.5915  138.5818  158.1446 H   0  0  0  0  0  0  0  0  0  0  0  0
  151.8555  138.9712  159.2682 H   0  0  0  0  0  0  0  0  0  0  0  0
  151.2751  140.3633  154.6439 H   0  0  0  0  0  0  0  0  0  0  0  0
  150.8053  139.0564  155.7000 H   0  0  0  0  0  0  0  0  0  0  0  0
  149.4401  139.3151  153.2244 H   0  0  0  0  0  0  0  0  0  0  0  0
  148.9230  138.2663  154.5247 H   0  0  0  0  0  0  0  0  0  0  0  0
  147.0635  138.7357  152.9197 H   0  0  0  0  0  0  0  0  0  0  0  0
  146.6666  139.3074  154.5306 H   0  0  0  0  0  0  0  0  0  0  0  0
  147.3881  142.7676  153.6314 H   0  0  0  0  0  0  0  0  0  0  0  0
  146.8634  141.7504  154.9613 H   0  0  0  0  0  0  0  0  0  0  0  0
  149.2563  142.3628  155.2542 H   0  0  0  0  0  0  0  0  0  0  0  0
  149.6409  141.7592  153.6576 H   0  0  0  0  0  0  0  0  0  0  0  0
  151.5070  144.8362  157.7843 H   0  0  0  0  0  0  0  0  0  0  0  0
  152.3088  145.0783  160.1219 H   0  0  0  0  0  0  0  0  0  0  0  0
  152.3860  140.7881  160.5655 H   0  0  0  0  0  0  0  0  0  0  0  0
  1  2  1  0  0  0  0
  1 21  1  0  0  0  0
  2  3  1  0  0  0  0
  2 22  1  0  0  0  0
  2 23  1  0  0  0  0
  3  4  1  0  0  0  0
  3 24  1  0  0  0  0
  3 25  1  0  0  0  0
  4 20  1  0  0  0  0
  4  5  1  0  0  0  0
  5  6  1  0  0  0  0
  5 13  2  0  0  0  0
  6  7  1  0  0  0  0
  6 26  1  0  0  0  0
  6 27  1  0  0  0  0
  7 12  1  0  0  0  0
  7  8  1  0  0  0  0
  8  9  1  0  0  0  0
  8 28  1  0  0  0  0
  8 29  1  0  0  0  0
  9 10  1  0  0  0  0
  9 30  1  0  0  0  0
  9 31  1  0  0  0  0
 10 11  1  0  0  0  0
 11 12  1  0  0  0  0
 11 32  1  0  0  0  0
 11 33  1  0  0  0  0
 12 34  1  0  0  0  0
 12 35  1  0  0  0  0
 13 14  1  0  0  0  0
 14 20  2  0  0  0  0
 14 15  1  0  0  0  0
 15 16  2  0  0  0  0
 15 36  1  0  0  0  0
 16 17  1  0  0  0  0
 16 37  1  0  0  0  0
 17 18  1  0  0  0  0
 17 19  2  0  0  0  0
 19 20  1  0  0  0  0
 19 38  1  0  0  0  0
M  END
> <s_m_source_file>
AV-unprocessed.smi

> <i_m_source_file_index>
2952

> <i_lp_mmshare_version>
43012

> <i_f3d_flags>
0

> <s_epik_input>
W2NIXTFbY0hdYyhDbClbY0hdYyhjMTIpbihbQ0gyXVtDSDJdW09IXSljKG4yKVtDSDJdTjNbQ0gyXVtDSDJdT1tDSDJdW0NIMl0z

> <s_epik_cmdline>
J2VwaWtfcHl0aG9uJywgJy1waCcsICc3LjAnLCAnLXRuJywgJzgnLCAnLW1hJywgJzIwMCcsICctbWV0YWxfYmluZGluZycsICctaW1hZScsICc8aW5maWxlLm1hZT4nLCAnLW9tYWUnLCAnPG91dGZpbGUubWFlPic=

> <r_epik_Ionization_Penalty>
0.0905371

> <r_epik_Ionization_Penalty_Charging>
0

> <r_epik_Ionization_Penalty_Neutral>
0.0905371

> <r_epik_State_Penalty>
0.0787939

> <r_epik_Charging_Adjusted_Penalty>
0.0787939

> <i_epik_Tot_Q>
0

> <i_epik_Tot_abs_Q>
0

> <r_epik_Metal_State_Penalty>
8.42675e-05

> <b_epik_Metal_Only>
0

> <s_lp_Force_Field>
OPLS_2005

> <r_lp_Energy>
22.7724

> <b_lp_Chiralities_Consistent>
1

> <s_lp_Variant>
AV-unprocessed.smi:2952-1

> <Gold.Version>
5.8.1

> <Gold.Id.Protein>
6NUR|6NUR_protein|mol2

> <Gold.PLP.Fitness>
45.5082

> <Gold.PLP.PLP>
-42.6276

> <Gold.PLP.part.hbond>
-0.8227

> <Gold.PLP.part.metal>
0.0000

> <Gold.PLP.part.buried>
-3.9649

> <Gold.PLP.part.nonpolar>
-37.9474

> <Gold.PLP.part.repulsive>
0.3490

> <Gold.PLP.ligand.clash>
0.0000

> <Gold.PLP.ligand.torsion>
0.0637

> <Gold.PLP.Chemscore.Hbond>
1.0000

> <Gold.PLP.Chemscore.CHOScore>
0.0000

> <Gold.PLP.Chemscore.Metal>
0.0000

> <Gold.Chemscore.Hbonds>
donor molecule, donor type, donor heavy atom, donor atom, acceptor molecule, acceptor atom, score
      P1  H  7997  8009       L1     1  1.00

> <Gold.PLP.Chemscore.Internal.Correction>
0.0080

> <Gold.Rescore>
     Score         DG    S(hbond)    S(metal)    S(lipo)     H(rot)  DE(clash)    DE(int)     intcor
     16.55     -16.77       0.95        0.00     115.84       2.13       0.01       0.20       ----

> <Gold.Chemscore.Fitness>
16.5539

> <Gold.Chemscore.DG>
-16.7682

> <Gold.Chemscore.ZeroCoef>
-5.4800

> <Gold.Chemscore.Hbond>
0.9512

> <Gold.Chemscore.Metal>
0.0000

> <Gold.Chemscore.Lipo>
115.8351

> <Gold.Chemscore.Internal_Hbond>
0.0000

> <Gold.Chemscore.DEClash>
0.0130

> <Gold.Chemscore.DEInternal>
0.2013

> <Gold.Chemscore.Rot>
2.1256

> <Gold.Chemscore.Internal.Correction>
   9.000000E+99

> <Gold.Chemscore.Hbonds>
donor molecule, donor type, donor heavy atom, donor atom, acceptor molecule, acceptor atom, score
      P1  H  7997  8009       L1     1  0.90

> <Gold.Chemscore.Hbond.Weighted>
-3.1770

> <Gold.Chemscore.Metal.Weighted>
-0.0000

> <Gold.Chemscore.Lipo.Weighted>
-13.5527

> <Gold.Chemscore.Internal_Hbond.Weighted>
0.0000

> <Gold.Chemscore.DEClash.Weighted>
0.0130

> <Gold.Chemscore.DEInternal.Weighted>
0.2013

> <Gold.Chemscore.Rot.Weighted>
5.4415

> <Gold.Chemscore.Internal.Correction.Weighted>
   9.000000E+99

> <Gold.Protein.RotatedTorsions>
[ 6907 6896 6895 6894 ] final -157.81 input  -60.11 | X-H torsion
[ 7974 7965 7964 7962 ] final -115.03 input  175.53 | X-H torsion
[ 8008 7997 7996 7995 ] final  160.52 input   59.86 | X-H torsion
[ 10167 10162 10161 10158 ] final    8.53 input  -65.29 | X-H torsion
[ 10718 10713 10712 10709 ] final  153.53 input   66.30 | X-H torsion
[ 10763 10752 10751 10750 ] final   62.16 input  -60.55 | X-H torsion
[ 11005 11000 10999 10996 ] final  163.28 input  -57.11 | X-H torsion

> <Gold.Protein.ActiveResidues>
 VAL166  LYS551  ARG553  GLY616  TRP617  ASP618  TYR619  PRO620  LYS621  CYS622 
 ASP623  PHE694  ASN695  SER759  ASP760  ASP761  ALA762  ILE779  LEU786  VAL792 
 PHE793  MET794  SER795  GLU796  ALA797  LYS798  CYS799  TRP800  GLU811  SER814 

> <Gold.Protein.RotatedAtoms>
  151.3085  133.4091  159.2644 H   0  0  0  0  0  0  0  0  0  0  0  0  # atno 6907 bound_to 6896
  151.0135  134.9415  159.8030 H   0  0  0  0  0  0  0  0  0  0  0  0  # atno 6908 bound_to 6896
  152.5306  134.3049  159.9144 H   0  0  0  0  0  0  0  0  0  0  0  0  # atno 6909 bound_to 6896
  145.1131  140.8624  143.3858 H   0  0  0  0  0  0  0  0  0  0  0  0  # atno 7974 bound_to 7965
  156.2167  140.1802  156.7573 H   0  0  0  0  0  0  0  0  0  0  0  0  # atno 8008 bound_to 7997
  154.5802  140.0667  156.9122 H   0  0  0  0  0  0  0  0  0  0  0  0  # atno 8009 bound_to 7997
  155.2516  140.3329  155.4284 H   0  0  0  0  0  0  0  0  0  0  0  0  # atno 8010 bound_to 7997
  140.6308  143.7997  150.7293 H   0  0  0  0  0  0  0  0  0  0  0  0  # atno 10167 bound_to 10162
  157.2436  131.0764  151.1776 H   0  0  0  0  0  0  0  0  0  0  0  0  # atno 10718 bound_to 10713
  152.9973  135.5475  154.6148 H   0  0  0  0  0  0  0  0  0  0  0  0  # atno 10763 bound_to 10752
  154.5461  135.2823  155.1054 H   0  0  0  0  0  0  0  0  0  0  0  0  # atno 10764 bound_to 10752
  154.2312  135.6433  153.5228 H   0  0  0  0  0  0  0  0  0  0  0  0  # atno 10765 bound_to 10752
  140.2342  134.8100  157.3348 H   0  0  0  0  0  0  0  0  0  0  0  0  # atno 11005 bound_to 11000
  145.0824  139.2950  143.5777 LP  0  0  0  0  0  0  0  0  0  0  0  0  # atno 17320 bound_to 7965
  146.3525  140.0335  142.8648 LP  0  0  0  0  0  0  0  0  0  0  0  0  # atno 17321 bound_to 7965
  140.1608  143.4277  152.2068 LP  0  0  0  0  0  0  0  0  0  0  0  0  # atno 17342 bound_to 10162
  139.5523  144.7347  151.4398 LP  0  0  0  0  0  0  0  0  0  0  0  0  # atno 17343 bound_to 10162
  157.3353  130.7005  149.6348 LP  0  0  0  0  0  0  0  0  0  0  0  0  # atno 17370 bound_to 10713
  155.9669  130.4295  150.4838 LP  0  0  0  0  0  0  0  0  0  0  0  0  # atno 17371 bound_to 10713
  140.1719  134.4598  155.7826 LP  0  0  0  0  0  0  0  0  0  0  0  0  # atno 17394 bound_to 11000
  141.2215  133.6945  156.7721 LP  0  0  0  0  0  0  0  0  0  0  0  0  # atno 17395 bound_to 11000

$$$$
