AV-unprocessed.smi:290|AV-procd|sdf|2225|dock10
  -GOLD-   2262022 83D 1   1.00000     0.00000
 Structure written by MMmdl.
 59 62  0  0  0  0  0  0  0  0  2 V2000
  151.9282  139.4764  159.0846 C   0  0  0  0  0  0  0  0  0  0  0  0
  152.7864  140.7457  158.9563 C   0  0  2  0  0  0  0  0  0  0  0  0
  153.6529  140.8809  160.0824 O   0  0  0  0  0  0  0  0  0  0  0  0
  153.3997  142.1107  160.7460 C   0  0  0  0  0  0  0  0  0  0  0  0
  152.8810  143.0269  159.6460 C   0  0  0  0  0  0  0  0  0  0  0  0
  152.0249  142.0847  158.8105 C   0  0  2  0  0  0  0  0  0  0  0  0
  150.7404  142.0059  159.4086 O   0  0  0  0  0  0  0  0  0  0  0  0
  151.8551  142.5269  157.3375 C   0  0  0  0  0  0  0  0  0  0  0  0
  150.9221  141.6972  156.5919 N   0  0  0  0  0  0  0  0  0  0  0  0
  149.5620  141.8824  156.4767 C   0  0  0  0  0  0  0  0  0  0  0  0
  148.9364  140.9904  155.7573 N   0  0  0  0  0  0  0  0  0  0  0  0
  149.9452  140.1330  155.3379 C   0  0  0  0  0  0  0  0  0  0  0  0
  149.9725  138.9633  154.5365 C   0  0  0  0  0  0  0  0  0  0  0  0
  148.8438  138.4515  153.9981 N   0  0  0  0  0  0  0  0  0  0  0  0
  147.9064  139.4451  153.4994 C   0  0  0  0  0  0  0  0  0  0  0  0
  146.5974  138.6881  153.2480 C   0  0  0  0  0  0  0  0  0  0  0  0
  146.7050  137.4142  154.1155 C   0  0  1  0  0  0  0  0  0  0  0  0
  146.5352  136.1258  153.3731 N   0  3  2  0  0  0  0  0  0  0  0  0
  145.6288  136.1786  152.1972 C   0  0  0  0  0  0  0  0  0  0  0  0
  146.2379  134.9655  154.2514 C   0  0  0  0  0  0  0  0  0  0  0  0
  144.7658  134.9306  154.6969 C   0  0  0  0  0  0  0  0  0  0  0  0
  144.5395  133.8116  155.5280 O   0  0  0  0  0  0  0  0  0  0  0  0
  148.0613  137.5554  154.8383 C   0  0  1  0  0  0  0  0  0  0  0  0
  148.7887  136.2537  155.2312 C   0  0  0  0  0  0  0  0  0  0  0  0
  151.1741  138.3665  154.3186 N   0  0  0  0  0  0  0  0  0  0  0  0
  152.2821  138.8847  154.8582 C   0  0  0  0  0  0  0  0  0  0  0  0
  152.4072  139.9672  155.6299 N   0  0  0  0  0  0  0  0  0  0  0  0
  151.2008  140.5657  155.8458 C   0  0  0  0  0  0  0  0  0  0  0  0
  145.9401  137.4548  154.8904 H   0  0  0  0  0  0  0  0  0  0  0  0
  147.8572  138.0902  155.7678 H   0  0  0  0  0  0  0  0  0  0  0  0
  151.2482  139.3761  158.2383 H   0  0  0  0  0  0  0  0  0  0  0  0
  151.3332  139.4840  159.9983 H   0  0  0  0  0  0  0  0  0  0  0  0
  152.5574  138.5868  159.1125 H   0  0  0  0  0  0  0  0  0  0  0  0
  153.4465  140.6205  158.0969 H   0  0  0  0  0  0  0  0  0  0  0  0
  152.6374  141.9553  161.5108 H   0  0  0  0  0  0  0  0  0  0  0  0
  154.2965  142.4973  161.2304 H   0  0  0  0  0  0  0  0  0  0  0  0
  152.3398  143.8932  160.0292 H   0  0  0  0  0  0  0  0  0  0  0  0
  153.7247  143.3918  159.0584 H   0  0  0  0  0  0  0  0  0  0  0  0
  150.5387  142.8426  159.7985 H   0  0  0  0  0  0  0  0  0  0  0  0
  151.4984  143.5567  157.2908 H   0  0  0  0  0  0  0  0  0  0  0  0
  152.8183  142.5143  156.8253 H   0  0  0  0  0  0  0  0  0  0  0  0
  149.0441  142.7021  156.9533 H   0  0  0  0  0  0  0  0  0  0  0  0
  147.7501  140.2299  154.2414 H   0  0  0  0  0  0  0  0  0  0  0  0
  148.2789  139.9133  152.5877 H   0  0  0  0  0  0  0  0  0  0  0  0
  145.7394  139.2961  153.5359 H   0  0  0  0  0  0  0  0  0  0  0  0
  146.4825  138.4768  152.1867 H   0  0  0  0  0  0  0  0  0  0  0  0
  144.5795  136.1449  152.4899 H   0  0  0  0  0  0  0  0  0  0  0  0
  145.8133  135.3182  151.5531 H   0  0  0  0  0  0  0  0  0  0  0  0
  145.7844  137.0727  151.5949 H   0  0  0  0  0  0  0  0  0  0  0  0
  146.5035  134.0411  153.7367 H   0  0  0  0  0  0  0  0  0  0  0  0
  146.8637  135.0034  155.1450 H   0  0  0  0  0  0  0  0  0  0  0  0
  144.4689  135.8394  155.2193 H   0  0  0  0  0  0  0  0  0  0  0  0
  144.1190  134.8437  153.8234 H   0  0  0  0  0  0  0  0  0  0  0  0
  143.7703  133.3564  155.2190 H   0  0  0  0  0  0  0  0  0  0  0  0
  148.1340  135.6017  155.8100 H   0  0  0  0  0  0  0  0  0  0  0  0
  149.6616  136.4661  155.8492 H   0  0  0  0  0  0  0  0  0  0  0  0
  149.1378  135.6948  154.3639 H   0  0  0  0  0  0  0  0  0  0  0  0
  153.1997  138.3568  154.6434 H   0  0  0  0  0  0  0  0  0  0  0  0
  147.4468  135.9246  152.9867 H   0  0  0  0  0  0  0  0  0  0  0  0
  1  2  1  0  0  0  0
  1 31  1  0  0  0  0
  1 32  1  0  0  0  0
  1 33  1  0  0  0  0
  2  6  1  0  0  0  0
  2  3  1  0  0  0  0
  2 34  1  0  0  0  0
  3  4  1  0  0  0  0
  4  5  1  0  0  0  0
  4 35  1  0  0  0  0
  4 36  1  0  0  0  0
  5  6  1  0  0  0  0
  5 37  1  0  0  0  0
  5 38  1  0  0  0  0
  6  7  1  0  0  0  0
  6  8  1  0  0  0  0
  7 39  1  0  0  0  0
  8  9  1  0  0  0  0
  8 40  1  0  0  0  0
  8 41  1  0  0  0  0
  9 28  1  0  0  0  0
  9 10  1  0  0  0  0
 10 11  2  0  0  0  0
 10 42  1  0  0  0  0
 11 12  1  0  0  0  0
 12 28  2  0  0  0  0
 12 13  1  0  0  0  0
 13 14  1  0  0  0  0
 13 25  2  0  0  0  0
 14 23  1  0  0  0  0
 14 15  1  0  0  0  0
 15 16  1  0  0  0  0
 15 43  1  0  0  0  0
 15 44  1  0  0  0  0
 16 17  1  0  0  0  0
 16 45  1  0  0  0  0
 16 46  1  0  0  0  0
 17 29  1  0  0  0  0
 17 18  1  0  0  0  0
 17 23  1  0  0  0  0
 18 19  1  0  0  0  0
 18 20  1  0  0  0  0
 18 59  1  0  0  0  0
 19 47  1  0  0  0  0
 19 48  1  0  0  0  0
 19 49  1  0  0  0  0
 20 21  1  0  0  0  0
 20 50  1  0  0  0  0
 20 51  1  0  0  0  0
 21 22  1  0  0  0  0
 21 52  1  0  0  0  0
 21 53  1  0  0  0  0
 22 54  1  0  0  0  0
 23 30  1  0  0  0  0
 23 24  1  0  0  0  0
 24 55  1  0  0  0  0
 24 56  1  0  0  0  0
 24 57  1  0  0  0  0
 25 26  1  0  0  0  0
 26 27  2  0  0  0  0
 26 58  1  0  0  0  0
 27 28  1  0  0  0  0
M  CHG  1  18   1
M  END
> <s_m_source_file>
AV-unprocessed.smi

> <i_m_source_file_index>
290

> <i_lp_mmshare_version>
43012

> <i_f3d_flags>
0

> <s_epik_input>
W0NIMl0xW0NIMl1PW0NAQEhdKFtDSDNdKVtDQEBdMShbT0hdKVtDSDJdbihbY0hdbjIpYyhjMjMpbltjSF1uYzNONFtDSDJdW0NIMl1bQ0BIXShbQ0BIXTRbQ0gzXSlOKFtDSDNdKVtDSDJdW0NIMl1bT0hd

> <s_epik_cmdline>
J2VwaWtfcHl0aG9uJywgJy1waCcsICc3LjAnLCAnLXRuJywgJzgnLCAnLW1hJywgJzIwMCcsICctbWV0YWxfYmluZGluZycsICctaW1hZScsICc8aW5maWxlLm1hZT4nLCAnLW9tYWUnLCAnPG91dGZpbGUubWFlPic=

> <r_lp_tautomer_probability>
1

> <r_epik_Ionization_Penalty>
0.0036983

> <r_epik_Ionization_Penalty_Charging>
0.0032725

> <r_epik_Ionization_Penalty_Neutral>
0.000425798

> <r_epik_State_Penalty>
-0

> <r_epik_Charging_Adjusted_Penalty>
0.0032725

> <i_epik_Tot_Q>
1

> <i_epik_Tot_abs_Q>
1

> <r_epik_Metal_State_Penalty>
-0

> <b_epik_Metal_Only>
0

> <s_lp_Force_Field>
OPLS_2005

> <r_lp_Energy>
70.3682

> <b_lp_Chiralities_Consistent>
1

> <s_lp_Variant>
AV-unprocessed.smi:290-11

> <Gold.Version>
5.8.1

> <Gold.Id.Protein>
6NUR|6NUR_protein|mol2

> <Gold.PLP.Fitness>
49.6634

> <Gold.PLP.PLP>
-38.3847

> <Gold.PLP.part.hbond>
-4.2590

> <Gold.PLP.part.metal>
0.0000

> <Gold.PLP.part.buried>
-4.2921

> <Gold.PLP.part.nonpolar>
-31.4488

> <Gold.PLP.part.repulsive>
0.9498

> <Gold.PLP.ligand.clash>
0.0000

> <Gold.PLP.ligand.torsion>
1.6285

> <Gold.PLP.Chemscore.Hbond>
4.0000

> <Gold.PLP.Chemscore.CHOScore>
0.7725

> <Gold.PLP.Chemscore.Metal>
0.0000

> <Gold.Chemscore.Hbonds>
donor molecule, donor type, donor heavy atom, donor atom, acceptor molecule, acceptor atom, score
      L1  H    18    59       P1  7948  2.00
      L1  H    22    54       P1 10957  1.00
      P1  H  7997  8008       L1    27  1.00
      L1  C    10    42       P1  8028  0.72

> <Gold.PLP.Chemscore.Internal.Correction>
0.2182

> <Gold.Rescore>
     Score         DG    S(hbond)    S(metal)    S(lipo)     H(rot)  DE(clash)    DE(int)     intcor
     10.18     -13.93       2.40        0.00      83.96       3.67       0.12       3.62       ----

> <Gold.Chemscore.Fitness>
10.1823

> <Gold.Chemscore.DG>
-13.9254

> <Gold.Chemscore.ZeroCoef>
-5.4800

> <Gold.Chemscore.Hbond>
2.3973

> <Gold.Chemscore.Metal>
0.0000

> <Gold.Chemscore.Lipo>
83.9565

> <Gold.Chemscore.Internal_Hbond>
0.0000

> <Gold.Chemscore.DEClash>
0.1222

> <Gold.Chemscore.DEInternal>
3.6209

> <Gold.Chemscore.Rot>
3.6658

> <Gold.Chemscore.Internal.Correction>
   9.000000E+99

> <Gold.Chemscore.Hbonds>
donor molecule, donor type, donor heavy atom, donor atom, acceptor molecule, acceptor atom, score
      L1  H    18    59       P1  7948  0.98
      L1  H    22    54       P1 10957  0.96
      P1  H  7997  8008       L1    27  0.62

> <Gold.Chemscore.Hbond.Weighted>
-8.0069

> <Gold.Chemscore.Metal.Weighted>
-0.0000

> <Gold.Chemscore.Lipo.Weighted>
-9.8229

> <Gold.Chemscore.Internal_Hbond.Weighted>
0.0000

> <Gold.Chemscore.DEClash.Weighted>
0.1222

> <Gold.Chemscore.DEInternal.Weighted>
3.6209

> <Gold.Chemscore.Rot.Weighted>
9.3844

> <Gold.Chemscore.Internal.Correction.Weighted>
   9.000000E+99

> <Gold.Protein.RotatedTorsions>
[ 6907 6896 6895 6894 ] final  148.38 input  -60.11 | X-H torsion
[ 7974 7965 7964 7962 ] final   31.23 input  175.53 | X-H torsion
[ 8008 7997 7996 7995 ] final  -30.64 input   59.86 | X-H torsion
[ 10167 10162 10161 10158 ] final  -19.73 input  -65.29 | X-H torsion
[ 10718 10713 10712 10709 ] final  103.49 input   66.30 | X-H torsion
[ 10763 10752 10751 10750 ] final  170.71 input  -60.55 | X-H torsion
[ 11005 11000 10999 10996 ] final   45.41 input  -57.11 | X-H torsion

> <Gold.Protein.ActiveResidues>
 VAL166  LYS551  ARG553  GLY616  TRP617  ASP618  TYR619  PRO620  LYS621  CYS622 
 ASP623  PHE694  ASN695  SER759  ASP760  ASP761  ALA762  ILE779  LEU786  VAL792 
 PHE793  MET794  SER795  GLU796  ALA797  LYS798  CYS799  TRP800  GLU811  SER814 

> <Gold.Protein.RotatedAtoms>
  152.1423  133.4471  159.4772 H   0  0  0  0  0  0  0  0  0  0  0  0  # atno 6907 bound_to 6896
  150.6887  134.2291  159.4436 H   0  0  0  0  0  0  0  0  0  0  0  0  # atno 6908 bound_to 6896
  152.0182  134.9837  160.0620 H   0  0  0  0  0  0  0  0  0  0  0  0  # atno 6909 bound_to 6896
  146.1563  139.6684  142.9064 H   0  0  0  0  0  0  0  0  0  0  0  0  # atno 7974 bound_to 7965
  154.4243  140.1786  156.1439 H   0  0  0  0  0  0  0  0  0  0  0  0  # atno 8008 bound_to 7997
  155.9970  140.3363  155.6783 H   0  0  0  0  0  0  0  0  0  0  0  0  # atno 8009 bound_to 7997
  155.6295  140.0668  157.2644 H   0  0  0  0  0  0  0  0  0  0  0  0  # atno 8010 bound_to 7997
  140.7271  143.4790  151.0143 H   0  0  0  0  0  0  0  0  0  0  0  0  # atno 10167 bound_to 10162
  157.6771  131.0780  150.5563 H   0  0  0  0  0  0  0  0  0  0  0  0  # atno 10718 bound_to 10713
  154.4015  135.2755  155.2093 H   0  0  0  0  0  0  0  0  0  0  0  0  # atno 10763 bound_to 10752
  154.4117  135.6021  153.5960 H   0  0  0  0  0  0  0  0  0  0  0  0  # atno 10764 bound_to 10752
  152.9831  135.5951  154.4284 H   0  0  0  0  0  0  0  0  0  0  0  0  # atno 10765 bound_to 10752
  140.1462  134.4520  155.8414 H   0  0  0  0  0  0  0  0  0  0  0  0  # atno 11005 bound_to 11000
  145.4700  141.0436  143.2704 LP  0  0  0  0  0  0  0  0  0  0  0  0  # atno 17320 bound_to 7965
  144.7968  139.6219  143.7089 LP  0  0  0  0  0  0  0  0  0  0  0  0  # atno 17321 bound_to 7965
  139.8487  143.7466  152.3178 LP  0  0  0  0  0  0  0  0  0  0  0  0  # atno 17342 bound_to 10162
  139.7641  144.7497  151.0320 LP  0  0  0  0  0  0  0  0  0  0  0  0  # atno 17343 bound_to 10162
  156.5866  130.4318  149.5954 LP  0  0  0  0  0  0  0  0  0  0  0  0  # atno 17370 bound_to 10713
  156.2617  130.6966  151.1737 LP  0  0  0  0  0  0  0  0  0  0  0  0  # atno 17371 bound_to 10713
  141.2193  133.6853  156.7338 LP  0  0  0  0  0  0  0  0  0  0  0  0  # atno 17394 bound_to 11000
  140.2661  134.8429  157.3804 LP  0  0  0  0  0  0  0  0  0  0  0  0  # atno 17395 bound_to 11000

$$$$
