#       Name:                AV-unprocessed.smi:1102
#       Creating user name   scv26
#       Creation time:       Fri Mar 27 03:30:48 2020


#       File generated by GOLD software.
#

@<TRIPOS>MOLECULE
AV-unprocessed.smi:1102
    44    45     1
SMALL
NO_CHARGES


@<TRIPOS>ATOM
      1 ****        -5.6801  -1.7173  -0.1375 C.3            1 S1                 0.0000
      2 ****        -4.9584  -1.2560  -1.3183 N.pl3          1 S1                 0.0000
      3 ****        -5.6754  -0.9700  -2.5540 C.3            1 S1                 0.0000
      4 ****        -3.5563  -1.1003  -1.2668 C.ar           1 S1                 0.0000
      5 ****        -2.7797  -0.6880  -2.3773 C.ar           1 S1                 0.0000
      6 ****        -1.3822  -0.5556  -2.2457 C.ar           1 S1                 0.0000
      7 ****        -0.7633  -0.8258  -1.0074 C.ar           1 S1                 0.0000
      8 ****         0.6499  -0.6906  -0.9293 N.am           1 S1                 0.0000
      9 ****         1.4261  -0.5980   0.1643 C.2            1 S1                 0.0000
     10 ****         1.0205  -0.5889   1.3260 O.2            1 S1                 0.0000
     11 ****         2.7202  -0.4941  -0.1693 N.am           1 S1                 0.0000
     12 ****         3.8292  -0.3607   0.7706 C.3            1 S1                 0.0000
     13 ****         4.2461   1.1077   0.9599 C.3            1 S1                 0.0000
     14 ****         3.2068   1.9964   1.6444 C.3            1 S1                 0.0000
     15 ****         4.0755   3.0953   2.2112 C.3            1 S1                 0.0000
     16 ****         5.3087   2.3163   2.6596 C.3            1 S1                 0.0000
     17 ****         5.3999   1.1877   1.7927 O.3            1 S1                 0.0000
     18 ****        -1.5805  -1.2445   0.0695 C.ar           1 S1                 0.0000
     19 ****        -2.9154  -1.3596  -0.1011 N.pl3          1 S1                 1.0000
     20 ****        -5.3198  -2.6990   0.1718 H              1 S1                 0.0000
     21 ****        -6.7494  -1.8011  -0.3324 H              1 S1                 0.0000
     22 ****        -5.5453  -1.0207   0.6907 H              1 S1                 0.0000
     23 ****        -5.3397  -1.6307  -3.3539 H              1 S1                 0.0000
     24 ****        -5.5124   0.0632  -2.8621 H              1 S1                 0.0000
     25 ****        -6.7490  -1.1138  -2.4314 H              1 S1                 0.0000
     26 ****        -3.2331  -0.4720  -3.3332 H              1 S1                 0.0000
     27 ****        -0.7917  -0.2434  -3.0949 H              1 S1                 0.0000
     28 ****         1.1274  -0.6146  -1.8156 H              1 S1                 0.0000
     29 ****         2.9607  -0.5059  -1.1498 H              1 S1                 0.0000
     30 ****         3.5892  -0.8180   1.7320 H              1 S1                 0.0000
     31 ****         4.6706  -0.9252   0.3686 H              1 S1                 0.0000
     32 ****         4.5123   1.5458  -0.0035 H              1 S1                 0.0000
     33 ****         2.4416   2.3643   0.9604 H              1 S1                 0.0000
     34 ****         2.7126   1.4582   2.4545 H              1 S1                 0.0000
     35 ****         4.3422   3.8039   1.4259 H              1 S1                 0.0000
     36 ****         3.5995   3.6459   3.0230 H              1 S1                 0.0000
     37 ****         6.2156   2.9204   2.6240 H              1 S1                 0.0000
     38 ****         5.1816   1.9570   3.6815 H              1 S1                 0.0000
     39 ****        -1.2289  -1.5041   1.0563 H              1 S1                 0.0000
     40 ****        -3.4739  -1.6627   0.6970 H              1 S1                 0.0000
     41 ****         0.0404  -0.6538   1.5139 LP             1 S1                 0.0000
     42 ****         1.6709  -0.5167   2.0821 LP             1 S1                 0.0000
     43 ****         6.2145   1.2771   1.2197 LP             1 S1                 0.0000
     44 ****         5.4684   0.3548   2.3419 LP             1 S1                 0.0000
@<TRIPOS>BOND
    1    1    2 1     
    2    1   20 1     
    3    1   21 1     
    4    1   22 1     
    5    2    3 1     
    6    2    4 1     
    7    3   23 1     
    8    3   24 1     
    9    3   25 1     
   10    4   19 ar    
   11    4    5 ar    
   12    5    6 ar    
   13    5   26 1     
   14    6    7 ar    
   15    6   27 1     
   16    7    8 1     
   17    7   18 ar    
   18    8    9 am    
   19    8   28 1     
   20    9   10 2     
   21    9   11 am    
   22   11   12 1     
   23   11   29 1     
   24   12   13 1     
   25   12   30 1     
   26   12   31 1     
   27   13   17 1     
   28   13   14 1     
   29   13   32 1     
   30   14   15 1     
   31   14   33 1     
   32   14   34 1     
   33   15   16 1     
   34   15   35 1     
   35   15   36 1     
   36   16   17 1     
   37   16   37 1     
   38   16   38 1     
   39   18   19 ar    
   40   18   39 1     
   41   19   40 1     
   42   10   41 1     
   43   10   42 1     
   44   17   43 1     
   45   17   44 1     
@<TRIPOS>SUBSTRUCTURE
      1 S1             1
@<TRIPOS>SET
LONE_PAIRS      STATIC     ATOMS    <user>   **** ""
4 41 42 43 44
DONOR_HYDROGENS      STATIC     ATOMS    <user>   **** ""
3 28 29 40
ATOM$BLUE        STATIC     ATOMS    COLORGROUP SYSTEM
4 41 42 43 44
ATOM$RED        STATIC     ATOMS    COLORGROUP SYSTEM
3 28 29 40
