AV-unprocessed.smi:1880|AV-procd|sdf|7638|dock9
  -GOLD-   22720 9363D 1   1.00000     0.00000
 Structure written by MMmdl.
 37 39  0  0  0  0  0  0  0  0  2 V2000
  152.6481  138.1009  155.4542 O   0  0  0  0  0  0  0  0  0  0  0  0
  152.1406  139.4095  155.6277 C   0  0  1  0  0  0  0  0  0  0  0  0
  150.9436  139.5963  154.6831 C   0  0  0  0  0  0  0  0  0  0  0  0
  149.9043  138.7227  155.0902 O   0  0  0  0  0  0  0  0  0  0  0  0
  148.8330  138.6677  154.1617 C   0  0  0  0  0  0  0  0  0  0  0  0
  148.1452  139.9954  154.1812 C   0  0  0  0  0  0  0  0  0  0  0  0
  147.1402  140.5349  153.4261 C   0  0  0  0  0  0  0  0  0  0  0  0
  146.9092  141.8424  153.9361 C   0  0  0  0  0  0  0  0  0  0  0  0
  147.7850  142.0025  154.9716 C   0  0  0  0  0  0  0  0  0  0  0  0
  148.5435  140.8850  155.1370 O   0  0  0  0  0  0  0  0  0  0  0  0
  151.7465  139.5975  157.1061 C   0  0  0  0  0  0  0  0  0  0  0  0
  151.3744  140.9830  157.4227 N   0  0  0  0  0  0  0  0  0  0  0  0
  150.5693  141.8481  156.7481 C   0  0  0  0  0  0  0  0  0  0  0  0
  150.5326  143.0114  157.4556 N   0  3  0  0  0  0  0  0  0  0  0  0
  151.3259  142.8873  158.5988 C   0  0  0  0  0  0  0  0  0  0  0  0
  151.6020  143.7897  159.6209 C   0  0  0  0  0  0  0  0  0  0  0  0
  152.4566  143.3421  160.6499 C   0  0  0  0  0  0  0  0  0  0  0  0
  152.7582  144.1807  161.6692 F   0  0  0  0  0  0  0  0  0  0  0  0
  153.0016  142.0405  160.6376 C   0  0  0  0  0  0  0  0  0  0  0  0
  153.8170  141.6509  161.6457 F   0  0  0  0  0  0  0  0  0  0  0  0
  152.7143  141.1339  159.5956 C   0  0  0  0  0  0  0  0  0  0  0  0
  151.8697  141.5859  158.5832 C   0  0  0  0  0  0  0  0  0  0  0  0
  152.6609  137.6729  156.2972 H   0  0  0  0  0  0  0  0  0  0  0  0
  152.9214  140.1266  155.3715 H   0  0  0  0  0  0  0  0  0  0  0  0
  150.6110  140.6360  154.6669 H   0  0  0  0  0  0  0  0  0  0  0  0
  151.2322  139.3322  153.6643 H   0  0  0  0  0  0  0  0  0  0  0  0
  149.2078  138.4533  153.1599 H   0  0  0  0  0  0  0  0  0  0  0  0
  148.1299  137.8798  154.4345 H   0  0  0  0  0  0  0  0  0  0  0  0
  146.6347  140.0484  152.6048 H   0  0  0  0  0  0  0  0  0  0  0  0
  146.1914  142.5720  153.5913 H   0  0  0  0  0  0  0  0  0  0  0  0
  147.9906  142.8058  155.6636 H   0  0  0  0  0  0  0  0  0  0  0  0
  150.9141  138.9467  157.3766 H   0  0  0  0  0  0  0  0  0  0  0  0
  152.5776  139.3244  157.7583 H   0  0  0  0  0  0  0  0  0  0  0  0
  150.0487  141.6451  155.8232 H   0  0  0  0  0  0  0  0  0  0  0  0
  151.1864  144.7864  159.6350 H   0  0  0  0  0  0  0  0  0  0  0  0
  153.1349  140.1393  159.5959 H   0  0  0  0  0  0  0  0  0  0  0  0
  150.0015  143.8266  157.1769 H   0  0  0  0  0  0  0  0  0  0  0  0
  1  2  1  0  0  0  0
  1 23  1  0  0  0  0
  2  3  1  0  0  0  0
  2 11  1  0  0  0  0
  2 24  1  0  0  0  0
  3  4  1  0  0  0  0
  3 25  1  0  0  0  0
  3 26  1  0  0  0  0
  4  5  1  0  0  0  0
  5  6  1  0  0  0  0
  5 27  1  0  0  0  0
  5 28  1  0  0  0  0
  6 10  1  0  0  0  0
  6  7  2  0  0  0  0
  7  8  1  0  0  0  0
  7 29  1  0  0  0  0
  8  9  2  0  0  0  0
  8 30  1  0  0  0  0
  9 10  1  0  0  0  0
  9 31  1  0  0  0  0
 11 12  1  0  0  0  0
 11 32  1  0  0  0  0
 11 33  1  0  0  0  0
 12 22  1  0  0  0  0
 12 13  1  0  0  0  0
 13 14  2  0  0  0  0
 13 34  1  0  0  0  0
 14 15  1  0  0  0  0
 14 37  1  0  0  0  0
 15 22  2  0  0  0  0
 15 16  1  0  0  0  0
 16 17  2  0  0  0  0
 16 35  1  0  0  0  0
 17 18  1  0  0  0  0
 17 19  1  0  0  0  0
 19 20  1  0  0  0  0
 19 21  2  0  0  0  0
 21 22  1  0  0  0  0
 21 36  1  0  0  0  0
M  CHG  1  14   1
M  END
> <s_m_source_file>
AV-unprocessed.smi

> <i_m_source_file_index>
1880

> <i_lp_mmshare_version>
43012

> <i_f3d_flags>
0

> <s_epik_input>
W2NIXTFjKEYpYyhGKVtjSF1jKGMxMiluKFtjSF1uMilbQ0gyXVtDQEhdKFtPSF0pW0NIMl1PW0NIMl1jM1tjSF1bY0hdW2NIXW8z

> <s_epik_cmdline>
J2VwaWtfcHl0aG9uJywgJy1waCcsICc3LjAnLCAnLXRuJywgJzgnLCAnLW1hJywgJzIwMCcsICctbWV0YWxfYmluZGluZycsICctaW1hZScsICc8aW5maWxlLm1hZT4nLCAnLW9tYWUnLCAnPG91dGZpbGUubWFlPic=

> <r_epik_Ionization_Penalty>
2.17656

> <r_epik_Ionization_Penalty_Charging>
2.17656

> <r_epik_Ionization_Penalty_Neutral>
9.34185e-07

> <r_epik_State_Penalty>
2.31826

> <r_epik_Charging_Adjusted_Penalty>
4.49482

> <i_epik_Tot_Q>
1

> <i_epik_Tot_abs_Q>
1

> <r_epik_Metal_State_Penalty>
6.39906

> <b_epik_Metal_Only>
0

> <s_lp_Force_Field>
OPLS_2005

> <r_lp_Energy>
11.8532

> <b_lp_Chiralities_Consistent>
1

> <s_lp_Variant>
AV-unprocessed.smi:1880-4

> <Gold.Version>
5.8.1

> <Gold.Id.Protein>
6NUR|6NUR_protein|mol2

> <Gold.PLP.Fitness>
54.8859

> <Gold.PLP.PLP>
-46.5010

> <Gold.PLP.part.hbond>
-1.0703

> <Gold.PLP.part.metal>
0.0000

> <Gold.PLP.part.buried>
-2.9442

> <Gold.PLP.part.nonpolar>
-42.1503

> <Gold.PLP.part.repulsive>
0.2219

> <Gold.PLP.ligand.clash>
0.0000

> <Gold.PLP.ligand.torsion>
0.3131

> <Gold.PLP.Chemscore.Hbond>
1.9840

> <Gold.PLP.Chemscore.CHOScore>
1.0000

> <Gold.PLP.Chemscore.Metal>
0.0000

> <Gold.Chemscore.Hbonds>
donor molecule, donor type, donor heavy atom, donor atom, acceptor molecule, acceptor atom, score
      L1  H    14    37       P1  8028  1.72
      L1  C     9    31       P1  8028  1.00

> <Gold.PLP.Chemscore.Internal.Correction>
0.0591

> <Gold.Rescore>
     Score         DG    S(hbond)    S(metal)    S(lipo)     H(rot)  DE(clash)    DE(int)     intcor
     11.74     -14.27       0.99        0.00     111.01       2.94       0.77       1.76       ----

> <Gold.Chemscore.Fitness>
11.7440

> <Gold.Chemscore.DG>
-14.2714

> <Gold.Chemscore.ZeroCoef>
-5.4800

> <Gold.Chemscore.Hbond>
0.9944

> <Gold.Chemscore.Metal>
0.0000

> <Gold.Chemscore.Lipo>
111.0133

> <Gold.Chemscore.Internal_Hbond>
0.0000

> <Gold.Chemscore.DEClash>
0.7661

> <Gold.Chemscore.DEInternal>
1.7613

> <Gold.Chemscore.Rot>
2.9369

> <Gold.Chemscore.Internal.Correction>
   9.000000E+99

> <Gold.Chemscore.Hbonds>
donor molecule, donor type, donor heavy atom, donor atom, acceptor molecule, acceptor atom, score
      L1  H    14    37       P1  8028  0.73

> <Gold.Chemscore.Hbond.Weighted>
-3.3214

> <Gold.Chemscore.Metal.Weighted>
-0.0000

> <Gold.Chemscore.Lipo.Weighted>
-12.9886

> <Gold.Chemscore.Internal_Hbond.Weighted>
0.0000

> <Gold.Chemscore.DEClash.Weighted>
0.7661

> <Gold.Chemscore.DEInternal.Weighted>
1.7613

> <Gold.Chemscore.Rot.Weighted>
7.5185

> <Gold.Chemscore.Internal.Correction.Weighted>
   9.000000E+99

> <Gold.Protein.RotatedTorsions>
[ 6907 6896 6895 6894 ] final  115.80 input  -60.11 | X-H torsion
[ 7974 7965 7964 7962 ] final  -57.53 input  175.53 | X-H torsion
[ 8008 7997 7996 7995 ] final -139.31 input   59.86 | X-H torsion
[ 10167 10162 10161 10158 ] final -150.73 input  -65.29 | X-H torsion
[ 10718 10713 10712 10709 ] final -125.99 input   66.30 | X-H torsion
[ 10763 10752 10751 10750 ] final -128.49 input  -60.55 | X-H torsion
[ 11005 11000 10999 10996 ] final   94.05 input  -57.11 | X-H torsion

> <Gold.Protein.ActiveResidues>
 VAL166  LYS551  ARG553  GLY616  TRP617  ASP618  TYR619  PRO620  LYS621  CYS622 
 ASP623  PHE694  ASN695  SER759  ASP760  ASP761  ALA762  ILE779  LEU786  VAL792 
 PHE793  MET794  SER795  GLU796  ALA797  LYS798  CYS799  TRP800  GLU811  SER814 

> <Gold.Protein.RotatedAtoms>
  152.4718  133.8048  159.6971 H   0  0  0  0  0  0  0  0  0  0  0  0  # atno 6907 bound_to 6896
  150.8712  133.7493  159.2967 H   0  0  0  0  0  0  0  0  0  0  0  0  # atno 6908 bound_to 6896
  151.5027  135.1065  159.9885 H   0  0  0  0  0  0  0  0  0  0  0  0  # atno 6909 bound_to 6896
  145.8500  140.8359  142.9991 H   0  0  0  0  0  0  0  0  0  0  0  0  # atno 7974 bound_to 7965
  155.4427  140.0533  157.3009 H   0  0  0  0  0  0  0  0  0  0  0  0  # atno 8008 bound_to 7997
  154.4811  140.2082  155.9718 H   0  0  0  0  0  0  0  0  0  0  0  0  # atno 8009 bound_to 7997
  156.1207  140.3189  155.8209 H   0  0  0  0  0  0  0  0  0  0  0  0  # atno 8010 bound_to 7997
  139.7329  143.8781  152.2540 H   0  0  0  0  0  0  0  0  0  0  0  0  # atno 10167 bound_to 10162
  156.1724  130.6677  151.0198 H   0  0  0  0  0  0  0  0  0  0  0  0  # atno 10718 bound_to 10713
  154.8756  135.3927  154.3765 H   0  0  0  0  0  0  0  0  0  0  0  0  # atno 10763 bound_to 10752
  153.4518  135.7028  153.6109 H   0  0  0  0  0  0  0  0  0  0  0  0  # atno 10764 bound_to 10752
  153.4646  135.3804  155.2326 H   0  0  0  0  0  0  0  0  0  0  0  0  # atno 10765 bound_to 10752
  139.8803  134.8824  156.3807 H   0  0  0  0  0  0  0  0  0  0  0  0  # atno 11005 bound_to 11000
  144.6729  140.0938  143.7464 LP  0  0  0  0  0  0  0  0  0  0  0  0  # atno 17320 bound_to 7965
  145.9369  139.2643  143.1292 LP  0  0  0  0  0  0  0  0  0  0  0  0  # atno 17321 bound_to 7965
  139.8709  144.7069  150.8989 LP  0  0  0  0  0  0  0  0  0  0  0  0  # atno 17342 bound_to 10162
  140.7774  143.3739  151.1599 LP  0  0  0  0  0  0  0  0  0  0  0  0  # atno 17343 bound_to 10162
  157.6812  131.0837  150.7364 LP  0  0  0  0  0  0  0  0  0  0  0  0  # atno 17370 bound_to 10713
  156.7423  130.4743  149.5475 LP  0  0  0  0  0  0  0  0  0  0  0  0  # atno 17371 bound_to 10713
  140.9401  133.7520  156.0135 LP  0  0  0  0  0  0  0  0  0  0  0  0  # atno 17394 bound_to 11000
  140.8230  134.3267  157.5375 LP  0  0  0  0  0  0  0  0  0  0  0  0  # atno 17395 bound_to 11000

$$$$
