AV-unprocessed.smi:2537|AV-procd|sdf|9980|dock1
  -GOLD-   2272014 23D 1   1.00000     0.00000
 Structure written by MMmdl.
 17 17  0  0  0  0  0  0  0  0  2 V2000
  147.5511  138.4351  151.6400 N   0  0  0  0  0  0  0  0  0  0  0  0
  147.0337  138.5399  152.8663 C   0  0  0  0  0  0  0  0  0  0  0  0
  146.2426  137.7090  153.3105 O   0  0  0  0  0  0  0  0  0  0  0  0
  147.4798  139.7538  153.6921 C   0  0  0  0  0  0  0  0  0  0  0  0
  148.8499  139.6453  154.1659 N   0  0  0  0  0  0  0  0  0  0  0  0
  149.6263  138.5124  154.2983 C   0  0  0  0  0  0  0  0  0  0  0  0
  150.8128  138.9931  154.7777 C   0  0  0  0  0  0  0  0  0  0  0  0
  152.0222  138.1917  155.1031 C   0  0  0  0  0  0  0  0  0  0  0  0
  153.0473  138.7801  155.5139 O   0  0  0  0  0  0  0  0  0  0  0  0
  151.9892  136.9496  154.9584 O   0  5  0  0  0  0  0  0  0  0  0  0
  150.7082  140.3787  154.9167 N   0  0  0  0  0  0  0  0  0  0  0  0
  149.5255  140.7571  154.5453 N   0  0  0  0  0  0  0  0  0  0  0  0
  147.2904  137.6557  151.0533 H   0  0  0  0  0  0  0  0  0  0  0  0
  148.1983  139.1326  151.3027 H   0  0  0  0  0  0  0  0  0  0  0  0
  147.3798  140.6606  153.0936 H   0  0  0  0  0  0  0  0  0  0  0  0
  146.8241  139.8647  154.5566 H   0  0  0  0  0  0  0  0  0  0  0  0
  149.2903  137.5165  154.0510 H   0  0  0  0  0  0  0  0  0  0  0  0
  1  2  1  0  0  0  0
  1 13  1  0  0  0  0
  1 14  1  0  0  0  0
  2  3  2  0  0  0  0
  2  4  1  0  0  0  0
  4  5  1  0  0  0  0
  4 15  1  0  0  0  0
  4 16  1  0  0  0  0
  5 12  1  0  0  0  0
  5  6  1  0  0  0  0
  6  7  2  0  0  0  0
  6 17  1  0  0  0  0
  7  8  1  0  0  0  0
  7 11  1  0  0  0  0
  8  9  2  0  0  0  0
  8 10  1  0  0  0  0
 11 12  2  0  0  0  0
M  CHG  1  10  -1
M  END
> <s_m_source_file>
AV-unprocessed.smi

> <i_m_source_file_index>
2537

> <i_lp_mmshare_version>
43012

> <i_f3d_flags>
0

> <s_epik_input>
W05IMl1DKD1PKVtDSDJdbjFbY0hdYyhubjEpQyg9TylbT0hd

> <s_epik_cmdline>
J2VwaWtfcHl0aG9uJywgJy1waCcsICc3LjAnLCAnLXRuJywgJzgnLCAnLW1hJywgJzIwMCcsICctbWV0YWxfYmluZGluZycsICctaW1hZScsICc8aW5maWxlLm1hZT4nLCAnLW9tYWUnLCAnPG91dGZpbGUubWFlPic=

> <r_epik_Ionization_Penalty>
0.000900147

> <r_epik_Ionization_Penalty_Charging>
0.00089877

> <r_epik_Ionization_Penalty_Neutral>
1.37672e-06

> <r_epik_State_Penalty>
0.000581682

> <r_epik_Charging_Adjusted_Penalty>
0.00148045

> <i_epik_Tot_Q>
-1

> <i_epik_Tot_abs_Q>
1

> <r_epik_Metal_State_Penalty>
-0

> <b_epik_Metal_Only>
0

> <s_lp_Force_Field>
OPLS_2005

> <r_lp_Energy>
4.32314

> <b_lp_Chiralities_Consistent>
1

> <s_lp_Variant>
AV-unprocessed.smi:2537-1

> <Gold.Version>
5.8.1

> <Gold.Id.Protein>
6NUR|6NUR_protein|mol2

> <Gold.PLP.Fitness>
41.5424

> <Gold.PLP.PLP>
-21.4283

> <Gold.PLP.part.hbond>
-5.9739

> <Gold.PLP.part.metal>
0.0000

> <Gold.PLP.part.buried>
-3.8857

> <Gold.PLP.part.nonpolar>
-14.1799

> <Gold.PLP.part.repulsive>
1.3784

> <Gold.PLP.ligand.clash>
0.0000

> <Gold.PLP.ligand.torsion>
0.4207

> <Gold.PLP.Chemscore.Hbond>
5.9840

> <Gold.PLP.Chemscore.CHOScore>
1.0000

> <Gold.PLP.Chemscore.Metal>
0.0000

> <Gold.Chemscore.Hbonds>
donor molecule, donor type, donor heavy atom, donor atom, acceptor molecule, acceptor atom, score
      L1  H     1    14       P1  7957  1.00
      P1  H  7989  7998       L1    11  0.95
      P1  H  7997  8008       L1     9  2.00
      P1  H 10752 10765       L1    10  1.95
      L1  C     6    17       P1  7948  0.98

> <Gold.PLP.Chemscore.Internal.Correction>
0.0036

> <Gold.Rescore>
     Score         DG    S(hbond)    S(metal)    S(lipo)     H(rot)  DE(clash)    DE(int)     intcor
     12.87     -13.27       2.94        0.00      19.83       1.70       0.05       0.36       ----

> <Gold.Chemscore.Fitness>
12.8723

> <Gold.Chemscore.DG>
-13.2741

> <Gold.Chemscore.ZeroCoef>
-5.4800

> <Gold.Chemscore.Hbond>
2.9403

> <Gold.Chemscore.Metal>
0.0000

> <Gold.Chemscore.Lipo>
19.8292

> <Gold.Chemscore.Internal_Hbond>
0.0000

> <Gold.Chemscore.DEClash>
0.0456

> <Gold.Chemscore.DEInternal>
0.3562

> <Gold.Chemscore.Rot>
1.6979

> <Gold.Chemscore.Internal.Correction>
   9.000000E+99

> <Gold.Chemscore.Hbonds>
donor molecule, donor type, donor heavy atom, donor atom, acceptor molecule, acceptor atom, score
      L1  H     1    13       P1  7948  0.01
      L1  H     1    14       P1  7957  0.65
      P1  H  7989  7998       L1    11  0.05
      P1  H  7997  8008       L1     9  0.95
      P1  H 10752 10765       L1    10  0.92

> <Gold.Chemscore.Hbond.Weighted>
-9.8207

> <Gold.Chemscore.Metal.Weighted>
-0.0000

> <Gold.Chemscore.Lipo.Weighted>
-2.3200

> <Gold.Chemscore.Internal_Hbond.Weighted>
0.0000

> <Gold.Chemscore.DEClash.Weighted>
0.0456

> <Gold.Chemscore.DEInternal.Weighted>
0.3562

> <Gold.Chemscore.Rot.Weighted>
4.3467

> <Gold.Chemscore.Internal.Correction.Weighted>
   9.000000E+99

> <Gold.Protein.RotatedTorsions>
[ 6907 6896 6895 6894 ] final   27.71 input  -60.11 | X-H torsion
[ 7974 7965 7964 7962 ] final  -18.54 input  175.53 | X-H torsion
[ 8008 7997 7996 7995 ] final  -32.53 input   59.86 | X-H torsion
[ 10167 10162 10161 10158 ] final -172.85 input  -65.29 | X-H torsion
[ 10718 10713 10712 10709 ] final  129.16 input   66.30 | X-H torsion
[ 10763 10752 10751 10750 ] final  168.40 input  -60.55 | X-H torsion
[ 11005 11000 10999 10996 ] final  -96.31 input  -57.11 | X-H torsion

> <Gold.Protein.ActiveResidues>
 VAL166  LYS551  ARG553  GLY616  TRP617  ASP618  TYR619  PRO620  LYS621  CYS622 
 ASP623  PHE694  ASN695  SER759  ASP760  ASP761  ALA762  ILE779  LEU786  VAL792 
 PHE793  MET794  SER795  GLU796  ALA797  LYS798  CYS799  TRP800  GLU811  SER814 

> <Gold.Protein.RotatedAtoms>
  152.0063  134.9901  160.0566 H   0  0  0  0  0  0  0  0  0  0  0  0  # atno 6907 bound_to 6896
  152.1471  133.4494  159.4803 H   0  0  0  0  0  0  0  0  0  0  0  0  # atno 6908 bound_to 6896
  150.6871  134.2152  159.4418 H   0  0  0  0  0  0  0  0  0  0  0  0  # atno 6909 bound_to 6896
  146.1887  140.3935  142.8466 H   0  0  0  0  0  0  0  0  0  0  0  0  # atno 7974 bound_to 7965
  154.4177  140.1735  156.1742 H   0  0  0  0  0  0  0  0  0  0  0  0  # atno 8008 bound_to 7997
  155.9736  140.3383  155.6574 H   0  0  0  0  0  0  0  0  0  0  0  0  # atno 8009 bound_to 7997
  155.6593  140.0699  157.2550 H   0  0  0  0  0  0  0  0  0  0  0  0  # atno 8010 bound_to 7997
  139.5721  144.1617  152.1399 H   0  0  0  0  0  0  0  0  0  0  0  0  # atno 10167 bound_to 10162
  157.5179  131.1098  150.9197 H   0  0  0  0  0  0  0  0  0  0  0  0  # atno 10718 bound_to 10713
  154.3680  135.2753  155.2283 H   0  0  0  0  0  0  0  0  0  0  0  0  # atno 10763 bound_to 10752
  154.4442  135.5947  153.6153 H   0  0  0  0  0  0  0  0  0  0  0  0  # atno 10764 bound_to 10752
  152.9840  135.6026  154.3907 H   0  0  0  0  0  0  0  0  0  0  0  0  # atno 10765 bound_to 10752
  141.1415  133.8088  157.0553 H   0  0  0  0  0  0  0  0  0  0  0  0  # atno 11005 bound_to 11000
  144.8445  140.6908  143.6208 LP  0  0  0  0  0  0  0  0  0  0  0  0  # atno 17320 bound_to 7965
  145.3859  139.1627  143.4255 LP  0  0  0  0  0  0  0  0  0  0  0  0  # atno 17321 bound_to 7965
  140.1152  144.5422  150.6898 LP  0  0  0  0  0  0  0  0  0  0  0  0  # atno 17342 bound_to 10162
  140.7005  143.2432  151.4877 LP  0  0  0  0  0  0  0  0  0  0  0  0  # atno 17343 bound_to 10162
  156.9817  130.5529  149.5297 LP  0  0  0  0  0  0  0  0  0  0  0  0  # atno 17370 bound_to 10713
  156.0333  130.5423  150.8590 LP  0  0  0  0  0  0  0  0  0  0  0  0  # atno 17371 bound_to 10713
  140.0606  134.9757  157.1297 LP  0  0  0  0  0  0  0  0  0  0  0  0  # atno 17394 bound_to 11000
  140.3855  134.2241  155.7168 LP  0  0  0  0  0  0  0  0  0  0  0  0  # atno 17395 bound_to 11000

$$$$
