AV-unprocessed.smi:676|AV-procd|sdf|3307|dock9
  -GOLD-   22720 0273D 1   1.00000     0.00000
 Structure written by MMmdl.
 42 43  0  0  0  0  0  0  0  0  1 V2000
  146.2084  141.8384  156.7035 C   0  0  0  0  0  0  0  0  0  0  0  0
  147.4727  141.7955  156.0527 O   0  0  0  0  0  0  0  0  0  0  0  0
  147.4821  141.5229  154.6451 C   0  0  1  0  0  0  0  0  0  0  0  0
  146.4236  142.3754  153.9330 C   0  0  0  0  0  0  0  0  0  0  0  0
  148.9282  141.5139  154.1119 C   0  0  0  0  0  0  0  0  0  0  0  0
  149.0165  140.0270  154.4666 C   0  0  1  0  0  0  0  0  0  0  0  0
  149.5885  139.8211  155.7965 N   0  0  0  0  0  0  0  0  0  0  0  0
  150.8711  140.0324  156.1206 C   0  0  0  0  0  0  0  0  0  0  0  0
  151.7123  140.4397  155.3186 O   0  0  0  0  0  0  0  0  0  0  0  0
  151.2487  139.7654  157.5836 C   0  0  0  0  0  0  0  0  0  0  0  0
  151.7250  140.9715  158.2799 N   0  0  0  0  0  0  0  0  0  0  0  0
  150.8834  142.1017  158.2582 C   0  0  0  0  0  0  0  0  0  0  0  0
  151.2241  143.2518  158.8606 C   0  0  0  0  0  0  0  0  0  0  0  0
  152.4927  143.3131  159.5475 C   0  0  0  0  0  0  0  0  0  0  0  0
  153.3069  142.2392  159.5706 C   0  0  0  0  0  0  0  0  0  0  0  0
  152.9411  140.9816  158.9083 C   0  0  0  0  0  0  0  0  0  0  0  0
  153.6816  139.9976  158.9198 O   0  0  0  0  0  0  0  0  0  0  0  0
  147.4669  139.9723  154.4419 C   0  0  0  0  0  0  0  0  0  0  0  0
  146.7548  139.1308  155.5141 C   0  0  0  0  0  0  0  0  0  0  0  0
  146.9016  139.4810  153.1007 C   0  0  0  0  0  0  0  0  0  0  0  0
  146.3457  142.2084  157.7194 H   0  0  0  0  0  0  0  0  0  0  0  0
  145.7619  140.8472  156.7809 H   0  0  0  0  0  0  0  0  0  0  0  0
  145.5038  142.5024  156.2039 H   0  0  0  0  0  0  0  0  0  0  0  0
  146.3378  142.1193  152.8777 H   0  0  0  0  0  0  0  0  0  0  0  0
  146.6651  143.4374  153.9654 H   0  0  0  0  0  0  0  0  0  0  0  0
  145.4397  142.2412  154.3828 H   0  0  0  0  0  0  0  0  0  0  0  0
  148.9774  141.6843  153.0354 H   0  0  0  0  0  0  0  0  0  0  0  0
  149.6407  142.1523  154.6339 H   0  0  0  0  0  0  0  0  0  0  0  0
  149.4824  139.4237  153.6853 H   0  0  0  0  0  0  0  0  0  0  0  0
  148.9588  139.5005  156.5181 H   0  0  0  0  0  0  0  0  0  0  0  0
  150.3747  139.3517  158.0882 H   0  0  0  0  0  0  0  0  0  0  0  0
  152.0046  138.9790  157.6339 H   0  0  0  0  0  0  0  0  0  0  0  0
  149.9568  141.9753  157.7173 H   0  0  0  0  0  0  0  0  0  0  0  0
  150.5687  144.1096  158.8286 H   0  0  0  0  0  0  0  0  0  0  0  0
  152.7902  144.2243  160.0452 H   0  0  0  0  0  0  0  0  0  0  0  0
  154.2521  142.3031  160.0895 H   0  0  0  0  0  0  0  0  0  0  0  0
  146.9527  138.0667  155.3809 H   0  0  0  0  0  0  0  0  0  0  0  0
  145.6741  139.2710  155.4757 H   0  0  0  0  0  0  0  0  0  0  0  0
  147.0676  139.3832  156.5270 H   0  0  0  0  0  0  0  0  0  0  0  0
  147.1014  138.4197  152.9495 H   0  0  0  0  0  0  0  0  0  0  0  0
  147.3434  140.0074  152.2541 H   0  0  0  0  0  0  0  0  0  0  0  0
  145.8218  139.6213  153.0412 H   0  0  0  0  0  0  0  0  0  0  0  0
  1  2  1  0  0  0  0
  1 21  1  0  0  0  0
  1 22  1  0  0  0  0
  1 23  1  0  0  0  0
  2  3  1  0  0  0  0
  3 18  1  0  0  0  0
  3  4  1  0  0  0  0
  3  5  1  0  0  0  0
  4 24  1  0  0  0  0
  4 25  1  0  0  0  0
  4 26  1  0  0  0  0
  5  6  1  0  0  0  0
  5 27  1  0  0  0  0
  5 28  1  0  0  0  0
  6  7  1  0  0  0  0
  6 18  1  0  0  0  0
  6 29  1  0  0  0  0
  7  8  1  0  0  0  0
  7 30  1  0  0  0  0
  8  9  2  0  0  0  0
  8 10  1  0  0  0  0
 10 11  1  0  0  0  0
 10 31  1  0  0  0  0
 10 32  1  0  0  0  0
 11 16  1  0  0  0  0
 11 12  1  0  0  0  0
 12 13  2  0  0  0  0
 12 33  1  0  0  0  0
 13 14  1  0  0  0  0
 13 34  1  0  0  0  0
 14 15  2  0  0  0  0
 14 35  1  0  0  0  0
 15 16  1  0  0  0  0
 15 36  1  0  0  0  0
 16 17  2  0  0  0  0
 18 19  1  0  0  0  0
 18 20  1  0  0  0  0
 19 37  1  0  0  0  0
 19 38  1  0  0  0  0
 19 39  1  0  0  0  0
 20 40  1  0  0  0  0
 20 41  1  0  0  0  0
 20 42  1  0  0  0  0
M  END
> <s_m_source_file>
AV-unprocessed.smi

> <i_m_source_file_index>
676

> <i_lp_mmshare_version>
43012

> <i_f3d_flags>
0

> <s_epik_input>
W0NIM11PW0NAQF0xKFtDSDNdKVtDSDJdW0NASF0oQzEoW0NIM10pW0NIM10pW05IXUMoPU8pW0NIMl1uMltjSF1bY0hdW2NIXVtjSF1jMj1P

> <s_epik_cmdline>
J2VwaWtfcHl0aG9uJywgJy1waCcsICc3LjAnLCAnLXRuJywgJzgnLCAnLW1hJywgJzIwMCcsICctbWV0YWxfYmluZGluZycsICctaW1hZScsICc8aW5maWxlLm1hZT4nLCAnLW9tYWUnLCAnPG91dGZpbGUubWFlPic=

> <r_lp_tautomer_probability>
1

> <r_epik_Ionization_Penalty>
4.09771e-07

> <r_epik_Ionization_Penalty_Charging>
3.90712e-07

> <r_epik_Ionization_Penalty_Neutral>
1.90591e-08

> <r_epik_State_Penalty>
-0

> <r_epik_Charging_Adjusted_Penalty>
3.90712e-07

> <i_epik_Tot_Q>
0

> <i_epik_Tot_abs_Q>
0

> <r_epik_Metal_State_Penalty>
-0

> <b_epik_Metal_Only>
0

> <s_lp_Force_Field>
OPLS_2005

> <r_lp_Energy>
33.6273

> <b_lp_Chiralities_Consistent>
1

> <s_lp_Variant>
AV-unprocessed.smi:676-1

> <Gold.Version>
5.8.1

> <Gold.Id.Protein>
6NUR|6NUR_protein|mol2

> <Gold.PLP.Fitness>
40.7915

> <Gold.PLP.PLP>
-35.6971

> <Gold.PLP.part.hbond>
-2.0000

> <Gold.PLP.part.metal>
0.0000

> <Gold.PLP.part.buried>
-3.0625

> <Gold.PLP.part.nonpolar>
-31.0724

> <Gold.PLP.part.repulsive>
0.1906

> <Gold.PLP.ligand.clash>
0.0000

> <Gold.PLP.ligand.torsion>
0.3350

> <Gold.PLP.Chemscore.Hbond>
1.7920

> <Gold.PLP.Chemscore.CHOScore>
0.0000

> <Gold.PLP.Chemscore.Metal>
0.0000

> <Gold.Chemscore.Hbonds>
donor molecule, donor type, donor heavy atom, donor atom, acceptor molecule, acceptor atom, score
      P1  H  7989  7998       L1     9  0.80
      P1  H  7997  8009       L1    17  0.89

> <Gold.PLP.Chemscore.Internal.Correction>
0.3884

> <Gold.Rescore>
     Score         DG    S(hbond)    S(metal)    S(lipo)     H(rot)  DE(clash)    DE(int)     intcor
     15.91     -16.63       1.71        0.00      81.89       1.62       0.18       0.55       ----

> <Gold.Chemscore.Fitness>
15.9056

> <Gold.Chemscore.DG>
-16.6338

> <Gold.Chemscore.ZeroCoef>
-5.4800

> <Gold.Chemscore.Hbond>
1.7105

> <Gold.Chemscore.Metal>
0.0000

> <Gold.Chemscore.Lipo>
81.8924

> <Gold.Chemscore.Internal_Hbond>
0.0000

> <Gold.Chemscore.DEClash>
0.1823

> <Gold.Chemscore.DEInternal>
0.5458

> <Gold.Chemscore.Rot>
1.6175

> <Gold.Chemscore.Internal.Correction>
   9.000000E+99

> <Gold.Chemscore.Hbonds>
donor molecule, donor type, donor heavy atom, donor atom, acceptor molecule, acceptor atom, score
      P1  H  7989  7998       L1     9  0.80
      P1  H  7997  8009       L1    17  0.61

> <Gold.Chemscore.Hbond.Weighted>
-5.7131

> <Gold.Chemscore.Metal.Weighted>
-0.0000

> <Gold.Chemscore.Lipo.Weighted>
-9.5814

> <Gold.Chemscore.Internal_Hbond.Weighted>
0.0000

> <Gold.Chemscore.DEClash.Weighted>
0.1823

> <Gold.Chemscore.DEInternal.Weighted>
0.5458

> <Gold.Chemscore.Rot.Weighted>
4.1408

> <Gold.Chemscore.Internal.Correction.Weighted>
   9.000000E+99

> <Gold.Protein.RotatedTorsions>
[ 6907 6896 6895 6894 ] final  -90.59 input  -60.11 | X-H torsion
[ 7974 7965 7964 7962 ] final   20.50 input  175.53 | X-H torsion
[ 8008 7997 7996 7995 ] final  128.64 input   59.86 | X-H torsion
[ 10167 10162 10161 10158 ] final  -51.79 input  -65.29 | X-H torsion
[ 10718 10713 10712 10709 ] final   95.95 input   66.30 | X-H torsion
[ 10763 10752 10751 10750 ] final -131.45 input  -60.55 | X-H torsion
[ 11005 11000 10999 10996 ] final   79.87 input  -57.11 | X-H torsion

> <Gold.Protein.ActiveResidues>
 VAL166  LYS551  ARG553  GLY616  TRP617  ASP618  TYR619  PRO620  LYS621  CYS622 
 ASP623  PHE694  ASN695  SER759  ASP760  ASP761  ALA762  ILE779  LEU786  VAL792 
 PHE793  MET794  SER795  GLU796  ALA797  LYS798  CYS799  TRP800  GLU811  SER814 

> <Gold.Protein.RotatedAtoms>
  150.6883  134.2409  159.4471 H   0  0  0  0  0  0  0  0  0  0  0  0  # atno 6907 bound_to 6896
  152.0353  134.9741  160.0582 H   0  0  0  0  0  0  0  0  0  0  0  0  # atno 6908 bound_to 6896
  152.1264  133.4348  159.4737 H   0  0  0  0  0  0  0  0  0  0  0  0  # atno 6909 bound_to 6896
  146.2109  139.8161  142.8690 H   0  0  0  0  0  0  0  0  0  0  0  0  # atno 7974 bound_to 7965
  156.2919  140.2640  156.2469 H   0  0  0  0  0  0  0  0  0  0  0  0  # atno 8008 bound_to 7997
  154.9922  140.0388  157.2342 H   0  0  0  0  0  0  0  0  0  0  0  0  # atno 8009 bound_to 7997
  154.7676  140.2772  155.6168 H   0  0  0  0  0  0  0  0  0  0  0  0  # atno 8010 bound_to 7997
  140.6570  143.2607  151.4555 H   0  0  0  0  0  0  0  0  0  0  0  0  # atno 10167 bound_to 10162
  157.6933  131.0562  150.4418 H   0  0  0  0  0  0  0  0  0  0  0  0  # atno 10718 bound_to 10713
  154.8750  135.3829  154.4249 H   0  0  0  0  0  0  0  0  0  0  0  0  # atno 10763 bound_to 10752
  153.4949  135.7030  153.5869 H   0  0  0  0  0  0  0  0  0  0  0  0  # atno 10764 bound_to 10752
  153.4226  135.3898  155.2088 H   0  0  0  0  0  0  0  0  0  0  0  0  # atno 10765 bound_to 10752
  139.9156  134.7876  156.1835 H   0  0  0  0  0  0  0  0  0  0  0  0  # atno 11005 bound_to 11000
  145.3145  141.0228  143.3535 LP  0  0  0  0  0  0  0  0  0  0  0  0  # atno 17320 bound_to 7965
  144.8911  139.4773  143.6677 LP  0  0  0  0  0  0  0  0  0  0  0  0  # atno 17321 bound_to 7965
  139.5795  144.1742  152.1949 LP  0  0  0  0  0  0  0  0  0  0  0  0  # atno 17342 bound_to 10162
  140.1063  144.5496  150.6955 LP  0  0  0  0  0  0  0  0  0  0  0  0  # atno 17343 bound_to 10162
  156.4776  130.4066  149.6481 LP  0  0  0  0  0  0  0  0  0  0  0  0  # atno 17370 bound_to 10713
  156.3538  130.7446  151.2409 LP  0  0  0  0  0  0  0  0  0  0  0  0  # atno 17371 bound_to 10713
  141.0627  133.6834  156.1985 LP  0  0  0  0  0  0  0  0  0  0  0  0  # atno 17394 bound_to 11000
  140.6634  134.4944  157.5584 LP  0  0  0  0  0  0  0  0  0  0  0  0  # atno 17395 bound_to 11000

$$$$
