#       Name:                AV-unprocessed.smi:1801
#       Creating user name   scv26
#       Creation time:       Fri Mar 27 08:52:22 2020


#       File generated by GOLD software.
#

@<TRIPOS>MOLECULE
AV-unprocessed.smi:1801
    42    43     1
SMALL
NO_CHARGES


@<TRIPOS>ATOM
      1 ****        -1.4463  -0.6544  -2.4172 C.3            1 S1                 0.0000
      2 ****        -0.7540   0.0950  -1.2656 C.3            1 S1                 0.0000
      3 ****         0.7852   0.0649  -1.4168 C.3            1 S1                 0.0000
      4 ****         1.3260  -1.2881  -1.3367 N.am           1 S1                 0.0000
      5 ****         1.5024  -1.9719  -0.1968 C.2            1 S1                 0.0000
      6 ****         1.2254  -1.5159   0.9131 O.2            1 S1                 0.0000
      7 ****         2.0074  -3.1933  -0.4333 N.am           1 S1                 0.0000
      8 ****         2.3149  -4.2066   0.5090 C.2            1 S1                 0.0000
      9 ****         2.8153  -5.3599   0.0504 N.2            1 S1                 0.0000
     10 ****         3.0688  -6.2620   1.0765 N.2            1 S1                 0.0000
     11 ****         2.7489  -5.7530   2.2701 C.2            1 S1                 0.0000
     12 ****         2.1054  -4.1205   2.2607 S.3            1 S1                 0.0000
     13 ****        -1.2879   1.5402  -1.1690 C.3            1 S1                 0.0000
     14 ****        -0.8098   2.2466   0.0444 N.4            1 S1                 1.0000
     15 ****        -1.0656   3.7000   0.0407 C.3            1 S1                 0.0000
     16 ****        -0.9907   4.1107   1.5072 C.3            1 S1                 0.0000
     17 ****        -1.6193   2.9214   2.2282 C.3            1 S1                 0.0000
     18 ****        -1.3101   1.7122   1.3343 C.3            1 S1                 0.0000
     19 ****        -1.2233  -0.1940  -3.3803 H              1 S1                 0.0000
     20 ****        -2.5293  -0.6526  -2.2912 H              1 S1                 0.0000
     21 ****        -1.1306  -1.6968  -2.4657 H              1 S1                 0.0000
     22 ****        -1.0227  -0.4256  -0.3459 H              1 S1                 0.0000
     23 ****         1.0755   0.4937  -2.3764 H              1 S1                 0.0000
     24 ****         1.2651   0.6798  -0.6539 H              1 S1                 0.0000
     25 ****         1.5798  -1.7330  -2.2071 H              1 S1                 0.0000
     26 ****         2.1887  -3.4300  -1.3978 H              1 S1                 0.0000
     27 ****         2.8922  -6.3439   3.1626 H              1 S1                 0.0000
     28 ****        -0.9734   2.0996  -2.0514 H              1 S1                 0.0000
     29 ****        -2.3791   1.5446  -1.1726 H              1 S1                 0.0000
     30 ****        -0.3486   4.2346  -0.5832 H              1 S1                 0.0000
     31 ****        -2.0670   3.8983  -0.3457 H              1 S1                 0.0000
     32 ****         0.0520   4.2199   1.8090 H              1 S1                 0.0000
     33 ****        -1.5024   5.0516   1.7122 H              1 S1                 0.0000
     34 ****        -1.2402   2.8013   3.2435 H              1 S1                 0.0000
     35 ****        -2.6992   3.0618   2.2930 H              1 S1                 0.0000
     36 ****        -2.2059   1.1034   1.2028 H              1 S1                 0.0000
     37 ****        -0.5409   1.0778   1.7763 H              1 S1                 0.0000
     38 ****         0.1949   2.1457   0.0717 H              1 S1                 0.0000
     39 ****         0.8492  -0.5930   0.9948 LP             1 S1                 0.0000
     40 ****         1.3766  -2.0686   1.7327 LP             1 S1                 0.0000
     41 ****         2.9865  -5.5501  -0.9163 LP             1 S1                 0.0000
     42 ****         3.4441  -7.1787   0.9389 LP             1 S1                 0.0000
@<TRIPOS>BOND
    1    1    2 1     
    2    1   19 1     
    3    1   20 1     
    4    1   21 1     
    5    2    3 1     
    6    2   13 1     
    7    2   22 1     
    8    3    4 1     
    9    3   23 1     
   10    3   24 1     
   11    4    5 am    
   12    4   25 1     
   13    5    6 2     
   14    5    7 am    
   15    7    8 1     
   16    7   26 1     
   17    8   12 1     
   18    8    9 2     
   19    9   10 1     
   20   10   11 2     
   21   11   12 1     
   22   11   27 1     
   23   13   14 1     
   24   13   28 1     
   25   13   29 1     
   26   14   18 1     
   27   14   15 1     
   28   14   38 1     
   29   15   16 1     
   30   15   30 1     
   31   15   31 1     
   32   16   17 1     
   33   16   32 1     
   34   16   33 1     
   35   17   18 1     
   36   17   34 1     
   37   17   35 1     
   38   18   36 1     
   39   18   37 1     
   40    6   39 1     
   41    6   40 1     
   42    9   41 1     
   43   10   42 1     
@<TRIPOS>SUBSTRUCTURE
      1 S1             1
@<TRIPOS>SET
LONE_PAIRS      STATIC     ATOMS    <user>   **** ""
4 39 40 41 42
DONOR_HYDROGENS      STATIC     ATOMS    <user>   **** ""
3 25 26 38
ATOM$BLUE        STATIC     ATOMS    COLORGROUP SYSTEM
4 39 40 41 42
ATOM$RED        STATIC     ATOMS    COLORGROUP SYSTEM
3 25 26 38
