AV-unprocessed.smi:2743|AV-procd|sdf|10567|dock4
  -GOLD-   2272015 23D 1   1.00000     0.00000
 Structure written by MMmdl.
 39 40  0  0  0  0  0  0  0  0  2 V2000
  151.9539  145.9057  159.8049 N   0  0  0  0  0  0  0  0  0  0  0  0
  151.2405  145.0482  159.4964 C   0  0  0  0  0  0  0  0  0  0  0  0
  150.3335  143.9596  159.1003 C   0  0  0  0  0  0  0  0  0  0  0  0
  150.9933  143.0232  158.0936 C   0  0  0  0  0  0  0  0  0  0  0  0
  152.0318  142.4334  158.3903 O   0  0  0  0  0  0  0  0  0  0  0  0
  150.3963  142.9235  156.8953 N   0  0  0  0  0  0  0  0  0  0  0  0
  150.9086  142.1852  155.7406 C   0  0  0  0  0  0  0  0  0  0  0  0
  150.2487  140.7816  155.5814 C   0  0  0  0  0  0  0  0  0  0  0  0
  148.8313  140.9665  154.9903 C   0  0  0  0  0  0  0  0  0  0  0  0
  148.4907  140.3469  153.7606 C   0  0  0  0  0  0  0  0  0  0  0  0
  147.2141  140.5439  153.1979 C   0  0  0  0  0  0  0  0  0  0  0  0
  146.3157  141.3270  153.8286 N   0  3  0  0  0  0  0  0  0  0  0  0
  146.5848  141.9455  154.9963 C   0  0  0  0  0  0  0  0  0  0  0  0
  147.8455  141.7835  155.6053 C   0  0  0  0  0  0  0  0  0  0  0  0
  151.0909  139.9033  154.6083 C   0  0  0  0  0  0  0  0  0  0  0  0
  152.4699  139.4887  155.1545 C   0  0  0  0  0  0  0  0  0  0  0  0
  152.3490  138.7730  156.5036 C   0  0  0  0  0  0  0  0  0  0  0  0
  151.5830  139.6381  157.5093 C   0  0  0  0  0  0  0  0  0  0  0  0
  150.2043  140.0435  156.9576 C   0  0  0  0  0  0  0  0  0  0  0  0
  150.0446  143.4078  159.9955 H   0  0  0  0  0  0  0  0  0  0  0  0
  149.4292  144.3963  158.6754 H   0  0  0  0  0  0  0  0  0  0  0  0
  149.5395  143.4393  156.7539 H   0  0  0  0  0  0  0  0  0  0  0  0
  150.7759  142.7696  154.8287 H   0  0  0  0  0  0  0  0  0  0  0  0
  151.9867  142.1040  155.8675 H   0  0  0  0  0  0  0  0  0  0  0  0
  149.2042  139.7358  153.2287 H   0  0  0  0  0  0  0  0  0  0  0  0
  146.8911  140.1081  152.2637 H   0  0  0  0  0  0  0  0  0  0  0  0
  145.7916  142.5551  155.4041 H   0  0  0  0  0  0  0  0  0  0  0  0
  148.0281  142.3079  156.5299 H   0  0  0  0  0  0  0  0  0  0  0  0
  150.5320  138.9948  154.3778 H   0  0  0  0  0  0  0  0  0  0  0  0
  151.2436  140.4096  153.6556 H   0  0  0  0  0  0  0  0  0  0  0  0
  152.9646  138.8329  154.4375 H   0  0  0  0  0  0  0  0  0  0  0  0
  153.1140  140.3622  155.2556 H   0  0  0  0  0  0  0  0  0  0  0  0
  151.8317  137.8220  156.3692 H   0  0  0  0  0  0  0  0  0  0  0  0
  153.3397  138.5351  156.8917 H   0  0  0  0  0  0  0  0  0  0  0  0
  151.4559  139.0861  158.4412 H   0  0  0  0  0  0  0  0  0  0  0  0
  152.1680  140.5220  157.7627 H   0  0  0  0  0  0  0  0  0  0  0  0
  149.6934  140.6459  157.7093 H   0  0  0  0  0  0  0  0  0  0  0  0
  149.6205  139.1277  156.8532 H   0  0  0  0  0  0  0  0  0  0  0  0
  145.3982  141.4613  153.4026 H   0  0  0  0  0  0  0  0  0  0  0  0
  1  2  3  0  0  0  0
  2  3  1  0  0  0  0
  3  4  1  0  0  0  0
  3 20  1  0  0  0  0
  3 21  1  0  0  0  0
  4  5  2  0  0  0  0
  4  6  1  0  0  0  0
  6  7  1  0  0  0  0
  6 22  1  0  0  0  0
  7  8  1  0  0  0  0
  7 23  1  0  0  0  0
  7 24  1  0  0  0  0
  8 19  1  0  0  0  0
  8  9  1  0  0  0  0
  8 15  1  0  0  0  0
  9 14  1  0  0  0  0
  9 10  2  0  0  0  0
 10 11  1  0  0  0  0
 10 25  1  0  0  0  0
 11 12  2  0  0  0  0
 11 26  1  0  0  0  0
 12 13  1  0  0  0  0
 12 39  1  0  0  0  0
 13 14  2  0  0  0  0
 13 27  1  0  0  0  0
 14 28  1  0  0  0  0
 15 16  1  0  0  0  0
 15 29  1  0  0  0  0
 15 30  1  0  0  0  0
 16 17  1  0  0  0  0
 16 31  1  0  0  0  0
 16 32  1  0  0  0  0
 17 18  1  0  0  0  0
 17 33  1  0  0  0  0
 17 34  1  0  0  0  0
 18 19  1  0  0  0  0
 18 35  1  0  0  0  0
 18 36  1  0  0  0  0
 19 37  1  0  0  0  0
 19 38  1  0  0  0  0
M  CHG  1  12   1
M  END
> <s_m_source_file>
AV-unprocessed.smi

> <i_m_source_file_index>
2743

> <i_lp_mmshare_version>
43012

> <i_f3d_flags>
0

> <s_epik_input>
TiNDW0NIMl1DKD1PKVtOSF1bQ0gyXUMxKFtDSDJdW0NIMl1bQ0gyXVtDSDJdW0NIMl0xKWMyW2NIXVtjSF1uW2NIXVtjSF0y

> <s_epik_cmdline>
J2VwaWtfcHl0aG9uJywgJy1waCcsICc3LjAnLCAnLXRuJywgJzgnLCAnLW1hJywgJzIwMCcsICctbWV0YWxfYmluZGluZycsICctaW1hZScsICc8aW5maWxlLm1hZT4nLCAnLW9tYWUnLCAnPG91dGZpbGUubWFlPic=

> <r_epik_Ionization_Penalty>
1.44483

> <r_epik_Ionization_Penalty_Charging>
1.44483

> <r_epik_Ionization_Penalty_Neutral>
8.95364e-07

> <r_epik_State_Penalty>
1.53054

> <r_epik_Charging_Adjusted_Penalty>
2.97537

> <i_epik_Tot_Q>
1

> <i_epik_Tot_abs_Q>
1

> <r_epik_Metal_State_Penalty>
1.58148

> <b_epik_Metal_Only>
0

> <s_lp_Force_Field>
OPLS_2005

> <r_lp_Energy>
24.9332

> <b_lp_Chiralities_Consistent>
1

> <s_lp_Variant>
AV-unprocessed.smi:2743-2

> <Gold.Version>
5.8.1

> <Gold.Id.Protein>
6NUR|6NUR_protein|mol2

> <Gold.PLP.Fitness>
41.5772

> <Gold.PLP.PLP>
-33.6500

> <Gold.PLP.part.hbond>
-3.0000

> <Gold.PLP.part.metal>
0.0000

> <Gold.PLP.part.buried>
-5.4017

> <Gold.PLP.part.nonpolar>
-26.2629

> <Gold.PLP.part.repulsive>
0.2095

> <Gold.PLP.ligand.clash>
0.0000

> <Gold.PLP.ligand.torsion>
0.3535

> <Gold.PLP.Chemscore.Hbond>
2.8640

> <Gold.PLP.Chemscore.CHOScore>
0.0000

> <Gold.PLP.Chemscore.Metal>
0.0000

> <Gold.Chemscore.Hbonds>
donor molecule, donor type, donor heavy atom, donor atom, acceptor molecule, acceptor atom, score
      L1  H     6    22       P1  8028  0.78
      L1  H    12    39       P1 10175  0.99

> <Gold.PLP.Chemscore.Internal.Correction>
0.0423

> <Gold.Rescore>
     Score         DG    S(hbond)    S(metal)    S(lipo)     H(rot)  DE(clash)    DE(int)     intcor
     12.80     -14.68       1.74        0.00      69.41       1.85       0.02       1.85       ----

> <Gold.Chemscore.Fitness>
12.8022

> <Gold.Chemscore.DG>
-14.6778

> <Gold.Chemscore.ZeroCoef>
-5.4800

> <Gold.Chemscore.Hbond>
1.7443

> <Gold.Chemscore.Metal>
0.0000

> <Gold.Chemscore.Lipo>
69.4059

> <Gold.Chemscore.Internal_Hbond>
0.0000

> <Gold.Chemscore.DEClash>
0.0249

> <Gold.Chemscore.DEInternal>
1.8506

> <Gold.Chemscore.Rot>
1.8550

> <Gold.Chemscore.Internal.Correction>
   9.000000E+99

> <Gold.Chemscore.Hbonds>
donor molecule, donor type, donor heavy atom, donor atom, acceptor molecule, acceptor atom, score
      L1  H     6    22       P1  8028  0.77
      L1  H    12    39       P1 10175  0.07

> <Gold.Chemscore.Hbond.Weighted>
-5.8261

> <Gold.Chemscore.Metal.Weighted>
-0.0000

> <Gold.Chemscore.Lipo.Weighted>
-8.1205

> <Gold.Chemscore.Internal_Hbond.Weighted>
0.0000

> <Gold.Chemscore.DEClash.Weighted>
0.0249

> <Gold.Chemscore.DEInternal.Weighted>
1.8506

> <Gold.Chemscore.Rot.Weighted>
4.7488

> <Gold.Chemscore.Internal.Correction.Weighted>
   9.000000E+99

> <Gold.Protein.RotatedTorsions>
[ 6907 6896 6895 6894 ] final  159.38 input  -60.11 | X-H torsion
[ 7974 7965 7964 7962 ] final -179.69 input  175.53 | X-H torsion
[ 8008 7997 7996 7995 ] final   51.90 input   59.86 | X-H torsion
[ 10167 10162 10161 10158 ] final -107.12 input  -65.29 | X-H torsion
[ 10718 10713 10712 10709 ] final -149.06 input   66.30 | X-H torsion
[ 10763 10752 10751 10750 ] final  -68.92 input  -60.55 | X-H torsion
[ 11005 11000 10999 10996 ] final  118.44 input  -57.11 | X-H torsion

> <Gold.Protein.ActiveResidues>
 VAL166  LYS551  ARG553  GLY616  TRP617  ASP618  TYR619  PRO620  LYS621  CYS622 
 ASP623  PHE694  ASN695  SER759  ASP760  ASP761  ALA762  ILE779  LEU786  VAL792 
 PHE793  MET794  SER795  GLU796  ALA797  LYS798  CYS799  TRP800  GLU811  SER814 

> <Gold.Protein.RotatedAtoms>
  151.9865  133.3776  159.4127 H   0  0  0  0  0  0  0  0  0  0  0  0  # atno 6907 bound_to 6896
  150.6927  134.3983  159.5116 H   0  0  0  0  0  0  0  0  0  0  0  0  # atno 6908 bound_to 6896
  152.1709  134.8834  160.0585 H   0  0  0  0  0  0  0  0  0  0  0  0  # atno 6909 bound_to 6896
  144.7138  140.0679  143.6430 H   0  0  0  0  0  0  0  0  0  0  0  0  # atno 7974 bound_to 7965
  155.4429  140.3455  155.4292 H   0  0  0  0  0  0  0  0  0  0  0  0  # atno 8008 bound_to 7997
  156.1267  140.1502  156.9155 H   0  0  0  0  0  0  0  0  0  0  0  0  # atno 8009 bound_to 7997
  154.4864  140.0854  156.7475 H   0  0  0  0  0  0  0  0  0  0  0  0  # atno 8010 bound_to 7997
  140.1803  143.3972  152.1286 H   0  0  0  0  0  0  0  0  0  0  0  0  # atno 10167 bound_to 10162
  156.4283  130.8063  151.2289 H   0  0  0  0  0  0  0  0  0  0  0  0  # atno 10718 bound_to 10713
  154.3959  135.6042  153.5870 H   0  0  0  0  0  0  0  0  0  0  0  0  # atno 10763 bound_to 10752
  152.9787  135.5895  154.4242 H   0  0  0  0  0  0  0  0  0  0  0  0  # atno 10764 bound_to 10752
  154.4033  135.2843  155.2061 H   0  0  0  0  0  0  0  0  0  0  0  0  # atno 10765 bound_to 10752
  139.9110  134.9620  156.7503 H   0  0  0  0  0  0  0  0  0  0  0  0  # atno 11005 bound_to 11000
  145.9808  139.2940  143.1043 LP  0  0  0  0  0  0  0  0  0  0  0  0  # atno 17320 bound_to 7965
  145.9012  140.9241  143.0502 LP  0  0  0  0  0  0  0  0  0  0  0  0  # atno 17321 bound_to 7965
  139.5299  144.7146  151.5094 LP  0  0  0  0  0  0  0  0  0  0  0  0  # atno 17342 bound_to 10162
  140.6524  143.8670  150.6799 LP  0  0  0  0  0  0  0  0  0  0  0  0  # atno 17343 bound_to 10162
  157.7508  131.0206  150.3717 LP  0  0  0  0  0  0  0  0  0  0  0  0  # atno 17370 bound_to 10713
  156.4049  130.3923  149.6933 LP  0  0  0  0  0  0  0  0  0  0  0  0  # atno 17371 bound_to 10713
  140.6778  133.9501  155.7893 LP  0  0  0  0  0  0  0  0  0  0  0  0  # atno 17394 bound_to 11000
  141.0531  134.0455  157.3757 LP  0  0  0  0  0  0  0  0  0  0  0  0  # atno 17395 bound_to 11000

$$$$
