AV-unprocessed.smi:1661|AV-procd|sdf|6653|dock3
  -GOLD-   22720 7363D 1   1.00000     0.00000
 Structure written by MMmdl.
 38 39  0  0  0  0  0  0  0  0  2 V2000
  145.3270  132.9652  150.6414 C   0  0  0  0  0  0  0  0  0  0  0  0
  145.1729  134.2009  151.5390 C   0  0  2  0  0  0  0  0  0  0  0  0
  145.6410  135.4827  150.8301 C   0  0  0  0  0  0  0  0  0  0  0  0
  145.5123  136.7089  151.7493 C   0  0  0  0  0  0  0  0  0  0  0  0
  146.2675  136.5149  153.0140 N   0  3  1  0  0  0  0  0  0  0  0  0
  146.2651  137.7337  153.8611 C   0  0  0  0  0  0  0  0  0  0  0  0
  147.1736  138.8432  153.2960 C   0  0  0  0  0  0  0  0  0  0  0  0
  148.5630  138.4079  153.2128 N   0  0  0  0  0  0  0  0  0  0  0  0
  149.5163  138.7250  154.1011 C   0  0  0  0  0  0  0  0  0  0  0  0
  149.3108  139.4357  155.0855 O   0  0  0  0  0  0  0  0  0  0  0  0
  150.6971  138.1728  153.7711 N   0  0  0  0  0  0  0  0  0  0  0  0
  151.9382  138.2779  154.4536 C   0  0  0  0  0  0  0  0  0  0  0  0
  153.0457  137.6119  154.0907 N   0  0  0  0  0  0  0  0  0  0  0  0
  154.1184  137.8929  154.9271 N   0  0  0  0  0  0  0  0  0  0  0  0
  153.7784  138.7587  155.8862 C   0  0  0  0  0  0  0  0  0  0  0  0
  152.1142  139.3159  155.8613 S   0  0  0  0  0  0  0  0  0  0  0  0
  145.8084  135.2994  153.7386 C   0  0  0  0  0  0  0  0  0  0  0  0
  145.9436  134.0443  152.8604 C   0  0  0  0  0  0  0  0  0  0  0  0
  146.3696  132.7988  150.3688 H   0  0  0  0  0  0  0  0  0  0  0  0
  144.7556  133.0758  149.7193 H   0  0  0  0  0  0  0  0  0  0  0  0
  144.9672  132.0674  151.1450 H   0  0  0  0  0  0  0  0  0  0  0  0
  144.1131  134.3101  151.7743 H   0  0  0  0  0  0  0  0  0  0  0  0
  146.6792  135.3732  150.5130 H   0  0  0  0  0  0  0  0  0  0  0  0
  145.0568  135.6423  149.9231 H   0  0  0  0  0  0  0  0  0  0  0  0
  145.8906  137.5870  151.2244 H   0  0  0  0  0  0  0  0  0  0  0  0
  144.4627  136.9024  151.9765 H   0  0  0  0  0  0  0  0  0  0  0  0
  145.2505  138.1303  153.9209 H   0  0  0  0  0  0  0  0  0  0  0  0
  146.5500  137.4682  154.8805 H   0  0  0  0  0  0  0  0  0  0  0  0
  146.8445  139.1685  152.3088 H   0  0  0  0  0  0  0  0  0  0  0  0
  147.1319  139.7212  153.9409 H   0  0  0  0  0  0  0  0  0  0  0  0
  148.8124  137.8167  152.4331 H   0  0  0  0  0  0  0  0  0  0  0  0
  150.7121  137.6104  152.9331 H   0  0  0  0  0  0  0  0  0  0  0  0
  154.5131  139.0716  156.6133 H   0  0  0  0  0  0  0  0  0  0  0  0
  146.3898  135.1549  154.6483 H   0  0  0  0  0  0  0  0  0  0  0  0
  144.7698  135.4289  154.0481 H   0  0  0  0  0  0  0  0  0  0  0  0
  145.5750  133.1751  153.4063 H   0  0  0  0  0  0  0  0  0  0  0  0
  146.9984  133.8554  152.6555 H   0  0  0  0  0  0  0  0  0  0  0  0
  147.2277  136.3543  152.7451 H   0  0  0  0  0  0  0  0  0  0  0  0
  1  2  1  0  0  0  0
  1 19  1  0  0  0  0
  1 20  1  0  0  0  0
  1 21  1  0  0  0  0
  2 18  1  0  0  0  0
  2  3  1  0  0  0  0
  2 22  1  0  0  0  0
  3  4  1  0  0  0  0
  3 23  1  0  0  0  0
  3 24  1  0  0  0  0
  4  5  1  0  0  0  0
  4 25  1  0  0  0  0
  4 26  1  0  0  0  0
  5  6  1  0  0  0  0
  5 17  1  0  0  0  0
  5 38  1  0  0  0  0
  6  7  1  0  0  0  0
  6 27  1  0  0  0  0
  6 28  1  0  0  0  0
  7  8  1  0  0  0  0
  7 29  1  0  0  0  0
  7 30  1  0  0  0  0
  8  9  1  0  0  0  0
  8 31  1  0  0  0  0
  9 10  2  0  0  0  0
  9 11  1  0  0  0  0
 11 12  1  0  0  0  0
 11 32  1  0  0  0  0
 12 16  1  0  0  0  0
 12 13  2  0  0  0  0
 13 14  1  0  0  0  0
 14 15  2  0  0  0  0
 15 16  1  0  0  0  0
 15 33  1  0  0  0  0
 17 18  1  0  0  0  0
 17 34  1  0  0  0  0
 17 35  1  0  0  0  0
 18 36  1  0  0  0  0
 18 37  1  0  0  0  0
M  CHG  1   5   1
M  END
> <s_m_source_file>
AV-unprocessed.smi

> <i_m_source_file_index>
1661

> <i_lp_mmshare_version>
43012

> <i_f3d_flags>
0

> <s_epik_input>
W0NIM11bQ0hdMVtDSDJdW0NIMl1OKFtDSDJdW0NIMl0xKVtDSDJdW0NIMl1bTkhdQyg9TylbTkhdYzJubltjSF1zMg==

> <s_epik_cmdline>
J2VwaWtfcHl0aG9uJywgJy1waCcsICc3LjAnLCAnLXRuJywgJzgnLCAnLW1hJywgJzIwMCcsICctbWV0YWxfYmluZGluZycsICctaW1hZScsICc8aW5maWxlLm1hZT4nLCAnLW9tYWUnLCAnPG91dGZpbGUubWFlPic=

> <r_lp_tautomer_probability>
1

> <r_epik_Ionization_Penalty>
0.0053917

> <r_epik_Ionization_Penalty_Charging>
0.00168873

> <r_epik_Ionization_Penalty_Neutral>
0.00370297

> <r_epik_State_Penalty>
-0

> <r_epik_Charging_Adjusted_Penalty>
0.00168873

> <i_epik_Tot_Q>
1

> <i_epik_Tot_abs_Q>
1

> <r_epik_Metal_State_Penalty>
0.36997

> <b_epik_Metal_Only>
0

> <s_lp_Force_Field>
OPLS_2005

> <r_lp_Energy>
14.0049

> <b_lp_Chiralities_Consistent>
1

> <s_lp_Variant>
AV-unprocessed.smi:1661-1

> <Gold.Version>
5.8.1

> <Gold.Id.Protein>
6NUR|6NUR_protein|mol2

> <Gold.PLP.Fitness>
37.8630

> <Gold.PLP.PLP>
-26.6629

> <Gold.PLP.part.hbond>
-6.1966

> <Gold.PLP.part.metal>
0.0000

> <Gold.PLP.part.buried>
2.0426

> <Gold.PLP.part.nonpolar>
-21.7777

> <Gold.PLP.part.repulsive>
0.3423

> <Gold.PLP.ligand.clash>
0.0000

> <Gold.PLP.ligand.torsion>
0.2771

> <Gold.PLP.Chemscore.Hbond>
3.9099

> <Gold.PLP.Chemscore.CHOScore>
0.0000

> <Gold.PLP.Chemscore.Metal>
0.0000

> <Gold.Chemscore.Hbonds>
donor molecule, donor type, donor heavy atom, donor atom, acceptor molecule, acceptor atom, score
      L1  H     5    38       P1  7948  2.00
      L1  H     8    31       P1  7948  0.96
      L1  H    11    32       P1  7949  0.39
      P1  H 10752 10765       L1    13  0.42

> <Gold.PLP.Chemscore.Internal.Correction>
0.0247

> <Gold.Rescore>
     Score         DG    S(hbond)    S(metal)    S(lipo)     H(rot)  DE(clash)    DE(int)     intcor
     11.25     -14.58       2.15        0.00      53.71       1.70       1.83       1.50       ----

> <Gold.Chemscore.Fitness>
11.2482

> <Gold.Chemscore.DG>
-14.5807

> <Gold.Chemscore.ZeroCoef>
-5.4800

> <Gold.Chemscore.Hbond>
2.1499

> <Gold.Chemscore.Metal>
0.0000

> <Gold.Chemscore.Lipo>
53.7070

> <Gold.Chemscore.Internal_Hbond>
0.0000

> <Gold.Chemscore.DEClash>
1.8348

> <Gold.Chemscore.DEInternal>
1.4977

> <Gold.Chemscore.Rot>
1.7046

> <Gold.Chemscore.Internal.Correction>
   9.000000E+99

> <Gold.Chemscore.Hbonds>
donor molecule, donor type, donor heavy atom, donor atom, acceptor molecule, acceptor atom, score
      L1  H     5    38       P1  7948  0.99
      L1  H     8    31       P1  7948  0.92
      L1  H    11    32       P1  7949  0.04
      P1  H 10752 10765       L1    13  0.17

> <Gold.Chemscore.Hbond.Weighted>
-7.1808

> <Gold.Chemscore.Metal.Weighted>
-0.0000

> <Gold.Chemscore.Lipo.Weighted>
-6.2837

> <Gold.Chemscore.Internal_Hbond.Weighted>
0.0000

> <Gold.Chemscore.DEClash.Weighted>
1.8348

> <Gold.Chemscore.DEInternal.Weighted>
1.4977

> <Gold.Chemscore.Rot.Weighted>
4.3638

> <Gold.Chemscore.Internal.Correction.Weighted>
   9.000000E+99

> <Gold.Protein.RotatedTorsions>
[ 6907 6896 6895 6894 ] final  121.57 input  -60.11 | X-H torsion
[ 7974 7965 7964 7962 ] final -127.30 input  175.53 | X-H torsion
[ 8008 7997 7996 7995 ] final  -76.68 input   59.86 | X-H torsion
[ 10167 10162 10161 10158 ] final   38.67 input  -65.29 | X-H torsion
[ 10718 10713 10712 10709 ] final -169.60 input   66.30 | X-H torsion
[ 10763 10752 10751 10750 ] final  136.33 input  -60.55 | X-H torsion
[ 11005 11000 10999 10996 ] final -175.74 input  -57.11 | X-H torsion

> <Gold.Protein.ActiveResidues>
 VAL166  LYS551  ARG553  GLY616  TRP617  ASP618  TYR619  PRO620  LYS621  CYS622 
 ASP623  PHE694  ASN695  SER759  ASP760  ASP761  ALA762  ILE779  LEU786  VAL792 
 PHE793  MET794  SER795  GLU796  ALA797  LYS798  CYS799  TRP800  GLU811  SER814 

> <Gold.Protein.RotatedAtoms>
  152.4311  133.7280  159.6570 H   0  0  0  0  0  0  0  0  0  0  0  0  # atno 6907 bound_to 6896
  150.8191  133.8274  159.3153 H   0  0  0  0  0  0  0  0  0  0  0  0  # atno 6908 bound_to 6896
  151.5962  135.1052  160.0101 H   0  0  0  0  0  0  0  0  0  0  0  0  # atno 6909 bound_to 6896
  144.9784  140.7616  143.4627 H   0  0  0  0  0  0  0  0  0  0  0  0  # atno 7974 bound_to 7965
  154.5527  140.0723  156.8694 H   0  0  0  0  0  0  0  0  0  0  0  0  # atno 8008 bound_to 7997
  155.2962  140.3381  155.4232 H   0  0  0  0  0  0  0  0  0  0  0  0  # atno 8009 bound_to 7997
  156.1975  140.1709  156.7953 H   0  0  0  0  0  0  0  0  0  0  0  0  # atno 8010 bound_to 7997
  140.3914  144.1847  150.6131 H   0  0  0  0  0  0  0  0  0  0  0  0  # atno 10167 bound_to 10162
  156.7139  130.9244  151.3091 H   0  0  0  0  0  0  0  0  0  0  0  0  # atno 10718 bound_to 10713
  153.8548  135.3075  155.3434 H   0  0  0  0  0  0  0  0  0  0  0  0  # atno 10763 bound_to 10752
  154.7875  135.4801  153.9982 H   0  0  0  0  0  0  0  0  0  0  0  0  # atno 10764 bound_to 10752
  153.1497  135.6840  153.8995 H   0  0  0  0  0  0  0  0  0  0  0  0  # atno 10765 bound_to 10752
  140.4599  134.6265  157.4838 H   0  0  0  0  0  0  0  0  0  0  0  0  # atno 11005 bound_to 11000
  145.2456  139.2053  143.4969 LP  0  0  0  0  0  0  0  0  0  0  0  0  # atno 17320 bound_to 7965
  146.3401  140.2359  142.8594 LP  0  0  0  0  0  0  0  0  0  0  0  0  # atno 17321 bound_to 7965
  140.4836  143.2371  151.8920 LP  0  0  0  0  0  0  0  0  0  0  0  0  # atno 17342 bound_to 10162
  139.4789  144.5243  151.8757 LP  0  0  0  0  0  0  0  0  0  0  0  0  # atno 17343 bound_to 10162
  157.6925  130.9248  150.0553 LP  0  0  0  0  0  0  0  0  0  0  0  0  # atno 17370 bound_to 10713
  156.1642  130.3644  149.9256 LP  0  0  0  0  0  0  0  0  0  0  0  0  # atno 17371 bound_to 10713
  139.9952  134.6922  155.9621 LP  0  0  0  0  0  0  0  0  0  0  0  0  # atno 17394 bound_to 11000
  141.1626  133.6538  156.4370 LP  0  0  0  0  0  0  0  0  0  0  0  0  # atno 17395 bound_to 11000

$$$$
