AV-unprocessed.smi:2509|AV-procd|sdf|9868|dock4
  -GOLD-   2272013503D 1   1.00000     0.00000
 Structure written by MMmdl.
 45 46  0  0  0  0  0  0  0  0  1 V2000
  149.1731  142.3181  158.0984 C   0  0  0  0  0  0  0  0  0  0  0  0
  150.1514  141.4711  157.2505 C   0  0  0  0  0  0  0  0  0  0  0  0
  151.0807  142.4032  156.4512 C   0  0  0  0  0  0  0  0  0  0  0  0
  150.9875  140.6471  158.2580 C   0  0  0  0  0  0  0  0  0  0  0  0
  149.3900  140.5509  156.2805 C   0  0  0  0  0  0  0  0  0  0  0  0
  149.9141  140.3862  155.0588 N   0  0  0  0  0  0  0  0  0  0  0  0
  149.3275  139.4869  154.2416 C   0  0  0  0  0  0  0  0  0  0  0  0
  148.2195  138.7183  154.6497 C   0  0  0  0  0  0  0  0  0  0  0  0
  147.6622  137.7787  153.7415 N   0  0  0  0  0  0  0  0  0  0  0  0
  146.3747  137.4249  153.5927 C   0  0  0  0  0  0  0  0  0  0  0  0
  145.4313  137.8875  154.2334 O   0  0  0  0  0  0  0  0  0  0  0  0
  146.2350  136.5055  152.6269 N   0  0  0  0  0  0  0  0  0  0  0  0
  144.9698  135.9225  152.1902 C   0  0  0  0  0  0  0  0  0  0  0  0
  145.0501  134.3840  152.0934 C   0  0  2  0  0  0  0  0  0  0  0  0
  146.3023  133.8253  151.4022 C   0  0  0  0  0  0  0  0  0  0  0  0
  145.9239  132.4149  150.9262 C   0  0  0  0  0  0  0  0  0  0  0  0
  144.3997  132.2939  151.0832 C   0  0  0  0  0  0  0  0  0  0  0  0
  143.8875  133.7139  151.3464 C   0  0  2  0  0  0  0  0  0  0  0  0
  143.6357  134.3494  150.1070 O   0  0  0  0  0  0  0  0  0  0  0  0
  147.7784  138.9330  155.9772 C   0  0  0  0  0  0  0  0  0  0  0  0
  148.3759  139.8352  156.7842 N   0  0  0  0  0  0  0  0  0  0  0  0
  149.7071  142.9391  158.8186 H   0  0  0  0  0  0  0  0  0  0  0  0
  148.4834  141.6861  158.6594 H   0  0  0  0  0  0  0  0  0  0  0  0
  148.5772  142.9936  157.4835 H   0  0  0  0  0  0  0  0  0  0  0  0
  150.5158  143.0229  155.7536 H   0  0  0  0  0  0  0  0  0  0  0  0
  151.8076  141.8346  155.8702 H   0  0  0  0  0  0  0  0  0  0  0  0
  151.6362  143.0716  157.1096 H   0  0  0  0  0  0  0  0  0  0  0  0
  151.4902  141.2932  158.9784 H   0  0  0  0  0  0  0  0  0  0  0  0
  151.7652  140.0635  157.7638 H   0  0  0  0  0  0  0  0  0  0  0  0
  150.3618  139.9536  158.8213 H   0  0  0  0  0  0  0  0  0  0  0  0
  149.7517  139.3790  153.2539 H   0  0  0  0  0  0  0  0  0  0  0  0
  148.3160  137.3611  153.0954 H   0  0  0  0  0  0  0  0  0  0  0  0
  147.0670  136.1880  152.1514 H   0  0  0  0  0  0  0  0  0  0  0  0
  144.2082  136.2002  152.9194 H   0  0  0  0  0  0  0  0  0  0  0  0
  144.6539  136.3596  151.2415 H   0  0  0  0  0  0  0  0  0  0  0  0
  145.0407  133.9874  153.1105 H   0  0  0  0  0  0  0  0  0  0  0  0
  146.5575  134.4410  150.5387 H   0  0  0  0  0  0  0  0  0  0  0  0
  147.1688  133.8173  152.0642 H   0  0  0  0  0  0  0  0  0  0  0  0
  146.2231  132.2738  149.8871 H   0  0  0  0  0  0  0  0  0  0  0  0
  146.4298  131.6502  151.5168 H   0  0  0  0  0  0  0  0  0  0  0  0
  143.9236  131.8204  150.2234 H   0  0  0  0  0  0  0  0  0  0  0  0
  144.1823  131.6710  151.9518 H   0  0  0  0  0  0  0  0  0  0  0  0
  142.9691  133.7119  151.9345 H   0  0  0  0  0  0  0  0  0  0  0  0
  142.7202  134.2436  149.8969 H   0  0  0  0  0  0  0  0  0  0  0  0
  146.9690  138.3768  156.4234 H   0  0  0  0  0  0  0  0  0  0  0  0
  1  2  1  0  0  0  0
  1 22  1  0  0  0  0
  1 23  1  0  0  0  0
  1 24  1  0  0  0  0
  2  3  1  0  0  0  0
  2  4  1  0  0  0  0
  2  5  1  0  0  0  0
  3 25  1  0  0  0  0
  3 26  1  0  0  0  0
  3 27  1  0  0  0  0
  4 28  1  0  0  0  0
  4 29  1  0  0  0  0
  4 30  1  0  0  0  0
  5 21  1  0  0  0  0
  5  6  2  0  0  0  0
  6  7  1  0  0  0  0
  7  8  2  0  0  0  0
  7 31  1  0  0  0  0
  8  9  1  0  0  0  0
  8 20  1  0  0  0  0
  9 10  1  0  0  0  0
  9 32  1  0  0  0  0
 10 11  2  0  0  0  0
 10 12  1  0  0  0  0
 12 13  1  0  0  0  0
 12 33  1  0  0  0  0
 13 14  1  0  0  0  0
 13 34  1  0  0  0  0
 13 35  1  0  0  0  0
 14 18  1  0  0  0  0
 14 15  1  0  0  0  0
 14 36  1  0  0  0  0
 15 16  1  0  0  0  0
 15 37  1  0  0  0  0
 15 38  1  0  0  0  0
 16 17  1  0  0  0  0
 16 39  1  0  0  0  0
 16 40  1  0  0  0  0
 17 18  1  0  0  0  0
 17 41  1  0  0  0  0
 17 42  1  0  0  0  0
 18 19  1  0  0  0  0
 18 43  1  0  0  0  0
 19 44  1  0  0  0  0
 20 21  2  0  0  0  0
 20 45  1  0  0  0  0
M  END
> <s_m_source_file>
AV-unprocessed.smi

> <i_m_source_file_index>
2509

> <i_lp_mmshare_version>
43012

> <i_f3d_flags>
0

> <s_epik_input>
W0NIM11DKFtDSDNdKShbQ0gzXSljMW5bY0hdYyhbY0hdbjEpW05IXUMoPU8pW05IXVtDSDJdW0NAQEhdMltDSDJdW0NIMl1bQ0gyXVtDQEhdMltPSF0=

> <s_epik_cmdline>
J2VwaWtfcHl0aG9uJywgJy1waCcsICc3LjAnLCAnLXRuJywgJzgnLCAnLW1hJywgJzIwMCcsICctbWV0YWxfYmluZGluZycsICctaW1hZScsICc8aW5maWxlLm1hZT4nLCAnLW9tYWUnLCAnPG91dGZpbGUubWFlPic=

> <r_lp_tautomer_probability>
1

> <r_epik_Ionization_Penalty>
2.77586e-05

> <r_epik_Ionization_Penalty_Charging>
0

> <r_epik_Ionization_Penalty_Neutral>
2.77586e-05

> <r_epik_State_Penalty>
-0

> <r_epik_Charging_Adjusted_Penalty>
0

> <i_epik_Tot_Q>
0

> <i_epik_Tot_abs_Q>
0

> <r_epik_Metal_State_Penalty>
-0

> <b_epik_Metal_Only>
0

> <s_lp_Force_Field>
OPLS_2005

> <r_lp_Energy>
21.5241

> <b_lp_Chiralities_Consistent>
1

> <s_lp_Variant>
AV-unprocessed.smi:2509-3

> <Gold.Version>
5.8.1

> <Gold.Id.Protein>
6NUR|6NUR_protein|mol2

> <Gold.PLP.Fitness>
40.8555

> <Gold.PLP.PLP>
-30.1265

> <Gold.PLP.part.hbond>
-4.4828

> <Gold.PLP.part.metal>
0.0000

> <Gold.PLP.part.buried>
-4.9697

> <Gold.PLP.part.nonpolar>
-21.1654

> <Gold.PLP.part.repulsive>
0.2977

> <Gold.PLP.ligand.clash>
0.0000

> <Gold.PLP.ligand.torsion>
1.0182

> <Gold.PLP.Chemscore.Hbond>
3.2048

> <Gold.PLP.Chemscore.CHOScore>
1.0000

> <Gold.PLP.Chemscore.Metal>
0.0000

> <Gold.Chemscore.Hbonds>
donor molecule, donor type, donor heavy atom, donor atom, acceptor molecule, acceptor atom, score
      L1  H     9    32       P1  7948  1.00
      L1  H    12    33       P1  7948  1.00
      L1  H    19    44       P1 10186  1.00
      P1  H  7989  7998       L1     6  0.10
      L1  C     7    31       P1  7957  1.00

> <Gold.PLP.Chemscore.Internal.Correction>
0.1509

> <Gold.Rescore>
     Score         DG    S(hbond)    S(metal)    S(lipo)     H(rot)  DE(clash)    DE(int)     intcor
     16.86     -17.86       2.88        0.00      65.27       1.91       0.15       0.85       ----

> <Gold.Chemscore.Fitness>
16.8592

> <Gold.Chemscore.DG>
-17.8550

> <Gold.Chemscore.ZeroCoef>
-5.4800

> <Gold.Chemscore.Hbond>
2.8839

> <Gold.Chemscore.Metal>
0.0000

> <Gold.Chemscore.Lipo>
65.2691

> <Gold.Chemscore.Internal_Hbond>
0.0000

> <Gold.Chemscore.DEClash>
0.1499

> <Gold.Chemscore.DEInternal>
0.8460

> <Gold.Chemscore.Rot>
1.9116

> <Gold.Chemscore.Internal.Correction>
   9.000000E+99

> <Gold.Chemscore.Hbonds>
donor molecule, donor type, donor heavy atom, donor atom, acceptor molecule, acceptor atom, score
      L1  H     9    32       P1  7948  1.00
      L1  H    12    33       P1  7948  0.97
      L1  H    19    44       P1 10186  0.98
      P1  H  7989  7998       L1     6  0.01

> <Gold.Chemscore.Hbond.Weighted>
-9.6321

> <Gold.Chemscore.Metal.Weighted>
-0.0000

> <Gold.Chemscore.Lipo.Weighted>
-7.6365

> <Gold.Chemscore.Internal_Hbond.Weighted>
0.0000

> <Gold.Chemscore.DEClash.Weighted>
0.1499

> <Gold.Chemscore.DEInternal.Weighted>
0.8460

> <Gold.Chemscore.Rot.Weighted>
4.8936

> <Gold.Chemscore.Internal.Correction.Weighted>
   9.000000E+99

> <Gold.Protein.RotatedTorsions>
[ 6907 6896 6895 6894 ] final  154.10 input  -60.11 | X-H torsion
[ 7974 7965 7964 7962 ] final  101.89 input  175.53 | X-H torsion
[ 8008 7997 7996 7995 ] final   16.81 input   59.86 | X-H torsion
[ 10167 10162 10161 10158 ] final  149.10 input  -65.29 | X-H torsion
[ 10718 10713 10712 10709 ] final   25.72 input   66.30 | X-H torsion
[ 10763 10752 10751 10750 ] final -148.44 input  -60.55 | X-H torsion
[ 11005 11000 10999 10996 ] final  124.96 input  -57.11 | X-H torsion

> <Gold.Protein.ActiveResidues>
 VAL166  LYS551  ARG553  GLY616  TRP617  ASP618  TYR619  PRO620  LYS621  CYS622 
 ASP623  PHE694  ASN695  SER759  ASP760  ASP761  ALA762  ILE779  LEU786  VAL792 
 PHE793  MET794  SER795  GLU796  ALA797  LYS798  CYS799  TRP800  GLU811  SER814 

> <Gold.Protein.RotatedAtoms>
  152.0632  133.4072  159.4426 H   0  0  0  0  0  0  0  0  0  0  0  0  # atno 6907 bound_to 6896
  150.6865  134.3176  159.4782 H   0  0  0  0  0  0  0  0  0  0  0  0  # atno 6908 bound_to 6896
  152.0999  134.9348  160.0620 H   0  0  0  0  0  0  0  0  0  0  0  0  # atno 6909 bound_to 6896
  145.3664  139.2407  143.3479 H   0  0  0  0  0  0  0  0  0  0  0  0  # atno 7974 bound_to 7965
  154.8823  140.2975  155.5418 H   0  0  0  0  0  0  0  0  0  0  0  0  # atno 8008 bound_to 7997
  156.3022  140.2440  156.3761 H   0  0  0  0  0  0  0  0  0  0  0  0  # atno 8009 bound_to 7997
  154.8704  140.0401  157.1710 H   0  0  0  0  0  0  0  0  0  0  0  0  # atno 8010 bound_to 7997
  139.4866  144.5628  151.7200 H   0  0  0  0  0  0  0  0  0  0  0  0  # atno 10167 bound_to 10162
  157.1972  130.6873  149.6173 H   0  0  0  0  0  0  0  0  0  0  0  0  # atno 10718 bound_to 10713
  154.8233  135.3334  154.6974 H   0  0  0  0  0  0  0  0  0  0  0  0  # atno 10763 bound_to 10752
  153.7603  135.6933  153.4931 H   0  0  0  0  0  0  0  0  0  0  0  0  # atno 10764 bound_to 10752
  153.2114  135.4481  155.0334 H   0  0  0  0  0  0  0  0  0  0  0  0  # atno 10765 bound_to 10752
  139.9384  134.9638  156.8488 H   0  0  0  0  0  0  0  0  0  0  0  0  # atno 11005 bound_to 11000
  146.2905  140.4307  142.8741 LP  0  0  0  0  0  0  0  0  0  0  0  0  # atno 17320 bound_to 7965
  144.8608  140.7137  143.6108 LP  0  0  0  0  0  0  0  0  0  0  0  0  # atno 17321 bound_to 7965
  140.5201  144.0892  150.6020 LP  0  0  0  0  0  0  0  0  0  0  0  0  # atno 17342 bound_to 10162
  140.3847  143.2784  152.0129 LP  0  0  0  0  0  0  0  0  0  0  0  0  # atno 17343 bound_to 10162
  155.9704  130.4595  150.6038 LP  0  0  0  0  0  0  0  0  0  0  0  0  # atno 17370 bound_to 10713
  157.3803  131.0780  151.1483 LP  0  0  0  0  0  0  0  0  0  0  0  0  # atno 17371 bound_to 10713
  140.6016  134.0166  155.7540 LP  0  0  0  0  0  0  0  0  0  0  0  0  # atno 17394 bound_to 11000
  141.1007  133.9772  157.3083 LP  0  0  0  0  0  0  0  0  0  0  0  0  # atno 17395 bound_to 11000

$$$$
