#       Name:                AV-unprocessed.smi:2909
#       Creating user name   scv26
#       Creation time:       Fri Mar 27 16:06:22 2020


#       File generated by GOLD software.
#

@<TRIPOS>MOLECULE
AV-unprocessed.smi:2909
    47    48     1
SMALL
NO_CHARGES


@<TRIPOS>ATOM
      1 ****        -4.9195  -1.9733  -2.6928 C.3            1 S1                 0.0000
      2 ****        -4.6648  -0.6741  -2.0074 C.2            1 S1                 0.0000
      3 ****        -4.0856  -0.3850  -0.8041 C.2            1 S1                 0.0000
      4 ****        -4.1319   1.0388  -0.7218 C.2            1 S1                 0.0000
      5 ****        -3.6309   1.9206   0.3907 C.3            1 S1                 0.0000
      6 ****        -2.1168   2.0988   0.2763 C.2            1 S1                 0.0000
      7 ****        -1.6545   3.0764  -0.3119 O.2            1 S1                 0.0000
      8 ****        -1.3572   1.1444   0.8373 N.am           1 S1                 0.0000
      9 ****         0.1013   1.1059   0.8152 C.3            1 S1                 0.0000
     10 ****         0.6055   0.4767  -0.4948 C.3            1 S1                 0.0000
     11 ****         2.1375   0.3586  -0.5116 C.3            1 S1                 0.0000
     12 ****         2.6892  -0.4385   0.6965 C.3            1 S1                 0.0000
     13 ****         4.2437  -0.5343   0.6800 C.3            1 S1                 0.0000
     14 ****         4.7862  -1.1745  -0.6129 C.3            1 S1                 0.0000
     15 ****         4.8079  -1.3072   1.8880 C.3            1 S1                 0.0000
     16 ****         2.1495   0.1896   2.0055 C.3            1 S1                 0.0000
     17 ****         0.6166   0.3018   2.0176 C.3            1 S1                 0.0000
     18 ****        -4.7007   1.5861  -1.7871 N.2            1 S1                 0.0000
     19 ****        -5.0176   0.5338  -2.5634 N.pl3          1 S1                 0.0000
     20 ****        -5.4693   0.6533  -3.4591 H              1 S1                 0.0000
     21 ****        -4.9629  -2.7907  -1.9727 H              1 S1                 0.0000
     22 ****        -4.1265  -2.1944  -3.4071 H              1 S1                 0.0000
     23 ****        -5.8662  -1.9516  -3.2332 H              1 S1                 0.0000
     24 ****        -3.6832  -1.0859  -0.0878 H              1 S1                 0.0000
     25 ****        -4.1115   2.8996   0.3603 H              1 S1                 0.0000
     26 ****        -3.8771   1.4867   1.3605 H              1 S1                 0.0000
     27 ****        -1.8250   0.3771   1.2978 H              1 S1                 0.0000
     28 ****         0.4884   2.1237   0.8942 H              1 S1                 0.0000
     29 ****         0.1651  -0.5131  -0.6233 H              1 S1                 0.0000
     30 ****         0.2780   1.0721  -1.3480 H              1 S1                 0.0000
     31 ****         2.4212  -0.1163  -1.4497 H              1 S1                 0.0000
     32 ****         2.5768   1.3569  -0.5246 H              1 S1                 0.0000
     33 ****         2.2935  -1.4533   0.6312 H              1 S1                 0.0000
     34 ****         4.6456   0.4785   0.7309 H              1 S1                 0.0000
     35 ****         4.3475  -2.1582  -0.7829 H              1 S1                 0.0000
     36 ****         5.8684  -1.3003  -0.5654 H              1 S1                 0.0000
     37 ****         4.5880  -0.5593  -1.4898 H              1 S1                 0.0000
     38 ****         4.3686  -2.3024   1.9629 H              1 S1                 0.0000
     39 ****         4.6289  -0.7857   2.8275 H              1 S1                 0.0000
     40 ****         5.8884  -1.4295   1.8068 H              1 S1                 0.0000
     41 ****         2.4435  -0.4053   2.8691 H              1 S1                 0.0000
     42 ****         2.5871   1.1788   2.1466 H              1 S1                 0.0000
     43 ****         0.2924   0.7723   2.9467 H              1 S1                 0.0000
     44 ****         0.1816  -0.6988   2.0098 H              1 S1                 0.0000
     45 ****        -2.2693   3.7542  -0.7150 LP             1 S1                 0.0000
     46 ****        -0.6641   3.1927  -0.3866 LP             1 S1                 0.0000
     47 ****        -4.8578   2.5564  -1.9710 LP             1 S1                 0.0000
@<TRIPOS>BOND
    1    1    2 1     
    2    1   21 1     
    3    1   22 1     
    4    1   23 1     
    5    2   19 1     
    6    2    3 2     
    7    3    4 1     
    8    3   24 1     
    9    4    5 1     
   10    4   18 2     
   11    5    6 1     
   12    5   25 1     
   13    5   26 1     
   14    6    7 2     
   15    6    8 am    
   16    8    9 1     
   17    8   27 1     
   18    9   17 1     
   19    9   10 1     
   20    9   28 1     
   21   10   11 1     
   22   10   29 1     
   23   10   30 1     
   24   11   12 1     
   25   11   31 1     
   26   11   32 1     
   27   12   13 1     
   28   12   16 1     
   29   12   33 1     
   30   13   14 1     
   31   13   15 1     
   32   13   34 1     
   33   14   35 1     
   34   14   36 1     
   35   14   37 1     
   36   15   38 1     
   37   15   39 1     
   38   15   40 1     
   39   16   17 1     
   40   16   41 1     
   41   16   42 1     
   42   17   43 1     
   43   17   44 1     
   44   18   19 1     
   45   19   20 1     
   46    7   45 1     
   47    7   46 1     
   48   18   47 1     
@<TRIPOS>SUBSTRUCTURE
      1 S1             1
@<TRIPOS>SET
LONE_PAIRS      STATIC     ATOMS    <user>   **** ""
3 45 46 47
DONOR_HYDROGENS      STATIC     ATOMS    <user>   **** ""
2 27 20
ATOM$BLUE        STATIC     ATOMS    COLORGROUP SYSTEM
3 45 46 47
ATOM$RED        STATIC     ATOMS    COLORGROUP SYSTEM
2 27 20
