AV-unprocessed.smi:2438|AV-procd|sdf|9598|dock8
  -GOLD-   2272013233D 1   1.00000     0.00000
 Structure written by MMmdl.
 43 44  0  0  0  0  0  0  0  0  1 V2000
  150.0366  137.1438  155.2809 C   0  0  0  0  0  0  0  0  0  0  0  0
  150.4977  138.1626  154.3478 N   0  0  0  0  0  0  0  0  0  0  0  0
  151.9376  138.3850  154.3009 C   0  0  0  0  0  0  0  0  0  0  0  0
  149.6867  139.3153  154.3362 C   0  0  0  0  0  0  0  0  0  0  0  0
  150.2509  140.4929  154.6989 N   0  0  0  0  0  0  0  0  0  0  0  0
  149.4716  141.5754  154.7046 C   0  0  0  0  0  0  0  0  0  0  0  0
  148.1798  141.6288  154.3810 N   0  0  0  0  0  0  0  0  0  0  0  0
  147.5972  140.4685  154.0146 C   0  0  0  0  0  0  0  0  0  0  0  0
  148.3140  139.2468  153.9805 C   0  0  0  0  0  0  0  0  0  0  0  0
  147.7417  138.0158  153.5562 N   0  0  0  0  0  0  0  0  0  0  0  0
  146.4647  137.6176  153.6714 C   0  0  0  0  0  0  0  0  0  0  0  0
  145.5445  138.3022  154.1179 O   0  0  0  0  0  0  0  0  0  0  0  0
  146.3161  136.3511  153.2596 N   0  0  0  0  0  0  0  0  0  0  0  0
  145.0742  135.5815  153.3113 C   0  0  1  0  0  0  0  0  0  0  0  0
  144.0158  136.2157  152.3888 C   0  0  0  0  0  0  0  0  0  0  0  0
  144.3589  136.0311  150.9005 C   0  0  0  0  0  0  0  0  0  0  0  0
  144.5856  134.5505  150.5556 C   0  0  0  0  0  0  0  0  0  0  0  0
  145.6752  133.9172  151.4465 C   0  0  2  0  0  0  0  0  0  0  0  0
  145.9272  132.4376  151.0927 C   0  0  0  0  0  0  0  0  0  0  0  0
  146.8694  131.9154  151.8784 F   0  0  0  0  0  0  0  0  0  0  0  0
  144.8037  131.7357  151.2419 F   0  0  0  0  0  0  0  0  0  0  0  0
  146.3172  132.3315  149.8224 F   0  0  0  0  0  0  0  0  0  0  0  0
  145.3106  134.1014  152.9369 C   0  0  0  0  0  0  0  0  0  0  0  0
  148.9988  136.8662  155.0975 H   0  0  0  0  0  0  0  0  0  0  0  0
  150.1167  137.5038  156.3073 H   0  0  0  0  0  0  0  0  0  0  0  0
  150.6430  136.2423  155.1892 H   0  0  0  0  0  0  0  0  0  0  0  0
  152.1923  139.1327  153.5486 H   0  0  0  0  0  0  0  0  0  0  0  0
  152.4532  137.4605  154.0406 H   0  0  0  0  0  0  0  0  0  0  0  0
  152.3117  138.7229  155.2680 H   0  0  0  0  0  0  0  0  0  0  0  0
  149.9365  142.5052  154.9968 H   0  0  0  0  0  0  0  0  0  0  0  0
  146.5601  140.5395  153.7249 H   0  0  0  0  0  0  0  0  0  0  0  0
  148.4013  137.3178  153.2442 H   0  0  0  0  0  0  0  0  0  0  0  0
  147.1306  135.8705  152.9064 H   0  0  0  0  0  0  0  0  0  0  0  0
  144.6955  135.6262  154.3341 H   0  0  0  0  0  0  0  0  0  0  0  0
  143.0474  135.7554  152.5888 H   0  0  0  0  0  0  0  0  0  0  0  0
  143.8997  137.2758  152.6177 H   0  0  0  0  0  0  0  0  0  0  0  0
  143.5556  136.4352  150.2837 H   0  0  0  0  0  0  0  0  0  0  0  0
  145.2527  136.6050  150.6529 H   0  0  0  0  0  0  0  0  0  0  0  0
  143.6489  134.0041  150.6727 H   0  0  0  0  0  0  0  0  0  0  0  0
  144.8621  134.4636  149.5046 H   0  0  0  0  0  0  0  0  0  0  0  0
  146.6077  134.4524  151.2603 H   0  0  0  0  0  0  0  0  0  0  0  0
  146.0886  133.6749  153.5706 H   0  0  0  0  0  0  0  0  0  0  0  0
  144.4054  133.5342  153.1572 H   0  0  0  0  0  0  0  0  0  0  0  0
  1  2  1  0  0  0  0
  1 24  1  0  0  0  0
  1 25  1  0  0  0  0
  1 26  1  0  0  0  0
  2  3  1  0  0  0  0
  2  4  1  0  0  0  0
  3 27  1  0  0  0  0
  3 28  1  0  0  0  0
  3 29  1  0  0  0  0
  4  9  1  0  0  0  0
  4  5  2  0  0  0  0
  5  6  1  0  0  0  0
  6  7  2  0  0  0  0
  6 30  1  0  0  0  0
  7  8  1  0  0  0  0
  8  9  2  0  0  0  0
  8 31  1  0  0  0  0
  9 10  1  0  0  0  0
 10 11  1  0  0  0  0
 10 32  1  0  0  0  0
 11 12  2  0  0  0  0
 11 13  1  0  0  0  0
 13 14  1  0  0  0  0
 13 33  1  0  0  0  0
 14 23  1  0  0  0  0
 14 15  1  0  0  0  0
 14 34  1  0  0  0  0
 15 16  1  0  0  0  0
 15 35  1  0  0  0  0
 15 36  1  0  0  0  0
 16 17  1  0  0  0  0
 16 37  1  0  0  0  0
 16 38  1  0  0  0  0
 17 18  1  0  0  0  0
 17 39  1  0  0  0  0
 17 40  1  0  0  0  0
 18 19  1  0  0  0  0
 18 23  1  0  0  0  0
 18 41  1  0  0  0  0
 19 20  1  0  0  0  0
 19 21  1  0  0  0  0
 19 22  1  0  0  0  0
 23 42  1  0  0  0  0
 23 43  1  0  0  0  0
M  END
> <s_m_source_file>
AV-unprocessed.smi

> <i_m_source_file_index>
2438

> <i_lp_mmshare_version>
43012

> <i_f3d_flags>
0

> <s_epik_input>
W0NIM11OKFtDSDNdKWMxbltjSF1uW2NIXWMxW05IXUMoPU8pW05IXVtDQEBIXTJbQ0gyXVtDSDJdW0NIMl1bQ0BASF0oQyhGKShGKUYpW0NIMl0y

> <s_epik_cmdline>
J2VwaWtfcHl0aG9uJywgJy1waCcsICc3LjAnLCAnLXRuJywgJzgnLCAnLW1hJywgJzIwMCcsICctbWV0YWxfYmluZGluZycsICctaW1hZScsICc8aW5maWxlLm1hZT4nLCAnLW9tYWUnLCAnPG91dGZpbGUubWFlPic=

> <r_lp_tautomer_probability>
1

> <r_epik_Ionization_Penalty>
0.01759

> <r_epik_Ionization_Penalty_Charging>
0

> <r_epik_Ionization_Penalty_Neutral>
0.01759

> <r_epik_State_Penalty>
0.0133536

> <r_epik_Charging_Adjusted_Penalty>
0.0133536

> <i_epik_Tot_Q>
0

> <i_epik_Tot_abs_Q>
0

> <r_epik_Metal_State_Penalty>
0.0129828

> <b_epik_Metal_Only>
0

> <s_lp_Force_Field>
OPLS_2005

> <r_lp_Energy>
8.79066

> <b_lp_Chiralities_Consistent>
1

> <s_lp_Variant>
AV-unprocessed.smi:2438-4

> <Gold.Version>
5.8.1

> <Gold.Id.Protein>
6NUR|6NUR_protein|mol2

> <Gold.PLP.Fitness>
43.2423

> <Gold.PLP.PLP>
-33.6483

> <Gold.PLP.part.hbond>
-3.0000

> <Gold.PLP.part.metal>
0.0000

> <Gold.PLP.part.buried>
0.1925

> <Gold.PLP.part.nonpolar>
-30.1377

> <Gold.PLP.part.repulsive>
0.5978

> <Gold.PLP.ligand.clash>
0.0000

> <Gold.PLP.ligand.torsion>
0.5086

> <Gold.PLP.Chemscore.Hbond>
2.4449

> <Gold.PLP.Chemscore.CHOScore>
0.9765

> <Gold.PLP.Chemscore.Metal>
0.0000

> <Gold.Chemscore.Hbonds>
donor molecule, donor type, donor heavy atom, donor atom, acceptor molecule, acceptor atom, score
      L1  H    10    32       P1  7948  0.93
      L1  H    13    33       P1  7948  0.64
      P1  H  7989  7998       L1     5  0.96
      L1  C     6    30       P1  8028  1.00

> <Gold.PLP.Chemscore.Internal.Correction>
0.3471

> <Gold.Rescore>
     Score         DG    S(hbond)    S(metal)    S(lipo)     H(rot)  DE(clash)    DE(int)     intcor
     12.34     -15.13       1.84        0.00      58.47       1.30       0.89       1.90       ----

> <Gold.Chemscore.Fitness>
12.3413

> <Gold.Chemscore.DG>
-15.1296

> <Gold.Chemscore.ZeroCoef>
-5.4800

> <Gold.Chemscore.Hbond>
1.8363

> <Gold.Chemscore.Metal>
0.0000

> <Gold.Chemscore.Lipo>
58.4688

> <Gold.Chemscore.Internal_Hbond>
0.0000

> <Gold.Chemscore.DEClash>
0.8891

> <Gold.Chemscore.DEInternal>
1.8992

> <Gold.Chemscore.Rot>
1.2987

> <Gold.Chemscore.Internal.Correction>
   9.000000E+99

> <Gold.Chemscore.Hbonds>
donor molecule, donor type, donor heavy atom, donor atom, acceptor molecule, acceptor atom, score
      L1  H    10    32       P1  7948  0.91
      L1  H    13    33       P1  7948  0.64
      P1  H  7989  7998       L1     5  0.30

> <Gold.Chemscore.Hbond.Weighted>
-6.1333

> <Gold.Chemscore.Metal.Weighted>
-0.0000

> <Gold.Chemscore.Lipo.Weighted>
-6.8409

> <Gold.Chemscore.Internal_Hbond.Weighted>
0.0000

> <Gold.Chemscore.DEClash.Weighted>
0.8891

> <Gold.Chemscore.DEInternal.Weighted>
1.8992

> <Gold.Chemscore.Rot.Weighted>
3.3246

> <Gold.Chemscore.Internal.Correction.Weighted>
   9.000000E+99

> <Gold.Protein.RotatedTorsions>
[ 6907 6896 6895 6894 ] final  108.98 input  -60.11 | X-H torsion
[ 7974 7965 7964 7962 ] final  130.31 input  175.53 | X-H torsion
[ 8008 7997 7996 7995 ] final  -44.38 input   59.86 | X-H torsion
[ 10167 10162 10161 10158 ] final  166.74 input  -65.29 | X-H torsion
[ 10718 10713 10712 10709 ] final -160.30 input   66.30 | X-H torsion
[ 10763 10752 10751 10750 ] final   87.11 input  -60.55 | X-H torsion
[ 11005 11000 10999 10996 ] final   -1.29 input  -57.11 | X-H torsion

> <Gold.Protein.ActiveResidues>
 VAL166  LYS551  ARG553  GLY616  TRP617  ASP618  TYR619  PRO620  LYS621  CYS622 
 ASP623  PHE694  ASN695  SER759  ASP760  ASP761  ALA762  ILE779  LEU786  VAL792 
 PHE793  MET794  SER795  GLU796  ALA797  LYS798  CYS799  TRP800  GLU811  SER814 

> <Gold.Protein.RotatedAtoms>
  152.5088  133.9011  159.7441 H   0  0  0  0  0  0  0  0  0  0  0  0  # atno 6907 bound_to 6896
  150.9426  133.6630  159.2794 H   0  0  0  0  0  0  0  0  0  0  0  0  # atno 6908 bound_to 6896
  151.3936  135.0965  159.9586 H   0  0  0  0  0  0  0  0  0  0  0  0  # atno 6909 bound_to 6896
  145.0193  139.4147  143.5205 H   0  0  0  0  0  0  0  0  0  0  0  0  # atno 7974 bound_to 7965
  154.3997  140.1424  156.3673 H   0  0  0  0  0  0  0  0  0  0  0  0  # atno 8008 bound_to 7997
  155.8125  140.3472  155.5445 H   0  0  0  0  0  0  0  0  0  0  0  0  # atno 8009 bound_to 7997
  155.8371  140.0921  157.1747 H   0  0  0  0  0  0  0  0  0  0  0  0  # atno 8010 bound_to 7997
  139.4931  144.3996  151.9425 H   0  0  0  0  0  0  0  0  0  0  0  0  # atno 10167 bound_to 10162
  156.5802  130.8726  151.2862 H   0  0  0  0  0  0  0  0  0  0  0  0  # atno 10718 bound_to 10713
  153.1636  135.4556  154.9806 H   0  0  0  0  0  0  0  0  0  0  0  0  # atno 10763 bound_to 10752
  154.7915  135.3222  154.7768 H   0  0  0  0  0  0  0  0  0  0  0  0  # atno 10764 bound_to 10752
  153.8254  135.6943  153.4876 H   0  0  0  0  0  0  0  0  0  0  0  0  # atno 10765 bound_to 10752
  140.6457  133.9449  155.8351 H   0  0  0  0  0  0  0  0  0  0  0  0  # atno 11005 bound_to 11000
  146.3483  139.9681  142.8709 LP  0  0  0  0  0  0  0  0  0  0  0  0  # atno 17320 bound_to 7965
  145.1917  140.9815  143.4207 LP  0  0  0  0  0  0  0  0  0  0  0  0  # atno 17321 bound_to 7965
  140.3435  144.3175  150.5962 LP  0  0  0  0  0  0  0  0  0  0  0  0  # atno 17342 bound_to 10162
  140.5546  143.2201  151.7869 LP  0  0  0  0  0  0  0  0  0  0  0  0  # atno 17343 bound_to 10162
  157.7328  130.9721  150.1947 LP  0  0  0  0  0  0  0  0  0  0  0  0  # atno 17370 bound_to 10713
  156.2638  130.3714  149.8102 LP  0  0  0  0  0  0  0  0  0  0  0  0  # atno 17371 bound_to 10713
  141.0574  134.0397  157.3704 LP  0  0  0  0  0  0  0  0  0  0  0  0  # atno 17394 bound_to 11000
  139.9064  135.0180  156.7502 LP  0  0  0  0  0  0  0  0  0  0  0  0  # atno 17395 bound_to 11000

$$$$
