AV-unprocessed.smi:234|AV-procd|sdf|1789|dock8
  -GOLD-   2262020343D 1   1.00000     0.00000
 Structure written by MMmdl.
 59 62  0  0  0  0  0  0  0  0  1 V2000
  151.9453  144.2356  160.2731 C   0  0  0  0  0  0  0  0  0  0  0  0
  152.2375  143.5864  161.6330 C   0  0  0  0  0  0  0  0  0  0  0  0
  152.7479  142.2715  161.4748 O   0  0  0  0  0  0  0  0  0  0  0  0
  153.7194  142.1402  160.4409 C   0  0  2  0  0  0  0  0  0  0  0  0
  153.0567  141.6446  159.1551 C   0  0  0  0  0  0  0  0  0  0  0  0
  153.3207  140.2234  159.6734 C   0  0  1  0  0  0  0  0  0  0  0  0
  153.7135  139.2658  158.6335 N   0  0  0  0  0  0  0  0  0  0  0  0
  154.6330  138.1952  159.0053 C   0  0  0  0  0  0  0  0  0  0  0  0
  152.7606  138.8408  157.7658 C   0  0  0  0  0  0  0  0  0  0  0  0
  152.8915  139.0793  156.4333 N   0  0  0  0  0  0  0  0  0  0  0  0
  151.9471  138.6723  155.5803 C   0  0  0  0  0  0  0  0  0  0  0  0
  150.8107  138.0232  155.8410 N   0  0  0  0  0  0  0  0  0  0  0  0
  150.6723  137.7850  157.1768 C   0  0  0  0  0  0  0  0  0  0  0  0
  151.5886  138.1612  158.1988 C   0  0  0  0  0  0  0  0  0  0  0  0
  151.1120  137.7517  159.4383 N   0  0  0  0  0  0  0  0  0  0  0  0
  149.9792  137.1641  159.1641 C   0  0  0  0  0  0  0  0  0  0  0  0
  149.6414  137.1322  157.8297 N   0  0  0  0  0  0  0  0  0  0  0  0
  148.4487  136.5360  157.2480 C   0  0  0  0  0  0  0  0  0  0  0  0
  148.3896  134.9991  157.4154 C   0  0  2  0  0  0  0  0  0  0  0  0
  147.3165  134.5025  156.6308 O   0  0  0  0  0  0  0  0  0  0  0  0
  148.1932  134.5382  158.8520 C   0  0  0  0  0  0  0  0  0  0  0  0
  148.7541  133.1221  158.8252 C   0  0  0  0  0  0  0  0  0  0  0  0
  149.8527  133.1823  157.9250 O   0  0  0  0  0  0  0  0  0  0  0  0
  149.7119  134.2942  157.0413 C   0  0  1  0  0  0  0  0  0  0  0  0
  149.8676  133.8531  155.5771 C   0  0  0  0  0  0  0  0  0  0  0  0
  154.4974  140.8017  160.5091 C   0  0  0  0  0  0  0  0  0  0  0  0
  155.8854  140.8542  159.8494 C   0  0  0  0  0  0  0  0  0  0  0  0
  154.6986  140.2192  161.9107 C   0  0  0  0  0  0  0  0  0  0  0  0
  151.5965  145.2602  160.4013 H   0  0  0  0  0  0  0  0  0  0  0  0
  151.1776  143.6927  159.7222 H   0  0  0  0  0  0  0  0  0  0  0  0
  152.8427  144.2639  159.6548 H   0  0  0  0  0  0  0  0  0  0  0  0
  152.9925  144.1755  162.1536 H   0  0  0  0  0  0  0  0  0  0  0  0
  151.3513  143.5834  162.2694 H   0  0  0  0  0  0  0  0  0  0  0  0
  154.3537  143.0156  160.2897 H   0  0  0  0  0  0  0  0  0  0  0  0
  152.0032  141.9069  159.0531 H   0  0  0  0  0  0  0  0  0  0  0  0
  153.6232  141.9009  158.2582 H   0  0  0  0  0  0  0  0  0  0  0  0
  152.5055  139.8692  160.3073 H   0  0  0  0  0  0  0  0  0  0  0  0
  154.1696  137.2111  158.9173 H   0  0  0  0  0  0  0  0  0  0  0  0
  154.9705  138.3042  160.0351 H   0  0  0  0  0  0  0  0  0  0  0  0
  155.5113  138.2169  158.3602 H   0  0  0  0  0  0  0  0  0  0  0  0
  152.1280  138.9002  154.5403 H   0  0  0  0  0  0  0  0  0  0  0  0
  149.3575  136.7262  159.9316 H   0  0  0  0  0  0  0  0  0  0  0  0
  147.5735  137.0002  157.7043 H   0  0  0  0  0  0  0  0  0  0  0  0
  148.4187  136.8033  156.1908 H   0  0  0  0  0  0  0  0  0  0  0  0
  147.1840  135.0894  155.9021 H   0  0  0  0  0  0  0  0  0  0  0  0
  148.7964  135.1466  159.5270 H   0  0  0  0  0  0  0  0  0  0  0  0
  147.1580  134.5854  159.1929 H   0  0  0  0  0  0  0  0  0  0  0  0
  149.0625  132.7726  159.8106 H   0  0  0  0  0  0  0  0  0  0  0  0
  148.0134  132.4239  158.4334 H   0  0  0  0  0  0  0  0  0  0  0  0
  150.5410  134.9603  157.2841 H   0  0  0  0  0  0  0  0  0  0  0  0
  149.7547  134.6986  154.8985 H   0  0  0  0  0  0  0  0  0  0  0  0
  149.1312  133.0975  155.3024 H   0  0  0  0  0  0  0  0  0  0  0  0
  150.8543  133.4221  155.4077 H   0  0  0  0  0  0  0  0  0  0  0  0
  156.3521  139.8699  159.8073 H   0  0  0  0  0  0  0  0  0  0  0  0
  156.5608  141.5090  160.4006 H   0  0  0  0  0  0  0  0  0  0  0  0
  155.8403  141.2306  158.8272 H   0  0  0  0  0  0  0  0  0  0  0  0
  155.2311  139.2685  161.8837 H   0  0  0  0  0  0  0  0  0  0  0  0
  153.7477  140.0378  162.4120 H   0  0  0  0  0  0  0  0  0  0  0  0
  155.2727  140.8970  162.5430 H   0  0  0  0  0  0  0  0  0  0  0  0
  1  2  1  0  0  0  0
  1 29  1  0  0  0  0
  1 30  1  0  0  0  0
  1 31  1  0  0  0  0
  2  3  1  0  0  0  0
  2 32  1  0  0  0  0
  2 33  1  0  0  0  0
  3  4  1  0  0  0  0
  4 26  1  0  0  0  0
  4  5  1  0  0  0  0
  4 34  1  0  0  0  0
  5  6  1  0  0  0  0
  5 35  1  0  0  0  0
  5 36  1  0  0  0  0
  6  7  1  0  0  0  0
  6 26  1  0  0  0  0
  6 37  1  0  0  0  0
  7  8  1  0  0  0  0
  7  9  1  0  0  0  0
  8 38  1  0  0  0  0
  8 39  1  0  0  0  0
  8 40  1  0  0  0  0
  9 14  1  0  0  0  0
  9 10  2  0  0  0  0
 10 11  1  0  0  0  0
 11 12  2  0  0  0  0
 11 41  1  0  0  0  0
 12 13  1  0  0  0  0
 13 17  1  0  0  0  0
 13 14  2  0  0  0  0
 14 15  1  0  0  0  0
 15 16  2  0  0  0  0
 16 17  1  0  0  0  0
 16 42  1  0  0  0  0
 17 18  1  0  0  0  0
 18 19  1  0  0  0  0
 18 43  1  0  0  0  0
 18 44  1  0  0  0  0
 19 24  1  0  0  0  0
 19 20  1  0  0  0  0
 19 21  1  0  0  0  0
 20 45  1  0  0  0  0
 21 22  1  0  0  0  0
 21 46  1  0  0  0  0
 21 47  1  0  0  0  0
 22 23  1  0  0  0  0
 22 48  1  0  0  0  0
 22 49  1  0  0  0  0
 23 24  1  0  0  0  0
 24 25  1  0  0  0  0
 24 50  1  0  0  0  0
 25 51  1  0  0  0  0
 25 52  1  0  0  0  0
 25 53  1  0  0  0  0
 26 27  1  0  0  0  0
 26 28  1  0  0  0  0
 27 54  1  0  0  0  0
 27 55  1  0  0  0  0
 27 56  1  0  0  0  0
 28 57  1  0  0  0  0
 28 58  1  0  0  0  0
 28 59  1  0  0  0  0
M  END
> <s_m_source_file>
AV-unprocessed.smi

> <i_m_source_file_index>
234

> <i_lp_mmshare_version>
43012

> <i_f3d_flags>
0

> <s_epik_input>
W0NIM11bQ0gyXU9bQ0BASF0oQzEoW0NIM10pW0NIM10pW0NIMl1bQ0BIXTFOKFtDSDNdKWMobltjSF1uMiljKGMyMyluW2NIXW4zW0NIMl1bQ0BAXTQoW09IXSlbQ0gyXVtDSDJdT1tDQEhdNFtDSDNd

> <s_epik_cmdline>
J2VwaWtfcHl0aG9uJywgJy1waCcsICc3LjAnLCAnLXRuJywgJzgnLCAnLW1hJywgJzIwMCcsICctbWV0YWxfYmluZGluZycsICctaW1hZScsICc8aW5maWxlLm1hZT4nLCAnLW9tYWUnLCAnPG91dGZpbGUubWFlPic=

> <r_lp_tautomer_probability>
1

> <r_epik_Ionization_Penalty>
0.00349132

> <r_epik_Ionization_Penalty_Charging>
0

> <r_epik_Ionization_Penalty_Neutral>
0.00349132

> <r_epik_State_Penalty>
0.00242418

> <r_epik_Charging_Adjusted_Penalty>
0.00242418

> <i_epik_Tot_Q>
0

> <i_epik_Tot_abs_Q>
0

> <r_epik_Metal_State_Penalty>
-0

> <b_epik_Metal_Only>
0

> <s_lp_Force_Field>
OPLS_2005

> <r_lp_Energy>
49.8598

> <b_lp_Chiralities_Consistent>
1

> <s_lp_Variant>
AV-unprocessed.smi:234-5

> <Gold.Version>
5.8.1

> <Gold.Id.Protein>
6NUR|6NUR_protein|mol2

> <Gold.PLP.Fitness>
45.4633

> <Gold.PLP.PLP>
-40.5154

> <Gold.PLP.part.hbond>
-3.3458

> <Gold.PLP.part.metal>
0.0000

> <Gold.PLP.part.buried>
-6.0338

> <Gold.PLP.part.nonpolar>
-31.7301

> <Gold.PLP.part.repulsive>
0.0656

> <Gold.PLP.ligand.clash>
0.0000

> <Gold.PLP.ligand.torsion>
1.0795

> <Gold.PLP.Chemscore.Hbond>
2.0000

> <Gold.PLP.Chemscore.CHOScore>
0.0000

> <Gold.PLP.Chemscore.Metal>
0.0000

> <Gold.Chemscore.Hbonds>
donor molecule, donor type, donor heavy atom, donor atom, acceptor molecule, acceptor atom, score
      P1  H  6896  6907       L1    23  0.65
      P1  H  7997  8010       L1    10  1.00

> <Gold.PLP.Chemscore.Internal.Correction>
1.1069

> <Gold.Rescore>
     Score         DG    S(hbond)    S(metal)    S(lipo)     H(rot)  DE(clash)    DE(int)     intcor
     13.82     -15.45       1.35        0.00     104.06       2.62       0.03       1.60       ----

> <Gold.Chemscore.Fitness>
13.8235

> <Gold.Chemscore.DG>
-15.4527

> <Gold.Chemscore.ZeroCoef>
-5.4800

> <Gold.Chemscore.Hbond>
1.3502

> <Gold.Chemscore.Metal>
0.0000

> <Gold.Chemscore.Lipo>
104.0598

> <Gold.Chemscore.Internal_Hbond>
0.0000

> <Gold.Chemscore.DEClash>
0.0276

> <Gold.Chemscore.DEInternal>
1.6016

> <Gold.Chemscore.Rot>
2.6219

> <Gold.Chemscore.Internal.Correction>
   9.000000E+99

> <Gold.Chemscore.Hbonds>
donor molecule, donor type, donor heavy atom, donor atom, acceptor molecule, acceptor atom, score
      P1  H  6896  6907       L1    23  0.04
      P1  H  7997  8010       L1    10  0.55

> <Gold.Chemscore.Hbond.Weighted>
-4.5098

> <Gold.Chemscore.Metal.Weighted>
-0.0000

> <Gold.Chemscore.Lipo.Weighted>
-12.1750

> <Gold.Chemscore.Internal_Hbond.Weighted>
0.0000

> <Gold.Chemscore.DEClash.Weighted>
0.0276

> <Gold.Chemscore.DEInternal.Weighted>
1.6016

> <Gold.Chemscore.Rot.Weighted>
6.7121

> <Gold.Chemscore.Internal.Correction.Weighted>
   9.000000E+99

> <Gold.Protein.RotatedTorsions>
[ 6907 6896 6895 6894 ] final -140.41 input  -60.11 | X-H torsion
[ 7974 7965 7964 7962 ] final -130.21 input  175.53 | X-H torsion
[ 8008 7997 7996 7995 ] final   83.12 input   59.86 | X-H torsion
[ 10167 10162 10161 10158 ] final -172.99 input  -65.29 | X-H torsion
[ 10718 10713 10712 10709 ] final  -75.23 input   66.30 | X-H torsion
[ 10763 10752 10751 10750 ] final  121.00 input  -60.55 | X-H torsion
[ 11005 11000 10999 10996 ] final -146.64 input  -57.11 | X-H torsion

> <Gold.Protein.ActiveResidues>
 VAL166  LYS551  ARG553  GLY616  TRP617  ASP618  TYR619  PRO620  LYS621  CYS622 
 ASP623  PHE694  ASN695  SER759  ASP760  ASP761  ALA762  ILE779  LEU786  VAL792 
 PHE793  MET794  SER795  GLU796  ALA797  LYS798  CYS799  TRP800  GLU811  SER814 

> <Gold.Protein.RotatedAtoms>
  151.0603  133.5550  159.2634 H   0  0  0  0  0  0  0  0  0  0  0  0  # atno 6907 bound_to 6896
  151.2527  135.0627  159.9078 H   0  0  0  0  0  0  0  0  0  0  0  0  # atno 6908 bound_to 6896
  152.5396  134.0361  159.8100 H   0  0  0  0  0  0  0  0  0  0  0  0  # atno 6909 bound_to 6896
  144.9497  140.7331  143.4795 H   0  0  0  0  0  0  0  0  0  0  0  0  # atno 7974 bound_to 7965
  155.9196  140.3422  155.6163 H   0  0  0  0  0  0  0  0  0  0  0  0  # atno 8008 bound_to 7997
  155.7289  140.0793  157.2316 H   0  0  0  0  0  0  0  0  0  0  0  0  # atno 8009 bound_to 7997
  154.4067  140.1592  156.2473 H   0  0  0  0  0  0  0  0  0  0  0  0  # atno 8010 bound_to 7997
  139.5713  144.1634  152.1388 H   0  0  0  0  0  0  0  0  0  0  0  0  # atno 10167 bound_to 10162
  156.0215  130.4436  150.3011 H   0  0  0  0  0  0  0  0  0  0  0  0  # atno 10718 bound_to 10713
  153.6072  135.3437  155.2966 H   0  0  0  0  0  0  0  0  0  0  0  0  # atno 10763 bound_to 10752
  154.8625  135.4241  154.2349 H   0  0  0  0  0  0  0  0  0  0  0  0  # atno 10764 bound_to 10752
  153.3191  135.7037  153.7118 H   0  0  0  0  0  0  0  0  0  0  0  0  # atno 10765 bound_to 10752
  140.7798  134.3092  157.5049 H   0  0  0  0  0  0  0  0  0  0  0  0  # atno 11005 bound_to 11000
  145.2863  139.1900  143.4764 LP  0  0  0  0  0  0  0  0  0  0  0  0  # atno 17320 bound_to 7965
  146.3316  140.2832  142.8611 LP  0  0  0  0  0  0  0  0  0  0  0  0  # atno 17321 bound_to 7965
  140.1168  144.5408  150.6889 LP  0  0  0  0  0  0  0  0  0  0  0  0  # atno 17342 bound_to 10162
  140.6997  143.2427  151.4898 LP  0  0  0  0  0  0  0  0  0  0  0  0  # atno 17343 bound_to 10162
  157.1114  131.0222  151.3046 LP  0  0  0  0  0  0  0  0  0  0  0  0  # atno 17370 bound_to 10713
  157.4701  130.7704  149.7316 LP  0  0  0  0  0  0  0  0  0  0  0  0  # atno 17371 bound_to 10713
  139.8744  134.9312  156.3521 LP  0  0  0  0  0  0  0  0  0  0  0  0  # atno 17394 bound_to 11000
  140.9493  133.7462  156.0250 LP  0  0  0  0  0  0  0  0  0  0  0  0  # atno 17395 bound_to 11000

$$$$
