AV-unprocessed.smi:822|AV-procd|sdf|3842|dock5
  -GOLD-   22720 1283D 1   1.00000     0.00000
 Structure written by MMmdl.
 39 40  0  0  0  0  0  0  0  0  2 V2000
  152.5434  140.1873  155.2455 O   0  0  0  0  0  0  0  0  0  0  0  0
  151.6537  139.7679  155.9860 C   0  0  0  0  0  0  0  0  0  0  0  0
  151.8339  139.8034  157.5074 C   0  0  0  0  0  0  0  0  0  0  0  0
  152.1735  141.2051  158.0632 C   0  0  0  0  0  0  0  0  0  0  0  0
  152.5810  141.1148  159.5486 C   0  0  0  0  0  0  0  0  0  0  0  0
  152.9281  142.4936  160.1329 C   0  0  0  0  0  0  0  0  0  0  0  0
  151.7655  143.4811  159.9558 C   0  0  0  0  0  0  0  0  0  0  0  0
  151.3570  143.5895  158.4796 C   0  0  0  0  0  0  0  0  0  0  0  0
  151.0111  142.2113  157.8925 C   0  0  0  0  0  0  0  0  0  0  0  0
  150.4984  139.2583  155.5321 N   0  0  0  0  0  0  0  0  0  0  0  0
  150.1343  139.1401  154.1257 C   0  0  0  0  0  0  0  0  0  0  0  0
  148.6120  139.0189  153.9477 C   0  0  0  0  0  0  0  0  0  0  0  0
  147.9440  140.3117  154.1021 N   0  0  0  0  0  0  0  0  0  0  0  0
  146.6290  140.6054  153.8472 C   0  0  0  0  0  0  0  0  0  0  0  0
  146.4622  141.9343  154.1408 C   0  0  0  0  0  0  0  0  0  0  0  0
  147.6814  142.3948  154.5613 N   0  3  0  0  0  0  0  0  0  0  0  0
  148.5811  141.4059  154.5380 C   0  0  0  0  0  0  0  0  0  0  0  0
  150.9376  139.4193  157.9971 H   0  0  0  0  0  0  0  0  0  0  0  0
  152.6364  139.1075  157.7541 H   0  0  0  0  0  0  0  0  0  0  0  0
  153.0344  141.5904  157.5140 H   0  0  0  0  0  0  0  0  0  0  0  0
  151.7694  140.6710  160.1269 H   0  0  0  0  0  0  0  0  0  0  0  0
  153.4375  140.4491  159.6603 H   0  0  0  0  0  0  0  0  0  0  0  0
  153.1758  142.3974  161.1903 H   0  0  0  0  0  0  0  0  0  0  0  0
  153.8190  142.8854  159.6406 H   0  0  0  0  0  0  0  0  0  0  0  0
  150.9112  143.1523  160.5487 H   0  0  0  0  0  0  0  0  0  0  0  0
  152.0485  144.4625  160.3373 H   0  0  0  0  0  0  0  0  0  0  0  0
  150.5032  144.2602  158.3794 H   0  0  0  0  0  0  0  0  0  0  0  0
  152.1705  144.0369  157.9072 H   0  0  0  0  0  0  0  0  0  0  0  0
  150.7582  142.3305  156.8388 H   0  0  0  0  0  0  0  0  0  0  0  0
  150.1158  141.8243  158.3807 H   0  0  0  0  0  0  0  0  0  0  0  0
  149.8217  138.9381  156.2101 H   0  0  0  0  0  0  0  0  0  0  0  0
  150.5016  140.0244  153.6038 H   0  0  0  0  0  0  0  0  0  0  0  0
  150.6434  138.2835  153.6799 H   0  0  0  0  0  0  0  0  0  0  0  0
  148.3610  138.6247  152.9617 H   0  0  0  0  0  0  0  0  0  0  0  0
  148.1909  138.3332  154.6843 H   0  0  0  0  0  0  0  0  0  0  0  0
  145.9281  139.8667  153.4859 H   0  0  0  0  0  0  0  0  0  0  0  0
  145.5906  142.5703  154.0835 H   0  0  0  0  0  0  0  0  0  0  0  0
  149.6175  141.4769  154.8172 H   0  0  0  0  0  0  0  0  0  0  0  0
  147.8767  143.3456  154.8488 H   0  0  0  0  0  0  0  0  0  0  0  0
  1  2  2  0  0  0  0
  2  3  1  0  0  0  0
  2 10  1  0  0  0  0
  3  4  1  0  0  0  0
  3 18  1  0  0  0  0
  3 19  1  0  0  0  0
  4  9  1  0  0  0  0
  4  5  1  0  0  0  0
  4 20  1  0  0  0  0
  5  6  1  0  0  0  0
  5 21  1  0  0  0  0
  5 22  1  0  0  0  0
  6  7  1  0  0  0  0
  6 23  1  0  0  0  0
  6 24  1  0  0  0  0
  7  8  1  0  0  0  0
  7 25  1  0  0  0  0
  7 26  1  0  0  0  0
  8  9  1  0  0  0  0
  8 27  1  0  0  0  0
  8 28  1  0  0  0  0
  9 29  1  0  0  0  0
  9 30  1  0  0  0  0
 10 11  1  0  0  0  0
 10 31  1  0  0  0  0
 11 12  1  0  0  0  0
 11 32  1  0  0  0  0
 11 33  1  0  0  0  0
 12 13  1  0  0  0  0
 12 34  1  0  0  0  0
 12 35  1  0  0  0  0
 13 17  1  0  0  0  0
 13 14  1  0  0  0  0
 14 15  2  0  0  0  0
 14 36  1  0  0  0  0
 15 16  1  0  0  0  0
 15 37  1  0  0  0  0
 16 17  2  0  0  0  0
 16 39  1  0  0  0  0
 17 38  1  0  0  0  0
M  CHG  1  16   1
M  END
> <s_m_source_file>
AV-unprocessed.smi

> <i_m_source_file_index>
822

> <i_lp_mmshare_version>
43012

> <i_f3d_flags>
0

> <s_epik_input>
W0NIMl0xW0NIMl1bQ0gyXVtDSDJdW0NIMl1bQ0hdMVtDSDJdQyg9TylbTkhdW0NIMl1bQ0gyXW4yW2NIXVtjSF1uW2NIXTI=

> <s_epik_cmdline>
J2VwaWtfcHl0aG9uJywgJy1waCcsICc3LjAnLCAnLXRuJywgJzgnLCAnLW1hJywgJzIwMCcsICctbWV0YWxfYmluZGluZycsICctaW1hZScsICc8aW5maWxlLm1hZT4nLCAnLW9tYWUnLCAnPG91dGZpbGUubWFlPic=

> <r_lp_tautomer_probability>
1

> <r_epik_Ionization_Penalty>
0.267085

> <r_epik_Ionization_Penalty_Charging>
0

> <r_epik_Ionization_Penalty_Neutral>
0.267085

> <r_epik_State_Penalty>
0.259064

> <r_epik_Charging_Adjusted_Penalty>
0.259064

> <i_epik_Tot_Q>
1

> <i_epik_Tot_abs_Q>
1

> <r_epik_Metal_State_Penalty>
0.544959

> <b_epik_Metal_Only>
0

> <s_lp_Force_Field>
OPLS_2005

> <r_lp_Energy>
11.7187

> <b_lp_Chiralities_Consistent>
1

> <s_lp_Variant>
AV-unprocessed.smi:822-1

> <Gold.Version>
5.8.1

> <Gold.Id.Protein>
6NUR|6NUR_protein|mol2

> <Gold.PLP.Fitness>
51.4357

> <Gold.PLP.PLP>
-39.2348

> <Gold.PLP.part.hbond>
-3.0000

> <Gold.PLP.part.metal>
0.0000

> <Gold.PLP.part.buried>
-3.2405

> <Gold.PLP.part.nonpolar>
-33.0326

> <Gold.PLP.part.repulsive>
0.3559

> <Gold.PLP.ligand.clash>
0.0000

> <Gold.PLP.ligand.torsion>
0.3584

> <Gold.PLP.Chemscore.Hbond>
3.2995

> <Gold.PLP.Chemscore.CHOScore>
0.9984

> <Gold.PLP.Chemscore.Metal>
0.0000

> <Gold.Chemscore.Hbonds>
donor molecule, donor type, donor heavy atom, donor atom, acceptor molecule, acceptor atom, score
      L1  H    16    39       P1  8028  2.00
      P1  H  7989  7998       L1     1  0.49
      P1  H  7997  8008       L1     1  1.00
      L1  C    14    36       P1 10175  0.84

> <Gold.PLP.Chemscore.Internal.Correction>
0.0239

> <Gold.Rescore>
     Score         DG    S(hbond)    S(metal)    S(lipo)     H(rot)  DE(clash)    DE(int)     intcor
     17.16     -17.64       2.06        0.00      90.10       2.05       0.10       0.38       ----

> <Gold.Chemscore.Fitness>
17.1647

> <Gold.Chemscore.DG>
-17.6376

> <Gold.Chemscore.ZeroCoef>
-5.4800

> <Gold.Chemscore.Hbond>
2.0585

> <Gold.Chemscore.Metal>
0.0000

> <Gold.Chemscore.Lipo>
90.1024

> <Gold.Chemscore.Internal_Hbond>
0.0000

> <Gold.Chemscore.DEClash>
0.0965

> <Gold.Chemscore.DEInternal>
0.3764

> <Gold.Chemscore.Rot>
2.0546

> <Gold.Chemscore.Internal.Correction>
   9.000000E+99

> <Gold.Chemscore.Hbonds>
donor molecule, donor type, donor heavy atom, donor atom, acceptor molecule, acceptor atom, score
      L1  H    16    39       P1  8028  0.69
      P1  H  7989  7998       L1     1  0.32
      P1  H  7997  8008       L1     1  0.92

> <Gold.Chemscore.Hbond.Weighted>
-6.8754

> <Gold.Chemscore.Metal.Weighted>
-0.0000

> <Gold.Chemscore.Lipo.Weighted>
-10.5420

> <Gold.Chemscore.Internal_Hbond.Weighted>
0.0000

> <Gold.Chemscore.DEClash.Weighted>
0.0965

> <Gold.Chemscore.DEInternal.Weighted>
0.3764

> <Gold.Chemscore.Rot.Weighted>
5.2598

> <Gold.Chemscore.Internal.Correction.Weighted>
   9.000000E+99

> <Gold.Protein.RotatedTorsions>
[ 6907 6896 6895 6894 ] final  123.04 input  -60.11 | X-H torsion
[ 7974 7965 7964 7962 ] final  -66.00 input  175.53 | X-H torsion
[ 8008 7997 7996 7995 ] final  -20.46 input   59.86 | X-H torsion
[ 10167 10162 10161 10158 ] final  -36.16 input  -65.29 | X-H torsion
[ 10718 10713 10712 10709 ] final  131.82 input   66.30 | X-H torsion
[ 10763 10752 10751 10750 ] final  115.01 input  -60.55 | X-H torsion
[ 11005 11000 10999 10996 ] final  126.53 input  -57.11 | X-H torsion

> <Gold.Protein.ActiveResidues>
 VAL166  LYS551  ARG553  GLY616  TRP617  ASP618  TYR619  PRO620  LYS621  CYS622 
 ASP623  PHE694  ASN695  SER759  ASP760  ASP761  ALA762  ILE779  LEU786  VAL792 
 PHE793  MET794  SER795  GLU796  ALA797  LYS798  CYS799  TRP800  GLU811  SER814 

> <Gold.Protein.RotatedAtoms>
  152.4194  133.7091  159.6468 H   0  0  0  0  0  0  0  0  0  0  0  0  # atno 6907 bound_to 6896
  150.8070  133.8481  159.3206 H   0  0  0  0  0  0  0  0  0  0  0  0  # atno 6908 bound_to 6896
  151.6202  135.1035  160.0151 H   0  0  0  0  0  0  0  0  0  0  0  0  # atno 6909 bound_to 6896
  145.7473  140.8925  143.0498 H   0  0  0  0  0  0  0  0  0  0  0  0  # atno 7974 bound_to 7965
  154.4768  140.2061  155.9858 H   0  0  0  0  0  0  0  0  0  0  0  0  # atno 8008 bound_to 7997
  156.1102  140.3230  155.8032 H   0  0  0  0  0  0  0  0  0  0  0  0  # atno 8009 bound_to 7997
  155.4647  140.0527  157.2977 H   0  0  0  0  0  0  0  0  0  0  0  0  # atno 8010 bound_to 7997
  140.7149  143.3428  151.2321 H   0  0  0  0  0  0  0  0  0  0  0  0  # atno 10167 bound_to 10162
  157.4931  131.1091  150.9530 H   0  0  0  0  0  0  0  0  0  0  0  0  # atno 10718 bound_to 10713
  153.5159  135.3608  155.2609 H   0  0  0  0  0  0  0  0  0  0  0  0  # atno 10763 bound_to 10752
  154.8739  135.4034  154.3316 H   0  0  0  0  0  0  0  0  0  0  0  0  # atno 10764 bound_to 10752
  153.3977  135.7074  153.6515 H   0  0  0  0  0  0  0  0  0  0  0  0  # atno 10765 bound_to 10752
  139.9461  134.9629  156.8721 H   0  0  0  0  0  0  0  0  0  0  0  0  # atno 11005 bound_to 11000
  144.6857  139.9543  143.7479 LP  0  0  0  0  0  0  0  0  0  0  0  0  # atno 17320 bound_to 7965
  146.0390  139.3404  143.0709 LP  0  0  0  0  0  0  0  0  0  0  0  0  # atno 17321 bound_to 7965
  139.6939  143.9645  152.2873 LP  0  0  0  0  0  0  0  0  0  0  0  0  # atno 17342 bound_to 10162
  139.9316  144.6738  150.8357 LP  0  0  0  0  0  0  0  0  0  0  0  0  # atno 17343 bound_to 10162
  157.0225  130.5679  149.5333 LP  0  0  0  0  0  0  0  0  0  0  0  0  # atno 17370 bound_to 10713
  156.0184  130.5279  150.8205 LP  0  0  0  0  0  0  0  0  0  0  0  0  # atno 17371 bound_to 10713
  140.5832  134.0333  155.7471 LP  0  0  0  0  0  0  0  0  0  0  0  0  # atno 17394 bound_to 11000
  141.1111  133.9614  157.2907 LP  0  0  0  0  0  0  0  0  0  0  0  0  # atno 17395 bound_to 11000

$$$$
