AV-unprocessed.smi:3278|AV-procd|sdf|12547|dock9
  -GOLD-   2272018463D 1   1.00000     0.00000
 Structure written by MMmdl.
 38 39  0  0  0  0  0  0  0  0  1 V2000
  153.4214  138.6392  154.1363 C   0  0  0  0  0  0  0  0  0  0  0  0
  152.0263  139.0161  154.2123 N   0  0  0  0  0  0  0  0  0  0  0  0
  151.4655  140.1242  154.8088 C   0  0  0  0  0  0  0  0  0  0  0  0
  150.1112  140.0553  154.6238 C   0  0  0  0  0  0  0  0  0  0  0  0
  149.0279  141.0193  155.0629 C   0  0  2  0  0  0  0  0  0  0  0  0
  147.6158  140.4235  154.8965 C   0  0  0  0  0  0  0  0  0  0  0  0
  149.0461  142.1832  154.2615 O   0  0  0  0  0  0  0  0  0  0  0  0
  149.2697  141.5026  156.5092 C   0  0  0  0  0  0  0  0  0  0  0  0
  150.2753  142.5666  156.5740 N   0  0  0  0  0  0  0  0  0  0  0  0
  150.9451  142.7291  157.8672 C   0  0  1  0  0  0  0  0  0  0  0  0
  151.8668  141.5317  158.1973 C   0  0  0  0  0  0  0  0  0  0  0  0
  152.5453  141.6613  159.5711 C   0  0  0  0  0  0  0  0  0  0  0  0
  153.4309  142.9091  159.6782 C   0  0  0  0  0  0  0  0  0  0  0  0
  152.4503  144.4195  159.4822 S   0  0  0  0  0  0  0  0  0  0  0  0
  151.7292  144.0541  157.8593 C   0  0  0  0  0  0  0  0  0  0  0  0
  149.9496  138.8473  153.8835 C   0  0  0  0  0  0  0  0  0  0  0  0
  151.0934  138.2288  153.6410 N   0  0  0  0  0  0  0  0  0  0  0  0
  154.0235  139.3065  154.7536 H   0  0  0  0  0  0  0  0  0  0  0  0
  153.7642  138.7052  153.1035 H   0  0  0  0  0  0  0  0  0  0  0  0
  153.5495  137.6166  154.4928 H   0  0  0  0  0  0  0  0  0  0  0  0
  152.0719  140.8649  155.3090 H   0  0  0  0  0  0  0  0  0  0  0  0
  147.4813  139.5289  155.5050 H   0  0  0  0  0  0  0  0  0  0  0  0
  147.4203  140.1472  153.8597 H   0  0  0  0  0  0  0  0  0  0  0  0
  146.8468  141.1363  155.1974 H   0  0  0  0  0  0  0  0  0  0  0  0
  149.1805  142.9312  154.8229 H   0  0  0  0  0  0  0  0  0  0  0  0
  148.3296  141.8703  156.9232 H   0  0  0  0  0  0  0  0  0  0  0  0
  149.5690  140.6550  157.1254 H   0  0  0  0  0  0  0  0  0  0  0  0
  149.8456  143.4464  156.3058 H   0  0  0  0  0  0  0  0  0  0  0  0
  150.1830  142.8015  158.6446 H   0  0  0  0  0  0  0  0  0  0  0  0
  151.2993  140.6019  158.1990 H   0  0  0  0  0  0  0  0  0  0  0  0
  152.6271  141.4244  157.4220 H   0  0  0  0  0  0  0  0  0  0  0  0
  151.7873  141.6802  160.3551 H   0  0  0  0  0  0  0  0  0  0  0  0
  153.1526  140.7746  159.7557 H   0  0  0  0  0  0  0  0  0  0  0  0
  153.9272  142.9379  160.6482 H   0  0  0  0  0  0  0  0  0  0  0  0
  154.2123  142.8892  158.9179 H   0  0  0  0  0  0  0  0  0  0  0  0
  152.5275  144.0239  157.1167 H   0  0  0  0  0  0  0  0  0  0  0  0
  151.0734  144.8823  157.5884 H   0  0  0  0  0  0  0  0  0  0  0  0
  149.0353  138.4060  153.5147 H   0  0  0  0  0  0  0  0  0  0  0  0
  1  2  1  0  0  0  0
  1 18  1  0  0  0  0
  1 19  1  0  0  0  0
  1 20  1  0  0  0  0
  2 17  1  0  0  0  0
  2  3  1  0  0  0  0
  3  4  2  0  0  0  0
  3 21  1  0  0  0  0
  4  5  1  0  0  0  0
  4 16  1  0  0  0  0
  5  6  1  0  0  0  0
  5  7  1  0  0  0  0
  5  8  1  0  0  0  0
  6 22  1  0  0  0  0
  6 23  1  0  0  0  0
  6 24  1  0  0  0  0
  7 25  1  0  0  0  0
  8  9  1  0  0  0  0
  8 26  1  0  0  0  0
  8 27  1  0  0  0  0
  9 10  1  0  0  0  0
  9 28  1  0  0  0  0
 10 15  1  0  0  0  0
 10 11  1  0  0  0  0
 10 29  1  0  0  0  0
 11 12  1  0  0  0  0
 11 30  1  0  0  0  0
 11 31  1  0  0  0  0
 12 13  1  0  0  0  0
 12 32  1  0  0  0  0
 12 33  1  0  0  0  0
 13 14  1  0  0  0  0
 13 34  1  0  0  0  0
 13 35  1  0  0  0  0
 14 15  1  0  0  0  0
 15 36  1  0  0  0  0
 15 37  1  0  0  0  0
 16 17  2  0  0  0  0
 16 38  1  0  0  0  0
M  END
> <s_m_source_file>
AV-unprocessed.smi

> <i_m_source_file_index>
3278

> <i_lp_mmshare_version>
43012

> <i_f3d_flags>
0

> <s_epik_input>
W0NIM11uMVtjSF1jKFtjSF1uMSlbQ0BAXShbQ0gzXSkoW09IXSlbQ0gyXVtOSF1bQ0BASF0yW0NIMl1bQ0gyXVtDSDJdU1tDSDJdMg==

> <s_epik_cmdline>
J2VwaWtfcHl0aG9uJywgJy1waCcsICc3LjAnLCAnLXRuJywgJzgnLCAnLW1hJywgJzIwMCcsICctbWV0YWxfYmluZGluZycsICctaW1hZScsICc8aW5maWxlLm1hZT4nLCAnLW9tYWUnLCAnPG91dGZpbGUubWFlPic=

> <r_lp_tautomer_probability>
1

> <r_epik_Ionization_Penalty>
2.06123

> <r_epik_Ionization_Penalty_Charging>
0

> <r_epik_Ionization_Penalty_Neutral>
2.06123

> <r_epik_State_Penalty>
2.1944

> <r_epik_Charging_Adjusted_Penalty>
2.1944

> <i_epik_Tot_Q>
0

> <i_epik_Tot_abs_Q>
0

> <r_epik_Metal_State_Penalty>
2.19434

> <b_epik_Metal_Only>
0

> <s_lp_Force_Field>
OPLS_2005

> <r_lp_Energy>
8.30166

> <b_lp_Chiralities_Consistent>
1

> <s_lp_Variant>
AV-unprocessed.smi:3278-8

> <Gold.Version>
5.8.1

> <Gold.Id.Protein>
6NUR|6NUR_protein|mol2

> <Gold.PLP.Fitness>
46.0916

> <Gold.PLP.PLP>
-40.5594

> <Gold.PLP.part.hbond>
-3.2515

> <Gold.PLP.part.metal>
0.0000

> <Gold.PLP.part.buried>
-0.1991

> <Gold.PLP.part.nonpolar>
-37.2592

> <Gold.PLP.part.repulsive>
0.2292

> <Gold.PLP.ligand.clash>
0.0000

> <Gold.PLP.ligand.torsion>
1.0483

> <Gold.PLP.Chemscore.Hbond>
2.1153

> <Gold.PLP.Chemscore.CHOScore>
0.4115

> <Gold.PLP.Chemscore.Metal>
0.0000

> <Gold.Chemscore.Hbonds>
donor molecule, donor type, donor heavy atom, donor atom, acceptor molecule, acceptor atom, score
      L1  H     7    25       P1  8028  1.00
      L1  H     9    28       P1  8028  1.00
      P1  H  8011  8017       L1     7  0.26
      L1  C    16    38       P1  7948  0.48

> <Gold.PLP.Chemscore.Internal.Correction>
0.0484

> <Gold.Rescore>
     Score         DG    S(hbond)    S(metal)    S(lipo)     H(rot)  DE(clash)    DE(int)     intcor
     18.17     -20.37       2.04        0.00     111.20       1.93       1.35       0.84       ----

> <Gold.Chemscore.Fitness>
18.1707

> <Gold.Chemscore.DG>
-20.3704

> <Gold.Chemscore.ZeroCoef>
-5.4800

> <Gold.Chemscore.Hbond>
2.0445

> <Gold.Chemscore.Metal>
0.0000

> <Gold.Chemscore.Lipo>
111.1973

> <Gold.Chemscore.Internal_Hbond>
0.0000

> <Gold.Chemscore.DEClash>
1.3548

> <Gold.Chemscore.DEInternal>
0.8449

> <Gold.Chemscore.Rot>
1.9329

> <Gold.Chemscore.Internal.Correction>
   9.000000E+99

> <Gold.Chemscore.Hbonds>
donor molecule, donor type, donor heavy atom, donor atom, acceptor molecule, acceptor atom, score
      L1  H     7    25       P1  8028  0.97
      L1  H     9    28       P1  8028  1.00
      P1  H  8011  8017       L1     7  0.21

> <Gold.Chemscore.Hbond.Weighted>
-6.8286

> <Gold.Chemscore.Metal.Weighted>
-0.0000

> <Gold.Chemscore.Lipo.Weighted>
-13.0101

> <Gold.Chemscore.Internal_Hbond.Weighted>
0.0000

> <Gold.Chemscore.DEClash.Weighted>
1.3548

> <Gold.Chemscore.DEInternal.Weighted>
0.8449

> <Gold.Chemscore.Rot.Weighted>
4.9483

> <Gold.Chemscore.Internal.Correction.Weighted>
   9.000000E+99

> <Gold.Protein.RotatedTorsions>
[ 6907 6896 6895 6894 ] final  -50.23 input  -60.11 | X-H torsion
[ 7974 7965 7964 7962 ] final -154.96 input  175.53 | X-H torsion
[ 8008 7997 7996 7995 ] final  -39.22 input   59.86 | X-H torsion
[ 10167 10162 10161 10158 ] final -178.58 input  -65.29 | X-H torsion
[ 10718 10713 10712 10709 ] final   20.71 input   66.30 | X-H torsion
[ 10763 10752 10751 10750 ] final   84.89 input  -60.55 | X-H torsion
[ 11005 11000 10999 10996 ] final  120.24 input  -57.11 | X-H torsion

> <Gold.Protein.ActiveResidues>
 VAL166  LYS551  ARG553  GLY616  TRP617  ASP618  TYR619  PRO620  LYS621  CYS622 
 ASP623  PHE694  ASN695  SER759  ASP760  ASP761  ALA762  ILE779  LEU786  VAL792 
 PHE793  MET794  SER795  GLU796  ALA797  LYS798  CYS799  TRP800  GLU811  SER814 

> <Gold.Protein.RotatedAtoms>
  150.8727  134.8104  159.7166 H   0  0  0  0  0  0  0  0  0  0  0  0  # atno 6907 bound_to 6896
  152.4726  134.4921  159.9708 H   0  0  0  0  0  0  0  0  0  0  0  0  # atno 6908 bound_to 6896
  151.5007  133.3466  159.2904 H   0  0  0  0  0  0  0  0  0  0  0  0  # atno 6909 bound_to 6896
  144.7663  140.4315  143.5939 H   0  0  0  0  0  0  0  0  0  0  0  0  # atno 7974 bound_to 7965
  154.4026  140.1557  156.2827 H   0  0  0  0  0  0  0  0  0  0  0  0  # atno 8008 bound_to 7997
  155.8855  140.3441  155.5896 H   0  0  0  0  0  0  0  0  0  0  0  0  # atno 8009 bound_to 7997
  155.7618  140.0818  157.2142 H   0  0  0  0  0  0  0  0  0  0  0  0  # atno 8010 bound_to 7997
  139.5425  144.2323  152.0924 H   0  0  0  0  0  0  0  0  0  0  0  0  # atno 10167 bound_to 10162
  157.1283  130.6580  149.5944 H   0  0  0  0  0  0  0  0  0  0  0  0  # atno 10718 bound_to 10713
  153.1423  135.4637  154.9514 H   0  0  0  0  0  0  0  0  0  0  0  0  # atno 10763 bound_to 10752
  154.7757  135.3172  154.8099 H   0  0  0  0  0  0  0  0  0  0  0  0  # atno 10764 bound_to 10752
  153.8619  135.6912  153.4836 H   0  0  0  0  0  0  0  0  0  0  0  0  # atno 10765 bound_to 10752
  139.9177  134.9633  156.7777 H   0  0  0  0  0  0  0  0  0  0  0  0  # atno 11005 bound_to 11000
  145.6459  139.1557  143.2889 LP  0  0  0  0  0  0  0  0  0  0  0  0  # atno 17320 bound_to 7965
  146.1773  140.6552  142.9205 LP  0  0  0  0  0  0  0  0  0  0  0  0  # atno 17321 bound_to 7965
  140.1804  144.4850  150.6531 LP  0  0  0  0  0  0  0  0  0  0  0  0  # atno 17342 bound_to 10162
  140.6661  143.2268  151.5739 LP  0  0  0  0  0  0  0  0  0  0  0  0  # atno 17343 bound_to 10162
  155.9813  130.4820  150.6821 LP  0  0  0  0  0  0  0  0  0  0  0  0  # atno 17370 bound_to 10713
  157.4415  131.0862  151.0939 LP  0  0  0  0  0  0  0  0  0  0  0  0  # atno 17371 bound_to 10713
  140.6570  133.9680  155.7784 LP  0  0  0  0  0  0  0  0  0  0  0  0  # atno 17394 bound_to 11000
  141.0670  134.0263  157.3580 LP  0  0  0  0  0  0  0  0  0  0  0  0  # atno 17395 bound_to 11000

$$$$
