AV-unprocessed.smi:2855|AV-procd|sdf|10981|dock2
  -GOLD-   2272015433D 1   1.00000     0.00000
 Structure written by MMmdl.
 47 48  0  0  0  0  0  0  0  0  1 V2000
  152.1968  144.7236  159.9939 C   0  0  0  0  0  0  0  0  0  0  0  0
  152.1904  143.6032  158.9441 C   0  0  2  0  0  0  0  0  0  0  0  0
  150.9947  143.7355  157.9858 C   0  0  0  0  0  0  0  0  0  0  0  0
  150.9893  142.6171  156.9322 C   0  0  0  0  0  0  0  0  0  0  0  0
  150.9847  141.2125  157.5808 C   0  0  1  0  0  0  0  0  0  0  0  0
  150.8793  140.0536  156.5434 C   0  0  0  0  0  0  0  0  0  0  0  0
  152.1566  139.8351  155.7116 C   0  0  0  0  0  0  0  0  0  0  0  0
  149.6520  140.1942  155.6268 C   0  0  0  0  0  0  0  0  0  0  0  0
  152.1865  141.0806  158.5577 C   0  0  2  0  0  0  0  0  0  0  0  0
  152.1538  139.7957  159.2543 N   0  0  0  0  0  0  0  0  0  0  0  0
  153.0839  138.8317  159.1726 C   0  0  0  0  0  0  0  0  0  0  0  0
  154.1294  138.9470  158.5321 O   0  0  0  0  0  0  0  0  0  0  0  0
  152.7859  137.5389  159.9432 C   0  0  0  0  0  0  0  0  0  0  0  0
  153.7735  137.2764  160.9999 N   0  0  0  0  0  0  0  0  0  0  0  0
  154.0275  138.2288  161.9768 C   0  0  0  0  0  0  0  0  0  0  0  0
  154.9314  138.0550  162.9699 C   0  0  0  0  0  0  0  0  0  0  0  0
  155.7028  136.8196  163.0593 C   0  0  0  0  0  0  0  0  0  0  0  0
  156.5417  136.5681  163.9215 O   0  0  0  0  0  0  0  0  0  0  0  0
  155.4206  135.8875  162.0572 N   0  0  0  0  0  0  0  0  0  0  0  0
  154.4916  136.0605  161.0300 C   0  0  0  0  0  0  0  0  0  0  0  0
  154.3228  135.1741  160.1931 O   0  0  0  0  0  0  0  0  0  0  0  0
  152.1882  142.2127  159.6031 C   0  0  0  0  0  0  0  0  0  0  0  0
  155.9320  135.0172  162.0768 H   0  0  0  0  0  0  0  0  0  0  0  0
  151.3029  144.6885  160.6172 H   0  0  0  0  0  0  0  0  0  0  0  0
  152.2341  145.7049  159.5201 H   0  0  0  0  0  0  0  0  0  0  0  0
  153.0640  144.6416  160.6499 H   0  0  0  0  0  0  0  0  0  0  0  0
  153.1056  143.6974  158.3574 H   0  0  0  0  0  0  0  0  0  0  0  0
  150.0619  143.7073  158.5507 H   0  0  0  0  0  0  0  0  0  0  0  0
  151.0229  144.7047  157.4865 H   0  0  0  0  0  0  0  0  0  0  0  0
  150.1174  142.7485  156.2928 H   0  0  0  0  0  0  0  0  0  0  0  0
  151.8630  142.7316  156.2903 H   0  0  0  0  0  0  0  0  0  0  0  0
  150.0829  141.1549  158.1929 H   0  0  0  0  0  0  0  0  0  0  0  0
  150.7110  139.1307  157.0984 H   0  0  0  0  0  0  0  0  0  0  0  0
  152.3796  140.6934  155.0783 H   0  0  0  0  0  0  0  0  0  0  0  0
  152.0471  138.9692  155.0580 H   0  0  0  0  0  0  0  0  0  0  0  0
  153.0245  139.6480  156.3426 H   0  0  0  0  0  0  0  0  0  0  0  0
  149.7512  141.0327  154.9379 H   0  0  0  0  0  0  0  0  0  0  0  0
  148.7399  140.3407  156.2061 H   0  0  0  0  0  0  0  0  0  0  0  0
  149.5137  139.2960  155.0243 H   0  0  0  0  0  0  0  0  0  0  0  0
  153.1086  141.1730  157.9822 H   0  0  0  0  0  0  0  0  0  0  0  0
  151.3351  139.6091  159.8147 H   0  0  0  0  0  0  0  0  0  0  0  0
  151.7836  137.6200  160.3656 H   0  0  0  0  0  0  0  0  0  0  0  0
  152.7433  136.6897  159.2574 H   0  0  0  0  0  0  0  0  0  0  0  0
  153.4831  139.1619  161.9481 H   0  0  0  0  0  0  0  0  0  0  0  0
  155.0854  138.8347  163.7018 H   0  0  0  0  0  0  0  0  0  0  0  0
  153.0623  142.1128  160.2483 H   0  0  0  0  0  0  0  0  0  0  0  0
  151.3154  142.1173  160.2513 H   0  0  0  0  0  0  0  0  0  0  0  0
  1  2  1  0  0  0  0
  1 24  1  0  0  0  0
  1 25  1  0  0  0  0
  1 26  1  0  0  0  0
  2 22  1  0  0  0  0
  2  3  1  0  0  0  0
  2 27  1  0  0  0  0
  3  4  1  0  0  0  0
  3 28  1  0  0  0  0
  3 29  1  0  0  0  0
  4  5  1  0  0  0  0
  4 30  1  0  0  0  0
  4 31  1  0  0  0  0
  5  6  1  0  0  0  0
  5  9  1  0  0  0  0
  5 32  1  0  0  0  0
  6  7  1  0  0  0  0
  6  8  1  0  0  0  0
  6 33  1  0  0  0  0
  7 34  1  0  0  0  0
  7 35  1  0  0  0  0
  7 36  1  0  0  0  0
  8 37  1  0  0  0  0
  8 38  1  0  0  0  0
  8 39  1  0  0  0  0
  9 10  1  0  0  0  0
  9 22  1  0  0  0  0
  9 40  1  0  0  0  0
 10 11  1  0  0  0  0
 10 41  1  0  0  0  0
 11 12  2  0  0  0  0
 11 13  1  0  0  0  0
 13 14  1  0  0  0  0
 13 42  1  0  0  0  0
 13 43  1  0  0  0  0
 14 20  1  0  0  0  0
 14 15  1  0  0  0  0
 15 16  2  0  0  0  0
 15 44  1  0  0  0  0
 16 17  1  0  0  0  0
 16 45  1  0  0  0  0
 17 18  2  0  0  0  0
 17 19  1  0  0  0  0
 19 23  1  0  0  0  0
 19 20  1  0  0  0  0
 20 21  2  0  0  0  0
 22 46  1  0  0  0  0
 22 47  1  0  0  0  0
M  END
> <s_m_source_file>
AV-unprocessed.smi

> <i_m_source_file_index>
2855

> <i_lp_mmshare_version>
43012

> <i_f3d_flags>
0

> <s_epik_input>
W0NIM11bQ0BASF0xW0NIMl1bQ0gyXVtDQEBIXShbQ0hdKFtDSDNdKVtDSDNdKVtDQEhdKFtDSDJdMSlbTkhdQyg9TylbQ0gyXW4yW2NIXVtjSF1jKD1PKVtuSF1jMj1P

> <s_epik_cmdline>
J2VwaWtfcHl0aG9uJywgJy1waCcsICc3LjAnLCAnLXRuJywgJzgnLCAnLW1hJywgJzIwMCcsICctbWV0YWxfYmluZGluZycsICctaW1hZScsICc8aW5maWxlLm1hZT4nLCAnLW9tYWUnLCAnPG91dGZpbGUubWFlPic=

> <r_lp_tautomer_probability>
0.999537

> <r_epik_Ionization_Penalty>
0.00306256

> <r_epik_Ionization_Penalty_Charging>
0.00306254

> <r_epik_Ionization_Penalty_Neutral>
2.0223e-08

> <r_epik_State_Penalty>
0.0021533

> <r_epik_Charging_Adjusted_Penalty>
0.00521583

> <i_epik_Tot_Q>
0

> <i_epik_Tot_abs_Q>
0

> <r_epik_Metal_State_Penalty>
0.362116

> <b_epik_Metal_Only>
0

> <s_lp_Force_Field>
OPLS_2005

> <r_lp_Energy>
14.402

> <b_lp_Chiralities_Consistent>
1

> <s_lp_Variant>
AV-unprocessed.smi:2855-5

> <Gold.Version>
5.8.1

> <Gold.Id.Protein>
6NUR|6NUR_protein|mol2

> <Gold.PLP.Fitness>
43.9943

> <Gold.PLP.PLP>
-38.0860

> <Gold.PLP.part.hbond>
-2.0000

> <Gold.PLP.part.metal>
0.0000

> <Gold.PLP.part.buried>
-3.0191

> <Gold.PLP.part.nonpolar>
-32.4085

> <Gold.PLP.part.repulsive>
0.1806

> <Gold.PLP.ligand.clash>
0.0000

> <Gold.PLP.ligand.torsion>
0.0753

> <Gold.PLP.Chemscore.Hbond>
2.0000

> <Gold.PLP.Chemscore.CHOScore>
0.0000

> <Gold.PLP.Chemscore.Metal>
0.0000

> <Gold.Chemscore.Hbonds>
donor molecule, donor type, donor heavy atom, donor atom, acceptor molecule, acceptor atom, score
      P1  H  6896  6908       L1    21  1.00
      P1  H  7997  8010       L1    12  1.00

> <Gold.PLP.Chemscore.Internal.Correction>
0.0589

> <Gold.Rescore>
     Score         DG    S(hbond)    S(metal)    S(lipo)     H(rot)  DE(clash)    DE(int)     intcor
     19.73     -20.08       2.00        0.00     108.31       1.85       0.27       0.08       ----

> <Gold.Chemscore.Fitness>
19.7298

> <Gold.Chemscore.DG>
-20.0815

> <Gold.Chemscore.ZeroCoef>
-5.4800

> <Gold.Chemscore.Hbond>
1.9985

> <Gold.Chemscore.Metal>
0.0000

> <Gold.Chemscore.Lipo>
108.3115

> <Gold.Chemscore.Internal_Hbond>
0.0000

> <Gold.Chemscore.DEClash>
0.2676

> <Gold.Chemscore.DEInternal>
0.0841

> <Gold.Chemscore.Rot>
1.8539

> <Gold.Chemscore.Internal.Correction>
   9.000000E+99

> <Gold.Chemscore.Hbonds>
donor molecule, donor type, donor heavy atom, donor atom, acceptor molecule, acceptor atom, score
      P1  H  6896  6908       L1    21  0.94
      P1  H  7997  8010       L1    12  1.00

> <Gold.Chemscore.Hbond.Weighted>
-6.6751

> <Gold.Chemscore.Metal.Weighted>
-0.0000

> <Gold.Chemscore.Lipo.Weighted>
-12.6724

> <Gold.Chemscore.Internal_Hbond.Weighted>
0.0000

> <Gold.Chemscore.DEClash.Weighted>
0.2676

> <Gold.Chemscore.DEInternal.Weighted>
0.0841

> <Gold.Chemscore.Rot.Weighted>
4.7460

> <Gold.Chemscore.Internal.Correction.Weighted>
   9.000000E+99

> <Gold.Protein.RotatedTorsions>
[ 6907 6896 6895 6894 ] final  -51.06 input  -60.11 | X-H torsion
[ 7974 7965 7964 7962 ] final  -55.15 input  175.53 | X-H torsion
[ 8008 7997 7996 7995 ] final   10.25 input   59.86 | X-H torsion
[ 10167 10162 10161 10158 ] final  -89.98 input  -65.29 | X-H torsion
[ 10718 10713 10712 10709 ] final  152.98 input   66.30 | X-H torsion
[ 10763 10752 10751 10750 ] final   89.70 input  -60.55 | X-H torsion
[ 11005 11000 10999 10996 ] final -171.05 input  -57.11 | X-H torsion

> <Gold.Protein.ActiveResidues>
 VAL166  LYS551  ARG553  GLY616  TRP617  ASP618  TYR619  PRO620  LYS621  CYS622 
 ASP623  PHE694  ASN695  SER759  ASP760  ASP761  ALA762  ILE779  LEU786  VAL792 
 PHE793  MET794  SER795  GLU796  ALA797  LYS798  CYS799  TRP800  GLU811  SER814 

> <Gold.Protein.RotatedAtoms>
  150.8647  134.8008  159.7109 H   0  0  0  0  0  0  0  0  0  0  0  0  # atno 6907 bound_to 6896
  152.4672  134.5043  159.9744 H   0  0  0  0  0  0  0  0  0  0  0  0  # atno 6908 bound_to 6896
  151.5141  133.3441  159.2925 H   0  0  0  0  0  0  0  0  0  0  0  0  # atno 6909 bound_to 6896
  145.8775  140.8170  142.9857 H   0  0  0  0  0  0  0  0  0  0  0  0  # atno 7974 bound_to 7965
  154.7909  140.2835  155.5992 H   0  0  0  0  0  0  0  0  0  0  0  0  # atno 8008 bound_to 7997
  156.2964  140.2605  156.2685 H   0  0  0  0  0  0  0  0  0  0  0  0  # atno 8009 bound_to 7997
  154.9672  140.0376  157.2207 H   0  0  0  0  0  0  0  0  0  0  0  0  # atno 8010 bound_to 7997
  140.3594  143.2850  151.9632 H   0  0  0  0  0  0  0  0  0  0  0  0  # atno 10167 bound_to 10162
  157.2508  131.0778  151.1731 H   0  0  0  0  0  0  0  0  0  0  0  0  # atno 10718 bound_to 10713
  153.1898  135.4461  155.0134 H   0  0  0  0  0  0  0  0  0  0  0  0  # atno 10763 bound_to 10752
  154.8083  135.3283  154.7376 H   0  0  0  0  0  0  0  0  0  0  0  0  # atno 10764 bound_to 10752
  153.7831  135.6976  153.4940 H   0  0  0  0  0  0  0  0  0  0  0  0  # atno 10765 bound_to 10752
  140.5126  134.5787  157.5023 H   0  0  0  0  0  0  0  0  0  0  0  0  # atno 11005 bound_to 11000
  144.6726  140.1332  143.7442 LP  0  0  0  0  0  0  0  0  0  0  0  0  # atno 17320 bound_to 7965
  145.9064  139.2460  143.1463 LP  0  0  0  0  0  0  0  0  0  0  0  0  # atno 17321 bound_to 7965
  139.4816  144.6006  151.7612 LP  0  0  0  0  0  0  0  0  0  0  0  0  # atno 17342 bound_to 10162
  140.5142  144.0979  150.6003 LP  0  0  0  0  0  0  0  0  0  0  0  0  # atno 17343 bound_to 10162
  157.3280  130.6970  149.6308 LP  0  0  0  0  0  0  0  0  0  0  0  0  # atno 17370 bound_to 10713
  155.9666  130.4316  150.4926 LP  0  0  0  0  0  0  0  0  0  0  0  0  # atno 17371 bound_to 10713
  139.9650  134.7388  156.0157 LP  0  0  0  0  0  0  0  0  0  0  0  0  # atno 17394 bound_to 11000
  141.1377  133.6571  156.3641 LP  0  0  0  0  0  0  0  0  0  0  0  0  # atno 17395 bound_to 11000

$$$$
