AV-unprocessed.smi:984|AV-procd|sdf|4317|dock8
  -GOLD-   22720 2223D 1   1.00000     0.00000
 Structure written by MMmdl.
 34 34  0  0  0  0  0  0  0  0  1 V2000
  144.2301  132.4860  149.0567 C   0  0  0  0  0  0  0  0  0  0  0  0
  144.2928  132.0258  150.5166 C   0  0  0  0  0  0  0  0  0  0  0  0
  144.8021  133.1279  151.4634 C   0  0  0  0  0  0  0  0  0  0  0  0
  146.3281  133.3398  151.4346 C   0  0  0  0  0  0  0  0  0  0  0  0
  146.7590  134.3598  152.3860 N   0  0  0  0  0  0  0  0  0  0  0  0
  146.4251  134.3966  153.6849 C   0  0  0  0  0  0  0  0  0  0  0  0
  145.7639  133.5174  154.2382 O   0  0  0  0  0  0  0  0  0  0  0  0
  146.9023  135.6152  154.4796 C   0  0  0  0  0  0  0  0  0  0  0  0
  148.3509  135.7456  154.3736 N   0  0  0  0  0  0  0  0  0  0  0  0
  149.1810  136.1334  155.3549 C   0  0  0  0  0  0  0  0  0  0  0  0
  148.8272  136.3033  156.5210 O   0  0  0  0  0  0  0  0  0  0  0  0
  150.6297  136.3994  154.9449 C   0  0  0  0  0  0  0  0  0  0  0  0
  150.9399  137.8148  155.0582 N   0  0  0  0  0  0  0  0  0  0  0  0
  150.5711  138.8476  154.2972 C   0  0  0  0  0  0  0  0  0  0  0  0
  151.0737  140.0095  154.6913 N   0  0  0  0  0  0  0  0  0  0  0  0
  151.7911  139.5917  155.7764 C   0  0  0  0  0  0  0  0  0  0  0  0
  151.7450  138.2856  156.0403 N   0  0  0  0  0  0  0  0  0  0  0  0
  143.8717  131.6833  148.4120 H   0  0  0  0  0  0  0  0  0  0  0  0
  145.2136  132.7879  148.6956 H   0  0  0  0  0  0  0  0  0  0  0  0
  143.5538  133.3332  148.9401 H   0  0  0  0  0  0  0  0  0  0  0  0
  143.2980  131.6989  150.8202 H   0  0  0  0  0  0  0  0  0  0  0  0
  144.9407  131.1517  150.5903 H   0  0  0  0  0  0  0  0  0  0  0  0
  144.3204  134.0698  151.1986 H   0  0  0  0  0  0  0  0  0  0  0  0
  144.4859  132.9052  152.4833 H   0  0  0  0  0  0  0  0  0  0  0  0
  146.8468  132.3951  151.6058 H   0  0  0  0  0  0  0  0  0  0  0  0
  146.6264  133.6703  150.4395 H   0  0  0  0  0  0  0  0  0  0  0  0
  147.3145  135.1187  152.0185 H   0  0  0  0  0  0  0  0  0  0  0  0
  146.3989  136.5109  154.1125 H   0  0  0  0  0  0  0  0  0  0  0  0
  146.6374  135.5129  155.5327 H   0  0  0  0  0  0  0  0  0  0  0  0
  148.7454  135.6265  153.4516 H   0  0  0  0  0  0  0  0  0  0  0  0
  151.3127  135.8391  155.5850 H   0  0  0  0  0  0  0  0  0  0  0  0
  150.7948  136.0661  153.9191 H   0  0  0  0  0  0  0  0  0  0  0  0
  149.9312  138.7452  153.4329 H   0  0  0  0  0  0  0  0  0  0  0  0
  152.3672  140.2701  156.3882 H   0  0  0  0  0  0  0  0  0  0  0  0
  1  2  1  0  0  0  0
  1 18  1  0  0  0  0
  1 19  1  0  0  0  0
  1 20  1  0  0  0  0
  2  3  1  0  0  0  0
  2 21  1  0  0  0  0
  2 22  1  0  0  0  0
  3  4  1  0  0  0  0
  3 23  1  0  0  0  0
  3 24  1  0  0  0  0
  4  5  1  0  0  0  0
  4 25  1  0  0  0  0
  4 26  1  0  0  0  0
  5  6  1  0  0  0  0
  5 27  1  0  0  0  0
  6  7  2  0  0  0  0
  6  8  1  0  0  0  0
  8  9  1  0  0  0  0
  8 28  1  0  0  0  0
  8 29  1  0  0  0  0
  9 10  1  0  0  0  0
  9 30  1  0  0  0  0
 10 11  2  0  0  0  0
 10 12  1  0  0  0  0
 12 13  1  0  0  0  0
 12 31  1  0  0  0  0
 12 32  1  0  0  0  0
 13 17  1  0  0  0  0
 13 14  1  0  0  0  0
 14 15  2  0  0  0  0
 14 33  1  0  0  0  0
 15 16  1  0  0  0  0
 16 17  2  0  0  0  0
 16 34  1  0  0  0  0
M  END
> <s_m_source_file>
AV-unprocessed.smi

> <i_m_source_file_index>
984

> <i_lp_mmshare_version>
43012

> <i_f3d_flags>
0

> <s_epik_input>
W0NIM11bQ0gyXVtDSDJdW0NIMl1bTkhdQyg9TylbQ0gyXVtOSF1DKD1PKVtDSDJdbjFbY0hdbltjSF1uMQ==

> <s_epik_cmdline>
J2VwaWtfcHl0aG9uJywgJy1waCcsICc3LjAnLCAnLXRuJywgJzgnLCAnLW1hJywgJzIwMCcsICctbWV0YWxfYmluZGluZycsICctaW1hZScsICc8aW5maWxlLm1hZT4nLCAnLW9tYWUnLCAnPG91dGZpbGUubWFlPic=

> <r_lp_tautomer_probability>
1

> <r_epik_Ionization_Penalty>
7.27004e-06

> <r_epik_Ionization_Penalty_Charging>
0

> <r_epik_Ionization_Penalty_Neutral>
7.27004e-06

> <r_epik_State_Penalty>
-0

> <r_epik_Charging_Adjusted_Penalty>
0

> <i_epik_Tot_Q>
0

> <i_epik_Tot_abs_Q>
0

> <r_epik_Metal_State_Penalty>
-0

> <b_epik_Metal_Only>
0

> <s_lp_Force_Field>
OPLS_2005

> <r_lp_Energy>
2.39519

> <b_lp_Chiralities_Consistent>
1

> <s_lp_Variant>
AV-unprocessed.smi:984-1

> <Gold.Version>
5.8.1

> <Gold.Id.Protein>
6NUR|6NUR_protein|mol2

> <Gold.PLP.Fitness>
39.2359

> <Gold.PLP.PLP>
-28.2977

> <Gold.PLP.part.hbond>
-2.8389

> <Gold.PLP.part.metal>
0.0000

> <Gold.PLP.part.buried>
-4.3570

> <Gold.PLP.part.nonpolar>
-21.1759

> <Gold.PLP.part.repulsive>
0.2144

> <Gold.PLP.ligand.clash>
0.0000

> <Gold.PLP.ligand.torsion>
0.4865

> <Gold.PLP.Chemscore.Hbond>
2.9760

> <Gold.PLP.Chemscore.CHOScore>
0.9570

> <Gold.PLP.Chemscore.Metal>
0.0000

> <Gold.Chemscore.Hbonds>
donor molecule, donor type, donor heavy atom, donor atom, acceptor molecule, acceptor atom, score
      L1  H     5    27       P1  7948  1.00
      L1  H     9    30       P1  7948  1.00
      P1  H  7989  7998       L1    15  1.00
      L1  C    14    33       P1  7957  0.77

> <Gold.PLP.Chemscore.Internal.Correction>
0.1123

> <Gold.Rescore>
     Score         DG    S(hbond)    S(metal)    S(lipo)     H(rot)  DE(clash)    DE(int)     intcor
     10.22     -10.69       2.86        0.00      41.88       3.61       0.05       0.42       ----

> <Gold.Chemscore.Fitness>
10.2153

> <Gold.Chemscore.DG>
-10.6875

> <Gold.Chemscore.ZeroCoef>
-5.4800

> <Gold.Chemscore.Hbond>
2.8598

> <Gold.Chemscore.Metal>
0.0000

> <Gold.Chemscore.Lipo>
41.8814

> <Gold.Chemscore.Internal_Hbond>
0.0000

> <Gold.Chemscore.DEClash>
0.0515

> <Gold.Chemscore.DEInternal>
0.4206

> <Gold.Chemscore.Rot>
3.6111

> <Gold.Chemscore.Internal.Correction>
   9.000000E+99

> <Gold.Chemscore.Hbonds>
donor molecule, donor type, donor heavy atom, donor atom, acceptor molecule, acceptor atom, score
      L1  H     5    27       P1  7948  0.95
      L1  H     9    30       P1  7948  0.90
      P1  H  7989  7998       L1    15  0.83

> <Gold.Chemscore.Hbond.Weighted>
-9.5517

> <Gold.Chemscore.Metal.Weighted>
-0.0000

> <Gold.Chemscore.Lipo.Weighted>
-4.9001

> <Gold.Chemscore.Internal_Hbond.Weighted>
0.0000

> <Gold.Chemscore.DEClash.Weighted>
0.0515

> <Gold.Chemscore.DEInternal.Weighted>
0.4206

> <Gold.Chemscore.Rot.Weighted>
9.2444

> <Gold.Chemscore.Internal.Correction.Weighted>
   9.000000E+99

> <Gold.Protein.RotatedTorsions>
[ 6907 6896 6895 6894 ] final  -27.41 input  -60.11 | X-H torsion
[ 7974 7965 7964 7962 ] final   23.90 input  175.53 | X-H torsion
[ 8008 7997 7996 7995 ] final  114.50 input   59.86 | X-H torsion
[ 10167 10162 10161 10158 ] final  -36.95 input  -65.29 | X-H torsion
[ 10718 10713 10712 10709 ] final  -16.02 input   66.30 | X-H torsion
[ 10763 10752 10751 10750 ] final  121.20 input  -60.55 | X-H torsion
[ 11005 11000 10999 10996 ] final  -88.60 input  -57.11 | X-H torsion

> <Gold.Protein.ActiveResidues>
 VAL166  LYS551  ARG553  GLY616  TRP617  ASP618  TYR619  PRO620  LYS621  CYS622 
 ASP623  PHE694  ASN695  SER759  ASP760  ASP761  ALA762  ILE779  LEU786  VAL792 
 PHE793  MET794  SER795  GLU796  ALA797  LYS798  CYS799  TRP800  GLU811  SER814 

> <Gold.Protein.RotatedAtoms>
  151.1472  135.0209  159.8651 H   0  0  0  0  0  0  0  0  0  0  0  0  # atno 6907 bound_to 6896
  152.5453  134.1430  159.8497 H   0  0  0  0  0  0  0  0  0  0  0  0  # atno 6908 bound_to 6896
  151.1512  133.4861  159.2628 H   0  0  0  0  0  0  0  0  0  0  0  0  # atno 6909 bound_to 6896
  146.1963  139.7680  142.8795 H   0  0  0  0  0  0  0  0  0  0  0  0  # atno 7974 bound_to 7965
  156.2325  140.2958  156.0225 H   0  0  0  0  0  0  0  0  0  0  0  0  # atno 8008 bound_to 7997
  155.2185  140.0415  157.2962 H   0  0  0  0  0  0  0  0  0  0  0  0  # atno 8009 bound_to 7997
  154.6020  140.2429  155.7787 H   0  0  0  0  0  0  0  0  0  0  0  0  # atno 8010 bound_to 7997
  140.7130  143.3374  151.2432 H   0  0  0  0  0  0  0  0  0  0  0  0  # atno 10167 bound_to 10162
  156.5935  130.4805  149.6269 H   0  0  0  0  0  0  0  0  0  0  0  0  # atno 10718 bound_to 10713
  153.6103  135.3431  155.2976 H   0  0  0  0  0  0  0  0  0  0  0  0  # atno 10763 bound_to 10752
  154.8620  135.4249  154.2316 H   0  0  0  0  0  0  0  0  0  0  0  0  # atno 10764 bound_to 10752
  153.3165  135.7035  153.7140 H   0  0  0  0  0  0  0  0  0  0  0  0  # atno 10765 bound_to 10752
  141.1599  133.7580  156.9475 H   0  0  0  0  0  0  0  0  0  0  0  0  # atno 11005 bound_to 11000
  145.3633  141.0330  143.3272 LP  0  0  0  0  0  0  0  0  0  0  0  0  # atno 17320 bound_to 7965
  144.8587  139.5210  143.6822 LP  0  0  0  0  0  0  0  0  0  0  0  0  # atno 17321 bound_to 7965
  139.6873  143.9752  152.2841 LP  0  0  0  0  0  0  0  0  0  0  0  0  # atno 17342 bound_to 10162
  139.9402  144.6686  150.8274 LP  0  0  0  0  0  0  0  0  0  0  0  0  # atno 17343 bound_to 10162
  156.2530  130.6918  151.1662 LP  0  0  0  0  0  0  0  0  0  0  0  0  # atno 17370 bound_to 10713
  157.7298  131.0621  150.5758 LP  0  0  0  0  0  0  0  0  0  0  0  0  # atno 17371 bound_to 10713
  140.1280  134.9374  157.2297 LP  0  0  0  0  0  0  0  0  0  0  0  0  # atno 17394 bound_to 11000
  140.2989  134.3154  155.7295 LP  0  0  0  0  0  0  0  0  0  0  0  0  # atno 17395 bound_to 11000

$$$$
