AV-unprocessed.smi:2867|AV-procd|sdf|11025|dock6
  -GOLD-   2272015483D 1   1.00000     0.00000
 Structure written by MMmdl.
 39 41  0  0  0  0  0  0  0  0  2 V2000
  152.9831  138.6824  154.7011 C   0  0  0  0  0  0  0  0  0  0  0  0
  151.6683  139.2103  154.6877 O   0  0  0  0  0  0  0  0  0  0  0  0
  151.2089  139.5520  155.9834 C   0  0  0  0  0  0  0  0  0  0  0  0
  151.2630  141.0758  156.1424 C   0  0  0  0  0  0  0  0  0  0  0  0
  150.1154  141.5725  156.8838 N   0  0  0  0  0  0  0  0  0  0  0  0
  150.0936  142.0606  158.1500 C   0  0  0  0  0  0  0  0  0  0  0  0
  151.2667  142.1562  159.0062 C   0  0  0  0  0  0  0  0  0  0  0  0
  151.5898  143.3751  159.6392 C   0  0  0  0  0  0  0  0  0  0  0  0
  152.7256  143.4605  160.4678 C   0  0  0  0  0  0  0  0  0  0  0  0
  153.5422  142.3294  160.6624 C   0  0  0  0  0  0  0  0  0  0  0  0
  153.2247  141.1131  160.0265 C   0  0  0  0  0  0  0  0  0  0  0  0
  154.0103  140.0263  160.2136 F   0  0  0  0  0  0  0  0  0  0  0  0
  152.0898  141.0270  159.1973 C   0  0  0  0  0  0  0  0  0  0  0  0
  148.8985  142.4768  158.5738 N   0  0  0  0  0  0  0  0  0  0  0  0
  148.0778  142.2364  157.4894 C   0  0  0  0  0  0  0  0  0  0  0  0
  146.6958  142.4676  157.3143 C   0  0  0  0  0  0  0  0  0  0  0  0
  146.0751  142.1432  156.0891 C   0  0  0  0  0  0  0  0  0  0  0  0
  144.3226  142.4491  155.8839 S   0  0  0  0  0  0  0  0  0  0  0  0
  143.9189  140.9706  155.3811 N   0  5  0  0  0  0  0  0  0  0  0  0
  143.7895  142.7639  157.2185 O   0  0  0  0  0  0  0  0  0  0  0  0
  144.1961  143.4655  154.8277 O   0  0  0  0  0  0  0  0  0  0  0  0
  146.8170  141.5838  155.0267 C   0  0  0  0  0  0  0  0  0  0  0  0
  148.1952  141.3448  155.1870 C   0  0  0  0  0  0  0  0  0  0  0  0
  148.8120  141.6703  156.4103 C   0  0  0  0  0  0  0  0  0  0  0  0
  153.2863  138.4282  153.6855 H   0  0  0  0  0  0  0  0  0  0  0  0
  153.0396  137.7766  155.3061 H   0  0  0  0  0  0  0  0  0  0  0  0
  153.6954  139.4102  155.0923 H   0  0  0  0  0  0  0  0  0  0  0  0
  150.1877  139.1935  156.1237 H   0  0  0  0  0  0  0  0  0  0  0  0
  151.8338  139.0741  156.7399 H   0  0  0  0  0  0  0  0  0  0  0  0
  152.1726  141.3661  156.6690 H   0  0  0  0  0  0  0  0  0  0  0  0
  151.3044  141.5617  155.1680 H   0  0  0  0  0  0  0  0  0  0  0  0
  150.9659  144.2447  159.4913 H   0  0  0  0  0  0  0  0  0  0  0  0
  152.9709  144.3933  160.9539 H   0  0  0  0  0  0  0  0  0  0  0  0
  154.4126  142.3952  161.2984 H   0  0  0  0  0  0  0  0  0  0  0  0
  151.8484  140.0925  158.7117 H   0  0  0  0  0  0  0  0  0  0  0  0
  146.1169  142.8999  158.1169 H   0  0  0  0  0  0  0  0  0  0  0  0
  143.8182  141.0044  154.3599 H   0  0  0  0  0  0  0  0  0  0  0  0
  146.3341  141.3435  154.0910 H   0  0  0  0  0  0  0  0  0  0  0  0
  148.7703  140.9207  154.3776 H   0  0  0  0  0  0  0  0  0  0  0  0
  1  2  1  0  0  0  0
  1 25  1  0  0  0  0
  1 26  1  0  0  0  0
  1 27  1  0  0  0  0
  2  3  1  0  0  0  0
  3  4  1  0  0  0  0
  3 28  1  0  0  0  0
  3 29  1  0  0  0  0
  4  5  1  0  0  0  0
  4 30  1  0  0  0  0
  4 31  1  0  0  0  0
  5 24  1  0  0  0  0
  5  6  1  0  0  0  0
  6  7  1  0  0  0  0
  6 14  2  0  0  0  0
  7 13  1  0  0  0  0
  7  8  2  0  0  0  0
  8  9  1  0  0  0  0
  8 32  1  0  0  0  0
  9 10  2  0  0  0  0
  9 33  1  0  0  0  0
 10 11  1  0  0  0  0
 10 34  1  0  0  0  0
 11 12  1  0  0  0  0
 11 13  2  0  0  0  0
 13 35  1  0  0  0  0
 14 15  1  0  0  0  0
 15 24  2  0  0  0  0
 15 16  1  0  0  0  0
 16 17  2  0  0  0  0
 16 36  1  0  0  0  0
 17 18  1  0  0  0  0
 17 22  1  0  0  0  0
 18 19  1  0  0  0  0
 18 20  2  0  0  0  0
 18 21  2  0  0  0  0
 19 37  1  0  0  0  0
 22 23  2  0  0  0  0
 22 38  1  0  0  0  0
 23 24  1  0  0  0  0
 23 39  1  0  0  0  0
M  CHG  1  19  -1
M  END
> <s_m_source_file>
AV-unprocessed.smi

> <i_m_source_file_index>
2867

> <i_lp_mmshare_version>
43012

> <i_f3d_flags>
0

> <s_epik_input>
W05IMl1TKD1PKSg9TyljKFtjSF0xKVtjSF1bY0hdYyhjMTIpbihbQ0gyXVtDSDJdT1tDSDNdKWMobjIpLWMzW2NIXVtjSF1bY0hdYyhGKVtjSF0z

> <s_epik_cmdline>
J2VwaWtfcHl0aG9uJywgJy1waCcsICc3LjAnLCAnLXRuJywgJzgnLCAnLW1hJywgJzIwMCcsICctbWV0YWxfYmluZGluZycsICctaW1hZScsICc8aW5maWxlLm1hZT4nLCAnLW9tYWUnLCAnPG91dGZpbGUubWFlPic=

> <r_epik_Ionization_Penalty>
4.13732

> <r_epik_Ionization_Penalty_Charging>
3.73366

> <r_epik_Ionization_Penalty_Neutral>
0.403663

> <r_epik_State_Penalty>
3.79183

> <r_epik_Charging_Adjusted_Penalty>
7.52549

> <i_epik_Tot_Q>
-1

> <i_epik_Tot_abs_Q>
1

> <r_epik_Metal_State_Penalty>
0.634538

> <b_epik_Metal_Only>
1

> <s_lp_Force_Field>
OPLS_2005

> <r_lp_Energy>
13.7357

> <b_lp_Chiralities_Consistent>
1

> <s_lp_Variant>
AV-unprocessed.smi:2867-3

> <Gold.Version>
5.8.1

> <Gold.Id.Protein>
6NUR|6NUR_protein|mol2

> <Gold.PLP.Fitness>
46.7114

> <Gold.PLP.PLP>
-42.9814

> <Gold.PLP.part.hbond>
-2.0185

> <Gold.PLP.part.metal>
0.0000

> <Gold.PLP.part.buried>
-5.0357

> <Gold.PLP.part.nonpolar>
-35.6067

> <Gold.PLP.part.repulsive>
0.3736

> <Gold.PLP.ligand.clash>
0.0000

> <Gold.PLP.ligand.torsion>
2.7391

> <Gold.PLP.Chemscore.Hbond>
2.0000

> <Gold.PLP.Chemscore.CHOScore>
0.0000

> <Gold.PLP.Chemscore.Metal>
0.0000

> <Gold.Chemscore.Hbonds>
donor molecule, donor type, donor heavy atom, donor atom, acceptor molecule, acceptor atom, score
      L1  H    19    37       P1 10175  1.00
      P1  H  7989  7998       L1     2  1.00

> <Gold.PLP.Chemscore.Internal.Correction>
3.2082

> <Gold.Rescore>
     Score         DG    S(hbond)    S(metal)    S(lipo)     H(rot)  DE(clash)    DE(int)     intcor
     17.26     -20.04       1.80        0.00     104.28       1.43       0.20       2.59       ----

> <Gold.Chemscore.Fitness>
17.2598

> <Gold.Chemscore.DG>
-20.0432

> <Gold.Chemscore.ZeroCoef>
-5.4800

> <Gold.Chemscore.Hbond>
1.8041

> <Gold.Chemscore.Metal>
0.0000

> <Gold.Chemscore.Lipo>
104.2761

> <Gold.Chemscore.Internal_Hbond>
0.0000

> <Gold.Chemscore.DEClash>
0.1975

> <Gold.Chemscore.DEInternal>
2.5860

> <Gold.Chemscore.Rot>
1.4308

> <Gold.Chemscore.Internal.Correction>
   9.000000E+99

> <Gold.Chemscore.Hbonds>
donor molecule, donor type, donor heavy atom, donor atom, acceptor molecule, acceptor atom, score
      L1  H    19    37       P1 10175  0.85
      P1  H  7989  7998       L1     2  0.45

> <Gold.Chemscore.Hbond.Weighted>
-6.0257

> <Gold.Chemscore.Metal.Weighted>
-0.0000

> <Gold.Chemscore.Lipo.Weighted>
-12.2003

> <Gold.Chemscore.Internal_Hbond.Weighted>
0.0000

> <Gold.Chemscore.DEClash.Weighted>
0.1975

> <Gold.Chemscore.DEInternal.Weighted>
2.5860

> <Gold.Chemscore.Rot.Weighted>
3.6628

> <Gold.Chemscore.Internal.Correction.Weighted>
   9.000000E+99

> <Gold.Protein.RotatedTorsions>
[ 6907 6896 6895 6894 ] final   41.33 input  -60.11 | X-H torsion
[ 7974 7965 7964 7962 ] final -115.94 input  175.53 | X-H torsion
[ 8008 7997 7996 7995 ] final  132.88 input   59.86 | X-H torsion
[ 10167 10162 10161 10158 ] final -147.28 input  -65.29 | X-H torsion
[ 10718 10713 10712 10709 ] final -119.76 input   66.30 | X-H torsion
[ 10763 10752 10751 10750 ] final -175.66 input  -60.55 | X-H torsion
[ 11005 11000 10999 10996 ] final  -25.85 input  -57.11 | X-H torsion

> <Gold.Protein.ActiveResidues>
 VAL166  LYS551  ARG553  GLY616  TRP617  ASP618  TYR619  PRO620  LYS621  CYS622 
 ASP623  PHE694  ASN695  SER759  ASP760  ASP761  ALA762  ILE779  LEU786  VAL792 
 PHE793  MET794  SER795  GLU796  ALA797  LYS798  CYS799  TRP800  GLU811  SER814 

> <Gold.Protein.RotatedAtoms>
  152.1939  134.8648  160.0514 H   0  0  0  0  0  0  0  0  0  0  0  0  # atno 6907 bound_to 6896
  151.9527  133.3666  159.4014 H   0  0  0  0  0  0  0  0  0  0  0  0  # atno 6908 bound_to 6896
  150.6940  134.4248  159.5265 H   0  0  0  0  0  0  0  0  0  0  0  0  # atno 6909 bound_to 6896
  145.1025  140.8561  143.3918 H   0  0  0  0  0  0  0  0  0  0  0  0  # atno 7974 bound_to 7965
  156.2987  140.2535  156.3161 H   0  0  0  0  0  0  0  0  0  0  0  0  # atno 8008 bound_to 7997
  154.9279  140.0399  157.2052 H   0  0  0  0  0  0  0  0  0  0  0  0  # atno 8009 bound_to 7997
  154.8246  140.2866  155.5767 H   0  0  0  0  0  0  0  0  0  0  0  0  # atno 8010 bound_to 7997
  139.7636  143.8341  152.2612 H   0  0  0  0  0  0  0  0  0  0  0  0  # atno 10167 bound_to 10162
  156.1205  130.6319  150.9456 H   0  0  0  0  0  0  0  0  0  0  0  0  # atno 10718 bound_to 10713
  154.5817  135.2837  155.0725 H   0  0  0  0  0  0  0  0  0  0  0  0  # atno 10763 bound_to 10752
  154.2059  135.6416  153.5104 H   0  0  0  0  0  0  0  0  0  0  0  0  # atno 10764 bound_to 10752
  153.0090  135.5480  154.6474 H   0  0  0  0  0  0  0  0  0  0  0  0  # atno 10765 bound_to 10752
  140.8975  133.7546  156.0501 H   0  0  0  0  0  0  0  0  0  0  0  0  # atno 11005 bound_to 11000
  145.0939  139.2870  143.5721 LP  0  0  0  0  0  0  0  0  0  0  0  0  # atno 17320 bound_to 7965
  146.3529  140.0485  142.8637 LP  0  0  0  0  0  0  0  0  0  0  0  0  # atno 17321 bound_to 7965
  139.8354  144.7234  150.9398 LP  0  0  0  0  0  0  0  0  0  0  0  0  # atno 17342 bound_to 10162
  140.7809  143.4031  151.1115 LP  0  0  0  0  0  0  0  0  0  0  0  0  # atno 17343 bound_to 10162
  157.6389  131.0913  150.8292 LP  0  0  0  0  0  0  0  0  0  0  0  0  # atno 17370 bound_to 10713
  156.8390  130.5041  149.5323 LP  0  0  0  0  0  0  0  0  0  0  0  0  # atno 17371 bound_to 10713
  140.8271  134.3222  157.5362 LP  0  0  0  0  0  0  0  0  0  0  0  0  # atno 17394 bound_to 11000
  139.8737  134.9342  156.3601 LP  0  0  0  0  0  0  0  0  0  0  0  0  # atno 17395 bound_to 11000

$$$$
