#       Name:                AV-unprocessed.smi:1413
#       Creating user name   scv26
#       Creation time:       Fri Mar 27 05:39:17 2020


#       File generated by GOLD software.
#

@<TRIPOS>MOLECULE
AV-unprocessed.smi:1413
    61    63     1
SMALL
NO_CHARGES


@<TRIPOS>ATOM
      1 ****        -6.8904  -1.5122   2.3507 C.3            1 S1                 0.0000
      2 ****        -6.0828  -1.2053   1.0854 C.3            1 S1                 0.0000
      3 ****        -4.5788  -1.0482   1.3819 C.3            1 S1                 0.0000
      4 ****        -3.8625  -0.6346   0.1787 N.3            1 S1                 0.0000
      5 ****        -2.4557  -0.7336   0.2387 C.ar           1 S1                 0.0000
      6 ****        -1.8442  -1.9581   0.5960 C.ar           1 S1                 0.0000
      7 ****        -0.4394  -2.0353   0.6446 C.ar           1 S1                 0.0000
      8 ****         0.3245  -0.8905   0.3467 C.ar           1 S1                 0.0000
      9 ****         1.7409  -1.0007   0.3814 N.am           1 S1                 0.0000
     10 ****         2.6497  -0.0206   0.5235 C.2            1 S1                 0.0000
     11 ****         2.3887   1.1693   0.6983 O.2            1 S1                 0.0000
     12 ****         3.8980  -0.5083   0.4709 N.am           1 S1                 0.0000
     13 ****         5.1294   0.2657   0.6241 C.3            1 S1                 0.0000
     14 ****         6.0846  -0.5067   1.5458 C.3            1 S1                 0.0000
     15 ****         5.7693   0.5496  -0.7509 C.3            1 S1                 0.0000
     16 ****         4.9052   1.3597  -1.7176 C.3            1 S1                 0.0000
     17 ****         5.9215   1.9683  -2.6688 C.3            1 S1                 0.0000
     18 ****         7.2440   1.8862  -1.9001 C.3            1 S1                 0.0000
     19 ****         6.9064   1.3876  -0.6123 O.3            1 S1                 0.0000
     20 ****        -0.3728   0.2863  -0.0146 C.ar           1 S1                 0.0000
     21 ****        -1.7194   0.3627  -0.0670 N.ar           1 S1                 0.0000
     22 ****        -4.4412   0.5451  -0.4600 C.3            1 S1                 0.0000
     23 ****        -5.9459   0.3349  -0.7102 C.3            1 S1                 0.0000
     24 ****        -6.6170   1.5896  -1.2788 C.3            1 S1                 0.0000
     25 ****        -6.5816   0.0050   0.5219 O.3            1 S1                 0.0000
     26 ****        -6.5518  -2.4369   2.8186 H              1 S1                 0.0000
     27 ****        -7.9496  -1.6255   2.1183 H              1 S1                 0.0000
     28 ****        -6.7944  -0.7107   3.0838 H              1 S1                 0.0000
     29 ****        -6.2328  -2.0194   0.3738 H              1 S1                 0.0000
     30 ****        -4.4256  -0.2939   2.1548 H              1 S1                 0.0000
     31 ****        -4.1925  -1.9874   1.7758 H              1 S1                 0.0000
     32 ****        -2.4324  -2.8370   0.8140 H              1 S1                 0.0000
     33 ****         0.0428  -2.9654   0.9080 H              1 S1                 0.0000
     34 ****         2.1040  -1.9417   0.3410 H              1 S1                 0.0000
     35 ****         4.0088  -1.5007   0.3240 H              1 S1                 0.0000
     36 ****         4.9079   1.2191   1.1070 H              1 S1                 0.0000
     37 ****         7.0045   0.0528   1.7178 H              1 S1                 0.0000
     38 ****         6.3583  -1.4714   1.1170 H              1 S1                 0.0000
     39 ****         5.6283  -0.6914   2.5188 H              1 S1                 0.0000
     40 ****         6.0778  -0.3839  -1.2264 H              1 S1                 0.0000
     41 ****         4.1556   0.7545  -2.2282 H              1 S1                 0.0000
     42 ****         4.3872   2.1557  -1.1807 H              1 S1                 0.0000
     43 ****         5.9844   1.3942  -3.5938 H              1 S1                 0.0000
     44 ****         5.6589   2.9945  -2.9268 H              1 S1                 0.0000
     45 ****         7.9288   1.1916  -2.3882 H              1 S1                 0.0000
     46 ****         7.7409   2.8534  -1.8203 H              1 S1                 0.0000
     47 ****         0.1416   1.1919  -0.2954 H              1 S1                 0.0000
     48 ****        -4.2827   1.4146   0.1797 H              1 S1                 0.0000
     49 ****        -3.9408   0.7418  -1.4090 H              1 S1                 0.0000
     50 ****        -6.0891  -0.4843  -1.4172 H              1 S1                 0.0000
     51 ****        -6.1687   1.8765  -2.2301 H              1 S1                 0.0000
     52 ****        -6.5212   2.4333  -0.5948 H              1 S1                 0.0000
     53 ****        -7.6799   1.4187  -1.4506 H              1 S1                 0.0000
     54 ****        -4.0357  -1.3501  -0.4980 LP             1 S1                 0.0000
     55 ****         1.4364   1.4708   0.7441 LP             1 S1                 0.0000
     56 ****         3.1290   1.8347   0.7946 LP             1 S1                 0.0000
     57 ****         7.6718   0.8624  -0.2403 LP             1 S1                 0.0000
     58 ****         6.6947   2.1483   0.0014 LP             1 S1                 0.0000
     59 ****        -2.1682   1.2174  -0.3280 LP             1 S1                 0.0000
     60 ****        -6.4272   0.7491   1.1719 LP             1 S1                 0.0000
     61 ****        -7.5629  -0.0973   0.3593 LP             1 S1                 0.0000
@<TRIPOS>BOND
    1    1    2 1     
    2    1   26 1     
    3    1   27 1     
    4    1   28 1     
    5    2   25 1     
    6    2    3 1     
    7    2   29 1     
    8    3    4 1     
    9    3   30 1     
   10    3   31 1     
   11    4    5 1     
   12    4   22 1     
   13    5   21 ar    
   14    5    6 ar    
   15    6    7 ar    
   16    6   32 1     
   17    7    8 ar    
   18    7   33 1     
   19    8    9 1     
   20    8   20 ar    
   21    9   10 am    
   22    9   34 1     
   23   10   11 2     
   24   10   12 am    
   25   12   13 1     
   26   12   35 1     
   27   13   14 1     
   28   13   15 1     
   29   13   36 1     
   30   14   37 1     
   31   14   38 1     
   32   14   39 1     
   33   15   19 1     
   34   15   16 1     
   35   15   40 1     
   36   16   17 1     
   37   16   41 1     
   38   16   42 1     
   39   17   18 1     
   40   17   43 1     
   41   17   44 1     
   42   18   19 1     
   43   18   45 1     
   44   18   46 1     
   45   20   21 ar    
   46   20   47 1     
   47   22   23 1     
   48   22   48 1     
   49   22   49 1     
   50   23   24 1     
   51   23   25 1     
   52   23   50 1     
   53   24   51 1     
   54   24   52 1     
   55   24   53 1     
   56    4   54 1     
   57   11   55 1     
   58   11   56 1     
   59   19   57 1     
   60   19   58 1     
   61   21   59 1     
   62   25   60 1     
   63   25   61 1     
@<TRIPOS>SUBSTRUCTURE
      1 S1             1
@<TRIPOS>SET
LONE_PAIRS      STATIC     ATOMS    <user>   **** ""
8 54 55 56 57 58 59 60 61
DONOR_HYDROGENS      STATIC     ATOMS    <user>   **** ""
2 34 35
ATOM$BLUE        STATIC     ATOMS    COLORGROUP SYSTEM
8 54 55 56 57 58 59 60 61
ATOM$RED        STATIC     ATOMS    COLORGROUP SYSTEM
2 34 35
