#       Name:                AV-unprocessed.smi:1005
#       Creating user name   scv26
#       Creation time:       Fri Mar 27 02:28:46 2020


#       File generated by GOLD software.
#

@<TRIPOS>MOLECULE
AV-unprocessed.smi:1005
    62    64     1
SMALL
NO_CHARGES


@<TRIPOS>ATOM
      1 ****        -2.3298   4.7226  -5.4416 C.3            1 S1                 0.0000
      2 ****        -2.4164   3.9847  -4.1163 C.ar           1 S1                 0.0000
      3 ****        -3.6779   3.5111  -3.6892 C.ar           1 S1                 0.0000
      4 ****        -3.7246   2.8391  -2.4735 C.ar           1 S1                 0.0000
      5 ****        -4.7937   2.2578  -1.7878 N.pl3          1 S1                 1.0000
      6 ****        -4.3437   1.7094  -0.6249 C.2            1 S1                 0.0000
      7 ****        -3.0032   1.9333  -0.5589 N.pl3          1 S1                 0.0000
      8 ****        -2.0295   1.5512   0.4718 C.3            1 S1                 0.0000
      9 ****        -1.2420   0.2796   0.1023 C.3            1 S1                 0.0000
     10 ****        -2.1485  -0.7979  -0.0297 O.3            1 S1                 0.0000
     11 ****        -0.2030  -0.0772   1.1838 C.3            1 S1                 0.0000
     12 ****         0.7066  -1.1752   0.8494 N.3            1 S1                 0.0000
     13 ****         1.6374  -0.8319  -0.2240 C.3            1 S1                 0.0000
     14 ****         2.6094  -1.9832  -0.5287 C.3            1 S1                 0.0000
     15 ****         3.2972  -2.3542   0.6613 O.3            1 S1                 0.0000
     16 ****         2.4241  -2.7665   1.7099 C.3            1 S1                 0.0000
     17 ****         3.2986  -3.1765   2.9143 C.3            1 S1                 0.0000
     18 ****         2.7848  -4.3621   3.6483 N.4            1 S1                 1.0000
     19 ****         1.4971  -4.1258   4.3396 C.3            1 S1                 0.0000
     20 ****         3.8001  -4.9226   4.5679 C.3            1 S1                 0.0000
     21 ****         1.4731  -1.5882   2.0201 C.3            1 S1                 0.0000
     22 ****        -2.5729   2.6335  -1.6900 C.ar           1 S1                 0.0000
     23 ****        -1.3223   3.0927  -2.0953 C.ar           1 S1                 0.0000
     24 ****        -1.2534   3.7770  -3.3297 C.ar           1 S1                 0.0000
     25 ****         0.0978   4.2883  -3.7994 C.3            1 S1                 0.0000
     26 ****        -3.3104   4.8210  -5.9083 H              1 S1                 0.0000
     27 ****        -1.6830   4.1864  -6.1362 H              1 S1                 0.0000
     28 ****        -1.9280   5.7258  -5.2975 H              1 S1                 0.0000
     29 ****        -4.5670   3.6641  -4.2834 H              1 S1                 0.0000
     30 ****        -4.9404   1.1871   0.1094 H              1 S1                 0.0000
     31 ****        -1.3573   2.3939   0.6376 H              1 S1                 0.0000
     32 ****        -2.5770   1.4048   1.4042 H              1 S1                 0.0000
     33 ****        -0.7575   0.4415  -0.8594 H              1 S1                 0.0000
     34 ****        -1.6588  -1.5727  -0.2614 H              1 S1                 0.0000
     35 ****         0.3863   0.8106   1.4188 H              1 S1                 0.0000
     36 ****        -0.7427  -0.3222   2.1001 H              1 S1                 0.0000
     37 ****         1.0975  -0.5891  -1.1380 H              1 S1                 0.0000
     38 ****         2.2072   0.0575   0.0496 H              1 S1                 0.0000
     39 ****         2.0746  -2.8440  -0.9328 H              1 S1                 0.0000
     40 ****         3.3373  -1.6766  -1.2800 H              1 S1                 0.0000
     41 ****         1.8573  -3.6300   1.3559 H              1 S1                 0.0000
     42 ****         4.2873  -3.4413   2.5359 H              1 S1                 0.0000
     43 ****         3.4550  -2.3378   3.5948 H              1 S1                 0.0000
     44 ****         1.5693  -3.2838   5.0292 H              1 S1                 0.0000
     45 ****         1.1973  -5.0064   4.9088 H              1 S1                 0.0000
     46 ****         0.6998  -3.9255   3.6250 H              1 S1                 0.0000
     47 ****         4.0590  -4.2049   5.3476 H              1 S1                 0.0000
     48 ****         4.7107  -5.1851   4.0282 H              1 S1                 0.0000
     49 ****         3.4312  -5.8301   5.0471 H              1 S1                 0.0000
     50 ****         2.0548  -0.7434   2.3928 H              1 S1                 0.0000
     51 ****         0.7889  -1.8629   2.8214 H              1 S1                 0.0000
     52 ****        -0.4381   2.9334  -1.4958 H              1 S1                 0.0000
     53 ****         0.8929   4.0105  -3.1068 H              1 S1                 0.0000
     54 ****         0.0884   5.3755  -3.8776 H              1 S1                 0.0000
     55 ****         0.3484   3.8723  -4.7753 H              1 S1                 0.0000
     56 ****         2.6131  -5.0775   2.9561 H              1 S1                 0.0000
     57 ****        -5.7593   2.2326  -2.0894 H              1 S1                 0.0000
     58 ****        -2.8152  -0.5928  -0.7463 LP             1 S1                 0.0000
     59 ****        -2.6255  -0.9462   0.8366 LP             1 S1                 0.0000
     60 ****         0.1274  -1.9262   0.5322 LP             1 S1                 0.0000
     61 ****         3.8274  -1.5685   0.9799 LP             1 S1                 0.0000
     62 ****         3.9164  -3.1099   0.4479 LP             1 S1                 0.0000
@<TRIPOS>BOND
    1    1    2 1     
    2    1   26 1     
    3    1   27 1     
    4    1   28 1     
    5    2   24 ar    
    6    2    3 ar    
    7    3    4 ar    
    8    3   29 1     
    9    4   22 ar    
   10    4    5 1     
   11    5    6 2     
   12    5   57 1     
   13    6    7 1     
   14    6   30 1     
   15    7    8 1     
   16    7   22 1     
   17    8    9 1     
   18    8   31 1     
   19    8   32 1     
   20    9   10 1     
   21    9   11 1     
   22    9   33 1     
   23   10   34 1     
   24   11   12 1     
   25   11   35 1     
   26   11   36 1     
   27   12   21 1     
   28   12   13 1     
   29   13   14 1     
   30   13   37 1     
   31   13   38 1     
   32   14   15 1     
   33   14   39 1     
   34   14   40 1     
   35   15   16 1     
   36   16   17 1     
   37   16   21 1     
   38   16   41 1     
   39   17   18 1     
   40   17   42 1     
   41   17   43 1     
   42   18   19 1     
   43   18   20 1     
   44   18   56 1     
   45   19   44 1     
   46   19   45 1     
   47   19   46 1     
   48   20   47 1     
   49   20   48 1     
   50   20   49 1     
   51   21   50 1     
   52   21   51 1     
   53   22   23 ar    
   54   23   24 ar    
   55   23   52 1     
   56   24   25 1     
   57   25   53 1     
   58   25   54 1     
   59   25   55 1     
   60   10   58 1     
   61   10   59 1     
   62   12   60 1     
   63   15   61 1     
   64   15   62 1     
@<TRIPOS>SUBSTRUCTURE
      1 S1             1
@<TRIPOS>SET
LONE_PAIRS      STATIC     ATOMS    <user>   **** ""
5 58 59 60 61 62
DONOR_HYDROGENS      STATIC     ATOMS    <user>   **** ""
3 57 34 56
ATOM$BLUE        STATIC     ATOMS    COLORGROUP SYSTEM
5 58 59 60 61 62
ATOM$RED        STATIC     ATOMS    COLORGROUP SYSTEM
3 57 34 56
