AV-unprocessed.smi:2391|AV-procd|sdf|9486|dock9
  -GOLD-   2272013113D 1   1.00000     0.00000
 Structure written by MMmdl.
 34 35  0  0  0  0  0  0  0  0  2 V2000
  149.3625  136.1033  158.8191 O   0  0  0  0  0  0  0  0  0  0  0  0
  148.8837  137.1478  159.2659 C   0  0  0  0  0  0  0  0  0  0  0  0
  148.0345  137.2541  160.3145 N   0  5  0  0  0  0  0  0  0  0  0  0
  147.5983  136.1550  160.9482 C   0  0  0  0  0  0  0  0  0  0  0  0
  147.5231  136.1254  162.3588 C   0  0  0  0  0  0  0  0  0  0  0  0
  147.0718  134.9492  162.9807 C   0  0  0  0  0  0  0  0  0  0  0  0
  146.7288  133.8727  162.1457 C   0  0  0  0  0  0  0  0  0  0  0  0
  146.8219  133.9405  160.8003 N   0  0  0  0  0  0  0  0  0  0  0  0
  147.2531  135.0646  160.2171 N   0  0  0  0  0  0  0  0  0  0  0  0
  149.1847  138.3253  158.6988 N   0  0  0  0  0  0  0  0  0  0  0  0
  150.0697  138.5518  157.5531 C   0  0  1  0  0  0  0  0  0  0  0  0
  149.5644  139.7717  156.7384 C   0  0  0  0  0  0  0  0  0  0  0  0
  148.0532  139.7764  156.4734 C   0  0  0  0  0  0  0  0  0  0  0  0
  147.8541  140.7782  155.3343 C   0  0  0  0  0  0  0  0  0  0  0  0
  149.1703  140.7871  154.5454 C   0  0  0  0  0  0  0  0  0  0  0  0
  150.1481  139.8986  155.3249 C   0  0  0  0  0  0  0  0  0  0  0  0
  151.5182  138.7036  158.0712 C   0  0  0  0  0  0  0  0  0  0  0  0
  151.8708  137.6156  158.7573 F   0  0  0  0  0  0  0  0  0  0  0  0
  152.3759  138.8385  157.0605 F   0  0  0  0  0  0  0  0  0  0  0  0
  151.6242  139.7656  158.8711 F   0  0  0  0  0  0  0  0  0  0  0  0
  147.8021  136.9857  162.9496 H   0  0  0  0  0  0  0  0  0  0  0  0
  146.9924  134.8754  164.0550 H   0  0  0  0  0  0  0  0  0  0  0  0
  146.3757  132.9409  162.5619 H   0  0  0  0  0  0  0  0  0  0  0  0
  148.7656  139.1475  159.1079 H   0  0  0  0  0  0  0  0  0  0  0  0
  150.0535  137.6777  156.9001 H   0  0  0  0  0  0  0  0  0  0  0  0
  149.8060  140.6844  157.2857 H   0  0  0  0  0  0  0  0  0  0  0  0
  147.7308  138.7860  156.1484 H   0  0  0  0  0  0  0  0  0  0  0  0
  147.4704  140.0388  157.3570 H   0  0  0  0  0  0  0  0  0  0  0  0
  146.9991  140.5175  154.7101 H   0  0  0  0  0  0  0  0  0  0  0  0
  147.6686  141.7710  155.7455 H   0  0  0  0  0  0  0  0  0  0  0  0
  149.0327  140.4169  153.5289 H   0  0  0  0  0  0  0  0  0  0  0  0
  149.5530  141.8057  154.4722 H   0  0  0  0  0  0  0  0  0  0  0  0
  151.1565  140.3131  155.3249 H   0  0  0  0  0  0  0  0  0  0  0  0
  150.1952  138.9156  154.8541 H   0  0  0  0  0  0  0  0  0  0  0  0
  1  2  2  0  0  0  0
  2  3  1  0  0  0  0
  2 10  1  0  0  0  0
  3  4  1  0  0  0  0
  4  9  1  0  0  0  0
  4  5  2  0  0  0  0
  5  6  1  0  0  0  0
  5 21  1  0  0  0  0
  6  7  2  0  0  0  0
  6 22  1  0  0  0  0
  7  8  1  0  0  0  0
  7 23  1  0  0  0  0
  8  9  2  0  0  0  0
 10 11  1  0  0  0  0
 10 24  1  0  0  0  0
 11 12  1  0  0  0  0
 11 17  1  0  0  0  0
 11 25  1  0  0  0  0
 12 16  1  0  0  0  0
 12 13  1  0  0  0  0
 12 26  1  0  0  0  0
 13 14  1  0  0  0  0
 13 27  1  0  0  0  0
 13 28  1  0  0  0  0
 14 15  1  0  0  0  0
 14 29  1  0  0  0  0
 14 30  1  0  0  0  0
 15 16  1  0  0  0  0
 15 31  1  0  0  0  0
 15 32  1  0  0  0  0
 16 33  1  0  0  0  0
 16 34  1  0  0  0  0
 17 18  1  0  0  0  0
 17 19  1  0  0  0  0
 17 20  1  0  0  0  0
M  CHG  1   3  -1
M  END
> <s_m_source_file>
AV-unprocessed.smi

> <i_m_source_file_index>
2391

> <i_lp_mmshare_version>
43012

> <i_f3d_flags>
0

> <s_epik_input>
W0NIMl0xW0NIMl1bQ0gyXVtDSDJdW0NIXTFbQ0BIXShDKEYpKEYpRilbTkhdQyg9TylbTkhdYzJbY0hdW2NIXVtjSF1ubjI=

> <s_epik_cmdline>
J2VwaWtfcHl0aG9uJywgJy1waCcsICc3LjAnLCAnLXRuJywgJzgnLCAnLW1hJywgJzIwMCcsICctbWV0YWxfYmluZGluZycsICctaW1hZScsICc8aW5maWxlLm1hZT4nLCAnLW9tYWUnLCAnPG91dGZpbGUubWFlPic=

> <r_lp_tautomer_probability>
1

> <r_epik_Ionization_Penalty>
8.90766

> <r_epik_Ionization_Penalty_Charging>
5.82661

> <r_epik_Ionization_Penalty_Neutral>
3.08106

> <r_epik_State_Penalty>
5.83894

> <r_epik_Charging_Adjusted_Penalty>
11.6655

> <i_epik_Tot_Q>
-1

> <i_epik_Tot_abs_Q>
1

> <r_epik_Metal_State_Penalty>
1.80768

> <b_epik_Metal_Only>
1

> <s_lp_Force_Field>
OPLS_2005

> <r_lp_Energy>
28.2955

> <b_lp_Chiralities_Consistent>
1

> <s_lp_Variant>
AV-unprocessed.smi:2391-6

> <Gold.Version>
5.8.1

> <Gold.Id.Protein>
6NUR|6NUR_protein|mol2

> <Gold.PLP.Fitness>
41.7792

> <Gold.PLP.PLP>
-32.1838

> <Gold.PLP.part.hbond>
-3.0000

> <Gold.PLP.part.metal>
0.0000

> <Gold.PLP.part.buried>
-4.8675

> <Gold.PLP.part.nonpolar>
-26.5666

> <Gold.PLP.part.repulsive>
0.2149

> <Gold.PLP.ligand.clash>
0.0000

> <Gold.PLP.ligand.torsion>
0.9077

> <Gold.PLP.Chemscore.Hbond>
3.6762

> <Gold.PLP.Chemscore.CHOScore>
0.0000

> <Gold.PLP.Chemscore.Metal>
0.0000

> <Gold.Chemscore.Hbonds>
donor molecule, donor type, donor heavy atom, donor atom, acceptor molecule, acceptor atom, score
      P1  H  6896  6909       L1     1  0.81
      P1  H  6931  6943       L1     3  1.05
      P1  H  6934  6947       L1     3  1.38

> <Gold.PLP.Chemscore.Internal.Correction>
0.3821

> <Gold.Rescore>
     Score         DG    S(hbond)    S(metal)    S(lipo)     H(rot)  DE(clash)    DE(int)     intcor
     12.19     -14.67       1.94        0.00      52.00       1.32       0.01       2.47       ----

> <Gold.Chemscore.Fitness>
12.1896

> <Gold.Chemscore.DG>
-14.6655

> <Gold.Chemscore.ZeroCoef>
-5.4800

> <Gold.Chemscore.Hbond>
1.9386

> <Gold.Chemscore.Metal>
0.0000

> <Gold.Chemscore.Lipo>
52.0030

> <Gold.Chemscore.Internal_Hbond>
0.0000

> <Gold.Chemscore.DEClash>
0.0077

> <Gold.Chemscore.DEInternal>
2.4682

> <Gold.Chemscore.Rot>
1.3179

> <Gold.Chemscore.Internal.Correction>
   9.000000E+99

> <Gold.Chemscore.Hbonds>
donor molecule, donor type, donor heavy atom, donor atom, acceptor molecule, acceptor atom, score
      P1  H  6896  6909       L1     1  0.80
      P1  H  6931  6943       L1     3  0.10
      P1  H  6934  6947       L1     3  0.60

> <Gold.Chemscore.Hbond.Weighted>
-6.4749

> <Gold.Chemscore.Metal.Weighted>
-0.0000

> <Gold.Chemscore.Lipo.Weighted>
-6.0843

> <Gold.Chemscore.Internal_Hbond.Weighted>
0.0000

> <Gold.Chemscore.DEClash.Weighted>
0.0077

> <Gold.Chemscore.DEInternal.Weighted>
2.4682

> <Gold.Chemscore.Rot.Weighted>
3.3737

> <Gold.Chemscore.Internal.Correction.Weighted>
   9.000000E+99

> <Gold.Protein.RotatedTorsions>
[ 6907 6896 6895 6894 ] final   61.64 input  -60.11 | X-H torsion
[ 7974 7965 7964 7962 ] final  153.39 input  175.53 | X-H torsion
[ 8008 7997 7996 7995 ] final  -99.92 input   59.86 | X-H torsion
[ 10167 10162 10161 10158 ] final -163.60 input  -65.29 | X-H torsion
[ 10718 10713 10712 10709 ] final  -22.95 input   66.30 | X-H torsion
[ 10763 10752 10751 10750 ] final  -36.30 input  -60.55 | X-H torsion
[ 11005 11000 10999 10996 ] final   -4.12 input  -57.11 | X-H torsion

> <Gold.Protein.ActiveResidues>
 VAL166  LYS551  ARG553  GLY616  TRP617  ASP618  TYR619  PRO620  LYS621  CYS622 
 ASP623  PHE694  ASN695  SER759  ASP760  ASP761  ALA762  ILE779  LEU786  VAL792 
 PHE793  MET794  SER795  GLU796  ALA797  LYS798  CYS799  TRP800  GLU811  SER814 

> <Gold.Protein.RotatedAtoms>
  152.4106  134.6131  160.0030 H   0  0  0  0  0  0  0  0  0  0  0  0  # atno 6907 bound_to 6896
  151.6310  133.3326  159.3117 H   0  0  0  0  0  0  0  0  0  0  0  0  # atno 6908 bound_to 6896
  150.7997  134.7122  159.6655 H   0  0  0  0  0  0  0  0  0  0  0  0  # atno 6909 bound_to 6896
  144.8158  139.6794  143.6122 H   0  0  0  0  0  0  0  0  0  0  0  0  # atno 7974 bound_to 7965
  154.8214  140.0444  157.1413 H   0  0  0  0  0  0  0  0  0  0  0  0  # atno 8008 bound_to 7997
  154.9255  140.3032  155.5174 H   0  0  0  0  0  0  0  0  0  0  0  0  # atno 8009 bound_to 7997
  156.2980  140.2333  156.4309 H   0  0  0  0  0  0  0  0  0  0  0  0  # atno 8010 bound_to 7997
  139.6309  144.0441  152.2015 H   0  0  0  0  0  0  0  0  0  0  0  0  # atno 10167 bound_to 10162
  156.4976  130.4581  149.6719 H   0  0  0  0  0  0  0  0  0  0  0  0  # atno 10718 bound_to 10713
  153.8774  135.6825  153.4769 H   0  0  0  0  0  0  0  0  0  0  0  0  # atno 10763 bound_to 10752
  153.1253  135.4722  154.9260 H   0  0  0  0  0  0  0  0  0  0  0  0  # atno 10764 bound_to 10752
  154.7685  135.3231  154.8189 H   0  0  0  0  0  0  0  0  0  0  0  0  # atno 10765 bound_to 10752
  140.6768  133.9189  155.8529 H   0  0  0  0  0  0  0  0  0  0  0  0  # atno 11005 bound_to 11000
  146.2461  139.6101  142.9459 LP  0  0  0  0  0  0  0  0  0  0  0  0  # atno 17320 bound_to 7965
  145.5218  141.0431  143.2431 LP  0  0  0  0  0  0  0  0  0  0  0  0  # atno 17321 bound_to 7965
  140.0106  144.6226  150.7650 LP  0  0  0  0  0  0  0  0  0  0  0  0  # atno 17342 bound_to 10162
  140.7438  143.2852  151.3484 LP  0  0  0  0  0  0  0  0  0  0  0  0  # atno 17343 bound_to 10162
  156.3364  130.7359  151.2297 LP  0  0  0  0  0  0  0  0  0  0  0  0  # atno 17370 bound_to 10713
  157.7466  131.0415  150.4652 LP  0  0  0  0  0  0  0  0  0  0  0  0  # atno 17371 bound_to 10713
  141.0349  134.0703  157.3971 LP  0  0  0  0  0  0  0  0  0  0  0  0  # atno 17394 bound_to 11000
  139.8964  135.0146  156.7050 LP  0  0  0  0  0  0  0  0  0  0  0  0  # atno 17395 bound_to 11000

$$$$
