#       Name:                AV-unprocessed.smi:2144
#       Creating user name   scv26
#       Creation time:       Fri Mar 27 11:49:53 2020


#       File generated by GOLD software.
#

@<TRIPOS>MOLECULE
AV-unprocessed.smi:2144
    47    49     1
SMALL
NO_CHARGES


@<TRIPOS>ATOM
      1 ****        -1.2424   1.5533  -3.7559 O.3            1 S1                 0.0000
      2 ****        -2.3206   1.7086  -2.8594 C.3            1 S1                 0.0000
      3 ****        -1.9151   2.3422  -1.5632 C.2            1 S1                 0.0000
      4 ****        -2.2242   3.6079  -1.2788 N.2            1 S1                 0.0000
      5 ****        -1.6960   3.7747  -0.0142 C.ar           1 S1                 0.0000
      6 ****        -1.6982   4.9000   0.8409 C.ar           1 S1                 0.0000
      7 ****        -1.0931   4.8312   2.1128 C.ar           1 S1                 0.0000
      8 ****        -0.4795   3.6386   2.5475 C.ar           1 S1                 0.0000
      9 ****        -0.4645   2.5066   1.7103 C.ar           1 S1                 0.0000
     10 ****        -1.0671   2.5815   0.4400 C.ar           1 S1                 0.0000
     11 ****        -1.2194   1.6755  -0.6055 N.pl3          1 S1                 0.0000
     12 ****        -0.7350   0.3003  -0.6168 C.3            1 S1                 0.0000
     13 ****         0.8004   0.2090  -0.7356 C.3            1 S1                 0.0000
     14 ****         1.2300   0.8136  -1.9383 O.3            1 S1                 0.0000
     15 ****         1.3018  -1.2420  -0.7156 C.3            1 S1                 0.0000
     16 ****         1.0480  -1.7953   0.5689 O.3            1 S1                 0.0000
     17 ****         1.3945  -3.1100   0.7964 C.ar           1 S1                 0.0000
     18 ****         2.0050  -3.9504  -0.1696 C.ar           1 S1                 0.0000
     19 ****         2.3272  -5.2844   0.1475 C.ar           1 S1                 0.0000
     20 ****         2.0454  -5.7946   1.4280 C.ar           1 S1                 0.0000
     21 ****         1.4397  -4.9685   2.3923 C.ar           1 S1                 0.0000
     22 ****         1.1169  -3.6346   2.0768 C.ar           1 S1                 0.0000
     23 ****         0.5340  -2.8496   3.0143 F              1 S1                 0.0000
     24 ****        -1.5687   1.1652  -4.5530 H              1 S1                 0.0000
     25 ****        -3.0803   2.3266  -3.3390 H              1 S1                 0.0000
     26 ****        -2.7866   0.7417  -2.6704 H              1 S1                 0.0000
     27 ****        -2.1683   5.8170   0.5178 H              1 S1                 0.0000
     28 ****        -1.1013   5.6972   2.7584 H              1 S1                 0.0000
     29 ****        -0.0204   3.5931   3.5243 H              1 S1                 0.0000
     30 ****         0.0039   1.5916   2.0409 H              1 S1                 0.0000
     31 ****        -1.0648  -0.1736   0.3084 H              1 S1                 0.0000
     32 ****        -1.2071  -0.2570  -1.4244 H              1 S1                 0.0000
     33 ****         1.2682   0.7531   0.0853 H              1 S1                 0.0000
     34 ****         0.9149   1.7046  -1.9550 H              1 S1                 0.0000
     35 ****         0.8023  -1.8209  -1.4944 H              1 S1                 0.0000
     36 ****         2.3752  -1.2635  -0.9123 H              1 S1                 0.0000
     37 ****         2.2379  -3.5954  -1.1619 H              1 S1                 0.0000
     38 ****         2.7919  -5.9172  -0.5943 H              1 S1                 0.0000
     39 ****         2.2935  -6.8177   1.6697 H              1 S1                 0.0000
     40 ****         1.2221  -5.3576   3.3760 H              1 S1                 0.0000
     41 ****        -0.5493   0.9577  -3.3499 LP             1 S1                 0.0000
     42 ****        -0.8389   2.4461  -3.9559 LP             1 S1                 0.0000
     43 ****        -2.7165   4.2716  -1.8419 LP             1 S1                 0.0000
     44 ****         0.8607   0.3103  -2.7195 LP             1 S1                 0.0000
     45 ****         2.2291   0.8082  -1.9804 LP             1 S1                 0.0000
     46 ****         0.0654  -1.7153   0.7363 LP             1 S1                 0.0000
     47 ****         1.5459  -1.2390   1.2341 LP             1 S1                 0.0000
@<TRIPOS>BOND
    1    1    2 1     
    2    1   24 1     
    3    2    3 1     
    4    2   25 1     
    5    2   26 1     
    6    3   11 1     
    7    3    4 2     
    8    4    5 1     
    9    5   10 ar    
   10    5    6 ar    
   11    6    7 ar    
   12    6   27 1     
   13    7    8 ar    
   14    7   28 1     
   15    8    9 ar    
   16    8   29 1     
   17    9   10 ar    
   18    9   30 1     
   19   10   11 1     
   20   11   12 1     
   21   12   13 1     
   22   12   31 1     
   23   12   32 1     
   24   13   14 1     
   25   13   15 1     
   26   13   33 1     
   27   14   34 1     
   28   15   16 1     
   29   15   35 1     
   30   15   36 1     
   31   16   17 1     
   32   17   22 ar    
   33   17   18 ar    
   34   18   19 ar    
   35   18   37 1     
   36   19   20 ar    
   37   19   38 1     
   38   20   21 ar    
   39   20   39 1     
   40   21   22 ar    
   41   21   40 1     
   42   22   23 1     
   43    1   41 1     
   44    1   42 1     
   45    4   43 1     
   46   14   44 1     
   47   14   45 1     
   48   16   46 1     
   49   16   47 1     
@<TRIPOS>SUBSTRUCTURE
      1 S1             1
@<TRIPOS>SET
LONE_PAIRS      STATIC     ATOMS    <user>   **** ""
7 41 42 43 44 45 46 47
DONOR_HYDROGENS      STATIC     ATOMS    <user>   **** ""
2 24 34
ATOM$BLUE        STATIC     ATOMS    COLORGROUP SYSTEM
7 41 42 43 44 45 46 47
ATOM$RED        STATIC     ATOMS    COLORGROUP SYSTEM
2 24 34
