#       Name:                AV-unprocessed.smi:1003
#       Creating user name   scv26
#       Creation time:       Fri Mar 27 02:26:09 2020


#       File generated by GOLD software.
#

@<TRIPOS>MOLECULE
AV-unprocessed.smi:1003
    46    47     1
SMALL
NO_CHARGES


@<TRIPOS>ATOM
      1 ****        -6.2330  -0.5871   1.5278 C.3            1 S1                 0.0000
      2 ****        -5.8810  -1.4015   0.2779 C.3            1 S1                 0.0000
      3 ****        -4.6936  -0.8419  -0.4490 C.2            1 S1                 0.0000
      4 ****        -3.4067  -1.1472   0.0044 N.2            1 S1                 0.0000
      5 ****        -2.4514  -0.5850  -0.7384 C.2            1 S1                 0.0000
      6 ****        -0.9945  -0.7261  -0.4531 C.3            1 S1                 0.0000
      7 ****        -0.4817   0.3482   0.5192 C.3            1 S1                 0.0000
      8 ****         0.9406   0.1865   0.7957 N.am           1 S1                 0.0000
      9 ****         1.9330   0.5958  -0.0098 C.2            1 S1                 0.0000
     10 ****         1.7371   1.1634  -1.0852 O.2            1 S1                 0.0000
     11 ****         3.3641   0.3188   0.4703 C.3            1 S1                 0.0000
     12 ****         4.1526   1.6341   0.6492 C.3            1 S1                 0.0000
     13 ****         5.5931   1.3645   1.1144 C.3            1 S1                 0.0000
     14 ****         6.3232   0.4206   0.1459 C.3            1 S1                 0.0000
     15 ****         5.5435  -0.8898  -0.0456 C.3            1 S1                 0.0000
     16 ****         4.1031  -0.6180  -0.5096 C.3            1 S1                 0.0000
     17 ****        -3.0851   0.4009  -2.0482 S.3            1 S1                 0.0000
     18 ****        -4.7045  -0.0129  -1.5469 C.2            1 S1                 0.0000
     19 ****        -5.8895   0.5211  -2.2808 C.3            1 S1                 0.0000
     20 ****        -7.0976  -1.0118   2.0380 H              1 S1                 0.0000
     21 ****        -6.4719   0.4449   1.2694 H              1 S1                 0.0000
     22 ****        -5.4031  -0.5727   2.2350 H              1 S1                 0.0000
     23 ****        -5.6867  -2.4344   0.5685 H              1 S1                 0.0000
     24 ****        -6.7475  -1.4389  -0.3828 H              1 S1                 0.0000
     25 ****        -0.8117  -1.7209  -0.0445 H              1 S1                 0.0000
     26 ****        -0.4537  -0.6739  -1.3987 H              1 S1                 0.0000
     27 ****        -0.6748   1.3469   0.1235 H              1 S1                 0.0000
     28 ****        -1.0200   0.2799   1.4651 H              1 S1                 0.0000
     29 ****         1.1890  -0.2703   1.6614 H              1 S1                 0.0000
     30 ****         3.3106  -0.1789   1.4407 H              1 S1                 0.0000
     31 ****         4.1784   2.1888  -0.2904 H              1 S1                 0.0000
     32 ****         3.6507   2.2780   1.3727 H              1 S1                 0.0000
     33 ****         6.1385   2.3048   1.1984 H              1 S1                 0.0000
     34 ****         5.5792   0.9248   2.1124 H              1 S1                 0.0000
     35 ****         6.4502   0.9143  -0.8186 H              1 S1                 0.0000
     36 ****         7.3255   0.2072   0.5184 H              1 S1                 0.0000
     37 ****         6.0545  -1.5234  -0.7711 H              1 S1                 0.0000
     38 ****         5.5266  -1.4457   0.8927 H              1 S1                 0.0000
     39 ****         3.5667  -1.5631  -0.6029 H              1 S1                 0.0000
     40 ****         4.1255  -0.1778  -1.5080 H              1 S1                 0.0000
     41 ****        -6.6415   0.8946  -1.5854 H              1 S1                 0.0000
     42 ****        -6.3486  -0.2577  -2.8898 H              1 S1                 0.0000
     43 ****        -5.6082   1.3425  -2.9403 H              1 S1                 0.0000
     44 ****        -3.2221  -1.7247   0.7996 LP             1 S1                 0.0000
     45 ****         0.8027   1.3390  -1.3950 LP             1 S1                 0.0000
     46 ****         2.5125   1.4485  -1.6487 LP             1 S1                 0.0000
@<TRIPOS>BOND
    1    1    2 1     
    2    1   20 1     
    3    1   21 1     
    4    1   22 1     
    5    2    3 1     
    6    2   23 1     
    7    2   24 1     
    8    3   18 2     
    9    3    4 1     
   10    4    5 2     
   11    5    6 1     
   12    5   17 1     
   13    6    7 1     
   14    6   25 1     
   15    6   26 1     
   16    7    8 1     
   17    7   27 1     
   18    7   28 1     
   19    8    9 am    
   20    8   29 1     
   21    9   10 2     
   22    9   11 1     
   23   11   16 1     
   24   11   12 1     
   25   11   30 1     
   26   12   13 1     
   27   12   31 1     
   28   12   32 1     
   29   13   14 1     
   30   13   33 1     
   31   13   34 1     
   32   14   15 1     
   33   14   35 1     
   34   14   36 1     
   35   15   16 1     
   36   15   37 1     
   37   15   38 1     
   38   16   39 1     
   39   16   40 1     
   40   17   18 1     
   41   18   19 1     
   42   19   41 1     
   43   19   42 1     
   44   19   43 1     
   45    4   44 1     
   46   10   45 1     
   47   10   46 1     
@<TRIPOS>SUBSTRUCTURE
      1 S1             1
@<TRIPOS>SET
LONE_PAIRS      STATIC     ATOMS    <user>   **** ""
3 44 45 46
DONOR_HYDROGENS      STATIC     ATOMS    <user>   **** ""
1 29
ATOM$BLUE        STATIC     ATOMS    COLORGROUP SYSTEM
3 44 45 46
ATOM$RED        STATIC     ATOMS    COLORGROUP SYSTEM
1 29
