AV-unprocessed.smi:716|AV-procd|sdf|3486|dock2
  -GOLD-   22720 0483D 1   1.00000     0.00000
 Structure written by MMmdl.
 48 50  0  0  0  0  0  0  0  0  1 V2000
  152.6374  142.8948  159.7522 C   0  0  0  0  0  0  0  0  0  0  0  0
  151.8564  142.8826  158.4365 C   0  0  0  0  0  0  0  0  0  0  0  0
  151.9278  141.5838  157.8720 O   0  0  0  0  0  0  0  0  0  0  0  0
  150.7673  141.2375  157.1257 C   0  0  2  0  0  0  0  0  0  0  0  0
  149.6013  140.8114  158.0270 C   0  0  0  0  0  0  0  0  0  0  0  0
  150.1895  139.4013  157.9616 C   0  0  1  0  0  0  0  0  0  0  0  0
  149.1592  138.3726  157.9026 N   0  0  0  0  0  0  0  0  0  0  0  0
  149.2069  137.2059  158.5605 C   0  0  0  0  0  0  0  0  0  0  0  0
  150.1155  136.8969  159.3306 O   0  0  0  0  0  0  0  0  0  0  0  0
  148.0556  136.2304  158.3000 C   0  0  0  0  0  0  0  0  0  0  0  0
  147.6151  135.5841  159.5432 N   0  0  0  0  0  0  0  0  0  0  0  0
  147.7110  134.2021  159.5268 N   0  0  0  0  0  0  0  0  0  0  0  0
  147.3151  133.4942  160.5332 C   0  0  0  0  0  0  0  0  0  0  0  0
  147.4419  132.0035  160.4265 C   0  0  0  0  0  0  0  0  0  0  0  0
  146.7725  134.1571  161.7036 C   0  0  0  0  0  0  0  0  0  0  0  0
  146.6825  135.5042  161.7190 C   0  0  0  0  0  0  0  0  0  0  0  0
  147.1153  136.3157  160.5839 C   0  0  0  0  0  0  0  0  0  0  0  0
  147.0245  137.5431  160.5596 O   0  0  0  0  0  0  0  0  0  0  0  0
  150.8236  139.7838  156.5952 C   0  0  0  0  0  0  0  0  0  0  0  0
  150.0426  139.5033  155.3035 C   0  0  0  0  0  0  0  0  0  0  0  0
  150.5937  138.2108  154.6952 C   0  0  0  0  0  0  0  0  0  0  0  0
  151.9851  138.0219  155.3023 C   0  0  0  0  0  0  0  0  0  0  0  0
  152.1949  139.2003  156.2579 C   0  0  0  0  0  0  0  0  0  0  0  0
  152.5998  143.8797  160.2183 H   0  0  0  0  0  0  0  0  0  0  0  0
  153.6847  142.6410  159.5874 H   0  0  0  0  0  0  0  0  0  0  0  0
  152.2242  142.1744  160.4584 H   0  0  0  0  0  0  0  0  0  0  0  0
  150.8192  143.1655  158.6195 H   0  0  0  0  0  0  0  0  0  0  0  0
  152.2797  143.6131  157.7455 H   0  0  0  0  0  0  0  0  0  0  0  0
  150.5078  141.9718  156.3612 H   0  0  0  0  0  0  0  0  0  0  0  0
  149.5916  141.2523  159.0238 H   0  0  0  0  0  0  0  0  0  0  0  0
  148.6318  140.9064  157.5345 H   0  0  0  0  0  0  0  0  0  0  0  0
  150.9345  139.2407  158.7447 H   0  0  0  0  0  0  0  0  0  0  0  0
  148.3753  138.5416  157.2886 H   0  0  0  0  0  0  0  0  0  0  0  0
  147.2258  136.7791  157.8506 H   0  0  0  0  0  0  0  0  0  0  0  0
  148.3534  135.4932  157.5518 H   0  0  0  0  0  0  0  0  0  0  0  0
  147.0666  131.5100  161.3232 H   0  0  0  0  0  0  0  0  0  0  0  0
  148.4838  131.7100  160.2954 H   0  0  0  0  0  0  0  0  0  0  0  0
  146.8735  131.6260  159.5760 H   0  0  0  0  0  0  0  0  0  0  0  0
  146.4469  133.5715  162.5506 H   0  0  0  0  0  0  0  0  0  0  0  0
  146.2782  135.9971  162.5909 H   0  0  0  0  0  0  0  0  0  0  0  0
  148.9647  139.4425  155.4566 H   0  0  0  0  0  0  0  0  0  0  0  0
  150.2024  140.3176  154.5957 H   0  0  0  0  0  0  0  0  0  0  0  0
  149.9607  137.3643  154.9584 H   0  0  0  0  0  0  0  0  0  0  0  0
  150.6260  138.2646  153.6067 H   0  0  0  0  0  0  0  0  0  0  0  0
  152.0272  137.0778  155.8464 H   0  0  0  0  0  0  0  0  0  0  0  0
  152.7612  137.9902  154.5370 H   0  0  0  0  0  0  0  0  0  0  0  0
  152.8066  139.9565  155.7644 H   0  0  0  0  0  0  0  0  0  0  0  0
  152.7420  138.8895  157.1487 H   0  0  0  0  0  0  0  0  0  0  0  0
  1  2  1  0  0  0  0
  1 24  1  0  0  0  0
  1 25  1  0  0  0  0
  1 26  1  0  0  0  0
  2  3  1  0  0  0  0
  2 27  1  0  0  0  0
  2 28  1  0  0  0  0
  3  4  1  0  0  0  0
  4 19  1  0  0  0  0
  4  5  1  0  0  0  0
  4 29  1  0  0  0  0
  5  6  1  0  0  0  0
  5 30  1  0  0  0  0
  5 31  1  0  0  0  0
  6  7  1  0  0  0  0
  6 19  1  0  0  0  0
  6 32  1  0  0  0  0
  7  8  1  0  0  0  0
  7 33  1  0  0  0  0
  8  9  2  0  0  0  0
  8 10  1  0  0  0  0
 10 11  1  0  0  0  0
 10 34  1  0  0  0  0
 10 35  1  0  0  0  0
 11 17  1  0  0  0  0
 11 12  1  0  0  0  0
 12 13  2  0  0  0  0
 13 14  1  0  0  0  0
 13 15  1  0  0  0  0
 14 36  1  0  0  0  0
 14 37  1  0  0  0  0
 14 38  1  0  0  0  0
 15 16  2  0  0  0  0
 15 39  1  0  0  0  0
 16 17  1  0  0  0  0
 16 40  1  0  0  0  0
 17 18  2  0  0  0  0
 19 23  1  0  0  0  0
 19 20  1  0  0  0  0
 20 21  1  0  0  0  0
 20 41  1  0  0  0  0
 20 42  1  0  0  0  0
 21 22  1  0  0  0  0
 21 43  1  0  0  0  0
 21 44  1  0  0  0  0
 22 23  1  0  0  0  0
 22 45  1  0  0  0  0
 22 46  1  0  0  0  0
 23 47  1  0  0  0  0
 23 48  1  0  0  0  0
M  END
> <s_m_source_file>
AV-unprocessed.smi

> <i_m_source_file_index>
716

> <i_lp_mmshare_version>
43012

> <i_f3d_flags>
0

> <s_epik_input>
W0NIMl0xW0NIMl1bQ0gyXVtDSDJdQzEyW0NASF0oT1tDSDJdW0NIM10pW0NIMl1bQ0BIXTJbTkhdQyg9TylbQ0gyXW4zbmMoW0NIM10pW2NIXVtjSF1jMz1P

> <s_epik_cmdline>
J2VwaWtfcHl0aG9uJywgJy1waCcsICc3LjAnLCAnLXRuJywgJzgnLCAnLW1hJywgJzIwMCcsICctbWV0YWxfYmluZGluZycsICctaW1hZScsICc8aW5maWxlLm1hZT4nLCAnLW9tYWUnLCAnPG91dGZpbGUubWFlPic=

> <r_lp_tautomer_probability>
1

> <r_epik_Ionization_Penalty>
4.75561e-08

> <r_epik_Ionization_Penalty_Charging>
2.86617e-08

> <r_epik_Ionization_Penalty_Neutral>
1.88944e-08

> <r_epik_State_Penalty>
-0

> <r_epik_Charging_Adjusted_Penalty>
2.86617e-08

> <i_epik_Tot_Q>
0

> <i_epik_Tot_abs_Q>
0

> <r_epik_Metal_State_Penalty>
-0

> <b_epik_Metal_Only>
0

> <s_lp_Force_Field>
OPLS_2005

> <r_lp_Energy>
50.4804

> <b_lp_Chiralities_Consistent>
1

> <s_lp_Variant>
AV-unprocessed.smi:716-1

> <Gold.Version>
5.8.1

> <Gold.Id.Protein>
6NUR|6NUR_protein|mol2

> <Gold.PLP.Fitness>
46.4576

> <Gold.PLP.PLP>
-39.3044

> <Gold.PLP.part.hbond>
-2.8220

> <Gold.PLP.part.metal>
0.0000

> <Gold.PLP.part.buried>
-4.0037

> <Gold.PLP.part.nonpolar>
-32.7228

> <Gold.PLP.part.repulsive>
0.1307

> <Gold.PLP.ligand.clash>
0.0000

> <Gold.PLP.ligand.torsion>
0.6802

> <Gold.PLP.Chemscore.Hbond>
2.7040

> <Gold.PLP.Chemscore.CHOScore>
0.0000

> <Gold.PLP.Chemscore.Metal>
0.0000

> <Gold.Chemscore.Hbonds>
donor molecule, donor type, donor heavy atom, donor atom, acceptor molecule, acceptor atom, score
      P1  H  6896  6907       L1     9  0.73
      P1  H  6934  6947       L1    18  1.00

> <Gold.PLP.Chemscore.Internal.Correction>
0.4016

> <Gold.Rescore>
     Score         DG    S(hbond)    S(metal)    S(lipo)     H(rot)  DE(clash)    DE(int)     intcor
     19.17     -21.13       2.74        0.00      93.43       1.73       0.00       1.96       ----

> <Gold.Chemscore.Fitness>
19.1651

> <Gold.Chemscore.DG>
-21.1262

> <Gold.Chemscore.ZeroCoef>
-5.4800

> <Gold.Chemscore.Hbond>
2.7412

> <Gold.Chemscore.Metal>
0.0000

> <Gold.Chemscore.Lipo>
93.4323

> <Gold.Chemscore.Internal_Hbond>
0.0000

> <Gold.Chemscore.DEClash>
0.0030

> <Gold.Chemscore.DEInternal>
1.9581

> <Gold.Chemscore.Rot>
1.7348

> <Gold.Chemscore.Internal.Correction>
   9.000000E+99

> <Gold.Chemscore.Hbonds>
donor molecule, donor type, donor heavy atom, donor atom, acceptor molecule, acceptor atom, score
      P1  H  6896  6907       L1     9  0.73
      P1  H  6934  6947       L1    18  0.93

> <Gold.Chemscore.Hbond.Weighted>
-9.1557

> <Gold.Chemscore.Metal.Weighted>
-0.0000

> <Gold.Chemscore.Lipo.Weighted>
-10.9316

> <Gold.Chemscore.Internal_Hbond.Weighted>
0.0000

> <Gold.Chemscore.DEClash.Weighted>
0.0030

> <Gold.Chemscore.DEInternal.Weighted>
1.9581

> <Gold.Chemscore.Rot.Weighted>
4.4411

> <Gold.Chemscore.Internal.Correction.Weighted>
   9.000000E+99

> <Gold.Protein.RotatedTorsions>
[ 6907 6896 6895 6894 ] final  -39.41 input  -60.11 | X-H torsion
[ 7974 7965 7964 7962 ] final  144.39 input  175.53 | X-H torsion
[ 8008 7997 7996 7995 ] final  -85.42 input   59.86 | X-H torsion
[ 10167 10162 10161 10158 ] final -175.49 input  -65.29 | X-H torsion
[ 10718 10713 10712 10709 ] final  -38.24 input   66.30 | X-H torsion
[ 10763 10752 10751 10750 ] final  -15.11 input  -60.55 | X-H torsion
[ 11005 11000 10999 10996 ] final  153.33 input  -57.11 | X-H torsion

> <Gold.Protein.ActiveResidues>
 VAL166  LYS551  ARG553  GLY616  TRP617  ASP618  TYR619  PRO620  LYS621  CYS622 
 ASP623  PHE694  ASN695  SER759  ASP760  ASP761  ALA762  ILE779  LEU786  VAL792 
 PHE793  MET794  SER795  GLU796  ALA797  LYS798  CYS799  TRP800  GLU811  SER814 

> <Gold.Protein.RotatedAtoms>
  150.9907  134.9242  159.7897 H   0  0  0  0  0  0  0  0  0  0  0  0  # atno 6907 bound_to 6896
  152.5250  134.3286  159.9184 H   0  0  0  0  0  0  0  0  0  0  0  0  # atno 6908 bound_to 6896
  151.3292  133.3966  159.2695 H   0  0  0  0  0  0  0  0  0  0  0  0  # atno 6909 bound_to 6896
  144.8840  139.5657  143.5829 H   0  0  0  0  0  0  0  0  0  0  0  0  # atno 7974 bound_to 7965
  154.6405  140.0592  156.9840 H   0  0  0  0  0  0  0  0  0  0  0  0  # atno 8008 bound_to 7997
  155.1524  140.3275  155.4410 H   0  0  0  0  0  0  0  0  0  0  0  0  # atno 8009 bound_to 7997
  156.2528  140.1945  156.6635 H   0  0  0  0  0  0  0  0  0  0  0  0  # atno 8010 bound_to 7997
  139.5578  144.1944  152.1189 H   0  0  0  0  0  0  0  0  0  0  0  0  # atno 10167 bound_to 10162
  156.3060  130.4246  149.8096 H   0  0  0  0  0  0  0  0  0  0  0  0  # atno 10718 bound_to 10713
  153.5384  135.7013  153.5649 H   0  0  0  0  0  0  0  0  0  0  0  0  # atno 10763 bound_to 10752
  153.3625  135.3966  155.1729 H   0  0  0  0  0  0  0  0  0  0  0  0  # atno 10764 bound_to 10752
  154.8676  135.3792  154.4886 H   0  0  0  0  0  0  0  0  0  0  0  0  # atno 10765 bound_to 10752
  140.1388  134.8753  157.2303 H   0  0  0  0  0  0  0  0  0  0  0  0  # atno 11005 bound_to 11000
  146.3012  139.7434  142.9089 LP  0  0  0  0  0  0  0  0  0  0  0  0  # atno 17320 bound_to 7965
  145.3903  141.0371  143.3128 LP  0  0  0  0  0  0  0  0  0  0  0  0  # atno 17321 bound_to 7965
  140.1452  144.5165  150.6720 LP  0  0  0  0  0  0  0  0  0  0  0  0  # atno 17342 bound_to 10162
  140.6854  143.2347  151.5274 LP  0  0  0  0  0  0  0  0  0  0  0  0  # atno 17343 bound_to 10162
  156.5457  130.8319  151.3283 LP  0  0  0  0  0  0  0  0  0  0  0  0  # atno 17370 bound_to 10713
  157.7380  130.9805  150.2224 LP  0  0  0  0  0  0  0  0  0  0  0  0  # atno 17371 bound_to 10713
  140.2748  134.3418  155.7362 LP  0  0  0  0  0  0  0  0  0  0  0  0  # atno 17394 bound_to 11000
  141.2182  133.7444  156.9276 LP  0  0  0  0  0  0  0  0  0  0  0  0  # atno 17395 bound_to 11000

$$$$
