AV-unprocessed.smi:1018|AV-procd|sdf|4440|dock5
  -GOLD-   22720 2403D 1   1.00000     0.00000
 Structure written by MMmdl.
 52 53  0  0  0  0  0  0  0  0  1 V2000
  153.2961  141.6456  160.5705 C   0  0  0  0  0  0  0  0  0  0  0  0
  152.3320  142.2383  159.5375 C   0  0  2  0  0  0  0  0  0  0  0  0
  152.0590  141.2606  158.3804 C   0  0  0  0  0  0  0  0  0  0  0  0
  151.2414  141.9044  157.3576 N   0  0  0  0  0  0  0  0  0  0  0  0
  150.6137  141.0473  156.4282 C   0  0  0  0  0  0  0  0  0  0  0  0
  151.3871  140.1655  155.6369 C   0  0  0  0  0  0  0  0  0  0  0  0
  150.7407  139.3075  154.7269 C   0  0  0  0  0  0  0  0  0  0  0  0
  149.3299  139.3429  154.6363 C   0  0  0  0  0  0  0  0  0  0  0  0
  148.5601  138.5313  153.7597 N   0  0  0  0  0  0  0  0  0  0  0  0
  147.2562  138.6376  153.4509 C   0  0  0  0  0  0  0  0  0  0  0  0
  146.4722  139.4540  153.9344 O   0  0  0  0  0  0  0  0  0  0  0  0
  146.9072  137.7418  152.5184 N   0  0  0  0  0  0  0  0  0  0  0  0
  145.5759  137.6242  151.9249 C   0  0  0  0  0  0  0  0  0  0  0  0
  145.0110  136.1792  151.9855 C   0  0  0  0  0  0  0  0  0  0  0  0
  145.5257  135.4748  153.2646 C   0  0  0  0  0  0  0  0  0  0  0  0
  143.4698  136.2357  152.0653 C   0  0  0  0  0  0  0  0  0  0  0  0
  145.4298  135.3790  150.7253 C   0  0  0  0  0  0  0  0  0  0  0  0
  145.0630  135.8646  149.5346 N   0  0  0  0  0  0  0  0  0  0  0  0
  146.0834  134.3404  150.8144 O   0  0  0  0  0  0  0  0  0  0  0  0
  148.6469  140.2654  155.4530 C   0  0  0  0  0  0  0  0  0  0  0  0
  149.2626  141.0888  156.3270 N   0  0  0  0  0  0  0  0  0  0  0  0
  151.8102  143.1589  156.8701 C   0  0  0  0  0  0  0  0  0  0  0  0
  152.1284  144.1110  158.0396 C   0  0  1  0  0  0  0  0  0  0  0  0
  150.8786  144.7744  158.6456 C   0  0  0  0  0  0  0  0  0  0  0  0
  152.9139  143.4371  159.0258 O   0  0  0  0  0  0  0  0  0  0  0  0
  152.8929  140.7295  161.0026 H   0  0  0  0  0  0  0  0  0  0  0  0
  153.4734  142.3473  161.3859 H   0  0  0  0  0  0  0  0  0  0  0  0
  154.2603  141.4078  160.1199 H   0  0  0  0  0  0  0  0  0  0  0  0
  151.3967  142.4719  160.0465 H   0  0  0  0  0  0  0  0  0  0  0  0
  152.9991  140.9449  157.9256 H   0  0  0  0  0  0  0  0  0  0  0  0
  151.5845  140.3638  158.7755 H   0  0  0  0  0  0  0  0  0  0  0  0
  152.4624  140.1245  155.7272 H   0  0  0  0  0  0  0  0  0  0  0  0
  151.3403  138.6483  154.1188 H   0  0  0  0  0  0  0  0  0  0  0  0
  149.0844  137.8478  153.2333 H   0  0  0  0  0  0  0  0  0  0  0  0
  147.6158  137.1106  152.1735 H   0  0  0  0  0  0  0  0  0  0  0  0
  144.9097  138.3078  152.4527 H   0  0  0  0  0  0  0  0  0  0  0  0
  145.5991  137.9673  150.8886 H   0  0  0  0  0  0  0  0  0  0  0  0
  145.2397  136.0278  154.1600 H   0  0  0  0  0  0  0  0  0  0  0  0
  146.6126  135.3833  153.2772 H   0  0  0  0  0  0  0  0  0  0  0  0
  145.1125  134.4697  153.3615 H   0  0  0  0  0  0  0  0  0  0  0  0
  143.1417  136.7293  152.9808 H   0  0  0  0  0  0  0  0  0  0  0  0
  143.0308  135.2369  152.0601 H   0  0  0  0  0  0  0  0  0  0  0  0
  143.0369  136.7908  151.2320 H   0  0  0  0  0  0  0  0  0  0  0  0
  145.3139  135.3716  148.6901 H   0  0  0  0  0  0  0  0  0  0  0  0
  144.5331  136.7226  149.4851 H   0  0  0  0  0  0  0  0  0  0  0  0
  147.5702  140.3411  155.4128 H   0  0  0  0  0  0  0  0  0  0  0  0
  152.7246  142.9360  156.3185 H   0  0  0  0  0  0  0  0  0  0  0  0
  151.1269  143.6493  156.1754 H   0  0  0  0  0  0  0  0  0  0  0  0
  152.7540  144.9152  157.6513 H   0  0  0  0  0  0  0  0  0  0  0  0
  150.3736  145.3942  157.9044 H   0  0  0  0  0  0  0  0  0  0  0  0
  151.1473  145.4162  159.4848 H   0  0  0  0  0  0  0  0  0  0  0  0
  150.1528  144.0436  159.0016 H   0  0  0  0  0  0  0  0  0  0  0  0
  1  2  1  0  0  0  0
  1 26  1  0  0  0  0
  1 27  1  0  0  0  0
  1 28  1  0  0  0  0
  2 25  1  0  0  0  0
  2  3  1  0  0  0  0
  2 29  1  0  0  0  0
  3  4  1  0  0  0  0
  3 30  1  0  0  0  0
  3 31  1  0  0  0  0
  4  5  1  0  0  0  0
  4 22  1  0  0  0  0
  5 21  1  0  0  0  0
  5  6  2  0  0  0  0
  6  7  1  0  0  0  0
  6 32  1  0  0  0  0
  7  8  2  0  0  0  0
  7 33  1  0  0  0  0
  8  9  1  0  0  0  0
  8 20  1  0  0  0  0
  9 10  1  0  0  0  0
  9 34  1  0  0  0  0
 10 11  2  0  0  0  0
 10 12  1  0  0  0  0
 12 13  1  0  0  0  0
 12 35  1  0  0  0  0
 13 14  1  0  0  0  0
 13 36  1  0  0  0  0
 13 37  1  0  0  0  0
 14 15  1  0  0  0  0
 14 16  1  0  0  0  0
 14 17  1  0  0  0  0
 15 38  1  0  0  0  0
 15 39  1  0  0  0  0
 15 40  1  0  0  0  0
 16 41  1  0  0  0  0
 16 42  1  0  0  0  0
 16 43  1  0  0  0  0
 17 18  1  0  0  0  0
 17 19  2  0  0  0  0
 18 44  1  0  0  0  0
 18 45  1  0  0  0  0
 20 21  2  0  0  0  0
 20 46  1  0  0  0  0
 22 23  1  0  0  0  0
 22 47  1  0  0  0  0
 22 48  1  0  0  0  0
 23 24  1  0  0  0  0
 23 25  1  0  0  0  0
 23 49  1  0  0  0  0
 24 50  1  0  0  0  0
 24 51  1  0  0  0  0
 24 52  1  0  0  0  0
M  END
> <s_m_source_file>
AV-unprocessed.smi

> <i_m_source_file_index>
1018

> <i_lp_mmshare_version>
43012

> <i_f3d_flags>
0

> <s_epik_input>
W0NIM11bQ0BASF0xW0NIMl1OKFtDSDJdW0NASF0oTzEpW0NIM10pYzJbY0hdW2NIXWMoW2NIXW4yKVtOSF1DKD1PKVtOSF1bQ0gyXUMoW0NIM10pKFtDSDNdKUMoPU8pW05IMl0=

> <s_epik_cmdline>
J2VwaWtfcHl0aG9uJywgJy1waCcsICc3LjAnLCAnLXRuJywgJzgnLCAnLW1hJywgJzIwMCcsICctbWV0YWxfYmluZGluZycsICctaW1hZScsICc8aW5maWxlLm1hZT4nLCAnLW9tYWUnLCAnPG91dGZpbGUubWFlPic=

> <r_lp_tautomer_probability>
1

> <r_epik_Ionization_Penalty>
0.002562

> <r_epik_Ionization_Penalty_Charging>
0

> <r_epik_Ionization_Penalty_Neutral>
0.002562

> <r_epik_State_Penalty>
0.00175377

> <r_epik_Charging_Adjusted_Penalty>
0.00175377

> <i_epik_Tot_Q>
0

> <i_epik_Tot_abs_Q>
0

> <r_epik_Metal_State_Penalty>
-0

> <b_epik_Metal_Only>
0

> <s_lp_Force_Field>
OPLS_2005

> <r_lp_Energy>
25.7986

> <b_lp_Chiralities_Consistent>
1

> <s_lp_Variant>
AV-unprocessed.smi:1018-1

> <Gold.Version>
5.8.1

> <Gold.Id.Protein>
6NUR|6NUR_protein|mol2

> <Gold.PLP.Fitness>
53.0259

> <Gold.PLP.PLP>
-43.0829

> <Gold.PLP.part.hbond>
-4.2770

> <Gold.PLP.part.metal>
0.0000

> <Gold.PLP.part.buried>
-5.5821

> <Gold.PLP.part.nonpolar>
-34.7879

> <Gold.PLP.part.repulsive>
0.6543

> <Gold.PLP.ligand.clash>
0.0000

> <Gold.PLP.ligand.torsion>
0.9081

> <Gold.PLP.Chemscore.Hbond>
3.7842

> <Gold.PLP.Chemscore.CHOScore>
0.0000

> <Gold.PLP.Chemscore.Metal>
0.0000

> <Gold.Chemscore.Hbonds>
donor molecule, donor type, donor heavy atom, donor atom, acceptor molecule, acceptor atom, score
      L1  H     9    34       P1  7948  0.77
      L1  H    12    35       P1  7948  1.00
      L1  H    18    44       P1  7921  0.76
      L1  H    18    45       P1 10171  1.00

> <Gold.PLP.Chemscore.Internal.Correction>
0.4067

> <Gold.Rescore>
     Score         DG    S(hbond)    S(metal)    S(lipo)     H(rot)  DE(clash)    DE(int)     intcor
     20.23     -23.95       3.49        0.00     103.95       2.09       1.50       2.22       ----

> <Gold.Chemscore.Fitness>
20.2313

> <Gold.Chemscore.DG>
-23.9514

> <Gold.Chemscore.ZeroCoef>
-5.4800

> <Gold.Chemscore.Hbond>
3.4945

> <Gold.Chemscore.Metal>
0.0000

> <Gold.Chemscore.Lipo>
103.9504

> <Gold.Chemscore.Internal_Hbond>
0.0000

> <Gold.Chemscore.DEClash>
1.4973

> <Gold.Chemscore.DEInternal>
2.2228

> <Gold.Chemscore.Rot>
2.0947

> <Gold.Chemscore.Internal.Correction>
   9.000000E+99

> <Gold.Chemscore.Hbonds>
donor molecule, donor type, donor heavy atom, donor atom, acceptor molecule, acceptor atom, score
      L1  H     9    34       P1  7948  0.74
      L1  H    12    35       P1  7948  0.99
      L1  H    18    44       P1  7921  0.76
      L1  H    18    45       P1 10171  0.98

> <Gold.Chemscore.Hbond.Weighted>
-11.6716

> <Gold.Chemscore.Metal.Weighted>
-0.0000

> <Gold.Chemscore.Lipo.Weighted>
-12.1622

> <Gold.Chemscore.Internal_Hbond.Weighted>
0.0000

> <Gold.Chemscore.DEClash.Weighted>
1.4973

> <Gold.Chemscore.DEInternal.Weighted>
2.2228

> <Gold.Chemscore.Rot.Weighted>
5.3624

> <Gold.Chemscore.Internal.Correction.Weighted>
   9.000000E+99

> <Gold.Protein.RotatedTorsions>
[ 6907 6896 6895 6894 ] final  -32.68 input  -60.11 | X-H torsion
[ 7974 7965 7964 7962 ] final   -0.02 input  175.53 | X-H torsion
[ 8008 7997 7996 7995 ] final  -71.79 input   59.86 | X-H torsion
[ 10167 10162 10161 10158 ] final  -52.79 input  -65.29 | X-H torsion
[ 10718 10713 10712 10709 ] final   83.49 input   66.30 | X-H torsion
[ 10763 10752 10751 10750 ] final    2.20 input  -60.55 | X-H torsion
[ 11005 11000 10999 10996 ] final   52.40 input  -57.11 | X-H torsion

> <Gold.Protein.ActiveResidues>
 VAL166  LYS551  ARG553  GLY616  TRP617  ASP618  TYR619  PRO620  LYS621  CYS622 
 ASP623  PHE694  ASN695  SER759  ASP760  ASP761  ALA762  ILE779  LEU786  VAL792 
 PHE793  MET794  SER795  GLU796  ALA797  LYS798  CYS799  TRP800  GLU811  SER814 

> <Gold.Protein.RotatedAtoms>
  151.0755  134.9825  159.8329 H   0  0  0  0  0  0  0  0  0  0  0  0  # atno 6907 bound_to 6896
  152.5413  134.2246  159.8811 H   0  0  0  0  0  0  0  0  0  0  0  0  # atno 6908 bound_to 6896
  151.2273  133.4426  159.2636 H   0  0  0  0  0  0  0  0  0  0  0  0  # atno 6909 bound_to 6896
  146.2431  140.1207  142.8340 H   0  0  0  0  0  0  0  0  0  0  0  0  # atno 7974 bound_to 7965
  154.5115  140.0809  156.7999 H   0  0  0  0  0  0  0  0  0  0  0  0  # atno 8008 bound_to 7997
  155.3774  140.3426  155.4227 H   0  0  0  0  0  0  0  0  0  0  0  0  # atno 8009 bound_to 7997
  156.1579  140.1579  156.8650 H   0  0  0  0  0  0  0  0  0  0  0  0  # atno 8010 bound_to 7997
  140.6519  143.2572  151.4698 H   0  0  0  0  0  0  0  0  0  0  0  0  # atno 10167 bound_to 10162
  157.6880  131.0093  150.2530 H   0  0  0  0  0  0  0  0  0  0  0  0  # atno 10718 bound_to 10713
  153.2986  135.6954  153.7225 H   0  0  0  0  0  0  0  0  0  0  0  0  # atno 10763 bound_to 10752
  153.6148  135.3438  155.2992 H   0  0  0  0  0  0  0  0  0  0  0  0  # atno 10764 bound_to 10752
  154.8544  135.4372  154.2090 H   0  0  0  0  0  0  0  0  0  0  0  0  # atno 10765 bound_to 10752
  140.0852  134.5284  155.8906 H   0  0  0  0  0  0  0  0  0  0  0  0  # atno 11005 bound_to 11000
  145.0408  140.8944  143.5053 LP  0  0  0  0  0  0  0  0  0  0  0  0  # atno 17320 bound_to 7965
  145.1288  139.2646  143.5550 LP  0  0  0  0  0  0  0  0  0  0  0  0  # atno 17321 bound_to 7965
  139.5735  144.1872  152.1871 LP  0  0  0  0  0  0  0  0  0  0  0  0  # atno 17342 bound_to 10162
  140.1176  144.5402  150.6884 LP  0  0  0  0  0  0  0  0  0  0  0  0  # atno 17343 bound_to 10162
  156.3124  130.3774  149.7650 LP  0  0  0  0  0  0  0  0  0  0  0  0  # atno 17370 bound_to 10713
  156.5246  130.8230  151.3216 LP  0  0  0  0  0  0  0  0  0  0  0  0  # atno 17371 bound_to 10713
  141.2060  133.6652  156.6216 LP  0  0  0  0  0  0  0  0  0  0  0  0  # atno 17394 bound_to 11000
  140.3430  134.7833  157.4411 LP  0  0  0  0  0  0  0  0  0  0  0  0  # atno 17395 bound_to 11000

$$$$
