AV-unprocessed.smi:2881|AV-procd|sdf|11066|dock2
  -GOLD-   2272015543D 1   1.00000     0.00000
 Structure written by MMmdl.
 40 42  0  0  0  0  0  0  0  0  1 V2000
  150.6052  130.4433  159.0232 C   0  0  0  0  0  0  0  0  0  0  0  0
  150.2623  131.1005  157.7184 C   0  0  0  0  0  0  0  0  0  0  0  0
  150.0504  130.4786  156.4534 C   0  0  0  0  0  0  0  0  0  0  0  0
  149.7613  131.5155  155.6106 C   0  0  0  0  0  0  0  0  0  0  0  0
  149.4117  131.5375  154.1560 C   0  0  0  0  0  0  0  0  0  0  0  0
  148.0387  132.1756  153.9420 C   0  0  0  0  0  0  0  0  0  0  0  0
  147.4794  132.7614  154.8683 O   0  0  0  0  0  0  0  0  0  0  0  0
  147.4980  132.0269  152.7223 N   0  0  0  0  0  0  0  0  0  0  0  0
  146.1492  132.4336  152.3315 C   0  0  1  0  0  0  0  0  0  0  0  0
  146.2037  133.3025  151.0566 C   0  0  2  0  0  0  0  0  0  0  0  0
  144.8522  134.0176  150.8771 C   0  0  0  0  0  0  0  0  0  0  0  0
  143.9182  132.8660  150.4590 C   0  0  0  0  0  0  0  0  0  0  0  0
  144.8598  131.6449  150.4515 C   0  0  1  0  0  0  0  0  0  0  0  0
  146.1548  132.2645  149.9416 C   0  0  0  0  0  0  0  0  0  0  0  0
  145.2134  131.2590  151.9092 C   0  0  1  0  0  0  0  0  0  0  0  0
  145.8038  129.8346  152.0387 C   0  0  0  0  0  0  0  0  0  0  0  0
  145.8190  129.4246  153.3895 O   0  0  0  0  0  0  0  0  0  0  0  0
  149.8227  132.6586  156.3753 N   0  0  0  0  0  0  0  0  0  0  0  0
  150.1241  132.4170  157.6641 N   0  0  0  0  0  0  0  0  0  0  0  0
  149.6538  133.5955  156.0369 H   0  0  0  0  0  0  0  0  0  0  0  0
  150.0641  129.5043  159.1409 H   0  0  0  0  0  0  0  0  0  0  0  0
  150.3518  131.0780  159.8732 H   0  0  0  0  0  0  0  0  0  0  0  0
  151.6710  130.2216  159.0788 H   0  0  0  0  0  0  0  0  0  0  0  0
  150.0939  129.4285  156.2057 H   0  0  0  0  0  0  0  0  0  0  0  0
  149.4022  130.5237  153.7542 H   0  0  0  0  0  0  0  0  0  0  0  0
  150.1671  132.0909  153.5963 H   0  0  0  0  0  0  0  0  0  0  0  0
  148.0393  131.5346  152.0264 H   0  0  0  0  0  0  0  0  0  0  0  0
  145.6994  133.0059  153.1450 H   0  0  0  0  0  0  0  0  0  0  0  0
  147.0560  133.9820  151.0175 H   0  0  0  0  0  0  0  0  0  0  0  0
  144.5188  134.5171  151.7876 H   0  0  0  0  0  0  0  0  0  0  0  0
  144.9117  134.7679  150.0877 H   0  0  0  0  0  0  0  0  0  0  0  0
  143.0781  132.7402  151.1430 H   0  0  0  0  0  0  0  0  0  0  0  0
  143.5114  133.0474  149.4634 H   0  0  0  0  0  0  0  0  0  0  0  0
  144.4805  130.8185  149.8499 H   0  0  0  0  0  0  0  0  0  0  0  0
  146.0619  132.7031  148.9465 H   0  0  0  0  0  0  0  0  0  0  0  0
  147.0018  131.5771  149.9483 H   0  0  0  0  0  0  0  0  0  0  0  0
  144.3116  131.2910  152.5231 H   0  0  0  0  0  0  0  0  0  0  0  0
  145.2396  129.1086  151.4528 H   0  0  0  0  0  0  0  0  0  0  0  0
  146.8324  129.8127  151.6792 H   0  0  0  0  0  0  0  0  0  0  0  0
  144.9273  129.3868  153.7011 H   0  0  0  0  0  0  0  0  0  0  0  0
  1 21  1  0  0  0  0
  1 22  1  0  0  0  0
  1 23  1  0  0  0  0
  1  2  1  0  0  0  0
  2 19  2  0  0  0  0
  2  3  1  0  0  0  0
  3  4  2  0  0  0  0
  3 24  1  0  0  0  0
  4 18  1  0  0  0  0
  4  5  1  0  0  0  0
  5  6  1  0  0  0  0
  5 25  1  0  0  0  0
  5 26  1  0  0  0  0
  6  7  2  0  0  0  0
  6  8  1  0  0  0  0
  8  9  1  0  0  0  0
  8 27  1  0  0  0  0
  9 15  1  0  0  0  0
  9 10  1  0  0  0  0
  9 28  1  0  0  0  0
 10 14  1  0  0  0  0
 10 11  1  0  0  0  0
 10 29  1  0  0  0  0
 11 12  1  0  0  0  0
 11 30  1  0  0  0  0
 11 31  1  0  0  0  0
 12 13  1  0  0  0  0
 12 32  1  0  0  0  0
 12 33  1  0  0  0  0
 13 14  1  0  0  0  0
 13 15  1  0  0  0  0
 13 34  1  0  0  0  0
 14 35  1  0  0  0  0
 14 36  1  0  0  0  0
 15 16  1  0  0  0  0
 15 37  1  0  0  0  0
 16 17  1  0  0  0  0
 16 38  1  0  0  0  0
 16 39  1  0  0  0  0
 17 40  1  0  0  0  0
 18 19  1  0  0  0  0
 18 20  1  0  0  0  0
M  END
> <s_m_source_file>
AV-unprocessed.smi

> <i_m_source_file_index>
2881

> <i_lp_mmshare_version>
43012

> <i_f3d_flags>
0

> <s_epik_input>
W0NIM11jMVtjSF1jKG5bbkhdMSlbQ0gyXUMoPU8pW05IXVtDQEhdKFtDQEBIXTIzKVtDQEhdKFtDSDJdW09IXSlbQ0BASF0oW0NIMl0zKVtDSDJdW0NIMl0y

> <s_epik_cmdline>
J2VwaWtfcHl0aG9uJywgJy1waCcsICc3LjAnLCAnLXRuJywgJzgnLCAnLW1hJywgJzIwMCcsICctbWV0YWxfYmluZGluZycsICctaW1hZScsICc8aW5maWxlLm1hZT4nLCAnLW9tYWUnLCAnPG91dGZpbGUubWFlPic=

> <r_lp_tautomer_probability>
0.5

> <r_epik_Ionization_Penalty>
0.00013396

> <r_epik_Ionization_Penalty_Charging>
0

> <r_epik_Ionization_Penalty_Neutral>
0.00013396

> <r_epik_State_Penalty>
0.41068

> <r_epik_Charging_Adjusted_Penalty>
0.41068

> <i_epik_Tot_Q>
0

> <i_epik_Tot_abs_Q>
0

> <r_epik_Metal_State_Penalty>
0.41066

> <b_epik_Metal_Only>
0

> <s_lp_Force_Field>
OPLS_2005

> <r_lp_Energy>
46.6503

> <b_lp_Chiralities_Consistent>
1

> <s_lp_Variant>
AV-unprocessed.smi:2881-12

> <Gold.Version>
5.8.1

> <Gold.Id.Protein>
6NUR|6NUR_protein|mol2

> <Gold.PLP.Fitness>
40.8238

> <Gold.PLP.PLP>
-32.3395

> <Gold.PLP.part.hbond>
-3.0000

> <Gold.PLP.part.metal>
0.0000

> <Gold.PLP.part.buried>
-5.1905

> <Gold.PLP.part.nonpolar>
-25.4710

> <Gold.PLP.part.repulsive>
0.0789

> <Gold.PLP.ligand.clash>
0.0000

> <Gold.PLP.ligand.torsion>
0.2734

> <Gold.PLP.Chemscore.Hbond>
3.0000

> <Gold.PLP.Chemscore.CHOScore>
0.0000

> <Gold.PLP.Chemscore.Metal>
0.0000

> <Gold.Chemscore.Hbonds>
donor molecule, donor type, donor heavy atom, donor atom, acceptor molecule, acceptor atom, score
      L1  H     8    27       P1 10747  0.84
      L1  H    17    40       P1 10956  1.00
      P1  H  6896  6909       L1    19  0.81

> <Gold.PLP.Chemscore.Internal.Correction>
0.0310

> <Gold.Rescore>
     Score         DG    S(hbond)    S(metal)    S(lipo)     H(rot)  DE(clash)    DE(int)     intcor
     18.40     -18.92       2.78        0.00      85.47       2.28       0.09       0.43       ----

> <Gold.Chemscore.Fitness>
18.4039

> <Gold.Chemscore.DG>
-18.9244

> <Gold.Chemscore.ZeroCoef>
-5.4800

> <Gold.Chemscore.Hbond>
2.7753

> <Gold.Chemscore.Metal>
0.0000

> <Gold.Chemscore.Lipo>
85.4707

> <Gold.Chemscore.Internal_Hbond>
0.0000

> <Gold.Chemscore.DEClash>
0.0901

> <Gold.Chemscore.DEInternal>
0.4304

> <Gold.Chemscore.Rot>
2.2755

> <Gold.Chemscore.Internal.Correction>
   9.000000E+99

> <Gold.Chemscore.Hbonds>
donor molecule, donor type, donor heavy atom, donor atom, acceptor molecule, acceptor atom, score
      L1  H     8    27       P1 10747  0.82
      L1  H    17    40       P1 10956  0.69
      P1  H  6896  6909       L1    19  0.69

> <Gold.Chemscore.Hbond.Weighted>
-9.2696

> <Gold.Chemscore.Metal.Weighted>
-0.0000

> <Gold.Chemscore.Lipo.Weighted>
-10.0001

> <Gold.Chemscore.Internal_Hbond.Weighted>
0.0000

> <Gold.Chemscore.DEClash.Weighted>
0.0901

> <Gold.Chemscore.DEInternal.Weighted>
0.4304

> <Gold.Chemscore.Rot.Weighted>
5.8252

> <Gold.Chemscore.Internal.Correction.Weighted>
   9.000000E+99

> <Gold.Protein.RotatedTorsions>
[ 6907 6896 6895 6894 ] final  -26.24 input  -60.11 | X-H torsion
[ 7974 7965 7964 7962 ] final  102.46 input  175.53 | X-H torsion
[ 8008 7997 7996 7995 ] final  -47.82 input   59.86 | X-H torsion
[ 10167 10162 10161 10158 ] final  173.80 input  -65.29 | X-H torsion
[ 10718 10713 10712 10709 ] final -174.85 input   66.30 | X-H torsion
[ 10763 10752 10751 10750 ] final   68.88 input  -60.55 | X-H torsion
[ 11005 11000 10999 10996 ] final    1.64 input  -57.11 | X-H torsion

> <Gold.Protein.ActiveResidues>
 VAL166  LYS551  ARG553  GLY616  TRP617  ASP618  TYR619  PRO620  LYS621  CYS622 
 ASP623  PHE694  ASN695  SER759  ASP760  ASP761  ALA762  ILE779  LEU786  VAL792 
 PHE793  MET794  SER795  GLU796  ALA797  LYS798  CYS799  TRP800  GLU811  SER814 

> <Gold.Protein.RotatedAtoms>
  151.1638  135.0286  159.8721 H   0  0  0  0  0  0  0  0  0  0  0  0  # atno 6907 bound_to 6896
  152.5451  134.1249  159.8425 H   0  0  0  0  0  0  0  0  0  0  0  0  # atno 6908 bound_to 6896
  151.1347  133.4966  159.2631 H   0  0  0  0  0  0  0  0  0  0  0  0  # atno 6909 bound_to 6896
  145.3588  139.2422  143.3518 H   0  0  0  0  0  0  0  0  0  0  0  0  # atno 7974 bound_to 7965
  154.4021  140.1337  156.4238 H   0  0  0  0  0  0  0  0  0  0  0  0  # atno 8008 bound_to 7997
  155.7617  140.3486  155.5181 H   0  0  0  0  0  0  0  0  0  0  0  0  # atno 8009 bound_to 7997
  155.8852  140.0994  157.1447 H   0  0  0  0  0  0  0  0  0  0  0  0  # atno 8010 bound_to 7997
  139.5120  144.3220  152.0193 H   0  0  0  0  0  0  0  0  0  0  0  0  # atno 10167 bound_to 10162
  156.7911  130.9518  151.3120 H   0  0  0  0  0  0  0  0  0  0  0  0  # atno 10718 bound_to 10713
  153.0258  135.5231  154.7203 H   0  0  0  0  0  0  0  0  0  0  0  0  # atno 10763 bound_to 10752
  154.6260  135.2894  155.0273 H   0  0  0  0  0  0  0  0  0  0  0  0  # atno 10764 bound_to 10752
  154.1243  135.6603  153.4961 H   0  0  0  0  0  0  0  0  0  0  0  0  # atno 10765 bound_to 10752
  140.6132  133.9729  155.8187 H   0  0  0  0  0  0  0  0  0  0  0  0  # atno 11005 bound_to 11000
  146.2936  140.4217  142.8730 LP  0  0  0  0  0  0  0  0  0  0  0  0  # atno 17320 bound_to 7965
  144.8662  140.7209  143.6076 LP  0  0  0  0  0  0  0  0  0  0  0  0  # atno 17321 bound_to 7965
  140.2662  144.4014  150.6168 LP  0  0  0  0  0  0  0  0  0  0  0  0  # atno 17342 bound_to 10162
  140.6122  143.2170  151.6864 LP  0  0  0  0  0  0  0  0  0  0  0  0  # atno 17343 bound_to 10162
  157.6600  130.8958  149.9809 LP  0  0  0  0  0  0  0  0  0  0  0  0  # atno 17370 bound_to 10713
  156.1158  130.3648  149.9970 LP  0  0  0  0  0  0  0  0  0  0  0  0  # atno 17371 bound_to 10713
  141.0793  134.0086  157.3409 LP  0  0  0  0  0  0  0  0  0  0  0  0  # atno 17394 bound_to 11000
  139.9183  135.0199  156.7968 LP  0  0  0  0  0  0  0  0  0  0  0  0  # atno 17395 bound_to 11000

$$$$
