AV-unprocessed.smi:3200|AV-procd|sdf|12235|dock8
  -GOLD-   2272018 73D 1   1.00000     0.00000
 Structure written by MMmdl.
 38 39  0  0  0  0  0  0  0  0  2 V2000
  151.1531  136.6027  154.1485 C   0  0  0  0  0  0  0  0  0  0  0  0
  151.6131  137.9466  154.6010 C   0  0  0  0  0  0  0  0  0  0  0  0
  152.8978  138.2030  154.8169 N   0  0  0  0  0  0  0  0  0  0  0  0
  152.8975  139.5476  155.2145 O   0  0  0  0  0  0  0  0  0  0  0  0
  151.5992  139.9337  155.2076 C   0  0  0  0  0  0  0  0  0  0  0  0
  151.2659  141.3484  155.5445 C   0  0  0  0  0  0  0  0  0  0  0  0
  149.9798  141.4649  156.3725 C   0  0  0  0  0  0  0  0  0  0  0  0
  150.1122  142.5053  157.4126 N   0  3  0  0  0  0  0  0  0  0  0  0
  151.4707  142.6455  157.9844 C   0  0  2  0  0  0  0  0  0  0  0  0
  151.8059  141.5813  159.0387 C   0  0  0  0  0  0  0  0  0  0  0  0
  152.8718  142.2194  159.9391 C   0  0  0  0  0  0  0  0  0  0  0  0
  152.9695  143.6932  159.5171 C   0  0  0  0  0  0  0  0  0  0  0  0
  151.7046  143.9968  158.6935 C   0  0  0  0  0  0  0  0  0  0  0  0
  151.9545  145.1365  157.6880 C   0  0  0  0  0  0  0  0  0  0  0  0
  150.5458  144.3882  159.6400 C   0  0  0  0  0  0  0  0  0  0  0  0
  150.7562  138.9830  154.8134 N   0  0  0  0  0  0  0  0  0  0  0  0
  151.9975  135.9272  154.0058 H   0  0  0  0  0  0  0  0  0  0  0  0
  150.6165  136.6870  153.2033 H   0  0  0  0  0  0  0  0  0  0  0  0
  150.4836  136.1655  154.8891 H   0  0  0  0  0  0  0  0  0  0  0  0
  152.1054  141.7818  156.0899 H   0  0  0  0  0  0  0  0  0  0  0  0
  151.1694  141.9128  154.6159 H   0  0  0  0  0  0  0  0  0  0  0  0
  149.1406  141.7066  155.7192 H   0  0  0  0  0  0  0  0  0  0  0  0
  149.7563  140.5079  156.8463 H   0  0  0  0  0  0  0  0  0  0  0  0
  149.8596  143.3914  156.9986 H   0  0  0  0  0  0  0  0  0  0  0  0
  152.1936  142.5556  157.1709 H   0  0  0  0  0  0  0  0  0  0  0  0
  150.9242  141.3407  159.6345 H   0  0  0  0  0  0  0  0  0  0  0  0
  152.1559  140.6529  158.5860 H   0  0  0  0  0  0  0  0  0  0  0  0
  152.5776  142.1356  160.9857 H   0  0  0  0  0  0  0  0  0  0  0  0
  153.8362  141.7218  159.8320 H   0  0  0  0  0  0  0  0  0  0  0  0
  153.0900  144.3603  160.3719 H   0  0  0  0  0  0  0  0  0  0  0  0
  153.8570  143.8170  158.8946 H   0  0  0  0  0  0  0  0  0  0  0  0
  152.2023  146.0662  158.2013 H   0  0  0  0  0  0  0  0  0  0  0  0
  151.0725  145.3240  157.0746 H   0  0  0  0  0  0  0  0  0  0  0  0
  152.7794  144.9052  157.0133 H   0  0  0  0  0  0  0  0  0  0  0  0
  150.7890  145.2913  160.2008 H   0  0  0  0  0  0  0  0  0  0  0  0
  150.3267  143.6063  160.3673 H   0  0  0  0  0  0  0  0  0  0  0  0
  149.6272  144.5932  159.0899 H   0  0  0  0  0  0  0  0  0  0  0  0
  149.4655  142.3058  158.1625 H   0  0  0  0  0  0  0  0  0  0  0  0
  1  2  1  0  0  0  0
  1 17  1  0  0  0  0
  1 18  1  0  0  0  0
  1 19  1  0  0  0  0
  2 16  1  0  0  0  0
  2  3  2  0  0  0  0
  3  4  1  0  0  0  0
  4  5  1  0  0  0  0
  5  6  1  0  0  0  0
  5 16  2  0  0  0  0
  6  7  1  0  0  0  0
  6 20  1  0  0  0  0
  6 21  1  0  0  0  0
  7  8  1  0  0  0  0
  7 22  1  0  0  0  0
  7 23  1  0  0  0  0
  8  9  1  0  0  0  0
  8 24  1  0  0  0  0
  8 38  1  0  0  0  0
  9 13  1  0  0  0  0
  9 10  1  0  0  0  0
  9 25  1  0  0  0  0
 10 11  1  0  0  0  0
 10 26  1  0  0  0  0
 10 27  1  0  0  0  0
 11 12  1  0  0  0  0
 11 28  1  0  0  0  0
 11 29  1  0  0  0  0
 12 13  1  0  0  0  0
 12 30  1  0  0  0  0
 12 31  1  0  0  0  0
 13 14  1  0  0  0  0
 13 15  1  0  0  0  0
 14 32  1  0  0  0  0
 14 33  1  0  0  0  0
 14 34  1  0  0  0  0
 15 35  1  0  0  0  0
 15 36  1  0  0  0  0
 15 37  1  0  0  0  0
M  CHG  1   8   1
M  END
> <s_m_source_file>
AV-unprocessed.smi

> <i_m_source_file_index>
3200

> <i_lp_mmshare_version>
43012

> <i_f3d_flags>
0

> <s_epik_input>
W0NIM11jMW5vYyhuMSlbQ0gyXVtDSDJdW05IXVtDQEBIXShDMihbQ0gzXSlbQ0gzXSlbQ0gyXVtDSDJdW0NIMl0y

> <s_epik_cmdline>
J2VwaWtfcHl0aG9uJywgJy1waCcsICc3LjAnLCAnLXRuJywgJzgnLCAnLW1hJywgJzIwMCcsICctbWV0YWxfYmluZGluZycsICctaW1hZScsICc8aW5maWxlLm1hZT4nLCAnLW9tYWUnLCAnPG91dGZpbGUubWFlPic=

> <r_lp_tautomer_probability>
1

> <r_epik_Ionization_Penalty>
0.000953161

> <r_epik_Ionization_Penalty_Charging>
0.000953161

> <r_epik_Ionization_Penalty_Neutral>
4.23223e-13

> <r_epik_State_Penalty>
0.000619331

> <r_epik_Charging_Adjusted_Penalty>
0.00157249

> <i_epik_Tot_Q>
1

> <i_epik_Tot_abs_Q>
1

> <r_epik_Metal_State_Penalty>
-0

> <b_epik_Metal_Only>
0

> <s_lp_Force_Field>
OPLS_2005

> <r_lp_Energy>
25.4915

> <b_lp_Chiralities_Consistent>
1

> <s_lp_Variant>
AV-unprocessed.smi:3200-1

> <Gold.Version>
5.8.1

> <Gold.Id.Protein>
6NUR|6NUR_protein|mol2

> <Gold.PLP.Fitness>
41.8218

> <Gold.PLP.PLP>
-34.2242

> <Gold.PLP.part.hbond>
-3.0000

> <Gold.PLP.part.metal>
0.0000

> <Gold.PLP.part.buried>
-4.1152

> <Gold.PLP.part.nonpolar>
-27.0699

> <Gold.PLP.part.repulsive>
0.1156

> <Gold.PLP.ligand.clash>
0.0000

> <Gold.PLP.ligand.torsion>
0.8786

> <Gold.PLP.Chemscore.Hbond>
3.1112

> <Gold.PLP.Chemscore.CHOScore>
0.0000

> <Gold.PLP.Chemscore.Metal>
0.0000

> <Gold.Chemscore.Hbonds>
donor molecule, donor type, donor heavy atom, donor atom, acceptor molecule, acceptor atom, score
      L1  H     8    24       P1  8028  1.59
      P1  H  7997  8010       L1     4  1.00

> <Gold.PLP.Chemscore.Internal.Correction>
0.0213

> <Gold.Rescore>
     Score         DG    S(hbond)    S(metal)    S(lipo)     H(rot)  DE(clash)    DE(int)     intcor
     16.24     -18.85       1.95        0.00      97.66       1.79       1.77       0.84       ----

> <Gold.Chemscore.Fitness>
16.2419

> <Gold.Chemscore.DG>
-18.8488

> <Gold.Chemscore.ZeroCoef>
-5.4800

> <Gold.Chemscore.Hbond>
1.9516

> <Gold.Chemscore.Metal>
0.0000

> <Gold.Chemscore.Lipo>
97.6560

> <Gold.Chemscore.Internal_Hbond>
0.0000

> <Gold.Chemscore.DEClash>
1.7653

> <Gold.Chemscore.DEInternal>
0.8416

> <Gold.Chemscore.Rot>
1.7872

> <Gold.Chemscore.Internal.Correction>
   9.000000E+99

> <Gold.Chemscore.Hbonds>
donor molecule, donor type, donor heavy atom, donor atom, acceptor molecule, acceptor atom, score
      L1  H     8    24       P1  8028  0.77
      P1  H  7997  8010       L1     4  0.94

> <Gold.Chemscore.Hbond.Weighted>
-6.5184

> <Gold.Chemscore.Metal.Weighted>
-0.0000

> <Gold.Chemscore.Lipo.Weighted>
-11.4258

> <Gold.Chemscore.Internal_Hbond.Weighted>
0.0000

> <Gold.Chemscore.DEClash.Weighted>
1.7653

> <Gold.Chemscore.DEInternal.Weighted>
0.8416

> <Gold.Chemscore.Rot.Weighted>
4.5753

> <Gold.Chemscore.Internal.Correction.Weighted>
   9.000000E+99

> <Gold.Protein.RotatedTorsions>
[ 6907 6896 6895 6894 ] final  -79.13 input  -60.11 | X-H torsion
[ 7974 7965 7964 7962 ] final -159.64 input  175.53 | X-H torsion
[ 8008 7997 7996 7995 ] final   87.51 input   59.86 | X-H torsion
[ 10167 10162 10161 10158 ] final  146.03 input  -65.29 | X-H torsion
[ 10718 10713 10712 10709 ] final  -63.28 input   66.30 | X-H torsion
[ 10763 10752 10751 10750 ] final  -37.02 input  -60.55 | X-H torsion
[ 11005 11000 10999 10996 ] final    5.67 input  -57.11 | X-H torsion

> <Gold.Protein.ActiveResidues>
 VAL166  LYS551  ARG553  GLY616  TRP617  ASP618  TYR619  PRO620  LYS621  CYS622 
 ASP623  PHE694  ASN695  SER759  ASP760  ASP761  ALA762  ILE779  LEU786  VAL792 
 PHE793  MET794  SER795  GLU796  ALA797  LYS798  CYS799  TRP800  GLU811  SER814 

> <Gold.Protein.RotatedAtoms>
  150.6957  134.4168  159.5186 H   0  0  0  0  0  0  0  0  0  0  0  0  # atno 6907 bound_to 6896
  152.1917  134.8663  160.0526 H   0  0  0  0  0  0  0  0  0  0  0  0  # atno 6908 bound_to 6896
  151.9616  133.3662  159.4074 H   0  0  0  0  0  0  0  0  0  0  0  0  # atno 6909 bound_to 6896
  144.7457  140.3656  143.6087 H   0  0  0  0  0  0  0  0  0  0  0  0  # atno 7974 bound_to 7965
  155.9762  140.3381  155.6621 H   0  0  0  0  0  0  0  0  0  0  0  0  # atno 8008 bound_to 7997
  155.6609  140.0716  157.2572 H   0  0  0  0  0  0  0  0  0  0  0  0  # atno 8009 bound_to 7997
  154.4179  140.1709  156.1763 H   0  0  0  0  0  0  0  0  0  0  0  0  # atno 8010 bound_to 7997
  139.4915  144.5859  151.6779 H   0  0  0  0  0  0  0  0  0  0  0  0  # atno 10167 bound_to 10162
  156.0801  130.4219  150.1254 H   0  0  0  0  0  0  0  0  0  0  0  0  # atno 10718 bound_to 10713
  153.8894  135.6813  153.4761 H   0  0  0  0  0  0  0  0  0  0  0  0  # atno 10763 bound_to 10752
  153.1189  135.4748  154.9161 H   0  0  0  0  0  0  0  0  0  0  0  0  # atno 10764 bound_to 10752
  154.7630  135.3216  154.8294 H   0  0  0  0  0  0  0  0  0  0  0  0  # atno 10765 bound_to 10752
  140.5681  134.0128  155.7998 H   0  0  0  0  0  0  0  0  0  0  0  0  # atno 11005 bound_to 11000
  145.7132  139.1690  143.2527 LP  0  0  0  0  0  0  0  0  0  0  0  0  # atno 17320 bound_to 7965
  146.1332  140.7158  142.9402 LP  0  0  0  0  0  0  0  0  0  0  0  0  # atno 17321 bound_to 7965
  140.5475  144.0480  150.6113 LP  0  0  0  0  0  0  0  0  0  0  0  0  # atno 17342 bound_to 10162
  140.3523  143.2956  152.0474 LP  0  0  0  0  0  0  0  0  0  0  0  0  # atno 17343 bound_to 10162
  156.9287  130.9707  151.3536 LP  0  0  0  0  0  0  0  0  0  0  0  0  # atno 17370 bound_to 10713
  157.5914  130.8446  149.8665 LP  0  0  0  0  0  0  0  0  0  0  0  0  # atno 17371 bound_to 10713
  141.1073  133.9673  157.2974 LP  0  0  0  0  0  0  0  0  0  0  0  0  # atno 17394 bound_to 11000
  139.9375  135.0195  156.8602 LP  0  0  0  0  0  0  0  0  0  0  0  0  # atno 17395 bound_to 11000

$$$$
