AV-unprocessed.smi:1535|AV-procd|sdf|6172|dock8
  -GOLD-   22720 6323D 1   1.00000     0.00000
 Structure written by MMmdl.
 46 47  0  0  0  0  0  0  0  0  1 V2000
  153.4909  142.2890  161.6643 C   0  0  0  0  0  0  0  0  0  0  0  0
  152.8144  142.0768  160.3215 C   0  0  0  0  0  0  0  0  0  0  0  0
  153.1201  140.9172  159.5740 C   0  0  0  0  0  0  0  0  0  0  0  0
  152.5121  140.6814  158.3214 C   0  0  0  0  0  0  0  0  0  0  0  0
  152.6607  139.6291  157.4350 N   0  0  0  0  0  0  0  0  0  0  0  0
  151.8337  139.9849  156.4563 C   0  0  0  0  0  0  0  0  0  0  0  0
  151.1680  141.1470  156.6022 N   0  0  0  0  0  0  0  0  0  0  0  0
  150.2216  141.7381  155.6696 C   0  0  0  0  0  0  0  0  0  0  0  0
  149.4762  140.7005  154.8026 C   0  0  2  0  0  0  0  0  0  0  0  0
  149.4841  141.1375  153.4579 O   0  0  0  0  0  0  0  0  0  0  0  0
  148.0069  140.4893  155.2328 C   0  0  0  0  0  0  0  0  0  0  0  0
  147.2439  141.7099  155.5082 N   0  0  0  0  0  0  0  0  0  0  0  0
  146.7817  142.3440  154.2746 C   0  0  0  0  0  0  0  0  0  0  0  0
  146.1200  141.4146  156.3998 C   0  0  0  0  0  0  0  0  0  0  0  0
  145.6142  142.6011  157.2427 C   0  0  1  0  0  0  0  0  0  0  0  0
  144.0844  142.6981  157.2004 C   0  0  0  0  0  0  0  0  0  0  0  0
  146.0901  142.5151  158.6336 C   0  0  0  0  0  0  0  0  0  0  0  0
  146.4642  142.4474  159.7265 N   0  0  0  0  0  0  0  0  0  0  0  0
  151.5833  141.6460  157.8325 C   0  0  0  0  0  0  0  0  0  0  0  0
  151.2715  142.8040  158.5670 C   0  0  0  0  0  0  0  0  0  0  0  0
  151.8879  143.0240  159.8165 C   0  0  0  0  0  0  0  0  0  0  0  0
  151.5428  144.2765  160.6022 C   0  0  0  0  0  0  0  0  0  0  0  0
  154.1202  141.4396  161.9310 H   0  0  0  0  0  0  0  0  0  0  0  0
  152.7488  142.4143  162.4528 H   0  0  0  0  0  0  0  0  0  0  0  0
  154.1212  143.1781  161.6362 H   0  0  0  0  0  0  0  0  0  0  0  0
  153.8262  140.1958  159.9580 H   0  0  0  0  0  0  0  0  0  0  0  0
  151.7066  139.3682  155.5783 H   0  0  0  0  0  0  0  0  0  0  0  0
  149.5094  142.3411  156.2347 H   0  0  0  0  0  0  0  0  0  0  0  0
  150.7638  142.4323  155.0269 H   0  0  0  0  0  0  0  0  0  0  0  0
  150.0370  139.7689  154.8541 H   0  0  0  0  0  0  0  0  0  0  0  0
  149.4376  140.3768  152.8985 H   0  0  0  0  0  0  0  0  0  0  0  0
  147.4873  139.9130  154.4660 H   0  0  0  0  0  0  0  0  0  0  0  0
  148.0085  139.8581  156.1227 H   0  0  0  0  0  0  0  0  0  0  0  0
  146.2569  143.2754  154.4806 H   0  0  0  0  0  0  0  0  0  0  0  0
  146.1057  141.6885  153.7236 H   0  0  0  0  0  0  0  0  0  0  0  0
  147.6114  142.6020  153.6191 H   0  0  0  0  0  0  0  0  0  0  0  0
  145.2941  141.0011  155.8188 H   0  0  0  0  0  0  0  0  0  0  0  0
  146.4151  140.6284  157.0965 H   0  0  0  0  0  0  0  0  0  0  0  0
  146.0082  143.5342  156.8423 H   0  0  0  0  0  0  0  0  0  0  0  0
  143.7308  143.5456  157.7882 H   0  0  0  0  0  0  0  0  0  0  0  0
  143.6195  141.7972  157.6021 H   0  0  0  0  0  0  0  0  0  0  0  0
  143.7279  142.8326  156.1789 H   0  0  0  0  0  0  0  0  0  0  0  0
  150.5641  143.5176  158.1718 H   0  0  0  0  0  0  0  0  0  0  0  0
  150.8676  144.9241  160.0421 H   0  0  0  0  0  0  0  0  0  0  0  0
  152.4428  144.8486  160.8280 H   0  0  0  0  0  0  0  0  0  0  0  0
  151.0541  144.0136  161.5405 H   0  0  0  0  0  0  0  0  0  0  0  0
  1  2  1  0  0  0  0
  1 23  1  0  0  0  0
  1 24  1  0  0  0  0
  1 25  1  0  0  0  0
  2 21  1  0  0  0  0
  2  3  2  0  0  0  0
  3  4  1  0  0  0  0
  3 26  1  0  0  0  0
  4 19  2  0  0  0  0
  4  5  1  0  0  0  0
  5  6  2  0  0  0  0
  6  7  1  0  0  0  0
  6 27  1  0  0  0  0
  7  8  1  0  0  0  0
  7 19  1  0  0  0  0
  8  9  1  0  0  0  0
  8 28  1  0  0  0  0
  8 29  1  0  0  0  0
  9 10  1  0  0  0  0
  9 11  1  0  0  0  0
  9 30  1  0  0  0  0
 10 31  1  0  0  0  0
 11 12  1  0  0  0  0
 11 32  1  0  0  0  0
 11 33  1  0  0  0  0
 12 13  1  0  0  0  0
 12 14  1  0  0  0  0
 13 34  1  0  0  0  0
 13 35  1  0  0  0  0
 13 36  1  0  0  0  0
 14 15  1  0  0  0  0
 14 37  1  0  0  0  0
 14 38  1  0  0  0  0
 15 16  1  0  0  0  0
 15 17  1  0  0  0  0
 15 39  1  0  0  0  0
 16 40  1  0  0  0  0
 16 41  1  0  0  0  0
 16 42  1  0  0  0  0
 17 18  3  0  0  0  0
 19 20  1  0  0  0  0
 20 21  2  0  0  0  0
 20 43  1  0  0  0  0
 21 22  1  0  0  0  0
 22 44  1  0  0  0  0
 22 45  1  0  0  0  0
 22 46  1  0  0  0  0
M  END
> <s_m_source_file>
AV-unprocessed.smi

> <i_m_source_file_index>
1535

> <i_lp_mmshare_version>
43012

> <i_f3d_flags>
0

> <s_epik_input>
W0NIM11jKFtjSF0xKWMoW0NIM10pW2NIXWMoYzEyKW4oW2NIXW4yKVtDSDJdW0NASF0oW09IXSlbQ0gyXU4oW0NIM10pW0NIMl1bQ0BIXShbQ0gzXSlDI04=

> <s_epik_cmdline>
J2VwaWtfcHl0aG9uJywgJy1waCcsICc3LjAnLCAnLXRuJywgJzgnLCAnLW1hJywgJzIwMCcsICctbWV0YWxfYmluZGluZycsICctaW1hZScsICc8aW5maWxlLm1hZT4nLCAnLW9tYWUnLCAnPG91dGZpbGUubWFlPic=

> <r_epik_Ionization_Penalty>
0.098511

> <r_epik_Ionization_Penalty_Charging>
0

> <r_epik_Ionization_Penalty_Neutral>
0.098511

> <r_epik_State_Penalty>
0.0881608

> <r_epik_Charging_Adjusted_Penalty>
0.0881608

> <i_epik_Tot_Q>
0

> <i_epik_Tot_abs_Q>
0

> <r_epik_Metal_State_Penalty>
0.0128087

> <b_epik_Metal_Only>
0

> <s_lp_Force_Field>
OPLS_2005

> <r_lp_Energy>
20.9194

> <b_lp_Chiralities_Consistent>
1

> <s_lp_Variant>
AV-unprocessed.smi:1535-3

> <Gold.Version>
5.8.1

> <Gold.Id.Protein>
6NUR|6NUR_protein|mol2

> <Gold.PLP.Fitness>
51.7581

> <Gold.PLP.PLP>
-44.8508

> <Gold.PLP.part.hbond>
-4.9929

> <Gold.PLP.part.metal>
0.0000

> <Gold.PLP.part.buried>
-6.0393

> <Gold.PLP.part.nonpolar>
-34.4242

> <Gold.PLP.part.repulsive>
0.1427

> <Gold.PLP.ligand.clash>
0.0000

> <Gold.PLP.ligand.torsion>
2.2288

> <Gold.PLP.Chemscore.Hbond>
3.7260

> <Gold.PLP.Chemscore.CHOScore>
0.0000

> <Gold.PLP.Chemscore.Metal>
0.0000

> <Gold.Chemscore.Hbonds>
donor molecule, donor type, donor heavy atom, donor atom, acceptor molecule, acceptor atom, score
      L1  H    10    31       P1  7957  0.72
      P1  H  6934  6946       L1    18  1.00
      P1  H  7989  7998       L1    10  0.03
      P1  H  7997  8008       L1     5  1.00
      P1  H  8011  8017       L1    10  1.00

> <Gold.PLP.Chemscore.Internal.Correction>
0.1867

> <Gold.Rescore>
     Score         DG    S(hbond)    S(metal)    S(lipo)     H(rot)  DE(clash)    DE(int)     intcor
     19.00     -21.30       2.99        0.00     104.93       2.51       0.14       2.17       ----

> <Gold.Chemscore.Fitness>
18.9965

> <Gold.Chemscore.DG>
-21.2984

> <Gold.Chemscore.ZeroCoef>
-5.4800

> <Gold.Chemscore.Hbond>
2.9850

> <Gold.Chemscore.Metal>
0.0000

> <Gold.Chemscore.Lipo>
104.9344

> <Gold.Chemscore.Internal_Hbond>
0.0000

> <Gold.Chemscore.DEClash>
0.1356

> <Gold.Chemscore.DEInternal>
2.1663

> <Gold.Chemscore.Rot>
2.5113

> <Gold.Chemscore.Internal.Correction>
   9.000000E+99

> <Gold.Chemscore.Hbonds>
donor molecule, donor type, donor heavy atom, donor atom, acceptor molecule, acceptor atom, score
      L1  H    10    31       P1  7957  0.72
      P1  H  6934  6946       L1    18  0.99
      P1  H  7997  8008       L1     5  0.08
      P1  H  8011  8017       L1    10  0.34

> <Gold.Chemscore.Hbond.Weighted>
-9.9700

> <Gold.Chemscore.Metal.Weighted>
-0.0000

> <Gold.Chemscore.Lipo.Weighted>
-12.2773

> <Gold.Chemscore.Internal_Hbond.Weighted>
0.0000

> <Gold.Chemscore.DEClash.Weighted>
0.1356

> <Gold.Chemscore.DEInternal.Weighted>
2.1663

> <Gold.Chemscore.Rot.Weighted>
6.4289

> <Gold.Chemscore.Internal.Correction.Weighted>
   9.000000E+99

> <Gold.Protein.RotatedTorsions>
[ 6907 6896 6895 6894 ] final  -51.81 input  -60.11 | X-H torsion
[ 7974 7965 7964 7962 ] final  -27.48 input  175.53 | X-H torsion
[ 8008 7997 7996 7995 ] final  -60.41 input   59.86 | X-H torsion
[ 10167 10162 10161 10158 ] final  156.72 input  -65.29 | X-H torsion
[ 10718 10713 10712 10709 ] final   11.48 input   66.30 | X-H torsion
[ 10763 10752 10751 10750 ] final -163.60 input  -60.55 | X-H torsion
[ 11005 11000 10999 10996 ] final  -92.55 input  -57.11 | X-H torsion

> <Gold.Protein.ActiveResidues>
 VAL166  LYS551  ARG553  GLY616  TRP617  ASP618  TYR619  PRO620  LYS621  CYS622 
 ASP623  PHE694  ASN695  SER759  ASP760  ASP761  ALA762  ILE779  LEU786  VAL792 
 PHE793  MET794  SER795  GLU796  ALA797  LYS798  CYS799  TRP800  GLU811  SER814 

> <Gold.Protein.RotatedAtoms>
  150.8576  134.7920  159.7057 H   0  0  0  0  0  0  0  0  0  0  0  0  # atno 6907 bound_to 6896
  152.4623  134.5152  159.9776 H   0  0  0  0  0  0  0  0  0  0  0  0  # atno 6908 bound_to 6896
  151.5262  133.3419  159.2945 H   0  0  0  0  0  0  0  0  0  0  0  0  # atno 6909 bound_to 6896
  146.1354  140.5158  142.8675 H   0  0  0  0  0  0  0  0  0  0  0  0  # atno 7974 bound_to 7965
  154.4398  140.1040  156.6270 H   0  0  0  0  0  0  0  0  0  0  0  0  # atno 8008 bound_to 7997
  155.5646  140.3488  155.4481 H   0  0  0  0  0  0  0  0  0  0  0  0  # atno 8009 bound_to 7997
  156.0435  140.1287  157.0119 H   0  0  0  0  0  0  0  0  0  0  0  0  # atno 8010 bound_to 7997
  139.4821  144.4983  151.8207 H   0  0  0  0  0  0  0  0  0  0  0  0  # atno 10167 bound_to 10162
  156.9962  130.6061  149.5691 H   0  0  0  0  0  0  0  0  0  0  0  0  # atno 10718 bound_to 10713
  154.7107  135.3005  154.9201 H   0  0  0  0  0  0  0  0  0  0  0  0  # atno 10763 bound_to 10752
  154.0104  135.6695  153.4769 H   0  0  0  0  0  0  0  0  0  0  0  0  # atno 10764 bound_to 10752
  153.0753  135.5038  154.8303 H   0  0  0  0  0  0  0  0  0  0  0  0  # atno 10765 bound_to 10752
  141.1519  133.7828  157.0035 H   0  0  0  0  0  0  0  0  0  0  0  0  # atno 11005 bound_to 11000
  144.7735  140.5688  143.6654 LP  0  0  0  0  0  0  0  0  0  0  0  0  # atno 17320 bound_to 7965
  145.5167  139.1477  143.3575 LP  0  0  0  0  0  0  0  0  0  0  0  0  # atno 17321 bound_to 7965
  140.4473  144.1903  150.5895 LP  0  0  0  0  0  0  0  0  0  0  0  0  # atno 17342 bound_to 10162
  140.4621  143.2445  151.9206 LP  0  0  0  0  0  0  0  0  0  0  0  0  # atno 17343 bound_to 10162
  156.0188  130.5283  150.8215 LP  0  0  0  0  0  0  0  0  0  0  0  0  # atno 17370 bound_to 10713
  157.5423  131.0941  150.9810 LP  0  0  0  0  0  0  0  0  0  0  0  0  # atno 17371 bound_to 10713
  140.0924  134.9584  157.1797 LP  0  0  0  0  0  0  0  0  0  0  0  0  # atno 17394 bound_to 11000
  140.3428  134.2685  155.7209 LP  0  0  0  0  0  0  0  0  0  0  0  0  # atno 17395 bound_to 11000

$$$$
