AV-unprocessed.smi:2671|AV-procd|sdf|10347|dock9
  -GOLD-   2272014373D 1   1.00000     0.00000
 Structure written by MMmdl.
 28 29  0  0  0  0  0  0  0  0  2 V2000
  147.8591  140.7479  153.8431 O   0  0  0  0  0  0  0  0  0  0  0  0
  148.9251  140.6649  154.4496 C   0  0  0  0  0  0  0  0  0  0  0  0
  149.7096  139.4343  154.3611 C   0  0  0  0  0  0  0  0  0  0  0  0
  150.8889  139.3553  155.0270 C   0  0  0  0  0  0  0  0  0  0  0  0
  151.7381  138.0958  154.9883 C   0  0  0  0  0  0  0  0  0  0  0  0
  152.0741  137.7992  153.7327 F   0  0  0  0  0  0  0  0  0  0  0  0
  152.8596  138.2768  155.6851 F   0  0  0  0  0  0  0  0  0  0  0  0
  151.0902  137.0499  155.5045 F   0  0  0  0  0  0  0  0  0  0  0  0
  151.3423  140.4393  155.8020 N   0  0  0  0  0  0  0  0  0  0  0  0
  150.6364  141.5063  155.8670 C   0  0  0  0  0  0  0  0  0  0  0  0
  151.2137  142.8981  156.8551 S   0  0  0  0  0  0  0  0  0  0  0  0
  151.7002  142.1393  158.4338 C   0  0  0  0  0  0  0  0  0  0  0  0
  151.8728  143.1879  159.5408 C   0  0  1  0  0  0  0  0  0  0  0  0
  152.4176  144.5385  159.0630 C   0  0  0  0  0  0  0  0  0  0  0  0
  151.7363  145.5596  159.9652 C   0  0  0  0  0  0  0  0  0  0  0  0
  150.8038  144.7230  160.8406 C   0  0  0  0  0  0  0  0  0  0  0  0
  150.6132  143.5293  160.0986 O   0  0  0  0  0  0  0  0  0  0  0  0
  149.4319  141.6728  155.2173 N   0  5  0  0  0  0  0  0  0  0  0  0
  149.3521  138.6013  153.7737 H   0  0  0  0  0  0  0  0  0  0  0  0
  152.6404  141.6070  158.2864 H   0  0  0  0  0  0  0  0  0  0  0  0
  150.9547  141.3994  158.7272 H   0  0  0  0  0  0  0  0  0  0  0  0
  152.5037  142.7922  160.3390 H   0  0  0  0  0  0  0  0  0  0  0  0
  153.5053  144.5820  159.1283 H   0  0  0  0  0  0  0  0  0  0  0  0
  152.1397  144.7248  158.0247 H   0  0  0  0  0  0  0  0  0  0  0  0
  152.4478  146.1271  160.5655 H   0  0  0  0  0  0  0  0  0  0  0  0
  151.1648  146.2674  159.3636 H   0  0  0  0  0  0  0  0  0  0  0  0
  151.2799  144.4832  161.7929 H   0  0  0  0  0  0  0  0  0  0  0  0
  149.8575  145.2233  161.0480 H   0  0  0  0  0  0  0  0  0  0  0  0
  1  2  2  0  0  0  0
  2 18  1  0  0  0  0
  2  3  1  0  0  0  0
  3 19  1  0  0  0  0
  3  4  2  0  0  0  0
  4  5  1  0  0  0  0
  4  9  1  0  0  0  0
  5  6  1  0  0  0  0
  5  7  1  0  0  0  0
  5  8  1  0  0  0  0
  9 10  2  0  0  0  0
 10 11  1  0  0  0  0
 10 18  1  0  0  0  0
 11 12  1  0  0  0  0
 12 13  1  0  0  0  0
 12 20  1  0  0  0  0
 12 21  1  0  0  0  0
 13 17  1  0  0  0  0
 13 14  1  0  0  0  0
 13 22  1  0  0  0  0
 14 15  1  0  0  0  0
 14 23  1  0  0  0  0
 14 24  1  0  0  0  0
 15 16  1  0  0  0  0
 15 25  1  0  0  0  0
 15 26  1  0  0  0  0
 16 17  1  0  0  0  0
 16 27  1  0  0  0  0
 16 28  1  0  0  0  0
M  CHG  1  18  -1
M  END
> <s_m_source_file>
AV-unprocessed.smi

> <i_m_source_file_index>
2671

> <i_lp_mmshare_version>
43012

> <i_f3d_flags>
0

> <s_epik_input>
W09IXWMxW2NIXWMoQyhGKShGKUYpbmMobjEpU1tDSDJdW0NAQEhdMltDSDJdW0NIMl1bQ0gyXU8y

> <s_epik_cmdline>
J2VwaWtfcHl0aG9uJywgJy1waCcsICc3LjAnLCAnLXRuJywgJzgnLCAnLW1hJywgJzIwMCcsICctbWV0YWxfYmluZGluZycsICctaW1hZScsICc8aW5maWxlLm1hZT4nLCAnLW9tYWUnLCAnPG91dGZpbGUubWFlPic=

> <r_lp_tautomer_probability>
1

> <r_epik_Ionization_Penalty>
0.972901

> <r_epik_Ionization_Penalty_Charging>
0.00136034

> <r_epik_Ionization_Penalty_Neutral>
0.971541

> <r_epik_State_Penalty>
0.242243

> <r_epik_Charging_Adjusted_Penalty>
0.243604

> <i_epik_Tot_Q>
-1

> <i_epik_Tot_abs_Q>
1

> <r_epik_Metal_State_Penalty>
0.0617458

> <b_epik_Metal_Only>
0

> <s_lp_Force_Field>
OPLS_2005

> <r_lp_Energy>
24.5089

> <b_lp_Chiralities_Consistent>
1

> <s_lp_Variant>
AV-unprocessed.smi:2671-2

> <Gold.Version>
5.8.1

> <Gold.Id.Protein>
6NUR|6NUR_protein|mol2

> <Gold.PLP.Fitness>
35.5944

> <Gold.PLP.PLP>
-36.5126

> <Gold.PLP.part.hbond>
-1.2516

> <Gold.PLP.part.metal>
0.0000

> <Gold.PLP.part.buried>
-2.3979

> <Gold.PLP.part.nonpolar>
-33.6807

> <Gold.PLP.part.repulsive>
0.6036

> <Gold.PLP.ligand.clash>
0.0000

> <Gold.PLP.ligand.torsion>
0.4637

> <Gold.PLP.Chemscore.Hbond>
0.0000

> <Gold.PLP.Chemscore.CHOScore>
0.0000

> <Gold.PLP.Chemscore.Metal>
0.0000

> <Gold.PLP.Chemscore.Internal.Correction>
0.0091

> <Gold.Rescore>
     Score         DG    S(hbond)    S(metal)    S(lipo)     H(rot)  DE(clash)    DE(int)     intcor
     10.73     -11.62       0.00        0.00      88.90       1.66       0.50       0.39       ----

> <Gold.Chemscore.Fitness>
10.7261

> <Gold.Chemscore.DG>
-11.6193

> <Gold.Chemscore.ZeroCoef>
-5.4800

> <Gold.Chemscore.Hbond>
0.0000

> <Gold.Chemscore.Metal>
0.0000

> <Gold.Chemscore.Lipo>
88.9005

> <Gold.Chemscore.Internal_Hbond>
0.0000

> <Gold.Chemscore.DEClash>
0.5009

> <Gold.Chemscore.DEInternal>
0.3924

> <Gold.Chemscore.Rot>
1.6649

> <Gold.Chemscore.Internal.Correction>
   9.000000E+99

> <Gold.Chemscore.Hbond.Weighted>
-0.0000

> <Gold.Chemscore.Metal.Weighted>
-0.0000

> <Gold.Chemscore.Lipo.Weighted>
-10.4014

> <Gold.Chemscore.Internal_Hbond.Weighted>
0.0000

> <Gold.Chemscore.DEClash.Weighted>
0.5009

> <Gold.Chemscore.DEInternal.Weighted>
0.3924

> <Gold.Chemscore.Rot.Weighted>
4.2620

> <Gold.Chemscore.Internal.Correction.Weighted>
   9.000000E+99

> <Gold.Protein.RotatedTorsions>
[ 6907 6896 6895 6894 ] final   66.89 input  -60.11 | X-H torsion
[ 7974 7965 7964 7962 ] final  -83.80 input  175.53 | X-H torsion
[ 8008 7997 7996 7995 ] final -173.66 input   59.86 | X-H torsion
[ 10167 10162 10161 10158 ] final  -82.97 input  -65.29 | X-H torsion
[ 10718 10713 10712 10709 ] final -116.60 input   66.30 | X-H torsion
[ 10763 10752 10751 10750 ] final  159.25 input  -60.55 | X-H torsion
[ 11005 11000 10999 10996 ] final   82.32 input  -57.11 | X-H torsion

> <Gold.Protein.ActiveResidues>
 VAL166  LYS551  ARG553  GLY616  TRP617  ASP618  TYR619  PRO620  LYS621  CYS622 
 ASP623  PHE694  ASN695  SER759  ASP760  ASP761  ALA762  ILE779  LEU786  VAL792 
 PHE793  MET794  SER795  GLU796  ALA797  LYS798  CYS799  TRP800  GLU811  SER814 

> <Gold.Protein.RotatedAtoms>
  152.4513  134.5386  159.9832 H   0  0  0  0  0  0  0  0  0  0  0  0  # atno 6907 bound_to 6896
  151.5458  133.3419  159.2952 H   0  0  0  0  0  0  0  0  0  0  0  0  # atno 6908 bound_to 6896
  150.8443  134.7778  159.7021 H   0  0  0  0  0  0  0  0  0  0  0  0  # atno 6909 bound_to 6896
  145.5152  140.9536  143.1685 H   0  0  0  0  0  0  0  0  0  0  0  0  # atno 7974 bound_to 7965
  155.9603  140.1143  157.0902 H   0  0  0  0  0  0  0  0  0  0  0  0  # atno 8008 bound_to 7997
  154.4130  140.1183  156.5236 H   0  0  0  0  0  0  0  0  0  0  0  0  # atno 8009 bound_to 7997
  155.6729  140.3473  155.4827 H   0  0  0  0  0  0  0  0  0  0  0  0  # atno 8010 bound_to 7997
  140.4270  143.2563  151.8812 H   0  0  0  0  0  0  0  0  0  0  0  0  # atno 10167 bound_to 10162
  156.0975  130.6144  150.9056 H   0  0  0  0  0  0  0  0  0  0  0  0  # atno 10718 bound_to 10713
  154.2288  135.2779  155.2898 H   0  0  0  0  0  0  0  0  0  0  0  0  # atno 10763 bound_to 10752
  154.5641  135.5638  153.7038 H   0  0  0  0  0  0  0  0  0  0  0  0  # atno 10764 bound_to 10752
  153.0025  135.6305  154.2429 H   0  0  0  0  0  0  0  0  0  0  0  0  # atno 10765 bound_to 10752
  139.9068  134.8062  156.2159 H   0  0  0  0  0  0  0  0  0  0  0  0  # atno 11005 bound_to 11000
  144.7706  139.6744  143.7196 LP  0  0  0  0  0  0  0  0  0  0  0  0  # atno 17320 bound_to 7965
  146.2141  139.5518  142.9661 LP  0  0  0  0  0  0  0  0  0  0  0  0  # atno 17321 bound_to 7965
  139.4784  144.5376  151.8575 LP  0  0  0  0  0  0  0  0  0  0  0  0  # atno 17342 bound_to 10162
  140.4470  144.1908  150.5895 LP  0  0  0  0  0  0  0  0  0  0  0  0  # atno 17343 bound_to 10162
  157.6139  131.0934  150.8746 LP  0  0  0  0  0  0  0  0  0  0  0  0  # atno 17370 bound_to 10713
  156.8881  130.5203  149.5287 LP  0  0  0  0  0  0  0  0  0  0  0  0  # atno 17371 bound_to 10713
  141.0436  133.6925  156.1643 LP  0  0  0  0  0  0  0  0  0  0  0  0  # atno 17394 bound_to 11000
  140.6918  134.4658  157.5588 LP  0  0  0  0  0  0  0  0  0  0  0  0  # atno 17395 bound_to 11000

$$$$
