#       Name:                AV-unprocessed.smi:91
#       Creating user name   scv26
#       Creation time:       Thu Mar 26 17:26:41 2020


#       File generated by GOLD software.
#

@<TRIPOS>MOLECULE
AV-unprocessed.smi:91
    72    75     1
SMALL
NO_CHARGES


@<TRIPOS>ATOM
      1 ****        -5.3124   1.2928   5.7716 C.3            1 S1                 0.0000
      2 ****        -4.6002   1.4119   4.5528 O.3            1 S1                 0.0000
      3 ****        -4.9189   0.3785   3.6343 C.3            1 S1                 0.0000
      4 ****        -4.1213   0.5616   2.3358 C.3            1 S1                 0.0000
      5 ****        -2.6005   0.6145   2.5661 C.3            1 S1                 0.0000
      6 ****        -1.9222   0.8998   1.3075 N.3            1 S1                 0.0000
      7 ****        -0.5849   0.6875   1.2292 C.ar           1 S1                 0.0000
      8 ****         0.1623   0.6228   2.3637 N.ar           1 S1                 0.0000
      9 ****         1.4811   0.4188   2.2920 C.ar           1 S1                 0.0000
     10 ****         2.2420   0.2507   1.2090 N.ar           1 S1                 0.0000
     11 ****         1.4970   0.3039   0.0682 C.ar           1 S1                 0.0000
     12 ****         0.0917   0.5173  -0.0115 C.ar           1 S1                 0.0000
     13 ****        -0.3159   0.4938  -1.3404 N.2            1 S1                 0.0000
     14 ****         0.7855   0.2851  -2.0082 C.2            1 S1                 0.0000
     15 ****         1.9200   0.1523  -1.2411 N.pl3          1 S1                 0.0000
     16 ****         3.2658  -0.0947  -1.7289 C.3            1 S1                 0.0000
     17 ****         3.4940  -1.5682  -2.1479 C.3            1 S1                 0.0000
     18 ****         3.2023  -2.5625  -0.9975 C.3            1 S1                 0.0000
     19 ****         4.1022  -2.3866   0.0778 O.3            1 S1                 0.0000
     20 ****         4.8993  -1.7758  -2.7673 C.3            1 S1                 0.0000
     21 ****         5.1674  -3.1760  -3.2911 C.3            1 S1                 0.0000
     22 ****         6.3539  -2.9479  -4.2196 C.3            1 S1                 0.0000
     23 ****         6.1546  -1.6546  -4.7775 O.3            1 S1                 0.0000
     24 ****         5.1684  -0.9486  -4.0303 C.3            1 S1                 0.0000
     25 ****        -2.3969   2.1234   0.6712 C.3            1 S1                 0.0000
     26 ****        -3.9255   2.0759   0.4534 C.3            1 S1                 0.0000
     27 ****        -4.4392   3.4736   0.0758 C.3            1 S1                 0.0000
     28 ****        -4.3147   1.0757  -0.6561 C.3            1 S1                 0.0000
     29 ****        -4.5722   1.7534   1.6902 O.3            1 S1                 0.0000
     30 ****        -5.0334   2.1067   6.4405 H              1 S1                 0.0000
     31 ****        -5.0820   0.3514   6.2722 H              1 S1                 0.0000
     32 ****        -6.3891   1.3470   5.6062 H              1 S1                 0.0000
     33 ****        -4.6804  -0.5898   4.0770 H              1 S1                 0.0000
     34 ****        -5.9881   0.3817   3.4170 H              1 S1                 0.0000
     35 ****        -4.3523  -0.2906   1.6967 H              1 S1                 0.0000
     36 ****        -2.3499   1.3909   3.2905 H              1 S1                 0.0000
     37 ****        -2.2576  -0.3369   2.9750 H              1 S1                 0.0000
     38 ****         2.0005   0.3847   3.2383 H              1 S1                 0.0000
     39 ****         0.8009   0.2145  -3.0862 H              1 S1                 0.0000
     40 ****         3.4340   0.5757  -2.5717 H              1 S1                 0.0000
     41 ****         3.9797   0.1985  -0.9584 H              1 S1                 0.0000
     42 ****         2.7671  -1.7885  -2.9312 H              1 S1                 0.0000
     43 ****         2.1850  -2.4439  -0.6249 H              1 S1                 0.0000
     44 ****         3.2729  -3.5924  -1.3464 H              1 S1                 0.0000
     45 ****         3.8665  -2.9860   0.7695 H              1 S1                 0.0000
     46 ****         5.6649  -1.5333  -2.0284 H              1 S1                 0.0000
     47 ****         5.3896  -3.8962  -2.5033 H              1 S1                 0.0000
     48 ****         4.3118  -3.5427  -3.8601 H              1 S1                 0.0000
     49 ****         7.2853  -2.9422  -3.6520 H              1 S1                 0.0000
     50 ****         6.4321  -3.7111  -4.9941 H              1 S1                 0.0000
     51 ****         4.2697  -0.8721  -4.6438 H              1 S1                 0.0000
     52 ****         5.5048   0.0627  -3.8003 H              1 S1                 0.0000
     53 ****        -2.1411   2.9608   1.3221 H              1 S1                 0.0000
     54 ****        -1.8946   2.3072  -0.2781 H              1 S1                 0.0000
     55 ****        -3.9912   3.8238  -0.8548 H              1 S1                 0.0000
     56 ****        -4.2040   4.2037   0.8510 H              1 S1                 0.0000
     57 ****        -5.5215   3.4736  -0.0565 H              1 S1                 0.0000
     58 ****        -3.9187   1.3927  -1.6215 H              1 S1                 0.0000
     59 ****        -5.3980   0.9984  -0.7534 H              1 S1                 0.0000
     60 ****        -3.9265   0.0747  -0.4709 H              1 S1                 0.0000
     61 ****        -3.6203   1.3756   4.7490 LP             1 S1                 0.0000
     62 ****        -4.8241   2.2925   4.1352 LP             1 S1                 0.0000
     63 ****        -2.2266   0.1410   0.7317 LP             1 S1                 0.0000
     64 ****        -0.2772   0.7283   3.2557 LP             1 S1                 0.0000
     65 ****         3.2310   0.1045   1.2311 LP             1 S1                 0.0000
     66 ****        -1.2411   0.6101  -1.7017 LP             1 S1                 0.0000
     67 ****         4.0464  -1.4463   0.4134 LP             1 S1                 0.0000
     68 ****         5.0349  -2.5763  -0.2290 LP             1 S1                 0.0000
     69 ****         5.8493  -1.7463  -5.7254 LP             1 S1                 0.0000
     70 ****         7.0157  -1.1468  -4.7523 LP             1 S1                 0.0000
     71 ****        -4.4279   2.5167   2.3199 LP             1 S1                 0.0000
     72 ****        -5.5502   1.6521   1.5077 LP             1 S1                 0.0000
@<TRIPOS>BOND
    1    1    2 1     
    2    1   30 1     
    3    1   31 1     
    4    1   32 1     
    5    2    3 1     
    6    3    4 1     
    7    3   33 1     
    8    3   34 1     
    9    4   29 1     
   10    4    5 1     
   11    4   35 1     
   12    5    6 1     
   13    5   36 1     
   14    5   37 1     
   15    6    7 1     
   16    6   25 1     
   17    7   12 ar    
   18    7    8 ar    
   19    8    9 ar    
   20    9   10 ar    
   21    9   38 1     
   22   10   11 ar    
   23   11   15 1     
   24   11   12 ar    
   25   12   13 1     
   26   13   14 2     
   27   14   15 1     
   28   14   39 1     
   29   15   16 1     
   30   16   17 1     
   31   16   40 1     
   32   16   41 1     
   33   17   18 1     
   34   17   20 1     
   35   17   42 1     
   36   18   19 1     
   37   18   43 1     
   38   18   44 1     
   39   19   45 1     
   40   20   24 1     
   41   20   21 1     
   42   20   46 1     
   43   21   22 1     
   44   21   47 1     
   45   21   48 1     
   46   22   23 1     
   47   22   49 1     
   48   22   50 1     
   49   23   24 1     
   50   24   51 1     
   51   24   52 1     
   52   25   26 1     
   53   25   53 1     
   54   25   54 1     
   55   26   27 1     
   56   26   28 1     
   57   26   29 1     
   58   27   55 1     
   59   27   56 1     
   60   27   57 1     
   61   28   58 1     
   62   28   59 1     
   63   28   60 1     
   64    2   61 1     
   65    2   62 1     
   66    6   63 1     
   67    8   64 1     
   68   10   65 1     
   69   13   66 1     
   70   19   67 1     
   71   19   68 1     
   72   23   69 1     
   73   23   70 1     
   74   29   71 1     
   75   29   72 1     
@<TRIPOS>SUBSTRUCTURE
      1 S1             1
@<TRIPOS>SET
LONE_PAIRS      STATIC     ATOMS    <user>   **** ""
12 61 62 63 64 65 66 67 68 69 70 71 72
DONOR_HYDROGENS      STATIC     ATOMS    <user>   **** ""
1 45
ATOM$BLUE        STATIC     ATOMS    COLORGROUP SYSTEM
12 61 62 63 64 65 66 67 68 69 70 71 72
ATOM$RED        STATIC     ATOMS    COLORGROUP SYSTEM
1 45
