AV-unprocessed.smi:1672|AV-procd|sdf|6702|dock3
  -GOLD-   22720 7443D 1   1.00000     0.00000
 Structure written by MMmdl.
 48 50  0  0  0  0  0  0  0  0  2 V2000
  144.9062  133.3339  151.3290 C   0  0  0  0  0  0  0  0  0  0  0  0
  144.9658  134.8609  151.4753 C   0  0  2  0  0  0  0  0  0  0  0  0
  145.7470  135.5142  150.3226 C   0  0  0  0  0  0  0  0  0  0  0  0
  145.8361  137.0397  150.4992 C   0  0  0  0  0  0  0  0  0  0  0  0
  146.4478  137.3931  151.8056 N   0  3  1  0  0  0  0  0  0  0  0  0
  146.6845  138.8533  151.9453 C   0  0  0  0  0  0  0  0  0  0  0  0
  147.3580  139.2115  153.2842 C   0  0  1  0  0  0  0  0  0  0  0  0
  148.7126  138.8062  153.2351 O   0  0  0  0  0  0  0  0  0  0  0  0
  147.2846  140.7217  153.5827 C   0  0  0  0  0  0  0  0  0  0  0  0
  147.6176  141.0300  154.9674 N   0  0  0  0  0  0  0  0  0  0  0  0
  146.7849  141.3390  155.9942 C   0  0  0  0  0  0  0  0  0  0  0  0
  145.2977  141.4057  155.8299 C   0  0  0  0  0  0  0  0  0  0  0  0
  144.7210  140.1404  155.5878 O   0  0  0  0  0  0  0  0  0  0  0  0
  147.3740  141.5784  157.1662 N   0  0  0  0  0  0  0  0  0  0  0  0
  148.7133  141.4080  156.8753 C   0  0  0  0  0  0  0  0  0  0  0  0
  149.8555  141.5240  157.6994 C   0  0  0  0  0  0  0  0  0  0  0  0
  151.1434  141.2995  157.1700 C   0  0  0  0  0  0  0  0  0  0  0  0
  151.3075  140.9557  155.8125 C   0  0  0  0  0  0  0  0  0  0  0  0
  150.1827  140.8344  154.9742 C   0  0  0  0  0  0  0  0  0  0  0  0
  148.8997  141.0613  155.5073 C   0  0  0  0  0  0  0  0  0  0  0  0
  145.6831  136.8086  152.9395 C   0  0  0  0  0  0  0  0  0  0  0  0
  145.5941  135.2785  152.8153 C   0  0  0  0  0  0  0  0  0  0  0  0
  145.9032  132.8927  151.3564 H   0  0  0  0  0  0  0  0  0  0  0  0
  144.4416  133.0472  150.3854 H   0  0  0  0  0  0  0  0  0  0  0  0
  144.3222  132.8856  152.1333 H   0  0  0  0  0  0  0  0  0  0  0  0
  143.9421  135.2371  151.4478 H   0  0  0  0  0  0  0  0  0  0  0  0
  146.7528  135.0946  150.2716 H   0  0  0  0  0  0  0  0  0  0  0  0
  145.2685  135.2838  149.3698 H   0  0  0  0  0  0  0  0  0  0  0  0
  146.4336  137.4565  149.6875 H   0  0  0  0  0  0  0  0  0  0  0  0
  144.8438  137.4880  150.4263 H   0  0  0  0  0  0  0  0  0  0  0  0
  147.3209  139.2089  151.1333 H   0  0  0  0  0  0  0  0  0  0  0  0
  145.7357  139.3811  151.8378 H   0  0  0  0  0  0  0  0  0  0  0  0
  146.8778  138.6744  154.1012 H   0  0  0  0  0  0  0  0  0  0  0  0
  148.8011  138.1187  152.5924 H   0  0  0  0  0  0  0  0  0  0  0  0
  147.9344  141.2816  152.9105 H   0  0  0  0  0  0  0  0  0  0  0  0
  146.2737  141.0864  153.3962 H   0  0  0  0  0  0  0  0  0  0  0  0
  144.8539  141.8215  156.7352 H   0  0  0  0  0  0  0  0  0  0  0  0
  145.0416  142.0859  155.0182 H   0  0  0  0  0  0  0  0  0  0  0  0
  144.5172  140.0726  154.6680 H   0  0  0  0  0  0  0  0  0  0  0  0
  149.7409  141.7865  158.7408 H   0  0  0  0  0  0  0  0  0  0  0  0
  152.0095  141.3911  157.8088 H   0  0  0  0  0  0  0  0  0  0  0  0
  152.2977  140.7852  155.4156 H   0  0  0  0  0  0  0  0  0  0  0  0
  150.3058  140.5709  153.9345 H   0  0  0  0  0  0  0  0  0  0  0  0
  146.1564  137.0572  153.8884 H   0  0  0  0  0  0  0  0  0  0  0  0
  144.6813  137.2405  152.9669 H   0  0  0  0  0  0  0  0  0  0  0  0
  145.0075  134.8778  153.6428 H   0  0  0  0  0  0  0  0  0  0  0  0
  146.5920  134.8474  152.9080 H   0  0  0  0  0  0  0  0  0  0  0  0
  147.3613  136.9610  151.8122 H   0  0  0  0  0  0  0  0  0  0  0  0
  1  2  1  0  0  0  0
  1 23  1  0  0  0  0
  1 24  1  0  0  0  0
  1 25  1  0  0  0  0
  2 22  1  0  0  0  0
  2  3  1  0  0  0  0
  2 26  1  0  0  0  0
  3  4  1  0  0  0  0
  3 27  1  0  0  0  0
  3 28  1  0  0  0  0
  4  5  1  0  0  0  0
  4 29  1  0  0  0  0
  4 30  1  0  0  0  0
  5  6  1  0  0  0  0
  5 21  1  0  0  0  0
  5 48  1  0  0  0  0
  6  7  1  0  0  0  0
  6 31  1  0  0  0  0
  6 32  1  0  0  0  0
  7  8  1  0  0  0  0
  7  9  1  0  0  0  0
  7 33  1  0  0  0  0
  8 34  1  0  0  0  0
  9 10  1  0  0  0  0
  9 35  1  0  0  0  0
  9 36  1  0  0  0  0
 10 20  1  0  0  0  0
 10 11  1  0  0  0  0
 11 12  1  0  0  0  0
 11 14  2  0  0  0  0
 12 13  1  0  0  0  0
 12 37  1  0  0  0  0
 12 38  1  0  0  0  0
 13 39  1  0  0  0  0
 14 15  1  0  0  0  0
 15 20  2  0  0  0  0
 15 16  1  0  0  0  0
 16 17  2  0  0  0  0
 16 40  1  0  0  0  0
 17 18  1  0  0  0  0
 17 41  1  0  0  0  0
 18 19  2  0  0  0  0
 18 42  1  0  0  0  0
 19 20  1  0  0  0  0
 19 43  1  0  0  0  0
 21 22  1  0  0  0  0
 21 44  1  0  0  0  0
 21 45  1  0  0  0  0
 22 46  1  0  0  0  0
 22 47  1  0  0  0  0
M  CHG  1   5   1
M  END
> <s_m_source_file>
AV-unprocessed.smi

> <i_m_source_file_index>
1672

> <i_lp_mmshare_version>
43012

> <i_f3d_flags>
0

> <s_epik_input>
W0NIM11bQ0hdMVtDSDJdW0NIMl1OKFtDSDJdW0NIMl0xKVtDSDJdW0NASF0oW09IXSlbQ0gyXW4oYyhuMilbQ0gyXVtPSF0pYyhjMjMpW2NIXVtjSF1bY0hdW2NIXTM=

> <s_epik_cmdline>
J2VwaWtfcHl0aG9uJywgJy1waCcsICc3LjAnLCAnLXRuJywgJzgnLCAnLW1hJywgJzIwMCcsICctbWV0YWxfYmluZGluZycsICctaW1hZScsICc8aW5maWxlLm1hZT4nLCAnLW9tYWUnLCAnPG91dGZpbGUubWFlPic=

> <r_epik_Ionization_Penalty>
0.0498263

> <r_epik_Ionization_Penalty_Charging>
0.00181365

> <r_epik_Ionization_Penalty_Neutral>
0.0480127

> <r_epik_State_Penalty>
0.0408546

> <r_epik_Charging_Adjusted_Penalty>
0.0426682

> <i_epik_Tot_Q>
1

> <i_epik_Tot_abs_Q>
1

> <r_epik_Metal_State_Penalty>
4.22946e-05

> <b_epik_Metal_Only>
0

> <s_lp_Force_Field>
OPLS_2005

> <r_lp_Energy>
23.0912

> <b_lp_Chiralities_Consistent>
1

> <s_lp_Variant>
AV-unprocessed.smi:1672-2

> <Gold.Version>
5.8.1

> <Gold.Id.Protein>
6NUR|6NUR_protein|mol2

> <Gold.PLP.Fitness>
50.0363

> <Gold.PLP.PLP>
-38.9402

> <Gold.PLP.part.hbond>
-4.1413

> <Gold.PLP.part.metal>
0.0000

> <Gold.PLP.part.buried>
4.8280

> <Gold.PLP.part.nonpolar>
-39.3524

> <Gold.PLP.part.repulsive>
0.6566

> <Gold.PLP.ligand.clash>
0.0000

> <Gold.PLP.ligand.torsion>
0.4848

> <Gold.PLP.Chemscore.Hbond>
4.0000

> <Gold.PLP.Chemscore.CHOScore>
0.0000

> <Gold.PLP.Chemscore.Metal>
0.0000

> <Gold.Chemscore.Hbonds>
donor molecule, donor type, donor heavy atom, donor atom, acceptor molecule, acceptor atom, score
      L1  H     5    48       P1  7948  2.00
      L1  H     8    34       P1  7948  1.00
      L1  H    13    39       P1 10175  0.16

> <Gold.PLP.Chemscore.Internal.Correction>
0.0657

> <Gold.Rescore>
     Score         DG    S(hbond)    S(metal)    S(lipo)     H(rot)  DE(clash)    DE(int)     intcor
     15.80     -19.50       2.94        0.00      98.79       2.88       3.13       0.57       ----

> <Gold.Chemscore.Fitness>
15.7997

> <Gold.Chemscore.DG>
-19.5011

> <Gold.Chemscore.ZeroCoef>
-5.4800

> <Gold.Chemscore.Hbond>
2.9430

> <Gold.Chemscore.Metal>
0.0000

> <Gold.Chemscore.Lipo>
98.7916

> <Gold.Chemscore.Internal_Hbond>
0.0000

> <Gold.Chemscore.DEClash>
3.1327

> <Gold.Chemscore.DEInternal>
0.5687

> <Gold.Chemscore.Rot>
2.8778

> <Gold.Chemscore.Internal.Correction>
   9.000000E+99

> <Gold.Chemscore.Hbonds>
donor molecule, donor type, donor heavy atom, donor atom, acceptor molecule, acceptor atom, score
      L1  H     5    48       P1  7948  1.00
      L1  H     8    34       P1  7948  0.95
      L1  H    13    39       P1 10175  0.18

> <Gold.Chemscore.Hbond.Weighted>
-9.8296

> <Gold.Chemscore.Metal.Weighted>
-0.0000

> <Gold.Chemscore.Lipo.Weighted>
-11.5586

> <Gold.Chemscore.Internal_Hbond.Weighted>
0.0000

> <Gold.Chemscore.DEClash.Weighted>
3.1327

> <Gold.Chemscore.DEInternal.Weighted>
0.5687

> <Gold.Chemscore.Rot.Weighted>
7.3671

> <Gold.Chemscore.Internal.Correction.Weighted>
   9.000000E+99

> <Gold.Protein.RotatedTorsions>
[ 6907 6896 6895 6894 ] final   74.75 input  -60.11 | X-H torsion
[ 7974 7965 7964 7962 ] final  -22.74 input  175.53 | X-H torsion
[ 8008 7997 7996 7995 ] final   93.16 input   59.86 | X-H torsion
[ 10167 10162 10161 10158 ] final -178.13 input  -65.29 | X-H torsion
[ 10718 10713 10712 10709 ] final  -51.44 input   66.30 | X-H torsion
[ 10763 10752 10751 10750 ] final  -44.53 input  -60.55 | X-H torsion
[ 11005 11000 10999 10996 ] final  120.78 input  -57.11 | X-H torsion

> <Gold.Protein.ActiveResidues>
 VAL166  LYS551  ARG553  GLY616  TRP617  ASP618  TYR619  PRO620  LYS621  CYS622 
 ASP623  PHE694  ASN695  SER759  ASP760  ASP761  ALA762  ILE779  LEU786  VAL792 
 PHE793  MET794  SER795  GLU796  ALA797  LYS798  CYS799  TRP800  GLU811  SER814 

> <Gold.Protein.RotatedAtoms>
  152.4991  134.4224  159.9484 H   0  0  0  0  0  0  0  0  0  0  0  0  # atno 6907 bound_to 6896
  151.4198  133.3695  159.2762 H   0  0  0  0  0  0  0  0  0  0  0  0  # atno 6908 bound_to 6896
  150.9231  134.8670  159.7561 H   0  0  0  0  0  0  0  0  0  0  0  0  # atno 6909 bound_to 6896
  146.1658  140.4521  142.8553 H   0  0  0  0  0  0  0  0  0  0  0  0  # atno 7974 bound_to 7965
  156.0436  140.3316  155.7272 H   0  0  0  0  0  0  0  0  0  0  0  0  # atno 8008 bound_to 7997
  155.5707  140.0627  157.2825 H   0  0  0  0  0  0  0  0  0  0  0  0  # atno 8009 bound_to 7997
  154.4404  140.1861  156.0864 H   0  0  0  0  0  0  0  0  0  0  0  0  # atno 8010 bound_to 7997
  139.5447  144.2268  152.0964 H   0  0  0  0  0  0  0  0  0  0  0  0  # atno 10167 bound_to 10162
  156.1710  130.4149  149.9648 H   0  0  0  0  0  0  0  0  0  0  0  0  # atno 10718 bound_to 10713
  154.0136  135.6678  153.4767 H   0  0  0  0  0  0  0  0  0  0  0  0  # atno 10763 bound_to 10752
  153.0610  135.5028  154.8089 H   0  0  0  0  0  0  0  0  0  0  0  0  # atno 10764 bound_to 10752
  154.6980  135.3073  154.9347 H   0  0  0  0  0  0  0  0  0  0  0  0  # atno 10765 bound_to 10752
  139.9199  134.9636  156.7858 H   0  0  0  0  0  0  0  0  0  0  0  0  # atno 11005 bound_to 11000
  144.8090  140.6351  143.6428 LP  0  0  0  0  0  0  0  0  0  0  0  0  # atno 17320 bound_to 7965
  145.4472  139.1528  143.3938 LP  0  0  0  0  0  0  0  0  0  0  0  0  # atno 17321 bound_to 7965
  140.1752  144.4897  150.6558 LP  0  0  0  0  0  0  0  0  0  0  0  0  # atno 17342 bound_to 10162
  140.6691  143.2279  151.5671 LP  0  0  0  0  0  0  0  0  0  0  0  0  # atno 17343 bound_to 10162
  156.7448  130.9093  151.3634 LP  0  0  0  0  0  0  0  0  0  0  0  0  # atno 17370 bound_to 10713
  157.6802  130.9133  150.0249 LP  0  0  0  0  0  0  0  0  0  0  0  0  # atno 17371 bound_to 10713
  140.6507  133.9734  155.7753 LP  0  0  0  0  0  0  0  0  0  0  0  0  # atno 17394 bound_to 11000
  141.0710  134.0205  157.3526 LP  0  0  0  0  0  0  0  0  0  0  0  0  # atno 17395 bound_to 11000

$$$$
