AV-unprocessed.smi:109|AV-procd|sdf|1062|dock10
  -GOLD-   2262018143D 1   1.00000     0.00000
 Structure written by MMmdl.
 58 61  0  0  0  0  0  0  0  0  1 V2000
  152.8199  139.9762  154.8488 O   0  0  0  0  0  0  0  0  0  0  0  0
  151.7357  139.7542  155.7245 C   0  0  0  0  0  0  0  0  0  0  0  0
  152.0099  140.4309  157.0785 C   0  0  0  0  0  0  0  0  0  0  0  0
  151.3660  141.8313  157.2346 C   0  0  1  0  0  0  0  0  0  0  0  0
  149.9265  141.6864  157.4632 N   0  0  0  0  0  0  0  0  0  0  0  0
  149.0736  141.2952  156.4903 C   0  0  0  0  0  0  0  0  0  0  0  0
  149.4095  141.3704  155.1762 N   0  0  0  0  0  0  0  0  0  0  0  0
  148.5460  140.9657  154.2405 C   0  0  0  0  0  0  0  0  0  0  0  0
  147.3200  140.4632  154.3993 N   0  0  0  0  0  0  0  0  0  0  0  0
  146.9753  140.3881  155.7171 C   0  0  0  0  0  0  0  0  0  0  0  0
  147.7913  140.7822  156.8138 C   0  0  0  0  0  0  0  0  0  0  0  0
  147.1148  140.5635  158.0066 N   0  0  0  0  0  0  0  0  0  0  0  0
  145.9646  140.0716  157.6314 C   0  0  0  0  0  0  0  0  0  0  0  0
  145.7996  139.9246  156.2720 N   0  0  0  0  0  0  0  0  0  0  0  0
  144.6014  139.3959  155.5542 C   0  0  1  0  0  0  0  0  0  0  0  0
  144.3783  138.0952  155.9944 O   0  0  0  0  0  0  0  0  0  0  0  0
  142.9805  137.7983  156.0074 C   0  0  1  0  0  0  0  0  0  0  0  0
  142.6123  137.2548  157.3988 C   0  0  0  0  0  0  0  0  0  0  0  0
  143.3613  136.0918  157.6799 O   0  0  0  0  0  0  0  0  0  0  0  0
  142.2689  139.1265  155.6799 C   0  0  2  0  0  0  0  0  0  0  0  0
  141.8191  139.0808  154.3355 O   0  0  0  0  0  0  0  0  0  0  0  0
  143.3443  140.1868  155.9016 C   0  0  2  0  0  0  0  0  0  0  0  0
  143.1513  141.3254  155.0832 O   0  0  0  0  0  0  0  0  0  0  0  0
  151.9843  142.6744  158.3871 C   0  0  0  0  0  0  0  0  0  0  0  0
  151.9710  141.8877  159.7235 C   0  0  0  0  0  0  0  0  0  0  0  0
  152.5809  142.6888  160.8842 C   0  0  0  0  0  0  0  0  0  0  0  0
  151.8597  144.0288  161.0699 C   0  0  0  0  0  0  0  0  0  0  0  0
  151.8796  144.8361  159.7665 C   0  0  0  0  0  0  0  0  0  0  0  0
  151.2778  144.0372  158.5985 C   0  0  0  0  0  0  0  0  0  0  0  0
  144.8516  139.4029  154.4920 H   0  0  0  0  0  0  0  0  0  0  0  0
  142.7567  137.0453  155.2489 H   0  0  0  0  0  0  0  0  0  0  0  0
  141.3994  139.3059  156.3135 H   0  0  0  0  0  0  0  0  0  0  0  0
  143.3643  140.4744  156.9529 H   0  0  0  0  0  0  0  0  0  0  0  0
  153.0141  139.1675  154.3999 H   0  0  0  0  0  0  0  0  0  0  0  0
  150.8277  140.1540  155.2719 H   0  0  0  0  0  0  0  0  0  0  0  0
  151.6002  138.6788  155.8388 H   0  0  0  0  0  0  0  0  0  0  0  0
  151.6768  139.7808  157.8889 H   0  0  0  0  0  0  0  0  0  0  0  0
  153.0915  140.5098  157.1726 H   0  0  0  0  0  0  0  0  0  0  0  0
  151.5527  142.3842  156.3142 H   0  0  0  0  0  0  0  0  0  0  0  0
  149.6119  141.9264  158.3925 H   0  0  0  0  0  0  0  0  0  0  0  0
  148.8864  141.0557  153.2197 H   0  0  0  0  0  0  0  0  0  0  0  0
  145.2000  139.7966  158.3433 H   0  0  0  0  0  0  0  0  0  0  0  0
  142.7636  138.0018  158.1772 H   0  0  0  0  0  0  0  0  0  0  0  0
  141.5597  136.9721  157.4267 H   0  0  0  0  0  0  0  0  0  0  0  0
  142.7794  135.4387  158.0377 H   0  0  0  0  0  0  0  0  0  0  0  0
  142.3474  139.6711  153.8207 H   0  0  0  0  0  0  0  0  0  0  0  0
  143.0691  141.0383  154.1866 H   0  0  0  0  0  0  0  0  0  0  0  0
  153.0248  142.8812  158.1302 H   0  0  0  0  0  0  0  0  0  0  0  0
  150.9458  141.6117  159.9742 H   0  0  0  0  0  0  0  0  0  0  0  0
  152.5224  140.9521  159.6292 H   0  0  0  0  0  0  0  0  0  0  0  0
  152.5265  142.1076  161.8052 H   0  0  0  0  0  0  0  0  0  0  0  0
  153.6399  142.8649  160.6914 H   0  0  0  0  0  0  0  0  0  0  0  0
  150.8284  143.8527  161.3783 H   0  0  0  0  0  0  0  0  0  0  0  0
  152.3315  144.5995  161.8704 H   0  0  0  0  0  0  0  0  0  0  0  0
  151.3304  145.7686  159.8995 H   0  0  0  0  0  0  0  0  0  0  0  0
  152.9064  145.1146  159.5259 H   0  0  0  0  0  0  0  0  0  0  0  0
  151.3569  144.6582  157.7077 H   0  0  0  0  0  0  0  0  0  0  0  0
  150.2135  143.8768  158.7747 H   0  0  0  0  0  0  0  0  0  0  0  0
  1  2  1  0  0  0  0
  1 34  1  0  0  0  0
  2  3  1  0  0  0  0
  2 35  1  0  0  0  0
  2 36  1  0  0  0  0
  3  4  1  0  0  0  0
  3 37  1  0  0  0  0
  3 38  1  0  0  0  0
  4  5  1  0  0  0  0
  4 24  1  0  0  0  0
  4 39  1  0  0  0  0
  5  6  1  0  0  0  0
  5 40  1  0  0  0  0
  6 11  1  0  0  0  0
  6  7  2  0  0  0  0
  7  8  1  0  0  0  0
  8  9  2  0  0  0  0
  8 41  1  0  0  0  0
  9 10  1  0  0  0  0
 10 14  1  0  0  0  0
 10 11  2  0  0  0  0
 11 12  1  0  0  0  0
 12 13  2  0  0  0  0
 13 14  1  0  0  0  0
 13 42  1  0  0  0  0
 14 15  1  0  0  0  0
 15 30  1  0  0  0  0
 15 22  1  0  0  0  0
 15 16  1  0  0  0  0
 16 17  1  0  0  0  0
 17 31  1  0  0  0  0
 17 18  1  0  0  0  0
 17 20  1  0  0  0  0
 18 19  1  0  0  0  0
 18 43  1  0  0  0  0
 18 44  1  0  0  0  0
 19 45  1  0  0  0  0
 20 32  1  0  0  0  0
 20 21  1  0  0  0  0
 20 22  1  0  0  0  0
 21 46  1  0  0  0  0
 22 33  1  0  0  0  0
 22 23  1  0  0  0  0
 23 47  1  0  0  0  0
 24 29  1  0  0  0  0
 24 25  1  0  0  0  0
 24 48  1  0  0  0  0
 25 26  1  0  0  0  0
 25 49  1  0  0  0  0
 25 50  1  0  0  0  0
 26 27  1  0  0  0  0
 26 51  1  0  0  0  0
 26 52  1  0  0  0  0
 27 28  1  0  0  0  0
 27 53  1  0  0  0  0
 27 54  1  0  0  0  0
 28 29  1  0  0  0  0
 28 55  1  0  0  0  0
 28 56  1  0  0  0  0
 29 57  1  0  0  0  0
 29 58  1  0  0  0  0
M  END
> <s_m_source_file>
AV-unprocessed.smi

> <i_m_source_file_index>
109

> <i_lp_mmshare_version>
43012

> <i_f3d_flags>
0

> <s_epik_input>
W0NIMl0xW0NIMl1bQ0gyXVtDSDJdW0NIMl1bQ0hdMVtDQEhdKFtDSDJdW0NIMl1bT0hdKVtOSF1jKG5bY0hdbjIpYyhjMjMpbltjSF1uM1tDQEBIXTRPW0NASF0oW0NIMl1bT0hdKVtDQEBIXShbT0hdKVtDQEhdNFtPSF0=

> <s_epik_cmdline>
J2VwaWtfcHl0aG9uJywgJy1waCcsICc3LjAnLCAnLXRuJywgJzgnLCAnLW1hJywgJzIwMCcsICctbWV0YWxfYmluZGluZycsICctaW1hZScsICc8aW5maWxlLm1hZT4nLCAnLW9tYWUnLCAnPG91dGZpbGUubWFlPic=

> <r_lp_tautomer_probability>
1

> <r_epik_Ionization_Penalty>
0.000793976

> <r_epik_Ionization_Penalty_Charging>
0

> <r_epik_Ionization_Penalty_Neutral>
0.000793976

> <r_epik_State_Penalty>
-0

> <r_epik_Charging_Adjusted_Penalty>
0

> <i_epik_Tot_Q>
0

> <i_epik_Tot_abs_Q>
0

> <r_epik_Metal_State_Penalty>
-0

> <b_epik_Metal_Only>
0

> <s_epik_Chemistry_Notes>
This compound contains an acetal/aminal-like group ( X-CH(R)-Y where X, Y are N, S, or O) that may be acid/base labile, releasing an aldehyde.

> <s_lp_Force_Field>
OPLS_2005

> <r_lp_Energy>
55.705

> <b_lp_Chiralities_Consistent>
1

> <s_lp_Variant>
AV-unprocessed.smi:109-32

> <Gold.Version>
5.8.1

> <Gold.Id.Protein>
6NUR|6NUR_protein|mol2

> <Gold.PLP.Fitness>
52.2019

> <Gold.PLP.PLP>
-40.6432

> <Gold.PLP.part.hbond>
-5.6316

> <Gold.PLP.part.metal>
0.0000

> <Gold.PLP.part.buried>
-6.5435

> <Gold.PLP.part.nonpolar>
-30.0240

> <Gold.PLP.part.repulsive>
0.3243

> <Gold.PLP.ligand.clash>
0.0000

> <Gold.PLP.ligand.torsion>
0.6900

> <Gold.PLP.Chemscore.Hbond>
3.2661

> <Gold.PLP.Chemscore.CHOScore>
1.0000

> <Gold.PLP.Chemscore.Metal>
0.0000

> <Gold.Chemscore.Hbonds>
donor molecule, donor type, donor heavy atom, donor atom, acceptor molecule, acceptor atom, score
      L1  H    21    46       P1 10175  1.00
      L1  H    23    47       P1 10175  1.00
      P1  H  7989  7998       L1     1  0.28
      P1  H  7997  8010       L1     1  0.90
      L1  C     8    41       P1  7957  1.00

> <Gold.PLP.Chemscore.Internal.Correction>
0.1404

> <Gold.Rescore>
     Score         DG    S(hbond)    S(metal)    S(lipo)     H(rot)  DE(clash)    DE(int)     intcor
      8.06     -10.27       2.36        0.00      93.03       5.47       0.22       1.99       ----

> <Gold.Chemscore.Fitness>
8.0581

> <Gold.Chemscore.DG>
-10.2676

> <Gold.Chemscore.ZeroCoef>
-5.4800

> <Gold.Chemscore.Hbond>
2.3642

> <Gold.Chemscore.Metal>
0.0000

> <Gold.Chemscore.Lipo>
93.0315

> <Gold.Chemscore.Internal_Hbond>
0.0000

> <Gold.Chemscore.DEClash>
0.2159

> <Gold.Chemscore.DEInternal>
1.9937

> <Gold.Chemscore.Rot>
5.4662

> <Gold.Chemscore.Internal.Correction>
   9.000000E+99

> <Gold.Chemscore.Hbonds>
donor molecule, donor type, donor heavy atom, donor atom, acceptor molecule, acceptor atom, score
      L1  H    21    46       P1 10175  0.97
      L1  H    23    47       P1 10175  0.44
      P1  H  7989  7998       L1     1  0.01
      P1  H  7997  8010       L1     1  0.16

> <Gold.Chemscore.Hbond.Weighted>
-7.8964

> <Gold.Chemscore.Metal.Weighted>
-0.0000

> <Gold.Chemscore.Lipo.Weighted>
-10.8847

> <Gold.Chemscore.Internal_Hbond.Weighted>
0.0000

> <Gold.Chemscore.DEClash.Weighted>
0.2159

> <Gold.Chemscore.DEInternal.Weighted>
1.9937

> <Gold.Chemscore.Rot.Weighted>
13.9935

> <Gold.Chemscore.Internal.Correction.Weighted>
   9.000000E+99

> <Gold.Protein.RotatedTorsions>
[ 6907 6896 6895 6894 ] final   25.65 input  -60.11 | X-H torsion
[ 7974 7965 7964 7962 ] final -113.26 input  175.53 | X-H torsion
[ 8008 7997 7996 7995 ] final  115.45 input   59.86 | X-H torsion
[ 10167 10162 10161 10158 ] final   75.14 input  -65.29 | X-H torsion
[ 10718 10713 10712 10709 ] final -150.50 input   66.30 | X-H torsion
[ 10763 10752 10751 10750 ] final  -33.89 input  -60.55 | X-H torsion
[ 11005 11000 10999 10996 ] final  -49.08 input  -57.11 | X-H torsion

> <Gold.Protein.ActiveResidues>
 VAL166  LYS551  ARG553  GLY616  TRP617  ASP618  TYR619  PRO620  LYS621  CYS622 
 ASP623  PHE694  ASN695  SER759  ASP760  ASP761  ALA762  ILE779  LEU786  VAL792 
 PHE793  MET794  SER795  GLU796  ALA797  LYS798  CYS799  TRP800  GLU811  SER814 

> <Gold.Protein.RotatedAtoms>
  151.9757  135.0054  160.0554 H   0  0  0  0  0  0  0  0  0  0  0  0  # atno 6907 bound_to 6896
  152.1742  133.4659  159.4933 H   0  0  0  0  0  0  0  0  0  0  0  0  # atno 6908 bound_to 6896
  150.6906  134.1832  159.4299 H   0  0  0  0  0  0  0  0  0  0  0  0  # atno 6909 bound_to 6896
  145.1342  140.8741  143.3740 H   0  0  0  0  0  0  0  0  0  0  0  0  # atno 7974 bound_to 7965
  156.2382  140.2938  156.0370 H   0  0  0  0  0  0  0  0  0  0  0  0  # atno 8008 bound_to 7997
  155.2030  140.0410  157.2938 H   0  0  0  0  0  0  0  0  0  0  0  0  # atno 8009 bound_to 7997
  154.6118  140.2453  155.7667 H   0  0  0  0  0  0  0  0  0  0  0  0  # atno 8010 bound_to 7997
  140.0061  144.5649  150.7696 H   0  0  0  0  0  0  0  0  0  0  0  0  # atno 10167 bound_to 10162
  156.4470  130.8149  151.2380 H   0  0  0  0  0  0  0  0  0  0  0  0  # atno 10718 bound_to 10713
  153.8377  135.6860  153.4806 H   0  0  0  0  0  0  0  0  0  0  0  0  # atno 10763 bound_to 10752
  153.1472  135.4633  154.9582 H   0  0  0  0  0  0  0  0  0  0  0  0  # atno 10764 bound_to 10752
  154.7859  135.3284  154.7834 H   0  0  0  0  0  0  0  0  0  0  0  0  # atno 10765 bound_to 10752
  141.0739  133.6671  156.3534 H   0  0  0  0  0  0  0  0  0  0  0  0  # atno 11005 bound_to 11000
  145.0603  139.3111  143.5884 LP  0  0  0  0  0  0  0  0  0  0  0  0  # atno 17320 bound_to 7965
  146.3511  140.0042  142.8673 LP  0  0  0  0  0  0  0  0  0  0  0  0  # atno 17321 bound_to 7965
  140.7400  143.2798  151.3632 LP  0  0  0  0  0  0  0  0  0  0  0  0  # atno 17342 bound_to 10162
  139.6237  144.0856  152.2415 LP  0  0  0  0  0  0  0  0  0  0  0  0  # atno 17343 bound_to 10162
  157.7504  131.0150  150.3487 LP  0  0  0  0  0  0  0  0  0  0  0  0  # atno 17370 bound_to 10713
  156.3857  130.3888  149.7068 LP  0  0  0  0  0  0  0  0  0  0  0  0  # atno 17371 bound_to 10713
  140.5616  134.5929  157.5435 LP  0  0  0  0  0  0  0  0  0  0  0  0  # atno 17394 bound_to 11000
  139.9551  134.7549  156.0360 LP  0  0  0  0  0  0  0  0  0  0  0  0  # atno 17395 bound_to 11000

$$$$
