AV-unprocessed.smi:1769|AV-procd|sdf|7153|dock8
  -GOLD-   22720 8393D 1   1.00000     0.00000
 Structure written by MMmdl.
 42 43  0  0  0  0  0  0  0  0  2 V2000
  148.3891  140.0395  153.8568 C   0  0  0  0  0  0  0  0  0  0  0  0
  149.4711  140.5161  154.8286 C   0  0  0  0  0  0  0  0  0  0  0  0
  149.2591  141.5450  155.4705 O   0  0  0  0  0  0  0  0  0  0  0  0
  150.6122  139.7965  154.9544 N   0  0  0  0  0  0  0  0  0  0  0  0
  150.8914  138.5227  154.2792 C   0  0  0  0  0  0  0  0  0  0  0  0
  150.8445  137.3925  155.3226 C   0  0  0  0  0  0  0  0  0  0  0  0
  151.8277  137.6678  156.4763 C   0  0  0  0  0  0  0  0  0  0  0  0
  151.6447  139.0885  157.0619 C   0  0  1  0  0  0  0  0  0  0  0  0
  152.7219  139.4000  158.1091 C   0  0  0  0  0  0  0  0  0  0  0  0
  153.8249  138.8556  158.0473 O   0  0  0  0  0  0  0  0  0  0  0  0
  152.3903  140.2774  159.0690 N   0  0  0  0  0  0  0  0  0  0  0  0
  153.2705  140.7003  160.1516 C   0  0  0  0  0  0  0  0  0  0  0  0
  154.0381  141.9812  159.7860 C   0  0  0  0  0  0  0  0  0  0  0  0
  153.1275  143.1910  159.7113 C   0  0  0  0  0  0  0  0  0  0  0  0
  152.9396  143.8715  158.4879 C   0  0  0  0  0  0  0  0  0  0  0  0
  152.0838  144.9917  158.4440 C   0  0  0  0  0  0  0  0  0  0  0  0
  151.4343  145.4061  159.6248 C   0  0  0  0  0  0  0  0  0  0  0  0
  151.6383  144.7299  160.7771 N   0  3  0  0  0  0  0  0  0  0  0  0
  152.4500  143.6528  160.8606 C   0  0  0  0  0  0  0  0  0  0  0  0
  151.6602  140.1358  155.9253 C   0  0  0  0  0  0  0  0  0  0  0  0
  148.0512  139.0355  154.1150 H   0  0  0  0  0  0  0  0  0  0  0  0
  148.7638  140.0361  152.8330 H   0  0  0  0  0  0  0  0  0  0  0  0
  147.5227  140.7006  153.8922 H   0  0  0  0  0  0  0  0  0  0  0  0
  150.2082  138.3017  153.4605 H   0  0  0  0  0  0  0  0  0  0  0  0
  151.8823  138.5686  153.8248 H   0  0  0  0  0  0  0  0  0  0  0  0
  149.8315  137.3032  155.7176 H   0  0  0  0  0  0  0  0  0  0  0  0
  151.0794  136.4371  154.8528 H   0  0  0  0  0  0  0  0  0  0  0  0
  151.6988  136.9170  157.2569 H   0  0  0  0  0  0  0  0  0  0  0  0
  152.8455  137.5484  156.1008 H   0  0  0  0  0  0  0  0  0  0  0  0
  150.6683  139.1315  157.5488 H   0  0  0  0  0  0  0  0  0  0  0  0
  151.4653  140.6822  159.0441 H   0  0  0  0  0  0  0  0  0  0  0  0
  152.6916  140.8482  161.0652 H   0  0  0  0  0  0  0  0  0  0  0  0
  153.9713  139.8907  160.3566 H   0  0  0  0  0  0  0  0  0  0  0  0
  154.8231  142.1687  160.5200 H   0  0  0  0  0  0  0  0  0  0  0  0
  154.5399  141.8616  158.8246 H   0  0  0  0  0  0  0  0  0  0  0  0
  153.4437  143.5385  157.5919 H   0  0  0  0  0  0  0  0  0  0  0  0
  151.9277  145.5242  157.5172 H   0  0  0  0  0  0  0  0  0  0  0  0
  150.7628  146.2505  159.6822 H   0  0  0  0  0  0  0  0  0  0  0  0
  152.5302  143.1962  161.8365 H   0  0  0  0  0  0  0  0  0  0  0  0
  152.6270  140.1402  155.4186 H   0  0  0  0  0  0  0  0  0  0  0  0
  151.5395  141.1401  156.3350 H   0  0  0  0  0  0  0  0  0  0  0  0
  151.1581  145.0462  161.6200 H   0  0  0  0  0  0  0  0  0  0  0  0
  1  2  1  0  0  0  0
  1 21  1  0  0  0  0
  1 22  1  0  0  0  0
  1 23  1  0  0  0  0
  2  3  2  0  0  0  0
  2  4  1  0  0  0  0
  4 20  1  0  0  0  0
  4  5  1  0  0  0  0
  5  6  1  0  0  0  0
  5 24  1  0  0  0  0
  5 25  1  0  0  0  0
  6  7  1  0  0  0  0
  6 26  1  0  0  0  0
  6 27  1  0  0  0  0
  7  8  1  0  0  0  0
  7 28  1  0  0  0  0
  7 29  1  0  0  0  0
  8  9  1  0  0  0  0
  8 20  1  0  0  0  0
  8 30  1  0  0  0  0
  9 10  2  0  0  0  0
  9 11  1  0  0  0  0
 11 12  1  0  0  0  0
 11 31  1  0  0  0  0
 12 13  1  0  0  0  0
 12 32  1  0  0  0  0
 12 33  1  0  0  0  0
 13 14  1  0  0  0  0
 13 34  1  0  0  0  0
 13 35  1  0  0  0  0
 14 19  1  0  0  0  0
 14 15  2  0  0  0  0
 15 16  1  0  0  0  0
 15 36  1  0  0  0  0
 16 17  2  0  0  0  0
 16 37  1  0  0  0  0
 17 18  1  0  0  0  0
 17 38  1  0  0  0  0
 18 19  2  0  0  0  0
 18 42  1  0  0  0  0
 19 39  1  0  0  0  0
 20 40  1  0  0  0  0
 20 41  1  0  0  0  0
M  CHG  1  18   1
M  END
> <s_m_source_file>
AV-unprocessed.smi

> <i_m_source_file_index>
1769

> <i_lp_mmshare_version>
43012

> <i_f3d_flags>
0

> <s_epik_input>
W0NIM11DKD1PKU4xW0NIMl1bQ0gyXVtDSDJdW0NASF0oW0NIMl0xKUMoPU8pW05IXVtDSDJdW0NIMl1jMltjSF1bY0hdW2NIXW5bY0hdMg==

> <s_epik_cmdline>
J2VwaWtfcHl0aG9uJywgJy1waCcsICc3LjAnLCAnLXRuJywgJzgnLCAnLW1hJywgJzIwMCcsICctbWV0YWxfYmluZGluZycsICctaW1hZScsICc8aW5maWxlLm1hZT4nLCAnLW9tYWUnLCAnPG91dGZpbGUubWFlPic=

> <r_epik_Ionization_Penalty>
2.25127

> <r_epik_Ionization_Penalty_Charging>
2.25127

> <r_epik_Ionization_Penalty_Neutral>
1.02261e-06

> <r_epik_State_Penalty>
2.39841

> <r_epik_Charging_Adjusted_Penalty>
4.64968

> <i_epik_Tot_Q>
1

> <i_epik_Tot_abs_Q>
1

> <r_epik_Metal_State_Penalty>
2.41159

> <b_epik_Metal_Only>
0

> <s_lp_Force_Field>
OPLS_2005

> <r_lp_Energy>
29.7946

> <b_lp_Chiralities_Consistent>
1

> <s_lp_Variant>
AV-unprocessed.smi:1769-3

> <Gold.Version>
5.8.1

> <Gold.Id.Protein>
6NUR|6NUR_protein|mol2

> <Gold.PLP.Fitness>
48.3504

> <Gold.PLP.PLP>
-47.2786

> <Gold.PLP.part.hbond>
-2.0000

> <Gold.PLP.part.metal>
0.0000

> <Gold.PLP.part.buried>
-4.4915

> <Gold.PLP.part.nonpolar>
-41.3835

> <Gold.PLP.part.repulsive>
0.8337

> <Gold.PLP.ligand.clash>
0.0000

> <Gold.PLP.ligand.torsion>
0.9420

> <Gold.PLP.Chemscore.Hbond>
0.9760

> <Gold.PLP.Chemscore.CHOScore>
0.0000

> <Gold.PLP.Chemscore.Metal>
0.0000

> <Gold.Chemscore.Hbonds>
donor molecule, donor type, donor heavy atom, donor atom, acceptor molecule, acceptor atom, score
      P1  H  7997  8010       L1    10  0.86

> <Gold.PLP.Chemscore.Internal.Correction>
0.0277

> <Gold.Rescore>
     Score         DG    S(hbond)    S(metal)    S(lipo)     H(rot)  DE(clash)    DE(int)     intcor
     17.59     -18.61       0.93        0.00     120.83       1.61       0.08       0.94       ----

> <Gold.Chemscore.Fitness>
17.5919

> <Gold.Chemscore.DG>
-18.6060

> <Gold.Chemscore.ZeroCoef>
-5.4800

> <Gold.Chemscore.Hbond>
0.9315

> <Gold.Chemscore.Metal>
0.0000

> <Gold.Chemscore.Lipo>
120.8252

> <Gold.Chemscore.Internal_Hbond>
0.0000

> <Gold.Chemscore.DEClash>
0.0777

> <Gold.Chemscore.DEInternal>
0.9364

> <Gold.Chemscore.Rot>
1.6100

> <Gold.Chemscore.Internal.Correction>
   9.000000E+99

> <Gold.Chemscore.Hbonds>
donor molecule, donor type, donor heavy atom, donor atom, acceptor molecule, acceptor atom, score
      P1  H  7997  8010       L1    10  0.64

> <Gold.Chemscore.Hbond.Weighted>
-3.1111

> <Gold.Chemscore.Metal.Weighted>
-0.0000

> <Gold.Chemscore.Lipo.Weighted>
-14.1365

> <Gold.Chemscore.Internal_Hbond.Weighted>
0.0000

> <Gold.Chemscore.DEClash.Weighted>
0.0777

> <Gold.Chemscore.DEInternal.Weighted>
0.9364

> <Gold.Chemscore.Rot.Weighted>
4.1216

> <Gold.Chemscore.Internal.Correction.Weighted>
   9.000000E+99

> <Gold.Protein.RotatedTorsions>
[ 6907 6896 6895 6894 ] final  123.05 input  -60.11 | X-H torsion
[ 7974 7965 7964 7962 ] final  -15.90 input  175.53 | X-H torsion
[ 8008 7997 7996 7995 ] final    2.12 input   59.86 | X-H torsion
[ 10167 10162 10161 10158 ] final  -76.20 input  -65.29 | X-H torsion
[ 10718 10713 10712 10709 ] final -111.93 input   66.30 | X-H torsion
[ 10763 10752 10751 10750 ] final   14.09 input  -60.55 | X-H torsion
[ 11005 11000 10999 10996 ] final  -23.70 input  -57.11 | X-H torsion

> <Gold.Protein.ActiveResidues>
 VAL166  LYS551  ARG553  GLY616  TRP617  ASP618  TYR619  PRO620  LYS621  CYS622 
 ASP623  PHE694  ASN695  SER759  ASP760  ASP761  ALA762  ILE779  LEU786  VAL792 
 PHE793  MET794  SER795  GLU796  ALA797  LYS798  CYS799  TRP800  GLU811  SER814 

> <Gold.Protein.RotatedAtoms>
  152.4193  133.7090  159.6467 H   0  0  0  0  0  0  0  0  0  0  0  0  # atno 6907 bound_to 6896
  150.8069  133.8482  159.3207 H   0  0  0  0  0  0  0  0  0  0  0  0  # atno 6908 bound_to 6896
  151.6203  135.1034  160.0152 H   0  0  0  0  0  0  0  0  0  0  0  0  # atno 6909 bound_to 6896
  146.2012  140.3559  142.8423 H   0  0  0  0  0  0  0  0  0  0  0  0  # atno 7974 bound_to 7965
  154.6879  140.2647  155.6842 H   0  0  0  0  0  0  0  0  0  0  0  0  # atno 8008 bound_to 7997
  156.2721  140.2797  156.1369 H   0  0  0  0  0  0  0  0  0  0  0  0  # atno 8009 bound_to 7997
  155.0939  140.0373  157.2667 H   0  0  0  0  0  0  0  0  0  0  0  0  # atno 8010 bound_to 7997
  140.4878  143.2387  151.7956 H   0  0  0  0  0  0  0  0  0  0  0  0  # atno 10167 bound_to 10162
  156.0676  130.5893  150.8440 H   0  0  0  0  0  0  0  0  0  0  0  0  # atno 10718 bound_to 10713
  153.1656  135.6803  153.8680 H   0  0  0  0  0  0  0  0  0  0  0  0  # atno 10763 bound_to 10752
  153.8061  135.3149  155.3397 H   0  0  0  0  0  0  0  0  0  0  0  0  # atno 10764 bound_to 10752
  154.7963  135.4805  154.0259 H   0  0  0  0  0  0  0  0  0  0  0  0  # atno 10765 bound_to 10752
  140.8776  133.7676  156.0262 H   0  0  0  0  0  0  0  0  0  0  0  0  # atno 11005 bound_to 11000
  144.8687  140.7242  143.6061 LP  0  0  0  0  0  0  0  0  0  0  0  0  # atno 17320 bound_to 7965
  145.3478  139.1714  143.4451 LP  0  0  0  0  0  0  0  0  0  0  0  0  # atno 17321 bound_to 7965
  139.4845  144.4689  151.9449 LP  0  0  0  0  0  0  0  0  0  0  0  0  # atno 17342 bound_to 10162
  140.3776  144.2777  150.5912 LP  0  0  0  0  0  0  0  0  0  0  0  0  # atno 17343 bound_to 10162
  157.5727  131.0946  150.9393 LP  0  0  0  0  0  0  0  0  0  0  0  0  # atno 17370 bound_to 10713
  156.9606  130.5453  149.5286 LP  0  0  0  0  0  0  0  0  0  0  0  0  # atno 17371 bound_to 10713
  140.8500  134.2966  157.5279 LP  0  0  0  0  0  0  0  0  0  0  0  0  # atno 17394 bound_to 11000
  139.8717  134.9462  156.3932 LP  0  0  0  0  0  0  0  0  0  0  0  0  # atno 17395 bound_to 11000

$$$$
