AV-unprocessed.smi:3208|AV-procd|sdf|12264|dock10
  -GOLD-   2272018103D 1   1.00000     0.00000
 Structure written by MMmdl.
 29 29  0  0  0  0  0  0  0  0  2 V2000
  152.7265  141.9155  159.3998 C   0  0  0  0  0  0  0  0  0  0  0  0
  152.1304  140.7215  159.5476 C   0  0  0  0  0  0  0  0  0  0  0  0
  150.9753  140.2036  158.7132 C   0  0  0  0  0  0  0  0  0  0  0  0
  150.4826  138.9606  159.2039 O   0  0  0  0  0  0  0  0  0  0  0  0
  149.6478  138.2413  158.2993 C   0  0  2  0  0  0  0  0  0  0  0  0
  148.3991  139.0939  158.0363 C   0  0  0  0  0  0  0  0  0  0  0  0
  149.2597  136.8767  158.8925 C   0  0  0  0  0  0  0  0  0  0  0  0
  149.5783  135.8542  158.2785 O   0  0  0  0  0  0  0  0  0  0  0  0
  148.5724  137.0096  160.0961 N   0  0  0  0  0  0  0  0  0  0  0  0
  148.1035  135.9979  160.7748 C   0  0  0  0  0  0  0  0  0  0  0  0
  148.2368  134.6611  160.3605 N   0  0  0  0  0  0  0  0  0  0  0  0
  147.7392  133.5966  161.0817 C   0  0  0  0  0  0  0  0  0  0  0  0
  147.0904  133.7766  162.2333 C   0  0  0  0  0  0  0  0  0  0  0  0
  146.9088  135.1249  162.7308 C   0  0  0  0  0  0  0  0  0  0  0  0
  147.3926  136.2439  162.0427 C   0  0  0  0  0  0  0  0  0  0  0  0
  147.2126  137.3920  162.5111 O   0  5  0  0  0  0  0  0  0  0  0  0
  152.4101  142.6190  158.6439 H   0  0  0  0  0  0  0  0  0  0  0  0
  153.5464  142.2056  160.0401 H   0  0  0  0  0  0  0  0  0  0  0  0
  152.4856  140.0550  160.3197 H   0  0  0  0  0  0  0  0  0  0  0  0
  150.1803  140.9503  158.7287 H   0  0  0  0  0  0  0  0  0  0  0  0
  151.3186  140.1111  157.6825 H   0  0  0  0  0  0  0  0  0  0  0  0
  150.1786  138.1087  157.3540 H   0  0  0  0  0  0  0  0  0  0  0  0
  147.7239  138.6015  157.3354 H   0  0  0  0  0  0  0  0  0  0  0  0
  148.6731  140.0576  157.6068 H   0  0  0  0  0  0  0  0  0  0  0  0
  147.8460  139.2874  158.9563 H   0  0  0  0  0  0  0  0  0  0  0  0
  147.9176  132.6272  160.6406 H   0  0  0  0  0  0  0  0  0  0  0  0
  146.7063  132.9319  162.7860 H   0  0  0  0  0  0  0  0  0  0  0  0
  146.3817  135.2585  163.6646 H   0  0  0  0  0  0  0  0  0  0  0  0
  148.7144  134.4334  159.5011 H   0  0  0  0  0  0  0  0  0  0  0  0
  1  2  2  0  0  0  0
  1 17  1  0  0  0  0
  1 18  1  0  0  0  0
  2  3  1  0  0  0  0
  2 19  1  0  0  0  0
  3  4  1  0  0  0  0
  3 20  1  0  0  0  0
  3 21  1  0  0  0  0
  4  5  1  0  0  0  0
  5  6  1  0  0  0  0
  5  7  1  0  0  0  0
  5 22  1  0  0  0  0
  6 23  1  0  0  0  0
  6 24  1  0  0  0  0
  6 25  1  0  0  0  0
  7  8  2  0  0  0  0
  7  9  1  0  0  0  0
  9 10  2  0  0  0  0
 10 15  1  0  0  0  0
 10 11  1  0  0  0  0
 11 29  1  0  0  0  0
 11 12  1  0  0  0  0
 12 26  1  0  0  0  0
 12 13  2  0  0  0  0
 13 27  1  0  0  0  0
 13 14  1  0  0  0  0
 14 15  2  0  0  0  0
 14 28  1  0  0  0  0
 15 16  1  0  0  0  0
M  CHG  1  16  -1
M  END
> <s_m_source_file>
AV-unprocessed.smi

> <i_m_source_file_index>
3208

> <i_lp_mmshare_version>
43012

> <i_f3d_flags>
0

> <s_epik_input>
W0NIMl09W0NIXVtDSDJdT1tDQEhdKFtDSDNdKUMoPU8pW05IXWMxbltjSF1bY0hdW2NIXWMxW09IXQ==

> <s_epik_cmdline>
J2VwaWtfcHl0aG9uJywgJy1waCcsICc3LjAnLCAnLXRuJywgJzgnLCAnLW1hJywgJzIwMCcsICctbWV0YWxfYmluZGluZycsICctaW1hZScsICc8aW5maWxlLm1hZT4nLCAnLW9tYWUnLCAnPG91dGZpbGUubWFlPic=

> <r_epik_Ionization_Penalty>
0.613767

> <r_epik_Ionization_Penalty_Charging>
0.613767

> <r_epik_Ionization_Penalty_Neutral>
1.14324e-13

> <r_epik_State_Penalty>
1.22258

> <r_epik_Charging_Adjusted_Penalty>
1.83635

> <i_epik_Tot_Q>
-1

> <i_epik_Tot_abs_Q>
1

> <r_epik_Metal_State_Penalty>
1.18528

> <b_epik_Metal_Only>
0

> <s_lp_Force_Field>
OPLS_2005

> <r_lp_Energy>
36.008

> <b_lp_Chiralities_Consistent>
1

> <s_lp_Variant>
AV-unprocessed.smi:3208-5

> <Gold.Version>
5.8.1

> <Gold.Id.Protein>
6NUR|6NUR_protein|mol2

> <Gold.PLP.Fitness>
41.3812

> <Gold.PLP.PLP>
-31.2408

> <Gold.PLP.part.hbond>
-4.8541

> <Gold.PLP.part.metal>
0.0000

> <Gold.PLP.part.buried>
-3.0962

> <Gold.PLP.part.nonpolar>
-23.2168

> <Gold.PLP.part.repulsive>
0.0929

> <Gold.PLP.ligand.clash>
0.0000

> <Gold.PLP.ligand.torsion>
0.0843

> <Gold.PLP.Chemscore.Hbond>
3.4320

> <Gold.PLP.Chemscore.CHOScore>
0.0000

> <Gold.PLP.Chemscore.Metal>
0.0000

> <Gold.Chemscore.Hbonds>
donor molecule, donor type, donor heavy atom, donor atom, acceptor molecule, acceptor atom, score
      P1  H  6896  6909       L1     8  0.83
      P1  H  6931  6943       L1    16  1.10
      P1  H  6934  6947       L1    16  0.48

> <Gold.PLP.Chemscore.Internal.Correction>
0.0131

> <Gold.Rescore>
     Score         DG    S(hbond)    S(metal)    S(lipo)     H(rot)  DE(clash)    DE(int)     intcor
     13.80     -13.86       1.83        0.00      55.51       1.65       0.00       0.06       ----

> <Gold.Chemscore.Fitness>
13.7967

> <Gold.Chemscore.DG>
-13.8558

> <Gold.Chemscore.ZeroCoef>
-5.4800

> <Gold.Chemscore.Hbond>
1.8302

> <Gold.Chemscore.Metal>
0.0000

> <Gold.Chemscore.Lipo>
55.5146

> <Gold.Chemscore.Internal_Hbond>
0.0000

> <Gold.Chemscore.DEClash>
0.0000

> <Gold.Chemscore.DEInternal>
0.0591

> <Gold.Chemscore.Rot>
1.6533

> <Gold.Chemscore.Internal.Correction>
   9.000000E+99

> <Gold.Chemscore.Hbonds>
donor molecule, donor type, donor heavy atom, donor atom, acceptor molecule, acceptor atom, score
      P1  H  6896  6909       L1     8  0.45
      P1  H  6931  6943       L1    16  0.12
      P1  H  6934  6947       L1    16  0.22

> <Gold.Chemscore.Hbond.Weighted>
-6.1129

> <Gold.Chemscore.Metal.Weighted>
-0.0000

> <Gold.Chemscore.Lipo.Weighted>
-6.4952

> <Gold.Chemscore.Internal_Hbond.Weighted>
0.0000

> <Gold.Chemscore.DEClash.Weighted>
0.0000

> <Gold.Chemscore.DEInternal.Weighted>
0.0591

> <Gold.Chemscore.Rot.Weighted>
4.2324

> <Gold.Chemscore.Internal.Correction.Weighted>
   9.000000E+99

> <Gold.Protein.RotatedTorsions>
[ 6907 6896 6895 6894 ] final   58.19 input  -60.11 | X-H torsion
[ 7974 7965 7964 7962 ] final  -43.29 input  175.53 | X-H torsion
[ 8008 7997 7996 7995 ] final  171.53 input   59.86 | X-H torsion
[ 10167 10162 10161 10158 ] final   97.58 input  -65.29 | X-H torsion
[ 10718 10713 10712 10709 ] final  -31.06 input   66.30 | X-H torsion
[ 10763 10752 10751 10750 ] final  138.62 input  -60.55 | X-H torsion
[ 11005 11000 10999 10996 ] final -141.05 input  -57.11 | X-H torsion

> <Gold.Protein.ActiveResidues>
 VAL166  LYS551  ARG553  GLY616  TRP617  ASP618  TYR619  PRO620  LYS621  CYS622 
 ASP623  PHE694  ASN695  SER759  ASP760  ASP761  ALA762  ILE779  LEU786  VAL792 
 PHE793  MET794  SER795  GLU796  ALA797  LYS798  CYS799  TRP800  GLU811  SER814 

> <Gold.Protein.RotatedAtoms>
  152.3801  134.6603  160.0145 H   0  0  0  0  0  0  0  0  0  0  0  0  # atno 6907 bound_to 6896
  151.6869  133.3306  159.3241 H   0  0  0  0  0  0  0  0  0  0  0  0  # atno 6908 bound_to 6896
  150.7740  134.6668  159.6414 H   0  0  0  0  0  0  0  0  0  0  0  0  # atno 6909 bound_to 6896
  146.0034  140.7049  142.9259 H   0  0  0  0  0  0  0  0  0  0  0  0  # atno 7974 bound_to 7965
  156.1262  140.1509  156.9132 H   0  0  0  0  0  0  0  0  0  0  0  0  # atno 8008 bound_to 7997
  154.4873  140.0861  156.7557 H   0  0  0  0  0  0  0  0  0  0  0  0  # atno 8009 bound_to 7997
  155.4339  140.3428  155.4285 H   0  0  0  0  0  0  0  0  0  0  0  0  # atno 8010 bound_to 7997
  139.7788  144.6896  151.0052 H   0  0  0  0  0  0  0  0  0  0  0  0  # atno 10167 bound_to 10162
  156.3920  130.4374  149.7387 H   0  0  0  0  0  0  0  0  0  0  0  0  # atno 10718 bound_to 10713
  153.8927  135.3031  155.3447 H   0  0  0  0  0  0  0  0  0  0  0  0  # atno 10763 bound_to 10752
  154.7709  135.4886  153.9649 H   0  0  0  0  0  0  0  0  0  0  0  0  # atno 10764 bound_to 10752
  153.1289  135.6799  153.9310 H   0  0  0  0  0  0  0  0  0  0  0  0  # atno 10765 bound_to 10752
  140.8362  134.2457  157.4833 H   0  0  0  0  0  0  0  0  0  0  0  0  # atno 11005 bound_to 11000
  144.6927  140.3272  143.7222 LP  0  0  0  0  0  0  0  0  0  0  0  0  # atno 17320 bound_to 7965
  145.7453  139.1777  143.2352 LP  0  0  0  0  0  0  0  0  0  0  0  0  # atno 17321 bound_to 7965
  140.7817  143.4506  151.0418 LP  0  0  0  0  0  0  0  0  0  0  0  0  # atno 17342 bound_to 10162
  139.8188  143.7849  152.3176 LP  0  0  0  0  0  0  0  0  0  0  0  0  # atno 17343 bound_to 10162
  156.4437  130.7873  151.2894 LP  0  0  0  0  0  0  0  0  0  0  0  0  # atno 17370 bound_to 10713
  157.7499  131.0117  150.3355 LP  0  0  0  0  0  0  0  0  0  0  0  0  # atno 17371 bound_to 10713
  139.8704  134.9612  156.4388 LP  0  0  0  0  0  0  0  0  0  0  0  0  # atno 17394 bound_to 11000
  140.8945  133.7824  155.9609 LP  0  0  0  0  0  0  0  0  0  0  0  0  # atno 17395 bound_to 11000

$$$$
