AV-unprocessed.smi:1787|AV-procd|sdf|7208|dock5
  -GOLD-   22720 8453D 1   1.00000     0.00000
 Structure written by MMmdl.
 45 47  0  0  0  0  0  0  0  0  2 V2000
  144.6342  136.1082  153.4817 O   0  0  0  0  0  0  0  0  0  0  0  0
  145.7529  136.0757  152.9717 C   0  0  0  0  0  0  0  0  0  0  0  0
  146.7335  136.9333  153.2865 N   0  0  0  0  0  0  0  0  0  0  0  0
  146.6385  138.0182  154.2636 C   0  0  0  0  0  0  0  0  0  0  0  0
  147.9270  138.8998  154.3471 C   0  0  1  0  0  0  0  0  0  0  0  0
  149.1350  137.9979  154.4410 N   0  3  0  0  0  0  0  0  0  0  0  0
  150.4365  138.7225  154.4802 C   0  0  0  0  0  0  0  0  0  0  0  0
  151.6134  137.7420  154.3735 C   0  0  0  0  0  0  0  0  0  0  0  0
  151.5427  136.8131  155.4445 O   0  0  0  0  0  0  0  0  0  0  0  0
  150.3586  136.0327  155.3784 C   0  0  0  0  0  0  0  0  0  0  0  0
  149.1154  136.9346  155.4849 C   0  0  0  0  0  0  0  0  0  0  0  0
  147.9901  139.8527  153.1288 C   0  0  0  0  0  0  0  0  0  0  0  0
  146.9131  140.9353  153.2918 C   0  0  0  0  0  0  0  0  0  0  0  0
  146.6456  141.1993  155.0630 S   0  0  0  0  0  0  0  0  0  0  0  0
  147.8000  139.8891  155.5369 C   0  0  0  0  0  0  0  0  0  0  0  0
  146.1615  135.2036  152.0342 N   0  0  0  0  0  0  0  0  0  0  0  0
  145.4505  134.1256  151.4394 C   0  0  0  0  0  0  0  0  0  0  0  0
  146.0300  133.1363  150.6075 C   0  0  0  0  0  0  0  0  0  0  0  0
  145.2038  132.1291  150.0725 C   0  0  0  0  0  0  0  0  0  0  0  0
  143.8299  132.1497  150.3813 C   0  0  0  0  0  0  0  0  0  0  0  0
  143.2625  133.0918  151.1633 N   0  0  0  0  0  0  0  0  0  0  0  0
  144.0607  134.0528  151.6738 C   0  0  0  0  0  0  0  0  0  0  0  0
  147.6105  136.8430  152.7949 H   0  0  0  0  0  0  0  0  0  0  0  0
  145.7859  138.6286  153.9674 H   0  0  0  0  0  0  0  0  0  0  0  0
  146.3562  137.6186  155.2382 H   0  0  0  0  0  0  0  0  0  0  0  0
  150.5098  139.4411  153.6657 H   0  0  0  0  0  0  0  0  0  0  0  0
  150.5262  139.2836  155.4111 H   0  0  0  0  0  0  0  0  0  0  0  0
  151.6068  137.2223  153.4140 H   0  0  0  0  0  0  0  0  0  0  0  0
  152.5584  138.2818  154.4377 H   0  0  0  0  0  0  0  0  0  0  0  0
  150.3418  135.4590  154.4502 H   0  0  0  0  0  0  0  0  0  0  0  0
  150.3678  135.3108  156.1952 H   0  0  0  0  0  0  0  0  0  0  0  0
  149.0595  137.3828  156.4774 H   0  0  0  0  0  0  0  0  0  0  0  0
  148.2540  136.2802  155.3648 H   0  0  0  0  0  0  0  0  0  0  0  0
  148.9650  140.3396  153.0908 H   0  0  0  0  0  0  0  0  0  0  0  0
  147.8645  139.3299  152.1801 H   0  0  0  0  0  0  0  0  0  0  0  0
  147.1988  141.8655  152.8004 H   0  0  0  0  0  0  0  0  0  0  0  0
  145.9720  140.6061  152.8504 H   0  0  0  0  0  0  0  0  0  0  0  0
  147.5096  139.4169  156.4743 H   0  0  0  0  0  0  0  0  0  0  0  0
  148.7243  140.4324  155.7211 H   0  0  0  0  0  0  0  0  0  0  0  0
  147.0917  135.3508  151.6710 H   0  0  0  0  0  0  0  0  0  0  0  0
  147.0791  133.1299  150.3578 H   0  0  0  0  0  0  0  0  0  0  0  0
  145.6140  131.3591  149.4362 H   0  0  0  0  0  0  0  0  0  0  0  0
  143.1690  131.3925  149.9865 H   0  0  0  0  0  0  0  0  0  0  0  0
  143.5710  134.7897  152.2935 H   0  0  0  0  0  0  0  0  0  0  0  0
  149.1340  137.4900  153.5679 H   0  0  0  0  0  0  0  0  0  0  0  0
  1  2  2  0  0  0  0
  2  3  1  0  0  0  0
  2 16  1  0  0  0  0
  3  4  1  0  0  0  0
  3 23  1  0  0  0  0
  4  5  1  0  0  0  0
  4 24  1  0  0  0  0
  4 25  1  0  0  0  0
  5 15  1  0  0  0  0
  5  6  1  0  0  0  0
  5 12  1  0  0  0  0
  6 11  1  0  0  0  0
  6  7  1  0  0  0  0
  6 45  1  0  0  0  0
  7  8  1  0  0  0  0
  7 26  1  0  0  0  0
  7 27  1  0  0  0  0
  8  9  1  0  0  0  0
  8 28  1  0  0  0  0
  8 29  1  0  0  0  0
  9 10  1  0  0  0  0
 10 11  1  0  0  0  0
 10 30  1  0  0  0  0
 10 31  1  0  0  0  0
 11 32  1  0  0  0  0
 11 33  1  0  0  0  0
 12 13  1  0  0  0  0
 12 34  1  0  0  0  0
 12 35  1  0  0  0  0
 13 14  1  0  0  0  0
 13 36  1  0  0  0  0
 13 37  1  0  0  0  0
 14 15  1  0  0  0  0
 15 38  1  0  0  0  0
 15 39  1  0  0  0  0
 16 17  1  0  0  0  0
 16 40  1  0  0  0  0
 17 22  1  0  0  0  0
 17 18  2  0  0  0  0
 18 19  1  0  0  0  0
 18 41  1  0  0  0  0
 19 20  2  0  0  0  0
 19 42  1  0  0  0  0
 20 21  1  0  0  0  0
 20 43  1  0  0  0  0
 21 22  2  0  0  0  0
 22 44  1  0  0  0  0
M  CHG  1   6   1
M  END
> <s_m_source_file>
AV-unprocessed.smi

> <i_m_source_file_index>
1787

> <i_lp_mmshare_version>
43012

> <i_f3d_flags>
0

> <s_epik_input>
W2NIXTFuW2NIXVtjSF1bY0hdYzFbTkhdQyg9TylbTkhdW0NIMl1bQ0BdMihbQ0gyXVtDSDJdU1tDSDJdMilOM1tDSDJdW0NIMl1PW0NIMl1bQ0gyXTM=

> <s_epik_cmdline>
J2VwaWtfcHl0aG9uJywgJy1waCcsICc3LjAnLCAnLXRuJywgJzgnLCAnLW1hJywgJzIwMCcsICctbWV0YWxfYmluZGluZycsICctaW1hZScsICc8aW5maWxlLm1hZT4nLCAnLW9tYWUnLCAnPG91dGZpbGUubWFlPic=

> <r_epik_Ionization_Penalty>
2.03633

> <r_epik_Ionization_Penalty_Charging>
2.03219

> <r_epik_Ionization_Penalty_Neutral>
0.00414252

> <r_epik_State_Penalty>
2.16328

> <r_epik_Charging_Adjusted_Penalty>
4.19546

> <i_epik_Tot_Q>
1

> <i_epik_Tot_abs_Q>
1

> <r_epik_Metal_State_Penalty>
2.16381

> <b_epik_Metal_Only>
0

> <s_lp_Force_Field>
OPLS_2005

> <r_lp_Energy>
45.3922

> <b_lp_Chiralities_Consistent>
1

> <s_lp_Variant>
AV-unprocessed.smi:1787-3

> <Gold.Version>
5.8.1

> <Gold.Id.Protein>
6NUR|6NUR_protein|mol2

> <Gold.PLP.Fitness>
48.7603

> <Gold.PLP.PLP>
-31.6039

> <Gold.PLP.part.hbond>
-4.0000

> <Gold.PLP.part.metal>
0.0000

> <Gold.PLP.part.buried>
-3.0553

> <Gold.PLP.part.nonpolar>
-26.4108

> <Gold.PLP.part.repulsive>
0.5975

> <Gold.PLP.ligand.clash>
0.0000

> <Gold.PLP.ligand.torsion>
0.2128

> <Gold.PLP.Chemscore.Hbond>
4.9516

> <Gold.PLP.Chemscore.CHOScore>
0.8685

> <Gold.PLP.Chemscore.Metal>
0.0000

> <Gold.Chemscore.Hbonds>
donor molecule, donor type, donor heavy atom, donor atom, acceptor molecule, acceptor atom, score
      L1  H     3    23       P1  7948  1.00
      L1  H     6    45       P1  7948  1.62
      L1  H    16    40       P1  7948  1.00
      P1  H 10752 10763       L1     9  0.40
      L1  C    20    43       P1 10952  0.81

> <Gold.PLP.Chemscore.Internal.Correction>
0.1217

> <Gold.Rescore>
     Score         DG    S(hbond)    S(metal)    S(lipo)     H(rot)  DE(clash)    DE(int)     intcor
     19.05     -22.24       2.79        0.00      96.00       1.49       1.58       1.61       ----

> <Gold.Chemscore.Fitness>
19.0489

> <Gold.Chemscore.DG>
-22.2372

> <Gold.Chemscore.ZeroCoef>
-5.4800

> <Gold.Chemscore.Hbond>
2.7933

> <Gold.Chemscore.Metal>
0.0000

> <Gold.Chemscore.Lipo>
95.9977

> <Gold.Chemscore.Internal_Hbond>
0.0000

> <Gold.Chemscore.DEClash>
1.5808

> <Gold.Chemscore.DEInternal>
1.6075

> <Gold.Chemscore.Rot>
1.4860

> <Gold.Chemscore.Internal.Correction>
   9.000000E+99

> <Gold.Chemscore.Hbonds>
donor molecule, donor type, donor heavy atom, donor atom, acceptor molecule, acceptor atom, score
      L1  H     3    23       P1  7948  1.00
      L1  H     6    45       P1  7948  0.80
      L1  H    16    40       P1  7948  0.88
      P1  H 10752 10763       L1     9  0.01

> <Gold.Chemscore.Hbond.Weighted>
-9.3297

> <Gold.Chemscore.Metal.Weighted>
-0.0000

> <Gold.Chemscore.Lipo.Weighted>
-11.2317

> <Gold.Chemscore.Internal_Hbond.Weighted>
0.0000

> <Gold.Chemscore.DEClash.Weighted>
1.5808

> <Gold.Chemscore.DEInternal.Weighted>
1.6075

> <Gold.Chemscore.Rot.Weighted>
3.8042

> <Gold.Chemscore.Internal.Correction.Weighted>
   9.000000E+99

> <Gold.Protein.RotatedTorsions>
[ 6907 6896 6895 6894 ] final   59.24 input  -60.11 | X-H torsion
[ 7974 7965 7964 7962 ] final  -23.80 input  175.53 | X-H torsion
[ 8008 7997 7996 7995 ] final -139.76 input   59.86 | X-H torsion
[ 10167 10162 10161 10158 ] final   12.50 input  -65.29 | X-H torsion
[ 10718 10713 10712 10709 ] final -112.40 input   66.30 | X-H torsion
[ 10763 10752 10751 10750 ] final   51.26 input  -60.55 | X-H torsion
[ 11005 11000 10999 10996 ] final -179.01 input  -57.11 | X-H torsion

> <Gold.Protein.ActiveResidues>
 VAL166  LYS551  ARG553  GLY616  TRP617  ASP618  TYR619  PRO620  LYS621  CYS622 
 ASP623  PHE694  ASN695  SER759  ASP760  ASP761  ALA762  ILE779  LEU786  VAL792 
 PHE793  MET794  SER795  GLU796  ALA797  LYS798  CYS799  TRP800  GLU811  SER814 

> <Gold.Protein.RotatedAtoms>
  152.3897  134.6462  160.0112 H   0  0  0  0  0  0  0  0  0  0  0  0  # atno 6907 bound_to 6896
  151.6699  133.3308  159.3202 H   0  0  0  0  0  0  0  0  0  0  0  0  # atno 6908 bound_to 6896
  150.7815  134.6808  159.6487 H   0  0  0  0  0  0  0  0  0  0  0  0  # atno 6909 bound_to 6896
  146.1594  140.4665  142.8578 H   0  0  0  0  0  0  0  0  0  0  0  0  # atno 7974 bound_to 7965
  155.4501  140.0538  157.3002 H   0  0  0  0  0  0  0  0  0  0  0  0  # atno 8008 bound_to 7997
  154.4781  140.2069  155.9786 H   0  0  0  0  0  0  0  0  0  0  0  0  # atno 8009 bound_to 7997
  156.1163  140.3196  155.8149 H   0  0  0  0  0  0  0  0  0  0  0  0  # atno 8010 bound_to 7997
  140.6063  143.8500  150.7018 H   0  0  0  0  0  0  0  0  0  0  0  0  # atno 10167 bound_to 10162
  156.0703  130.5918  150.8503 H   0  0  0  0  0  0  0  0  0  0  0  0  # atno 10718 bound_to 10713
  152.9785  135.5852  154.4386 H   0  0  0  0  0  0  0  0  0  0  0  0  # atno 10763 bound_to 10752
  154.3990  135.2768  155.2110 H   0  0  0  0  0  0  0  0  0  0  0  0  # atno 10764 bound_to 10752
  154.3949  135.6117  153.5918 H   0  0  0  0  0  0  0  0  0  0  0  0  # atno 10765 bound_to 10752
  140.4233  134.6585  157.4675 H   0  0  0  0  0  0  0  0  0  0  0  0  # atno 11005 bound_to 11000
  144.8007  140.6207  143.6480 LP  0  0  0  0  0  0  0  0  0  0  0  0  # atno 17320 bound_to 7965
  145.4626  139.1511  143.3858 LP  0  0  0  0  0  0  0  0  0  0  0  0  # atno 17321 bound_to 7965
  140.2058  143.3923  152.1756 LP  0  0  0  0  0  0  0  0  0  0  0  0  # atno 17342 bound_to 10162
  139.5328  144.7177  151.4998 LP  0  0  0  0  0  0  0  0  0  0  0  0  # atno 17343 bound_to 10162
  157.5770  131.0946  150.9330 LP  0  0  0  0  0  0  0  0  0  0  0  0  # atno 17370 bound_to 10713
  156.9534  130.5428  149.5283 LP  0  0  0  0  0  0  0  0  0  0  0  0  # atno 17371 bound_to 10713
  140.0185  134.6583  155.9275 LP  0  0  0  0  0  0  0  0  0  0  0  0  # atno 17394 bound_to 11000
  141.1775  133.6542  156.4886 LP  0  0  0  0  0  0  0  0  0  0  0  0  # atno 17395 bound_to 11000

$$$$
