#       Name:                AV-unprocessed.smi:1
#       Creating user name   scv26
#       Creation time:       Thu Mar 26 15:10:39 2020


#       File generated by GOLD software.
#

@<TRIPOS>MOLECULE
AV-unprocessed.smi:1
    66    71     1
SMALL
NO_CHARGES


@<TRIPOS>ATOM
      1 ****        -4.5179   2.8547  -0.9815 O.2            1 S1                 0.0000
      2 ****        -4.8146   1.6570  -1.0008 C.2            1 S1                 0.0000
      3 ****        -3.9756   0.5531  -1.0795 N.2            1 S1                 0.0000
      4 ****        -2.6888   0.7156  -1.1451 C.2            1 S1                 0.0000
      5 ****        -1.8790   1.8582  -1.1502 N.pl3          1 S1                 0.0000
      6 ****        -0.4787   1.8735  -1.2332 C.2            1 S1                 0.0000
      7 ****         0.2752   0.8104  -1.3189 N.2            1 S1                 0.0000
      8 ****        -0.4767  -0.3559  -1.3141 C.2            1 S1                 0.0000
      9 ****        -1.8464  -0.4971  -1.2356 C.2            1 S1                 0.0000
     10 ****        -2.2084  -1.8391  -1.2570 N.2            1 S1                 0.0000
     11 ****        -1.0333  -2.4551  -1.3482 C.2            1 S1                 0.0000
     12 ****         0.0434  -1.6482  -1.3943 N.pl3          1 S1                 0.0000
     13 ****         1.4680  -2.0996  -1.4865 C.3            1 S1                 0.0000
     14 ****         2.1830  -1.5938  -0.3977 O.3            1 S1                 0.0000
     15 ****         3.2162  -0.7146  -0.8348 C.3            1 S1                 0.0000
     16 ****         4.4200  -0.7647   0.1131 C.3            1 S1                 0.0000
     17 ****         4.0807  -0.1090   1.3235 O.3            1 S1                 0.0000
     18 ****         4.9759  -0.0388   2.3269 C.2            1 S1                 0.0000
     19 ****         6.1163  -0.5019   2.2575 O.2            1 S1                 0.0000
     20 ****         4.4412   0.6570   3.5329 C.ar           1 S1                 0.0000
     21 ****         5.2695   0.8090   4.6695 C.ar           1 S1                 0.0000
     22 ****         4.7909   1.4576   5.8246 C.ar           1 S1                 0.0000
     23 ****         3.4779   1.9622   5.8571 C.ar           1 S1                 0.0000
     24 ****         2.6440   1.8175   4.7330 C.ar           1 S1                 0.0000
     25 ****         3.1208   1.1695   3.5768 C.ar           1 S1                 0.0000
     26 ****         3.5152  -1.1669  -2.2630 C.3            1 S1                 0.0000
     27 ****         4.3762  -2.2940  -2.2793 O.3            1 S1                 0.0000
     28 ****         3.7988  -3.3820  -3.4077 S.o2           1 S1                 0.0000
     29 ****         4.6139  -3.2612  -4.6260 O.2            1 S1                 0.0000
     30 ****         3.5687  -4.6678  -2.7314 O.2            1 S1                 0.0000
     31 ****         2.3158  -2.6667  -3.6979 O.3            1 S1                 0.0000
     32 ****         2.1405  -1.6049  -2.7760 C.3            1 S1                 0.0000
     33 ****        -6.2603   1.2936  -0.9034 C.ar           1 S1                 0.0000
     34 ****        -6.8919   1.2349   0.3570 C.ar           1 S1                 0.0000
     35 ****        -8.2536   0.8857   0.4489 C.ar           1 S1                 0.0000
     36 ****        -8.9864   0.5924  -0.7176 C.ar           1 S1                 0.0000
     37 ****        -8.3574   0.6472  -1.9766 C.ar           1 S1                 0.0000
     38 ****        -6.9960   0.9965  -2.0701 C.ar           1 S1                 0.0000
     39 ****        -0.0442   2.8739  -1.2214 H              1 S1                 0.0000
     40 ****        -0.9539  -3.5317  -1.3841 H              1 S1                 0.0000
     41 ****         1.4259  -3.1871  -1.4111 H              1 S1                 0.0000
     42 ****         2.8248   0.3015  -0.8699 H              1 S1                 0.0000
     43 ****         4.7163  -1.7967   0.3056 H              1 S1                 0.0000
     44 ****         5.2705  -0.2548  -0.3414 H              1 S1                 0.0000
     45 ****         6.2808   0.4286   4.6682 H              1 S1                 0.0000
     46 ****         5.4323   1.5669   6.6866 H              1 S1                 0.0000
     47 ****         3.1108   2.4588   6.7431 H              1 S1                 0.0000
     48 ****         1.6356   2.2036   4.7570 H              1 S1                 0.0000
     49 ****         2.4538   1.0745   2.7324 H              1 S1                 0.0000
     50 ****         3.9541  -0.3738  -2.8693 H              1 S1                 0.0000
     51 ****         1.5927  -0.7701  -3.2139 H              1 S1                 0.0000
     52 ****        -6.3355   1.4558   1.2564 H              1 S1                 0.0000
     53 ****        -8.7350   0.8407   1.4145 H              1 S1                 0.0000
     54 ****       -10.0299   0.3234  -0.6466 H              1 S1                 0.0000
     55 ****        -8.9188   0.4196  -2.8707 H              1 S1                 0.0000
     56 ****        -6.5195   1.0336  -3.0391 H              1 S1                 0.0000
     57 ****        -2.3477   2.7510  -1.0892 H              1 S1                 0.0000
     58 ****        -3.5584   3.1329  -1.0258 LP             1 S1                 0.0000
     59 ****        -5.2370   3.5470  -0.9216 LP             1 S1                 0.0000
     60 ****        -4.3631  -0.3688  -1.0857 LP             1 S1                 0.0000
     61 ****         1.2730   0.8340  -1.3805 LP             1 S1                 0.0000
     62 ****        -3.1232  -2.2407  -1.2145 LP             1 S1                 0.0000
     63 ****         2.5914  -2.3538   0.1079 LP             1 S1                 0.0000
     64 ****         1.5578  -1.0930   0.2009 LP             1 S1                 0.0000
     65 ****         6.4199  -0.9602   1.4221 LP             1 S1                 0.0000
     66 ****         6.7377  -0.4194   3.0366 LP             1 S1                 0.0000
@<TRIPOS>BOND
    1    1    2 2     
    2    2    3 1     
    3    2   33 1     
    4    3    4 2     
    5    4    9 1     
    6    4    5 1     
    7    5    6 1     
    8    5   57 1     
    9    6    7 2     
   10    6   39 1     
   11    7    8 1     
   12    8   12 1     
   13    8    9 2     
   14    9   10 1     
   15   10   11 2     
   16   11   12 1     
   17   11   40 1     
   18   12   13 1     
   19   13   32 1     
   20   13   14 1     
   21   13   41 1     
   22   14   15 1     
   23   15   16 1     
   24   15   26 1     
   25   15   42 1     
   26   16   17 1     
   27   16   43 1     
   28   16   44 1     
   29   17   18 1     
   30   18   19 2     
   31   18   20 1     
   32   20   25 ar    
   33   20   21 ar    
   34   21   22 ar    
   35   21   45 1     
   36   22   23 ar    
   37   22   46 1     
   38   23   24 ar    
   39   23   47 1     
   40   24   25 ar    
   41   24   48 1     
   42   25   49 1     
   43   26   32 1     
   44   26   27 1     
   45   26   50 1     
   46   27   28 1     
   47   28   29 2     
   48   28   30 2     
   49   28   31 1     
   50   31   32 1     
   51   32   51 1     
   52   33   38 ar    
   53   33   34 ar    
   54   34   35 ar    
   55   34   52 1     
   56   35   36 ar    
   57   35   53 1     
   58   36   37 ar    
   59   36   54 1     
   60   37   38 ar    
   61   37   55 1     
   62   38   56 1     
   63    1   58 1     
   64    1   59 1     
   65    3   60 1     
   66    7   61 1     
   67   10   62 1     
   68   14   63 1     
   69   14   64 1     
   70   19   65 1     
   71   19   66 1     
@<TRIPOS>SUBSTRUCTURE
      1 S1             1
@<TRIPOS>SET
LONE_PAIRS      STATIC     ATOMS    <user>   **** ""
11 58 59 60 61 62 63 64 65 66 29 30
DONOR_HYDROGENS      STATIC     ATOMS    <user>   **** ""
1 57
ATOM$BLUE        STATIC     ATOMS    COLORGROUP SYSTEM
11 58 59 60 61 62 63 64 65 66 29 30
ATOM$RED        STATIC     ATOMS    COLORGROUP SYSTEM
1 57
