AV-unprocessed.smi:1174|AV-procd|sdf|4947|dock5
  -GOLD-   22720 3533D 1   1.00000     0.00000
 Structure written by MMmdl.
 41 42  0  0  0  0  0  0  0  0  1 V2000
  149.5360  131.0317  155.1228 C   0  0  0  0  0  0  0  0  0  0  0  0
  149.2091  130.2159  153.8626 C   0  0  1  0  0  0  0  0  0  0  0  0
  148.6926  128.8083  154.2186 C   0  0  0  0  0  0  0  0  0  0  0  0
  148.6398  127.9289  153.0638 N   0  0  0  0  0  0  0  0  0  0  0  0
  148.1302  128.1918  151.8093 C   0  0  0  0  0  0  0  0  0  0  0  0
  148.3094  127.0683  151.0547 C   0  0  0  0  0  0  0  0  0  0  0  0
  148.9438  126.1596  151.9473 C   0  0  0  0  0  0  0  0  0  0  0  0
  149.1388  126.6771  153.1495 N   0  0  0  0  0  0  0  0  0  0  0  0
  148.2149  130.9209  153.0566 N   0  0  0  0  0  0  0  0  0  0  0  0
  147.0454  131.4021  153.5043 C   0  0  0  0  0  0  0  0  0  0  0  0
  146.6570  131.2671  154.6648 O   0  0  0  0  0  0  0  0  0  0  0  0
  146.1849  132.1532  152.4808 C   0  0  2  0  0  0  0  0  0  0  0  0
  145.5891  131.1870  151.4297 C   0  0  0  0  0  0  0  0  0  0  0  0
  144.8361  131.9454  150.3198 C   0  0  0  0  0  0  0  0  0  0  0  0
  145.7063  133.0720  149.7332 C   0  0  0  0  0  0  0  0  0  0  0  0
  146.1287  133.9623  150.8279 N   0  0  0  0  0  0  0  0  0  0  0  0
  145.6276  135.1942  151.0964 C   0  0  0  0  0  0  0  0  0  0  0  0
  144.9883  135.7837  150.0816 N   0  0  0  0  0  0  0  0  0  0  0  0
  145.7665  135.7692  152.1748 O   0  0  0  0  0  0  0  0  0  0  0  0
  147.0015  133.2598  151.7770 C   0  0  0  0  0  0  0  0  0  0  0  0
  150.2868  130.5274  155.7317 H   0  0  0  0  0  0  0  0  0  0  0  0
  148.6502  131.1794  155.7415 H   0  0  0  0  0  0  0  0  0  0  0  0
  149.9310  132.0150  154.8657 H   0  0  0  0  0  0  0  0  0  0  0  0
  150.1280  130.1026  153.2839 H   0  0  0  0  0  0  0  0  0  0  0  0
  149.3384  128.3478  154.9679 H   0  0  0  0  0  0  0  0  0  0  0  0
  147.6964  128.8657  154.6596 H   0  0  0  0  0  0  0  0  0  0  0  0
  147.6907  129.1466  151.5604 H   0  0  0  0  0  0  0  0  0  0  0  0
  148.0300  126.9183  150.0224 H   0  0  0  0  0  0  0  0  0  0  0  0
  149.2656  125.1461  151.7587 H   0  0  0  0  0  0  0  0  0  0  0  0
  148.4445  131.0741  152.0855 H   0  0  0  0  0  0  0  0  0  0  0  0
  145.3570  132.6283  153.0111 H   0  0  0  0  0  0  0  0  0  0  0  0
  146.3858  130.5995  150.9706 H   0  0  0  0  0  0  0  0  0  0  0  0
  144.9183  130.4729  151.9093 H   0  0  0  0  0  0  0  0  0  0  0  0
  144.5372  131.2530  149.5324 H   0  0  0  0  0  0  0  0  0  0  0  0
  143.9166  132.3694  150.7257 H   0  0  0  0  0  0  0  0  0  0  0  0
  146.5908  132.6473  149.2562 H   0  0  0  0  0  0  0  0  0  0  0  0
  145.1646  133.5792  148.9351 H   0  0  0  0  0  0  0  0  0  0  0  0
  144.5860  136.7012  150.2039 H   0  0  0  0  0  0  0  0  0  0  0  0
  144.9098  135.3056  149.1958 H   0  0  0  0  0  0  0  0  0  0  0  0
  147.4421  133.9355  152.5125 H   0  0  0  0  0  0  0  0  0  0  0  0
  147.8448  132.8292  151.2345 H   0  0  0  0  0  0  0  0  0  0  0  0
  1  2  1  0  0  0  0
  1 21  1  0  0  0  0
  1 22  1  0  0  0  0
  1 23  1  0  0  0  0
  2  3  1  0  0  0  0
  2  9  1  0  0  0  0
  2 24  1  0  0  0  0
  3  4  1  0  0  0  0
  3 25  1  0  0  0  0
  3 26  1  0  0  0  0
  4  8  1  0  0  0  0
  4  5  1  0  0  0  0
  5  6  2  0  0  0  0
  5 27  1  0  0  0  0
  6  7  1  0  0  0  0
  6 28  1  0  0  0  0
  7  8  2  0  0  0  0
  7 29  1  0  0  0  0
  9 10  1  0  0  0  0
  9 30  1  0  0  0  0
 10 11  2  0  0  0  0
 10 12  1  0  0  0  0
 12 20  1  0  0  0  0
 12 13  1  0  0  0  0
 12 31  1  0  0  0  0
 13 14  1  0  0  0  0
 13 32  1  0  0  0  0
 13 33  1  0  0  0  0
 14 15  1  0  0  0  0
 14 34  1  0  0  0  0
 14 35  1  0  0  0  0
 15 16  1  0  0  0  0
 15 36  1  0  0  0  0
 15 37  1  0  0  0  0
 16 17  1  0  0  0  0
 16 20  1  0  0  0  0
 17 18  1  0  0  0  0
 17 19  2  0  0  0  0
 18 38  1  0  0  0  0
 18 39  1  0  0  0  0
 20 40  1  0  0  0  0
 20 41  1  0  0  0  0
M  END
> <s_m_source_file>
AV-unprocessed.smi

> <i_m_source_file_index>
1174

> <i_lp_mmshare_version>
43012

> <i_f3d_flags>
0

> <s_epik_input>
bjFbY0hdW2NIXVtjSF1uMVtDSDJdW0NAQEhdKFtDSDNdKVtOSF1DKD1PKVtDQEBIXTJbQ0gyXVtDSDJdW0NIMl1OKFtDSDJdMilDKD1PKVtOSDJd

> <s_epik_cmdline>
J2VwaWtfcHl0aG9uJywgJy1waCcsICc3LjAnLCAnLXRuJywgJzgnLCAnLW1hJywgJzIwMCcsICctbWV0YWxfYmluZGluZycsICctaW1hZScsICc8aW5maWxlLm1hZT4nLCAnLW9tYWUnLCAnPG91dGZpbGUubWFlPic=

> <r_lp_tautomer_probability>
1

> <r_epik_Ionization_Penalty>
0.000372452

> <r_epik_Ionization_Penalty_Charging>
0

> <r_epik_Ionization_Penalty_Neutral>
0.000372452

> <r_epik_State_Penalty>
-0

> <r_epik_Charging_Adjusted_Penalty>
0

> <i_epik_Tot_Q>
0

> <i_epik_Tot_abs_Q>
0

> <r_epik_Metal_State_Penalty>
-0

> <b_epik_Metal_Only>
0

> <s_lp_Force_Field>
OPLS_2005

> <r_lp_Energy>
26.6636

> <b_lp_Chiralities_Consistent>
1

> <s_lp_Variant>
AV-unprocessed.smi:1174-2

> <Gold.Version>
5.8.1

> <Gold.Id.Protein>
6NUR|6NUR_protein|mol2

> <Gold.PLP.Fitness>
45.5767

> <Gold.PLP.PLP>
-36.4256

> <Gold.PLP.part.hbond>
-3.0000

> <Gold.PLP.part.metal>
0.0000

> <Gold.PLP.part.buried>
-3.1874

> <Gold.PLP.part.nonpolar>
-29.2847

> <Gold.PLP.part.repulsive>
0.5345

> <Gold.PLP.ligand.clash>
0.0000

> <Gold.PLP.ligand.torsion>
0.5628

> <Gold.PLP.Chemscore.Hbond>
2.6224

> <Gold.PLP.Chemscore.CHOScore>
0.7850

> <Gold.PLP.Chemscore.Metal>
0.0000

> <Gold.Chemscore.Hbonds>
donor molecule, donor type, donor heavy atom, donor atom, acceptor molecule, acceptor atom, score
      L1  H     9    30       P1 10747  1.00
      L1  H    18    38       P1 10171  0.98
      L1  H    18    39       P1  7921  0.73
      L1  C     5    27       P1 10747  0.79

> <Gold.PLP.Chemscore.Internal.Correction>
0.0542

> <Gold.Rescore>
     Score         DG    S(hbond)    S(metal)    S(lipo)     H(rot)  DE(clash)    DE(int)     intcor
     15.88     -18.50       2.62        0.00      76.26       1.82       1.34       1.28       ----

> <Gold.Chemscore.Fitness>
15.8802

> <Gold.Chemscore.DG>
-18.5033

> <Gold.Chemscore.ZeroCoef>
-5.4800

> <Gold.Chemscore.Hbond>
2.6232

> <Gold.Chemscore.Metal>
0.0000

> <Gold.Chemscore.Lipo>
76.2598

> <Gold.Chemscore.Internal_Hbond>
0.0000

> <Gold.Chemscore.DEClash>
1.3388

> <Gold.Chemscore.DEInternal>
1.2842

> <Gold.Chemscore.Rot>
1.8206

> <Gold.Chemscore.Internal.Correction>
   9.000000E+99

> <Gold.Chemscore.Hbonds>
donor molecule, donor type, donor heavy atom, donor atom, acceptor molecule, acceptor atom, score
      L1  H     9    30       P1 10747  0.98
      L1  H    18    38       P1 10171  0.92
      L1  H    18    39       P1  7921  0.68

> <Gold.Chemscore.Hbond.Weighted>
-8.7616

> <Gold.Chemscore.Metal.Weighted>
-0.0000

> <Gold.Chemscore.Lipo.Weighted>
-8.9224

> <Gold.Chemscore.Internal_Hbond.Weighted>
0.0000

> <Gold.Chemscore.DEClash.Weighted>
1.3388

> <Gold.Chemscore.DEInternal.Weighted>
1.2842

> <Gold.Chemscore.Rot.Weighted>
4.6607

> <Gold.Chemscore.Internal.Correction.Weighted>
   9.000000E+99

> <Gold.Protein.RotatedTorsions>
[ 6907 6896 6895 6894 ] final  -50.53 input  -60.11 | X-H torsion
[ 7974 7965 7964 7962 ] final   20.09 input  175.53 | X-H torsion
[ 8008 7997 7996 7995 ] final  118.18 input   59.86 | X-H torsion
[ 10167 10162 10161 10158 ] final   13.91 input  -65.29 | X-H torsion
[ 10718 10713 10712 10709 ] final   93.08 input   66.30 | X-H torsion
[ 10763 10752 10751 10750 ] final  -55.36 input  -60.55 | X-H torsion
[ 11005 11000 10999 10996 ] final   24.39 input  -57.11 | X-H torsion

> <Gold.Protein.ActiveResidues>
 VAL166  LYS551  ARG553  GLY616  TRP617  ASP618  TYR619  PRO620  LYS621  CYS622 
 ASP623  PHE694  ASN695  SER759  ASP760  ASP761  ALA762  ILE779  LEU786  VAL792 
 PHE793  MET794  SER795  GLU796  ALA797  LYS798  CYS799  TRP800  GLU811  SER814 

> <Gold.Protein.RotatedAtoms>
  150.8698  134.8070  159.7146 H   0  0  0  0  0  0  0  0  0  0  0  0  # atno 6907 bound_to 6896
  152.4707  134.4964  159.9721 H   0  0  0  0  0  0  0  0  0  0  0  0  # atno 6908 bound_to 6896
  151.5055  133.3457  159.2911 H   0  0  0  0  0  0  0  0  0  0  0  0  # atno 6909 bound_to 6896
  146.2125  139.8219  142.8678 H   0  0  0  0  0  0  0  0  0  0  0  0  # atno 7974 bound_to 7965
  156.2533  140.2880  156.0794 H   0  0  0  0  0  0  0  0  0  0  0  0  # atno 8008 bound_to 7997
  155.1584  140.0399  157.2854 H   0  0  0  0  0  0  0  0  0  0  0  0  # atno 8009 bound_to 7997
  154.6411  140.2522  155.7328 H   0  0  0  0  0  0  0  0  0  0  0  0  # atno 8010 bound_to 7997
  140.5971  143.8680  150.6928 H   0  0  0  0  0  0  0  0  0  0  0  0  # atno 10167 bound_to 10162
  157.6956  131.0466  150.3979 H   0  0  0  0  0  0  0  0  0  0  0  0  # atno 10718 bound_to 10713
  154.1895  135.6430  153.5056 H   0  0  0  0  0  0  0  0  0  0  0  0  # atno 10763 bound_to 10752
  153.0039  135.5425  154.6430 H   0  0  0  0  0  0  0  0  0  0  0  0  # atno 10764 bound_to 10752
  154.5815  135.2925  155.0700 H   0  0  0  0  0  0  0  0  0  0  0  0  # atno 10765 bound_to 10752
  140.3592  134.2144  155.7673 H   0  0  0  0  0  0  0  0  0  0  0  0  # atno 11005 bound_to 11000
  145.3087  141.0214  143.3567 LP  0  0  0  0  0  0  0  0  0  0  0  0  # atno 17320 bound_to 7965
  144.8952  139.4722  143.6659 LP  0  0  0  0  0  0  0  0  0  0  0  0  # atno 17321 bound_to 7965
  140.2217  143.3804  152.1637 LP  0  0  0  0  0  0  0  0  0  0  0  0  # atno 17342 bound_to 10162
  139.5265  144.7109  151.5210 LP  0  0  0  0  0  0  0  0  0  0  0  0  # atno 17343 bound_to 10162
  156.4376  130.3985  149.6719 LP  0  0  0  0  0  0  0  0  0  0  0  0  # atno 17370 bound_to 10713
  156.3914  130.7629  151.2630 LP  0  0  0  0  0  0  0  0  0  0  0  0  # atno 17371 bound_to 10713
  141.1989  133.8024  157.0561 LP  0  0  0  0  0  0  0  0  0  0  0  0  # atno 17394 bound_to 11000
  140.0640  134.9739  157.1354 LP  0  0  0  0  0  0  0  0  0  0  0  0  # atno 17395 bound_to 11000

$$$$
