#       Name:                AV-unprocessed.smi:6
#       Creating user name   scv26
#       Creation time:       Thu Mar 26 15:15:44 2020


#       File generated by GOLD software.
#

@<TRIPOS>MOLECULE
AV-unprocessed.smi:6
    43    44     1
SMALL
NO_CHARGES


@<TRIPOS>ATOM
      1 ****        -3.5859   1.9879  -1.2484 C.3            1 S1                 0.0000
      2 ****        -3.8942   1.2852   0.0831 C.3            1 S1                 0.0000
      3 ****        -3.5841   2.1580   1.3090 C.3            1 S1                 0.0000
      4 ****        -3.2286  -0.0821   0.1741 C.ar           1 S1                 0.0000
      5 ****        -4.0378  -1.1430   0.2626 N.ar           1 S1                 0.0000
      6 ****        -3.4481  -2.3549   0.3459 C.ar           1 S1                 0.0000
      7 ****        -2.0466  -2.5017   0.3408 C.ar           1 S1                 0.0000
      8 ****        -1.2881  -1.3167   0.2466 C.ar           1 S1                 0.0000
      9 ****         0.1109  -1.3961   0.2289 N.pl3          1 S1                 0.0000
     10 ****         0.8994  -0.2029   0.5103 C.3            1 S1                 0.0000
     11 ****         2.3968  -0.4359   0.3791 C.2            1 S1                 0.0000
     12 ****         3.1319   0.1435  -0.5930 C.2            1 S1                 0.0000
     13 ****         4.5189  -0.0474  -0.7022 N.am           1 S1                 0.0000
     14 ****         5.2278   0.6180  -1.7980 C.3            1 S1                 0.0000
     15 ****         5.1767  -0.8314   0.1984 C.2            1 S1                 0.0000
     16 ****         6.3936  -0.9794   0.0791 O.2            1 S1                 0.0000
     17 ****         4.4582  -1.4228   1.2010 N.pl3          1 S1                -1.0000
     18 ****         3.1096  -1.2713   1.3527 C.2            1 S1                 0.0000
     19 ****         2.4879  -1.8088   2.2688 O.2            1 S1                 0.0000
     20 ****        -1.8910  -0.1072   0.1612 N.ar           1 S1                 0.0000
     21 ****        -3.8886   1.3719  -2.0956 H              1 S1                 0.0000
     22 ****        -2.5204   2.1967  -1.3517 H              1 S1                 0.0000
     23 ****        -4.1176   2.9366  -1.3229 H              1 S1                 0.0000
     24 ****        -4.9730   1.1189   0.0943 H              1 S1                 0.0000
     25 ****        -3.8837   1.6583   2.2305 H              1 S1                 0.0000
     26 ****        -4.1173   3.1077   1.2596 H              1 S1                 0.0000
     27 ****        -2.5188   2.3799   1.3812 H              1 S1                 0.0000
     28 ****        -4.0986  -3.2141   0.4158 H              1 S1                 0.0000
     29 ****        -1.5810  -3.4740   0.4063 H              1 S1                 0.0000
     30 ****         0.5288  -2.2863   0.4597 H              1 S1                 0.0000
     31 ****         0.6098   0.5925  -0.1777 H              1 S1                 0.0000
     32 ****         0.6772   0.1507   1.5180 H              1 S1                 0.0000
     33 ****         2.7001   0.7879  -1.3446 H              1 S1                 0.0000
     34 ****         5.7245  -0.1169  -2.4330 H              1 S1                 0.0000
     35 ****         5.9865   1.2964  -1.4052 H              1 S1                 0.0000
     36 ****         4.5631   1.2031  -2.4342 H              1 S1                 0.0000
     37 ****        -5.0328  -1.0436   0.2669 LP             1 S1                 0.0000
     38 ****         6.8813  -0.5283  -0.6684 LP             1 S1                 0.0000
     39 ****         6.8940  -1.5507   0.7297 LP             1 S1                 0.0000
     40 ****         4.9468  -1.9969   1.8581 LP             1 S1                 0.0000
     41 ****         1.5000  -1.6757   2.3481 LP             1 S1                 0.0000
     42 ****         2.9707  -2.3786   2.9338 LP             1 S1                 0.0000
     43 ****        -1.3567   0.7352   0.0911 LP             1 S1                 0.0000
@<TRIPOS>BOND
    1    1    2 1     
    2    1   21 1     
    3    1   22 1     
    4    1   23 1     
    5    2    3 1     
    6    2    4 1     
    7    2   24 1     
    8    3   25 1     
    9    3   26 1     
   10    3   27 1     
   11    4   20 ar    
   12    4    5 ar    
   13    5    6 ar    
   14    6    7 ar    
   15    6   28 1     
   16    7    8 ar    
   17    7   29 1     
   18    8    9 1     
   19    8   20 ar    
   20    9   10 1     
   21    9   30 1     
   22   10   11 1     
   23   10   31 1     
   24   10   32 1     
   25   11   18 1     
   26   11   12 2     
   27   12   13 1     
   28   12   33 1     
   29   13   14 1     
   30   13   15 am    
   31   14   34 1     
   32   14   35 1     
   33   14   36 1     
   34   15   16 2     
   35   15   17 1     
   36   17   18 1     
   37   18   19 2     
   38    5   37 1     
   39   16   38 1     
   40   16   39 1     
   41   17   40 1     
   42   19   41 1     
   43   19   42 1     
   44   20   43 1     
@<TRIPOS>SUBSTRUCTURE
      1 S1             1
@<TRIPOS>SET
LONE_PAIRS      STATIC     ATOMS    <user>   **** ""
7 37 38 39 40 41 42 43
DONOR_HYDROGENS      STATIC     ATOMS    <user>   **** ""
1 30
ATOM$BLUE        STATIC     ATOMS    COLORGROUP SYSTEM
7 37 38 39 40 41 42 43
ATOM$RED        STATIC     ATOMS    COLORGROUP SYSTEM
1 30
