AV-unprocessed.smi:842|AV-procd|sdf|3917|dock3
  -GOLD-   22720 1383D 1   1.00000     0.00000
 Structure written by MMmdl.
 42 43  0  0  0  0  0  0  0  0  1 V2000
  143.1640  137.0894  152.5899 C   0  0  0  0  0  0  0  0  0  0  0  0
  144.6136  137.2895  153.0562 C   0  0  0  0  0  0  0  0  0  0  0  0
  145.6321  137.4330  151.9014 C   0  0  2  0  0  0  0  0  0  0  0  0
  145.6332  136.1982  150.9735 C   0  0  0  0  0  0  0  0  0  0  0  0
  146.3222  135.1278  151.5852 O   0  0  0  0  0  0  0  0  0  0  0  0
  146.9806  137.7468  152.3871 N   0  0  0  0  0  0  0  0  0  0  0  0
  147.3325  138.6638  153.3026 C   0  0  0  0  0  0  0  0  0  0  0  0
  146.5341  139.4067  153.8726 O   0  0  0  0  0  0  0  0  0  0  0  0
  148.6632  138.6681  153.4882 N   0  0  0  0  0  0  0  0  0  0  0  0
  149.4331  139.4744  154.3688 C   0  0  0  0  0  0  0  0  0  0  0  0
  150.7722  139.2040  154.7355 C   0  0  0  0  0  0  0  0  0  0  0  0
  151.4336  140.0924  155.6049 C   0  0  0  0  0  0  0  0  0  0  0  0
  150.7460  141.2345  156.0795 C   0  0  0  0  0  0  0  0  0  0  0  0
  151.3687  142.1428  156.9581 N   0  0  0  0  0  0  0  0  0  0  0  0
  151.8316  141.7424  158.2777 C   0  0  0  0  0  0  0  0  0  0  0  0
  152.3211  143.0376  158.9231 C   0  0  0  0  0  0  0  0  0  0  0  0
  151.3958  144.0957  158.3216 C   0  0  0  0  0  0  0  0  0  0  0  0
  151.0936  143.5722  156.9125 C   0  0  0  0  0  0  0  0  0  0  0  0
  149.4666  141.4949  155.7202 N   0  0  0  0  0  0  0  0  0  0  0  0
  148.8376  140.6418  154.8854 C   0  0  0  0  0  0  0  0  0  0  0  0
  142.5021  136.9383  153.4429 H   0  0  0  0  0  0  0  0  0  0  0  0
  143.0758  136.2164  151.9426 H   0  0  0  0  0  0  0  0  0  0  0  0
  142.7953  137.9551  152.0393 H   0  0  0  0  0  0  0  0  0  0  0  0
  144.6634  138.1542  153.7185 H   0  0  0  0  0  0  0  0  0  0  0  0
  144.8959  136.4335  153.6701 H   0  0  0  0  0  0  0  0  0  0  0  0
  145.3124  138.2937  151.3118 H   0  0  0  0  0  0  0  0  0  0  0  0
  144.6283  135.8841  150.6921 H   0  0  0  0  0  0  0  0  0  0  0  0
  146.1586  136.4278  150.0460 H   0  0  0  0  0  0  0  0  0  0  0  0
  147.1291  135.4598  151.9483 H   0  0  0  0  0  0  0  0  0  0  0  0
  147.7246  137.1957  151.9849 H   0  0  0  0  0  0  0  0  0  0  0  0
  149.1956  138.0568  152.8867 H   0  0  0  0  0  0  0  0  0  0  0  0
  151.3086  138.3459  154.3617 H   0  0  0  0  0  0  0  0  0  0  0  0
  152.4522  139.8838  155.8964 H   0  0  0  0  0  0  0  0  0  0  0  0
  150.9992  141.3208  158.8430 H   0  0  0  0  0  0  0  0  0  0  0  0
  152.6247  140.9963  158.2194 H   0  0  0  0  0  0  0  0  0  0  0  0
  152.2875  143.0078  160.0124 H   0  0  0  0  0  0  0  0  0  0  0  0
  153.3508  143.2346  158.6213 H   0  0  0  0  0  0  0  0  0  0  0  0
  150.4724  144.1402  158.9006 H   0  0  0  0  0  0  0  0  0  0  0  0
  151.8361  145.0931  158.3172 H   0  0  0  0  0  0  0  0  0  0  0  0
  151.7536  144.0352  156.1783 H   0  0  0  0  0  0  0  0  0  0  0  0
  150.0621  143.7857  156.6305 H   0  0  0  0  0  0  0  0  0  0  0  0
  147.8208  140.8996  154.6272 H   0  0  0  0  0  0  0  0  0  0  0  0
  1  2  1  0  0  0  0
  1 21  1  0  0  0  0
  1 22  1  0  0  0  0
  1 23  1  0  0  0  0
  2  3  1  0  0  0  0
  2 24  1  0  0  0  0
  2 25  1  0  0  0  0
  3  4  1  0  0  0  0
  3  6  1  0  0  0  0
  3 26  1  0  0  0  0
  4  5  1  0  0  0  0
  4 27  1  0  0  0  0
  4 28  1  0  0  0  0
  5 29  1  0  0  0  0
  6  7  1  0  0  0  0
  6 30  1  0  0  0  0
  7  8  2  0  0  0  0
  7  9  1  0  0  0  0
  9 10  1  0  0  0  0
  9 31  1  0  0  0  0
 10 20  1  0  0  0  0
 10 11  2  0  0  0  0
 11 12  1  0  0  0  0
 11 32  1  0  0  0  0
 12 13  2  0  0  0  0
 12 33  1  0  0  0  0
 13 14  1  0  0  0  0
 13 19  1  0  0  0  0
 14 18  1  0  0  0  0
 14 15  1  0  0  0  0
 15 16  1  0  0  0  0
 15 34  1  0  0  0  0
 15 35  1  0  0  0  0
 16 17  1  0  0  0  0
 16 36  1  0  0  0  0
 16 37  1  0  0  0  0
 17 18  1  0  0  0  0
 17 38  1  0  0  0  0
 17 39  1  0  0  0  0
 18 40  1  0  0  0  0
 18 41  1  0  0  0  0
 19 20  2  0  0  0  0
 20 42  1  0  0  0  0
M  END
> <s_m_source_file>
AV-unprocessed.smi

> <i_m_source_file_index>
842

> <i_lp_mmshare_version>
43012

> <i_f3d_flags>
0

> <s_epik_input>
W0NIM11bQ0gyXVtDQEhdKFtDSDJdW09IXSlbTkhdQyg9TylbTkhdYzFbY0hdW2NIXWMobltjSF0xKU4yW0NIMl1bQ0gyXVtDSDJdW0NIMl0y

> <s_epik_cmdline>
J2VwaWtfcHl0aG9uJywgJy1waCcsICc3LjAnLCAnLXRuJywgJzgnLCAnLW1hJywgJzIwMCcsICctbWV0YWxfYmluZGluZycsICctaW1hZScsICc8aW5maWxlLm1hZT4nLCAnLW9tYWUnLCAnPG91dGZpbGUubWFlPic=

> <r_lp_tautomer_probability>
1

> <r_epik_Ionization_Penalty>
0.0996525

> <r_epik_Ionization_Penalty_Charging>
0

> <r_epik_Ionization_Penalty_Neutral>
0.0996525

> <r_epik_State_Penalty>
0.0891422

> <r_epik_Charging_Adjusted_Penalty>
0.0891422

> <i_epik_Tot_Q>
0

> <i_epik_Tot_abs_Q>
0

> <r_epik_Metal_State_Penalty>
0.07624

> <b_epik_Metal_Only>
0

> <s_lp_Force_Field>
OPLS_2005

> <r_lp_Energy>
30.3281

> <b_lp_Chiralities_Consistent>
1

> <s_lp_Variant>
AV-unprocessed.smi:842-1

> <Gold.Version>
5.8.1

> <Gold.Id.Protein>
6NUR|6NUR_protein|mol2

> <Gold.PLP.Fitness>
44.3356

> <Gold.PLP.PLP>
-37.7507

> <Gold.PLP.part.hbond>
-3.9699

> <Gold.PLP.part.metal>
0.0000

> <Gold.PLP.part.buried>
0.5235

> <Gold.PLP.part.nonpolar>
-35.1192

> <Gold.PLP.part.repulsive>
0.3728

> <Gold.PLP.ligand.clash>
0.0000

> <Gold.PLP.ligand.torsion>
1.0906

> <Gold.PLP.Chemscore.Hbond>
2.8268

> <Gold.PLP.Chemscore.CHOScore>
0.0000

> <Gold.PLP.Chemscore.Metal>
0.0000

> <Gold.Chemscore.Hbonds>
donor molecule, donor type, donor heavy atom, donor atom, acceptor molecule, acceptor atom, score
      L1  H     5    29       P1  7948  1.00
      L1  H     6    30       P1  7948  1.00
      L1  H     9    31       P1  7948  0.73

> <Gold.PLP.Chemscore.Internal.Correction>
0.2857

> <Gold.Rescore>
     Score         DG    S(hbond)    S(metal)    S(lipo)     H(rot)  DE(clash)    DE(int)     intcor
     16.39     -20.43       2.82        0.00      90.73       1.99       1.42       2.62       ----

> <Gold.Chemscore.Fitness>
16.3852

> <Gold.Chemscore.DG>
-20.4275

> <Gold.Chemscore.ZeroCoef>
-5.4800

> <Gold.Chemscore.Hbond>
2.8244

> <Gold.Chemscore.Metal>
0.0000

> <Gold.Chemscore.Lipo>
90.7265

> <Gold.Chemscore.Internal_Hbond>
0.0000

> <Gold.Chemscore.DEClash>
1.4213

> <Gold.Chemscore.DEInternal>
2.6211

> <Gold.Chemscore.Rot>
1.9926

> <Gold.Chemscore.Internal.Correction>
   9.000000E+99

> <Gold.Chemscore.Hbonds>
donor molecule, donor type, donor heavy atom, donor atom, acceptor molecule, acceptor atom, score
      L1  H     5    29       P1  7948  0.96
      L1  H     6    30       P1  7948  0.94
      L1  H     9    31       P1  7948  0.68

> <Gold.Chemscore.Hbond.Weighted>
-9.4335

> <Gold.Chemscore.Metal.Weighted>
-0.0000

> <Gold.Chemscore.Lipo.Weighted>
-10.6150

> <Gold.Chemscore.Internal_Hbond.Weighted>
0.0000

> <Gold.Chemscore.DEClash.Weighted>
1.4213

> <Gold.Chemscore.DEInternal.Weighted>
2.6211

> <Gold.Chemscore.Rot.Weighted>
5.1009

> <Gold.Chemscore.Internal.Correction.Weighted>
   9.000000E+99

> <Gold.Protein.RotatedTorsions>
[ 6907 6896 6895 6894 ] final    9.29 input  -60.11 | X-H torsion
[ 7974 7965 7964 7962 ] final  163.15 input  175.53 | X-H torsion
[ 8008 7997 7996 7995 ] final  -35.78 input   59.86 | X-H torsion
[ 10167 10162 10161 10158 ] final  -40.78 input  -65.29 | X-H torsion
[ 10718 10713 10712 10709 ] final    8.80 input   66.30 | X-H torsion
[ 10763 10752 10751 10750 ] final -158.48 input  -60.55 | X-H torsion
[ 11005 11000 10999 10996 ] final  -97.00 input  -57.11 | X-H torsion

> <Gold.Protein.ActiveResidues>
 VAL166  LYS551  ARG553  GLY616  TRP617  ASP618  TYR619  PRO620  LYS621  CYS622 
 ASP623  PHE694  ASN695  SER759  ASP760  ASP761  ALA762  ILE779  LEU786  VAL792 
 PHE793  MET794  SER795  GLU796  ALA797  LYS798  CYS799  TRP800  GLU811  SER814 

> <Gold.Protein.RotatedAtoms>
  151.7198  135.0896  160.0281 H   0  0  0  0  0  0  0  0  0  0  0  0  # atno 6907 bound_to 6896
  152.3609  133.6291  159.6023 H   0  0  0  0  0  0  0  0  0  0  0  0  # atno 6908 bound_to 6896
  150.7604  133.9341  159.3477 H   0  0  0  0  0  0  0  0  0  0  0  0  # atno 6909 bound_to 6896
  144.7603  139.8141  143.6335 H   0  0  0  0  0  0  0  0  0  0  0  0  # atno 7974 bound_to 7965
  154.4087  140.1648  156.2267 H   0  0  0  0  0  0  0  0  0  0  0  0  # atno 8008 bound_to 7997
  155.9318  140.3414  155.6232 H   0  0  0  0  0  0  0  0  0  0  0  0  # atno 8009 bound_to 7997
  155.7097  140.0755  157.2367 H   0  0  0  0  0  0  0  0  0  0  0  0  # atno 8010 bound_to 7997
  140.7023  143.3133  151.2973 H   0  0  0  0  0  0  0  0  0  0  0  0  # atno 10167 bound_to 10162
  156.9569  130.5918  149.5660 H   0  0  0  0  0  0  0  0  0  0  0  0  # atno 10718 bound_to 10713
  154.7553  135.3103  154.8481 H   0  0  0  0  0  0  0  0  0  0  0  0  # atno 10763 bound_to 10752
  153.9257  135.6791  153.4751 H   0  0  0  0  0  0  0  0  0  0  0  0  # atno 10764 bound_to 10752
  153.1150  135.4848  154.9030 H   0  0  0  0  0  0  0  0  0  0  0  0  # atno 10765 bound_to 10752
  141.1393  133.8139  157.0647 H   0  0  0  0  0  0  0  0  0  0  0  0  # atno 11005 bound_to 11000
  146.1659  139.4790  142.9958 LP  0  0  0  0  0  0  0  0  0  0  0  0  # atno 17320 bound_to 7965
  145.6641  141.0233  143.1693 LP  0  0  0  0  0  0  0  0  0  0  0  0  # atno 17321 bound_to 7965
  139.6563  144.0270  152.2662 LP  0  0  0  0  0  0  0  0  0  0  0  0  # atno 17342 bound_to 10162
  139.9823  144.6420  150.7889 LP  0  0  0  0  0  0  0  0  0  0  0  0  # atno 17343 bound_to 10162
  156.0339  130.5428  150.8604 LP  0  0  0  0  0  0  0  0  0  0  0  0  # atno 17370 bound_to 10713
  157.5684  131.0946  150.9455 LP  0  0  0  0  0  0  0  0  0  0  0  0  # atno 17371 bound_to 10713
  140.0549  134.9786  157.1202 LP  0  0  0  0  0  0  0  0  0  0  0  0  # atno 17394 bound_to 11000
  140.3934  134.2159  155.7165 LP  0  0  0  0  0  0  0  0  0  0  0  0  # atno 17395 bound_to 11000

$$$$
