#       Name:                AV-unprocessed.smi:36
#       Creating user name   scv26
#       Creation time:       Thu Mar 26 16:10:43 2020


#       File generated by GOLD software.
#

@<TRIPOS>MOLECULE
AV-unprocessed.smi:36
    73    76     1
SMALL
NO_CHARGES


@<TRIPOS>ATOM
      1 ****        -3.8477   4.2409  -0.3801 C.3            1 S1                 0.0000
      2 ****        -4.0688   2.9414   0.4112 C.3            1 S1                 0.0000
      3 ****        -4.2641   3.2640   1.9020 C.3            1 S1                 0.0000
      4 ****        -5.3074   2.2046  -0.1258 C.3            1 S1                 0.0000
      5 ****        -2.5427   1.8099   0.2124 Si             1 S1                 0.0000
      6 ****        -2.2574   1.3647  -1.6144 C.3            1 S1                 0.0000
      7 ****        -0.9792   2.6221   0.9226 C.3            1 S1                 0.0000
      8 ****        -2.8374   0.3863   1.0781 O.3            1 S1                 0.0000
      9 ****        -1.9271  -0.6921   1.1204 C.3            1 S1                 0.0000
     10 ****        -2.6850  -2.0332   1.2121 C.3            1 S1                 0.0000
     11 ****        -1.7463  -3.0806   1.4309 O.3            1 S1                 0.0000
     12 ****        -1.2764  -3.5878   0.2120 C.3            1 S1                 0.0000
     13 ****         0.1221  -3.0909  -0.0263 N.pl3          1 S1                 0.0000
     14 ****         0.7845  -3.0303  -1.2010 C.2            1 S1                 0.0000
     15 ****         2.0360  -2.5794  -1.1834 N.2            1 S1                 0.0000
     16 ****         2.2293  -2.3473   0.1693 C.ar           1 S1                 0.0000
     17 ****         3.3454  -1.8603   0.9038 C.ar           1 S1                 0.0000
     18 ****         4.5029  -1.5133   0.3208 N.pl3          1 S1                -1.0000
     19 ****         4.6434  -0.2772  -0.2217 C.2            1 S1                 0.0000
     20 ****         3.8234   0.6435  -0.2304 O.2            1 S1                 0.0000
     21 ****         6.0077  -0.0394  -0.8120 C.ar           1 S1                 0.0000
     22 ****         6.6096   1.2344  -0.6945 C.ar           1 S1                 0.0000
     23 ****         7.8754   1.4839  -1.2599 C.ar           1 S1                 0.0000
     24 ****         8.5492   0.4643  -1.9580 C.ar           1 S1                 0.0000
     25 ****         7.9539  -0.8038  -2.0938 C.ar           1 S1                 0.0000
     26 ****         6.6883  -1.0540  -1.5284 C.ar           1 S1                 0.0000
     27 ****         3.2063  -1.7765   2.2510 N.ar           1 S1                 0.0000
     28 ****         2.0566  -2.1322   2.8344 C.ar           1 S1                 0.0000
     29 ****         0.9358  -2.5911   2.2702 N.ar           1 S1                 0.0000
     30 ****         1.0592  -2.6813   0.9130 C.ar           1 S1                 0.0000
     31 ****        -2.2329  -3.0720  -0.8803 C.3            1 S1                 0.0000
     32 ****        -3.3833  -2.5186  -0.0630 C.3            1 S1                 0.0000
     33 ****        -4.1042  -1.5204  -0.7559 O.3            1 S1                 0.0000
     34 ****        -4.7040   4.9100  -0.2885 H              1 S1                 0.0000
     35 ****        -3.7005   4.0400  -1.4416 H              1 S1                 0.0000
     36 ****        -2.9697   4.7794  -0.0221 H              1 S1                 0.0000
     37 ****        -3.4039   3.7945   2.3107 H              1 S1                 0.0000
     38 ****        -4.3996   2.3552   2.4893 H              1 S1                 0.0000
     39 ****        -5.1412   3.8922   2.0603 H              1 S1                 0.0000
     40 ****        -6.2078   2.8097  -0.0168 H              1 S1                 0.0000
     41 ****        -5.4728   1.2682   0.4082 H              1 S1                 0.0000
     42 ****        -5.1999   1.9640  -1.1837 H              1 S1                 0.0000
     43 ****        -2.0765   2.2532  -2.2188 H              1 S1                 0.0000
     44 ****        -3.1167   0.8499  -2.0428 H              1 S1                 0.0000
     45 ****        -1.3948   0.7104  -1.7386 H              1 S1                 0.0000
     46 ****        -0.7331   3.5452   0.3987 H              1 S1                 0.0000
     47 ****        -0.1152   1.9624   0.8387 H              1 S1                 0.0000
     48 ****        -1.0968   2.8668   1.9778 H              1 S1                 0.0000
     49 ****        -1.2619  -0.6631   0.2580 H              1 S1                 0.0000
     50 ****        -1.2996  -0.5632   2.0024 H              1 S1                 0.0000
     51 ****        -3.3829  -1.9937   2.0490 H              1 S1                 0.0000
     52 ****        -1.1817  -4.6734   0.2488 H              1 S1                 0.0000
     53 ****         0.3187  -3.3282  -2.1288 H              1 S1                 0.0000
     54 ****         6.1052   2.0284  -0.1629 H              1 S1                 0.0000
     55 ****         8.3281   2.4589  -1.1583 H              1 S1                 0.0000
     56 ****         9.5195   0.6557  -2.3917 H              1 S1                 0.0000
     57 ****         8.4665  -1.5855  -2.6345 H              1 S1                 0.0000
     58 ****         6.2446  -2.0313  -1.6533 H              1 S1                 0.0000
     59 ****         2.0304  -2.0337   3.9093 H              1 S1                 0.0000
     60 ****        -1.7658  -2.2756  -1.4616 H              1 S1                 0.0000
     61 ****        -2.5292  -3.8751  -1.5555 H              1 S1                 0.0000
     62 ****        -4.0660  -3.3303   0.1919 H              1 S1                 0.0000
     63 ****        -4.7630  -1.1695  -0.1760 H              1 S1                 0.0000
     64 ****        -2.1890  -3.8162   1.9436 LP             1 S1                 0.0000
     65 ****        -0.9744  -2.7248   1.9577 LP             1 S1                 0.0000
     66 ****         2.6698  -2.4438  -1.9450 LP             1 S1                 0.0000
     67 ****         5.2610  -2.1645   0.2860 LP             1 S1                 0.0000
     68 ****         2.9291   0.5207   0.1999 LP             1 S1                 0.0000
     69 ****         4.0526   1.5131  -0.6678 LP             1 S1                 0.0000
     70 ****         3.9671  -1.4472   2.8102 LP             1 S1                 0.0000
     71 ****         0.1103  -2.8376   2.7778 LP             1 S1                 0.0000
     72 ****        -4.5418  -1.9185  -1.5621 LP             1 S1                 0.0000
     73 ****        -3.4820  -0.7910  -1.0404 LP             1 S1                 0.0000
@<TRIPOS>BOND
    1    1    2 1     
    2    1   34 1     
    3    1   35 1     
    4    1   36 1     
    5    2    3 1     
    6    2    4 1     
    7    2    5 1     
    8    3   37 1     
    9    3   38 1     
   10    3   39 1     
   11    4   40 1     
   12    4   41 1     
   13    4   42 1     
   14    5    6 1     
   15    5    7 1     
   16    5    8 1     
   17    6   43 1     
   18    6   44 1     
   19    6   45 1     
   20    7   46 1     
   21    7   47 1     
   22    7   48 1     
   23    8    9 1     
   24    9   10 1     
   25    9   49 1     
   26    9   50 1     
   27   10   32 1     
   28   10   11 1     
   29   10   51 1     
   30   11   12 1     
   31   12   13 1     
   32   12   31 1     
   33   12   52 1     
   34   13   30 1     
   35   13   14 1     
   36   14   15 2     
   37   14   53 1     
   38   15   16 1     
   39   16   30 ar    
   40   16   17 ar    
   41   17   18 1     
   42   17   27 ar    
   43   18   19 1     
   44   19   20 2     
   45   19   21 1     
   46   21   26 ar    
   47   21   22 ar    
   48   22   23 ar    
   49   22   54 1     
   50   23   24 ar    
   51   23   55 1     
   52   24   25 ar    
   53   24   56 1     
   54   25   26 ar    
   55   25   57 1     
   56   26   58 1     
   57   27   28 ar    
   58   28   29 ar    
   59   28   59 1     
   60   29   30 ar    
   61   31   32 1     
   62   31   60 1     
   63   31   61 1     
   64   32   33 1     
   65   32   62 1     
   66   33   63 1     
   67   11   64 1     
   68   11   65 1     
   69   15   66 1     
   70   18   67 1     
   71   20   68 1     
   72   20   69 1     
   73   27   70 1     
   74   29   71 1     
   75   33   72 1     
   76   33   73 1     
@<TRIPOS>SUBSTRUCTURE
      1 S1             1
@<TRIPOS>SET
LONE_PAIRS      STATIC     ATOMS    <user>   **** ""
10 64 65 66 67 68 69 70 71 72 73
DONOR_HYDROGENS      STATIC     ATOMS    <user>   **** ""
1 63
ATOM$BLUE        STATIC     ATOMS    COLORGROUP SYSTEM
10 64 65 66 67 68 69 70 71 72 73
ATOM$RED        STATIC     ATOMS    COLORGROUP SYSTEM
1 63
