AV-unprocessed.smi:9|AV-procd|sdf|49|dock7
  -GOLD-   2262015163D 1   1.00000     0.00000
 Structure written by MMmdl.
 34 36  0  0  0  0  0  0  0  0  2 V2000
  153.6718  135.7413  159.0293 O   0  0  0  0  0  0  0  0  0  0  0  0
  153.4887  136.9145  158.7103 C   0  0  0  0  0  0  0  0  0  0  0  0
  153.9464  138.0036  159.4042 N   0  5  0  0  0  0  0  0  0  0  0  0
  153.6843  139.3022  158.9534 C   0  0  0  0  0  0  0  0  0  0  0  0
  154.2504  140.4309  159.8087 C   0  0  0  0  0  0  0  0  0  0  0  0
  155.5721  140.5483  159.6590 F   0  0  0  0  0  0  0  0  0  0  0  0
  153.6964  141.5965  159.4720 F   0  0  0  0  0  0  0  0  0  0  0  0
  154.0027  140.2062  161.0997 F   0  0  0  0  0  0  0  0  0  0  0  0
  153.0143  139.6058  157.8882 N   0  0  0  0  0  0  0  0  0  0  0  0
  152.5401  138.5324  157.1665 C   0  0  0  0  0  0  0  0  0  0  0  0
  152.7122  137.2133  157.4782 C   0  0  0  0  0  0  0  0  0  0  0  0
  152.0968  136.3901  156.5419 N   0  0  0  0  0  0  0  0  0  0  0  0
  151.5734  137.2751  155.6933 C   0  0  0  0  0  0  0  0  0  0  0  0
  151.8018  138.5704  155.9906 N   0  0  0  0  0  0  0  0  0  0  0  0
  151.3532  139.7399  155.2486 C   0  0  0  0  0  0  0  0  0  0  0  0
  149.8619  139.6957  154.8260 C   0  0  1  0  0  0  0  0  0  0  0  0
  149.7740  138.8851  153.6689 O   0  0  0  0  0  0  0  0  0  0  0  0
  148.9611  139.1030  155.9325 C   0  0  0  0  0  0  0  0  0  0  0  0
  147.4742  139.3057  155.6253 C   0  0  0  0  0  0  0  0  0  0  0  0
  147.1971  140.7790  155.3066 C   0  0  0  0  0  0  0  0  0  0  0  0
  147.9847  141.1698  154.1906 O   0  0  0  0  0  0  0  0  0  0  0  0
  149.3895  141.1144  154.4276 C   0  0  0  0  0  0  0  0  0  0  0  0
  151.0098  136.9717  154.8233 H   0  0  0  0  0  0  0  0  0  0  0  0
  151.5335  140.6158  155.8733 H   0  0  0  0  0  0  0  0  0  0  0  0
  151.9941  139.8586  154.3737 H   0  0  0  0  0  0  0  0  0  0  0  0
  149.5440  139.4349  152.9354 H   0  0  0  0  0  0  0  0  0  0  0  0
  149.1659  138.0417  156.0783 H   0  0  0  0  0  0  0  0  0  0  0  0
  149.1889  139.5932  156.8800 H   0  0  0  0  0  0  0  0  0  0  0  0
  147.1802  138.6853  154.7779 H   0  0  0  0  0  0  0  0  0  0  0  0
  146.8697  138.9831  156.4733 H   0  0  0  0  0  0  0  0  0  0  0  0
  146.1443  140.9175  155.0598 H   0  0  0  0  0  0  0  0  0  0  0  0
  147.4122  141.4166  156.1654 H   0  0  0  0  0  0  0  0  0  0  0  0
  149.6309  141.8265  155.2182 H   0  0  0  0  0  0  0  0  0  0  0  0
  149.9125  141.4590  153.5345 H   0  0  0  0  0  0  0  0  0  0  0  0
  1  2  2  0  0  0  0
  2 11  1  0  0  0  0
  2  3  1  0  0  0  0
  3  4  1  0  0  0  0
  4  5  1  0  0  0  0
  4  9  2  0  0  0  0
  5  6  1  0  0  0  0
  5  7  1  0  0  0  0
  5  8  1  0  0  0  0
  9 10  1  0  0  0  0
 10 14  1  0  0  0  0
 10 11  2  0  0  0  0
 11 12  1  0  0  0  0
 12 13  2  0  0  0  0
 13 14  1  0  0  0  0
 13 23  1  0  0  0  0
 14 15  1  0  0  0  0
 15 16  1  0  0  0  0
 15 24  1  0  0  0  0
 15 25  1  0  0  0  0
 16 22  1  0  0  0  0
 16 17  1  0  0  0  0
 16 18  1  0  0  0  0
 17 26  1  0  0  0  0
 18 19  1  0  0  0  0
 18 27  1  0  0  0  0
 18 28  1  0  0  0  0
 19 20  1  0  0  0  0
 19 29  1  0  0  0  0
 19 30  1  0  0  0  0
 20 21  1  0  0  0  0
 20 31  1  0  0  0  0
 20 32  1  0  0  0  0
 21 22  1  0  0  0  0
 22 33  1  0  0  0  0
 22 34  1  0  0  0  0
M  CHG  1   3  -1
M  END
> <s_m_source_file>
AV-unprocessed.smi

> <i_m_source_file_index>
9

> <i_lp_mmshare_version>
43012

> <i_f3d_flags>
0

> <s_epik_input>
RkMoRikoRiljKG4xKVtuSF1jKD1PKWMoYzEyKW5bY0hdbjJbQ0gyXVtDQEBdMyhbT0hdKVtDSDJdW0NIMl1bQ0gyXU9bQ0gyXTM=

> <s_epik_cmdline>
J2VwaWtfcHl0aG9uJywgJy1waCcsICc3LjAnLCAnLXRuJywgJzgnLCAnLW1hJywgJzIwMCcsICctbWV0YWxfYmluZGluZycsICctaW1hZScsICc8aW5maWxlLm1hZT4nLCAnLW9tYWUnLCAnPG91dGZpbGUubWFlPic=

> <r_lp_tautomer_probability>
1

> <r_epik_Ionization_Penalty>
0.188582

> <r_epik_Ionization_Penalty_Charging>
1.37005e-11

> <r_epik_Ionization_Penalty_Neutral>
0.188582

> <r_epik_State_Penalty>
0.012336

> <r_epik_Charging_Adjusted_Penalty>
0.012336

> <i_epik_Tot_Q>
-1

> <i_epik_Tot_abs_Q>
1

> <r_epik_Metal_State_Penalty>
0.0089237

> <b_epik_Metal_Only>
0

> <s_lp_Force_Field>
OPLS_2005

> <r_lp_Energy>
37.6166

> <b_lp_Chiralities_Consistent>
1

> <s_lp_Variant>
AV-unprocessed.smi:9-1

> <Gold.Version>
5.8.1

> <Gold.Id.Protein>
6NUR|6NUR_protein|mol2

> <Gold.PLP.Fitness>
38.9624

> <Gold.PLP.PLP>
-29.5892

> <Gold.PLP.part.hbond>
-4.0000

> <Gold.PLP.part.metal>
0.0000

> <Gold.PLP.part.buried>
-1.5806

> <Gold.PLP.part.nonpolar>
-23.6866

> <Gold.PLP.part.repulsive>
0.1379

> <Gold.PLP.ligand.clash>
0.0000

> <Gold.PLP.ligand.torsion>
0.9204

> <Gold.PLP.Chemscore.Hbond>
3.7360

> <Gold.PLP.Chemscore.CHOScore>
0.0000

> <Gold.PLP.Chemscore.Metal>
0.0000

> <Gold.Chemscore.Hbonds>
donor molecule, donor type, donor heavy atom, donor atom, acceptor molecule, acceptor atom, score
      L1  H    17    26       P1  7957  1.00
      P1  H  6896  6909       L1     1  0.91
      P1  H  7997  8010       L1     9  0.70
      P1  H 10752 10765       L1    12  0.72

> <Gold.PLP.Chemscore.Internal.Correction>
0.0061

> <Gold.Rescore>
     Score         DG    S(hbond)    S(metal)    S(lipo)     H(rot)  DE(clash)    DE(int)     intcor
     11.48     -12.56       2.30        0.00      41.19       2.12       0.08       1.00       ----

> <Gold.Chemscore.Fitness>
11.4755

> <Gold.Chemscore.DG>
-12.5552

> <Gold.Chemscore.ZeroCoef>
-5.4800

> <Gold.Chemscore.Hbond>
2.3033

> <Gold.Chemscore.Metal>
0.0000

> <Gold.Chemscore.Lipo>
41.1924

> <Gold.Chemscore.Internal_Hbond>
0.0000

> <Gold.Chemscore.DEClash>
0.0780

> <Gold.Chemscore.DEInternal>
1.0017

> <Gold.Chemscore.Rot>
2.1239

> <Gold.Chemscore.Internal.Correction>
   9.000000E+99

> <Gold.Chemscore.Hbonds>
donor molecule, donor type, donor heavy atom, donor atom, acceptor molecule, acceptor atom, score
      L1  H    17    26       P1  7957  0.98
      P1  H  6896  6909       L1     1  0.87
      P1  H  7997  8010       L1     9  0.02
      P1  H 10752 10765       L1    12  0.19

> <Gold.Chemscore.Hbond.Weighted>
-7.6929

> <Gold.Chemscore.Metal.Weighted>
-0.0000

> <Gold.Chemscore.Lipo.Weighted>
-4.8195

> <Gold.Chemscore.Internal_Hbond.Weighted>
0.0000

> <Gold.Chemscore.DEClash.Weighted>
0.0780

> <Gold.Chemscore.DEInternal.Weighted>
1.0017

> <Gold.Chemscore.Rot.Weighted>
5.4373

> <Gold.Chemscore.Internal.Correction.Weighted>
   9.000000E+99

> <Gold.Protein.RotatedTorsions>
[ 6907 6896 6895 6894 ] final  173.81 input  -60.11 | X-H torsion
[ 7974 7965 7964 7962 ] final  -60.98 input  175.53 | X-H torsion
[ 8008 7997 7996 7995 ] final   43.32 input   59.86 | X-H torsion
[ 10167 10162 10161 10158 ] final  147.15 input  -65.29 | X-H torsion
[ 10718 10713 10712 10709 ] final  -54.13 input   66.30 | X-H torsion
[ 10763 10752 10751 10750 ] final -121.53 input  -60.55 | X-H torsion
[ 11005 11000 10999 10996 ] final   46.18 input  -57.11 | X-H torsion

> <Gold.Protein.ActiveResidues>
 VAL166  LYS551  ARG553  GLY616  TRP617  ASP618  TYR619  PRO620  LYS621  CYS622 
 ASP623  PHE694  ASN695  SER759  ASP760  ASP761  ALA762  ILE779  LEU786  VAL792 
 PHE793  MET794  SER795  GLU796  ALA797  LYS798  CYS799  TRP800  GLU811  SER814 

> <Gold.Protein.RotatedAtoms>
  151.7624  133.3335  159.3421 H   0  0  0  0  0  0  0  0  0  0  0  0  # atno 6907 bound_to 6896
  150.7493  134.6093  159.6087 H   0  0  0  0  0  0  0  0  0  0  0  0  # atno 6908 bound_to 6896
  152.3396  134.7154  160.0319 H   0  0  0  0  0  0  0  0  0  0  0  0  # atno 6909 bound_to 6896
  145.8090  140.8610  143.0192 H   0  0  0  0  0  0  0  0  0  0  0  0  # atno 7974 bound_to 7965
  155.3009  140.3385  155.4248 H   0  0  0  0  0  0  0  0  0  0  0  0  # atno 8008 bound_to 7997
  156.2002  140.1730  156.7954 H   0  0  0  0  0  0  0  0  0  0  0  0  # atno 8009 bound_to 7997
  154.5549  140.0698  156.8711 H   0  0  0  0  0  0  0  0  0  0  0  0  # atno 8010 bound_to 7997
  139.4895  144.5777  151.6933 H   0  0  0  0  0  0  0  0  0  0  0  0  # atno 10167 bound_to 10162
  156.1476  130.4152  149.9998 H   0  0  0  0  0  0  0  0  0  0  0  0  # atno 10718 bound_to 10713
  154.8670  135.4164  154.2635 H   0  0  0  0  0  0  0  0  0  0  0  0  # atno 10763 bound_to 10752
  153.3558  135.7001  153.6757 H   0  0  0  0  0  0  0  0  0  0  0  0  # atno 10764 bound_to 10752
  153.5678  135.3597  155.2798 H   0  0  0  0  0  0  0  0  0  0  0  0  # atno 10765 bound_to 10752
  140.1392  134.4604  155.8462 H   0  0  0  0  0  0  0  0  0  0  0  0  # atno 11005 bound_to 11000
  144.6759  140.0368  143.7481 LP  0  0  0  0  0  0  0  0  0  0  0  0  # atno 17320 bound_to 7965
  145.9797  139.2932  143.1049 LP  0  0  0  0  0  0  0  0  0  0  0  0  # atno 17321 bound_to 7965
  140.5377  144.0630  150.6076 LP  0  0  0  0  0  0  0  0  0  0  0  0  # atno 17342 bound_to 10162
  140.3641  143.2891  152.0351 LP  0  0  0  0  0  0  0  0  0  0  0  0  # atno 17343 bound_to 10162
  156.7865  130.9240  151.3646 LP  0  0  0  0  0  0  0  0  0  0  0  0  # atno 17370 bound_to 10713
  157.6630  130.8983  149.9871 LP  0  0  0  0  0  0  0  0  0  0  0  0  # atno 17371 bound_to 10713
  141.2183  133.6826  156.7216 LP  0  0  0  0  0  0  0  0  0  0  0  0  # atno 17394 bound_to 11000
  140.2743  134.8367  157.3876 LP  0  0  0  0  0  0  0  0  0  0  0  0  # atno 17395 bound_to 11000

$$$$
