AV-unprocessed.smi:21|AV-procd|sdf|161|dock3
  -GOLD-   2262015393D 1   1.00000     0.00000
 Structure written by MMmdl.
 61 64  0  0  0  0  0  0  0  0  1 V2000
  146.1004  132.8393  151.5556 C   0  0  0  0  0  0  0  0  0  0  0  0
  146.5509  133.0948  152.8764 O   0  0  0  0  0  0  0  0  0  0  0  0
  147.9616  133.2341  152.9770 C   0  0  1  0  0  0  0  0  0  0  0  0
  148.3599  134.4830  153.7834 C   0  0  0  0  0  0  0  0  0  0  0  0
  149.3580  133.9542  154.8197 C   0  0  1  0  0  0  0  0  0  0  0  0
  149.4937  134.8596  156.0627 C   0  0  0  0  0  0  0  0  0  0  0  0
  149.7704  136.2567  155.7255 N   0  0  0  0  0  0  0  0  0  0  0  0
  150.8119  136.5218  154.7348 C   0  0  0  0  0  0  0  0  0  0  0  0
  149.6069  137.1675  156.7232 C   0  0  0  0  0  0  0  0  0  0  0  0
  148.5403  137.0557  157.5613 N   0  0  0  0  0  0  0  0  0  0  0  0
  148.3502  137.9406  158.5438 C   0  0  0  0  0  0  0  0  0  0  0  0
  149.0949  138.9977  158.8690 N   0  0  0  0  0  0  0  0  0  0  0  0
  150.1747  139.1116  158.0451 C   0  0  0  0  0  0  0  0  0  0  0  0
  150.5034  138.2517  156.9578 C   0  0  0  0  0  0  0  0  0  0  0  0
  151.6808  138.6864  156.3600 N   0  0  0  0  0  0  0  0  0  0  0  0
  152.0192  139.7462  157.0407 C   0  0  0  0  0  0  0  0  0  0  0  0
  151.1799  140.0620  158.0845 N   0  0  0  0  0  0  0  0  0  0  0  0
  151.3144  141.1819  158.9987 C   0  0  0  0  0  0  0  0  0  0  0  0
  152.7688  141.6844  159.1958 C   0  0  2  0  0  0  0  0  0  0  0  0
  153.4607  140.8284  160.2818 C   0  0  0  0  0  0  0  0  0  0  0  0
  154.1174  139.7077  159.7246 O   0  0  0  0  0  0  0  0  0  0  0  0
  152.8871  143.2121  159.4713 C   0  0  1  0  0  0  0  0  0  0  0  0
  152.3927  144.1031  158.3422 C   0  0  0  0  0  0  0  0  0  0  0  0
  152.1961  145.4358  159.0483 C   0  0  0  0  0  0  0  0  0  0  0  0
  151.6669  145.0838  160.3166 O   0  0  0  0  0  0  0  0  0  0  0  0
  152.0450  143.7488  160.6413 C   0  0  0  0  0  0  0  0  0  0  0  0
  148.8876  132.6086  155.1012 N   0  0  0  0  0  0  0  0  0  0  0  0
  149.8565  131.7759  155.8006 C   0  0  0  0  0  0  0  0  0  0  0  0
  148.5394  132.0726  153.7974 C   0  0  0  0  0  0  0  0  0  0  0  0
  148.4183  133.2360  151.9858 H   0  0  0  0  0  0  0  0  0  0  0  0
  150.3295  133.8747  154.3304 H   0  0  0  0  0  0  0  0  0  0  0  0
  145.0155  132.7364  151.5549 H   0  0  0  0  0  0  0  0  0  0  0  0
  146.5246  131.9125  151.1674 H   0  0  0  0  0  0  0  0  0  0  0  0
  146.3587  133.6526  150.8769 H   0  0  0  0  0  0  0  0  0  0  0  0
  148.7829  135.2699  153.1584 H   0  0  0  0  0  0  0  0  0  0  0  0
  147.4837  134.8908  154.2867 H   0  0  0  0  0  0  0  0  0  0  0  0
  148.6053  134.7592  156.6853 H   0  0  0  0  0  0  0  0  0  0  0  0
  150.3209  134.5097  156.6803 H   0  0  0  0  0  0  0  0  0  0  0  0
  150.7561  137.5504  154.3765 H   0  0  0  0  0  0  0  0  0  0  0  0
  150.7080  135.8714  153.8674 H   0  0  0  0  0  0  0  0  0  0  0  0
  151.8013  136.3565  155.1627 H   0  0  0  0  0  0  0  0  0  0  0  0
  147.4768  137.7771  159.1577 H   0  0  0  0  0  0  0  0  0  0  0  0
  152.9040  140.3205  156.8066 H   0  0  0  0  0  0  0  0  0  0  0  0
  150.6800  141.9947  158.6431 H   0  0  0  0  0  0  0  0  0  0  0  0
  150.8974  140.8656  159.9557 H   0  0  0  0  0  0  0  0  0  0  0  0
  153.3141  141.4814  158.2736 H   0  0  0  0  0  0  0  0  0  0  0  0
  154.1933  141.4251  160.8260 H   0  0  0  0  0  0  0  0  0  0  0  0
  152.7435  140.4821  161.0259 H   0  0  0  0  0  0  0  0  0  0  0  0
  154.1718  139.0325  160.3833 H   0  0  0  0  0  0  0  0  0  0  0  0
  153.9326  143.4623  159.6582 H   0  0  0  0  0  0  0  0  0  0  0  0
  153.0949  144.1746  157.5108 H   0  0  0  0  0  0  0  0  0  0  0  0
  151.4386  143.7412  157.9566 H   0  0  0  0  0  0  0  0  0  0  0  0
  153.1532  145.9395  159.1895 H   0  0  0  0  0  0  0  0  0  0  0  0
  151.5308  146.1081  158.5066 H   0  0  0  0  0  0  0  0  0  0  0  0
  151.1336  143.1659  160.7778 H   0  0  0  0  0  0  0  0  0  0  0  0
  152.5968  143.7383  161.5803 H   0  0  0  0  0  0  0  0  0  0  0  0
  149.4717  130.7632  155.9241 H   0  0  0  0  0  0  0  0  0  0  0  0
  150.0653  132.1705  156.7947 H   0  0  0  0  0  0  0  0  0  0  0  0
  150.7974  131.7164  155.2522 H   0  0  0  0  0  0  0  0  0  0  0  0
  147.8474  131.2341  153.8838 H   0  0  0  0  0  0  0  0  0  0  0  0
  149.4367  131.7036  153.2974 H   0  0  0  0  0  0  0  0  0  0  0  0
  1  2  1  0  0  0  0
  1 32  1  0  0  0  0
  1 33  1  0  0  0  0
  1 34  1  0  0  0  0
  2  3  1  0  0  0  0
  3 30  1  0  0  0  0
  3 29  1  0  0  0  0
  3  4  1  0  0  0  0
  4  5  1  0  0  0  0
  4 35  1  0  0  0  0
  4 36  1  0  0  0  0
  5 31  1  0  0  0  0
  5  6  1  0  0  0  0
  5 27  1  0  0  0  0
  6  7  1  0  0  0  0
  6 37  1  0  0  0  0
  6 38  1  0  0  0  0
  7  8  1  0  0  0  0
  7  9  1  0  0  0  0
  8 39  1  0  0  0  0
  8 40  1  0  0  0  0
  8 41  1  0  0  0  0
  9 14  1  0  0  0  0
  9 10  2  0  0  0  0
 10 11  1  0  0  0  0
 11 12  2  0  0  0  0
 11 42  1  0  0  0  0
 12 13  1  0  0  0  0
 13 17  1  0  0  0  0
 13 14  2  0  0  0  0
 14 15  1  0  0  0  0
 15 16  2  0  0  0  0
 16 17  1  0  0  0  0
 16 43  1  0  0  0  0
 17 18  1  0  0  0  0
 18 19  1  0  0  0  0
 18 44  1  0  0  0  0
 18 45  1  0  0  0  0
 19 20  1  0  0  0  0
 19 22  1  0  0  0  0
 19 46  1  0  0  0  0
 20 21  1  0  0  0  0
 20 47  1  0  0  0  0
 20 48  1  0  0  0  0
 21 49  1  0  0  0  0
 22 26  1  0  0  0  0
 22 23  1  0  0  0  0
 22 50  1  0  0  0  0
 23 24  1  0  0  0  0
 23 51  1  0  0  0  0
 23 52  1  0  0  0  0
 24 25  1  0  0  0  0
 24 53  1  0  0  0  0
 24 54  1  0  0  0  0
 25 26  1  0  0  0  0
 26 55  1  0  0  0  0
 26 56  1  0  0  0  0
 27 28  1  0  0  0  0
 27 29  1  0  0  0  0
 28 57  1  0  0  0  0
 28 58  1  0  0  0  0
 28 59  1  0  0  0  0
 29 60  1  0  0  0  0
 29 61  1  0  0  0  0
M  END
> <s_m_source_file>
AV-unprocessed.smi

> <i_m_source_file_index>
21

> <i_lp_mmshare_version>
43012

> <i_f3d_flags>
0

> <s_epik_input>
W0NIM11PW0NASF0xW0NIMl1bQ0BIXShOKFtDSDNdKVtDSDJdMSlbQ0gyXU4oW0NIM10pYyhuW2NIXW4yKWMoYzIzKW5bY0hdbjNbQ0gyXVtDQEhdKFtDSDJdW09IXSlbQ0BASF00W0NIMl1bQ0gyXU9bQ0gyXTQ=

> <s_epik_cmdline>
J2VwaWtfcHl0aG9uJywgJy1waCcsICc3LjAnLCAnLXRuJywgJzgnLCAnLW1hJywgJzIwMCcsICctbWV0YWxfYmluZGluZycsICctaW1hZScsICc8aW5maWxlLm1hZT4nLCAnLW9tYWUnLCAnPG91dGZpbGUubWFlPic=

> <r_lp_tautomer_probability>
1

> <r_epik_Ionization_Penalty>
2.17574

> <r_epik_Ionization_Penalty_Charging>
0

> <r_epik_Ionization_Penalty_Neutral>
2.17574

> <r_epik_State_Penalty>
2.31336

> <r_epik_Charging_Adjusted_Penalty>
2.31336

> <i_epik_Tot_Q>
0

> <i_epik_Tot_abs_Q>
0

> <r_epik_Metal_State_Penalty>
2.31025

> <b_epik_Metal_Only>
0

> <s_lp_Force_Field>
OPLS_2005

> <r_lp_Energy>
70.1796

> <b_lp_Chiralities_Consistent>
1

> <s_lp_Variant>
AV-unprocessed.smi:21-41

> <Gold.Version>
5.8.1

> <Gold.Id.Protein>
6NUR|6NUR_protein|mol2

> <Gold.PLP.Fitness>
49.2692

> <Gold.PLP.PLP>
-50.3620

> <Gold.PLP.part.hbond>
-2.0638

> <Gold.PLP.part.metal>
0.0000

> <Gold.PLP.part.buried>
-4.0398

> <Gold.PLP.part.nonpolar>
-43.6940

> <Gold.PLP.part.repulsive>
0.2480

> <Gold.PLP.ligand.clash>
0.0000

> <Gold.PLP.ligand.torsion>
2.4644

> <Gold.PLP.Chemscore.Hbond>
1.0000

> <Gold.PLP.Chemscore.CHOScore>
0.0000

> <Gold.PLP.Chemscore.Metal>
0.0000

> <Gold.PLP.Chemscore.Internal.Correction>
0.8361

> <Gold.Rescore>
     Score         DG    S(hbond)    S(metal)    S(lipo)     H(rot)  DE(clash)    DE(int)     intcor
     11.77     -15.60       0.98        0.00     124.16       3.00       0.06       3.77       ----

> <Gold.Chemscore.Fitness>
11.7699

> <Gold.Chemscore.DG>
-15.5955

> <Gold.Chemscore.ZeroCoef>
-5.4800

> <Gold.Chemscore.Hbond>
0.9812

> <Gold.Chemscore.Metal>
0.0000

> <Gold.Chemscore.Lipo>
124.1576

> <Gold.Chemscore.Internal_Hbond>
0.0000

> <Gold.Chemscore.DEClash>
0.0587

> <Gold.Chemscore.DEInternal>
3.7669

> <Gold.Chemscore.Rot>
3.0031

> <Gold.Chemscore.Internal.Correction>
   9.000000E+99

> <Gold.Chemscore.Hbond.Weighted>
-3.2771

> <Gold.Chemscore.Metal.Weighted>
-0.0000

> <Gold.Chemscore.Lipo.Weighted>
-14.5264

> <Gold.Chemscore.Internal_Hbond.Weighted>
0.0000

> <Gold.Chemscore.DEClash.Weighted>
0.0587

> <Gold.Chemscore.DEInternal.Weighted>
3.7669

> <Gold.Chemscore.Rot.Weighted>
7.6880

> <Gold.Chemscore.Internal.Correction.Weighted>
   9.000000E+99

> <Gold.Protein.RotatedTorsions>
[ 6907 6896 6895 6894 ] final   33.71 input  -60.11 | X-H torsion
[ 7974 7965 7964 7962 ] final  -68.22 input  175.53 | X-H torsion
[ 8008 7997 7996 7995 ] final -119.98 input   59.86 | X-H torsion
[ 10167 10162 10161 10158 ] final -116.53 input  -65.29 | X-H torsion
[ 10718 10713 10712 10709 ] final  -62.96 input   66.30 | X-H torsion
[ 10763 10752 10751 10750 ] final  140.79 input  -60.55 | X-H torsion
[ 11005 11000 10999 10996 ] final -128.97 input  -57.11 | X-H torsion

> <Gold.Protein.ActiveResidues>
 VAL166  LYS551  ARG553  GLY616  TRP617  ASP618  TYR619  PRO620  LYS621  CYS622 
 ASP623  PHE694  ASN695  SER759  ASP760  ASP761  ALA762  ILE779  LEU786  VAL792 
 PHE793  MET794  SER795  GLU796  ALA797  LYS798  CYS799  TRP800  GLU811  SER814 

> <Gold.Protein.RotatedAtoms>
  152.0923  134.9398  160.0571 H   0  0  0  0  0  0  0  0  0  0  0  0  # atno 6907 bound_to 6896
  152.0645  133.4072  159.4440 H   0  0  0  0  0  0  0  0  0  0  0  0  # atno 6908 bound_to 6896
  150.6837  134.3082  159.4779 H   0  0  0  0  0  0  0  0  0  0  0  0  # atno 6909 bound_to 6896
  145.7192  140.9045  143.0639 H   0  0  0  0  0  0  0  0  0  0  0  0  # atno 7974 bound_to 7965
  155.1245  140.0399  157.2758 H   0  0  0  0  0  0  0  0  0  0  0  0  # atno 8008 bound_to 7997
  154.6589  140.2586  155.7105 H   0  0  0  0  0  0  0  0  0  0  0  0  # atno 8009 bound_to 7997
  156.2610  140.2821  156.1053 H   0  0  0  0  0  0  0  0  0  0  0  0  # atno 8010 bound_to 7997
  140.0782  143.4813  152.1941 H   0  0  0  0  0  0  0  0  0  0  0  0  # atno 10167 bound_to 10162
  156.0822  130.4215  150.1208 H   0  0  0  0  0  0  0  0  0  0  0  0  # atno 10718 bound_to 10713
  153.9285  135.2992  155.3446 H   0  0  0  0  0  0  0  0  0  0  0  0  # atno 10763 bound_to 10752
  154.7539  135.4967  153.9341 H   0  0  0  0  0  0  0  0  0  0  0  0  # atno 10764 bound_to 10752
  153.1104  135.6757  153.9615 H   0  0  0  0  0  0  0  0  0  0  0  0  # atno 10765 bound_to 10752
  140.9471  134.1115  157.4097 H   0  0  0  0  0  0  0  0  0  0  0  0  # atno 11005 bound_to 11000
  144.6921  139.9180  143.7466 LP  0  0  0  0  0  0  0  0  0  0  0  0  # atno 17320 bound_to 7965
  146.0641  139.3633  143.0563 LP  0  0  0  0  0  0  0  0  0  0  0  0  # atno 17321 bound_to 7965
  139.5795  144.7504  151.3676 LP  0  0  0  0  0  0  0  0  0  0  0  0  # atno 17342 bound_to 10162
  140.7091  143.7437  150.7535 LP  0  0  0  0  0  0  0  0  0  0  0  0  # atno 17343 bound_to 10162
  156.9237  130.9691  151.3544 LP  0  0  0  0  0  0  0  0  0  0  0  0  # atno 17370 bound_to 10713
  157.5943  130.8466  149.8705 LP  0  0  0  0  0  0  0  0  0  0  0  0  # atno 17371 bound_to 10713
  139.8836  135.0054  156.6315 LP  0  0  0  0  0  0  0  0  0  0  0  0  # atno 17394 bound_to 11000
  140.7654  133.8783  155.8450 LP  0  0  0  0  0  0  0  0  0  0  0  0  # atno 17395 bound_to 11000

$$$$
