AV-unprocessed.smi:865|AV-procd|sdf|3991|dock6
  -GOLD-   22720 1473D 1   1.00000     0.00000
 Structure written by MMmdl.
 36 36  0  0  0  0  0  0  0  0  1 V2000
  142.3677  134.7746  152.9999 C   0  0  0  0  0  0  0  0  0  0  0  0
  143.8756  134.5523  152.8093 C   0  0  0  0  0  0  0  0  0  0  0  0
  144.3010  134.1877  151.3636 C   0  0  0  0  0  0  0  0  0  0  0  0
  143.7198  132.8160  150.9316 C   0  0  0  0  0  0  0  0  0  0  0  0
  143.8719  132.5053  149.4350 C   0  0  0  0  0  0  0  0  0  0  0  0
  145.8404  134.2713  151.1587 C   0  0  1  0  0  0  0  0  0  0  0  0
  146.2898  135.5551  151.5489 O   0  0  0  0  0  0  0  0  0  0  0  0
  146.6259  133.2021  151.9512 C   0  0  0  0  0  0  0  0  0  0  0  0
  147.6527  133.8050  152.7934 N   0  0  0  0  0  0  0  0  0  0  0  0
  148.3589  133.1590  153.7336 C   0  0  0  0  0  0  0  0  0  0  0  0
  148.2442  131.9562  153.9670 O   0  0  0  0  0  0  0  0  0  0  0  0
  149.3387  134.0030  154.5473 C   0  0  0  0  0  0  0  0  0  0  0  0
  149.9157  133.2206  155.6233 N   0  0  0  0  0  0  0  0  0  0  0  0
  150.5047  132.0229  155.6181 C   0  0  0  0  0  0  0  0  0  0  0  0
  150.8820  131.6589  156.8342 N   0  0  0  0  0  0  0  0  0  0  0  0
  150.4826  132.7269  157.6208 N   0  0  0  0  0  0  0  0  0  0  0  0
  149.9082  133.6564  156.9078 N   0  0  0  0  0  0  0  0  0  0  0  0
  142.1301  134.8956  154.0568 H   0  0  0  0  0  0  0  0  0  0  0  0
  141.7927  133.9265  152.6277 H   0  0  0  0  0  0  0  0  0  0  0  0
  142.0195  135.6720  152.4896 H   0  0  0  0  0  0  0  0  0  0  0  0
  144.4195  135.4328  153.1522 H   0  0  0  0  0  0  0  0  0  0  0  0
  144.1633  133.7487  153.4853 H   0  0  0  0  0  0  0  0  0  0  0  0
  143.8598  134.9394  150.7075 H   0  0  0  0  0  0  0  0  0  0  0  0
  144.2193  132.0135  151.4726 H   0  0  0  0  0  0  0  0  0  0  0  0
  142.6676  132.7512  151.2107 H   0  0  0  0  0  0  0  0  0  0  0  0
  143.5320  131.4926  149.2183 H   0  0  0  0  0  0  0  0  0  0  0  0
  144.9137  132.5766  149.1213 H   0  0  0  0  0  0  0  0  0  0  0  0
  143.2846  133.1807  148.8142 H   0  0  0  0  0  0  0  0  0  0  0  0
  146.0654  134.1396  150.1008 H   0  0  0  0  0  0  0  0  0  0  0  0
  147.2307  135.5308  151.6319 H   0  0  0  0  0  0  0  0  0  0  0  0
  145.9642  132.5544  152.5293 H   0  0  0  0  0  0  0  0  0  0  0  0
  147.1553  132.5497  151.2563 H   0  0  0  0  0  0  0  0  0  0  0  0
  147.8144  134.7949  152.6756 H   0  0  0  0  0  0  0  0  0  0  0  0
  150.1427  134.3630  153.9044 H   0  0  0  0  0  0  0  0  0  0  0  0
  148.8382  134.8800  154.9614 H   0  0  0  0  0  0  0  0  0  0  0  0
  150.6520  131.4226  154.7323 H   0  0  0  0  0  0  0  0  0  0  0  0
  1  2  1  0  0  0  0
  1 18  1  0  0  0  0
  1 19  1  0  0  0  0
  1 20  1  0  0  0  0
  2  3  1  0  0  0  0
  2 21  1  0  0  0  0
  2 22  1  0  0  0  0
  3  4  1  0  0  0  0
  3  6  1  0  0  0  0
  3 23  1  0  0  0  0
  4  5  1  0  0  0  0
  4 24  1  0  0  0  0
  4 25  1  0  0  0  0
  5 26  1  0  0  0  0
  5 27  1  0  0  0  0
  5 28  1  0  0  0  0
  6  7  1  0  0  0  0
  6  8  1  0  0  0  0
  6 29  1  0  0  0  0
  7 30  1  0  0  0  0
  8  9  1  0  0  0  0
  8 31  1  0  0  0  0
  8 32  1  0  0  0  0
  9 10  1  0  0  0  0
  9 33  1  0  0  0  0
 10 11  2  0  0  0  0
 10 12  1  0  0  0  0
 12 13  1  0  0  0  0
 12 34  1  0  0  0  0
 12 35  1  0  0  0  0
 13 17  1  0  0  0  0
 13 14  1  0  0  0  0
 14 15  2  0  0  0  0
 14 36  1  0  0  0  0
 15 16  1  0  0  0  0
 16 17  2  0  0  0  0
M  END
> <s_m_source_file>
AV-unprocessed.smi

> <i_m_source_file_index>
865

> <i_lp_mmshare_version>
43012

> <i_f3d_flags>
0

> <s_epik_input>
W0NIM11bQ0gyXVtDSF0oW0NIMl1bQ0gzXSlbQ0BIXShbT0hdKVtDSDJdW05IXUMoPU8pW0NIMl1uMVtjSF1ubm4x

> <s_epik_cmdline>
J2VwaWtfcHl0aG9uJywgJy1waCcsICc3LjAnLCAnLXRuJywgJzgnLCAnLW1hJywgJzIwMCcsICctbWV0YWxfYmluZGluZycsICctaW1hZScsICc8aW5maWxlLm1hZT4nLCAnLW9tYWUnLCAnPG91dGZpbGUubWFlPic=

> <r_lp_tautomer_probability>
1

> <r_epik_Ionization_Penalty>
9.39891e-07

> <r_epik_Ionization_Penalty_Charging>
0

> <r_epik_Ionization_Penalty_Neutral>
9.39891e-07

> <r_epik_State_Penalty>
-0

> <r_epik_Charging_Adjusted_Penalty>
0

> <i_epik_Tot_Q>
0

> <i_epik_Tot_abs_Q>
0

> <r_epik_Metal_State_Penalty>
-0

> <b_epik_Metal_Only>
0

> <s_lp_Force_Field>
OPLS_2005

> <r_lp_Energy>
13.5174

> <b_lp_Chiralities_Consistent>
1

> <s_lp_Variant>
AV-unprocessed.smi:865-2

> <Gold.Version>
5.8.1

> <Gold.Id.Protein>
6NUR|6NUR_protein|mol2

> <Gold.PLP.Fitness>
39.5915

> <Gold.PLP.PLP>
-32.3868

> <Gold.PLP.part.hbond>
-3.0000

> <Gold.PLP.part.metal>
0.0000

> <Gold.PLP.part.buried>
-5.4920

> <Gold.PLP.part.nonpolar>
-24.1183

> <Gold.PLP.part.repulsive>
0.0838

> <Gold.PLP.ligand.clash>
0.0000

> <Gold.PLP.ligand.torsion>
0.9991

> <Gold.PLP.Chemscore.Hbond>
3.0000

> <Gold.PLP.Chemscore.CHOScore>
0.0000

> <Gold.PLP.Chemscore.Metal>
0.0000

> <Gold.Chemscore.Hbonds>
donor molecule, donor type, donor heavy atom, donor atom, acceptor molecule, acceptor atom, score
      L1  H     7    30       P1  7948  1.00
      L1  H     9    33       P1  7948  0.91
      P1  H  6896  6907       L1    16  1.00

> <Gold.PLP.Chemscore.Internal.Correction>
0.2029

> <Gold.Rescore>
     Score         DG    S(hbond)    S(metal)    S(lipo)     H(rot)  DE(clash)    DE(int)     intcor
      8.81     -11.06       2.72        0.00      53.19       3.80       0.04       2.21       ----

> <Gold.Chemscore.Fitness>
8.8087

> <Gold.Chemscore.DG>
-11.0555

> <Gold.Chemscore.ZeroCoef>
-5.4800

> <Gold.Chemscore.Hbond>
2.7159

> <Gold.Chemscore.Metal>
0.0000

> <Gold.Chemscore.Lipo>
53.1893

> <Gold.Chemscore.Internal_Hbond>
0.0000

> <Gold.Chemscore.DEClash>
0.0396

> <Gold.Chemscore.DEInternal>
2.2072

> <Gold.Chemscore.Rot>
3.7964

> <Gold.Chemscore.Internal.Correction>
   9.000000E+99

> <Gold.Chemscore.Hbonds>
donor molecule, donor type, donor heavy atom, donor atom, acceptor molecule, acceptor atom, score
      L1  H     7    30       P1  7948  0.98
      L1  H     9    33       P1  7948  0.77
      P1  H  6896  6907       L1    16  0.84

> <Gold.Chemscore.Hbond.Weighted>
-9.0711

> <Gold.Chemscore.Metal.Weighted>
-0.0000

> <Gold.Chemscore.Lipo.Weighted>
-6.2232

> <Gold.Chemscore.Internal_Hbond.Weighted>
0.0000

> <Gold.Chemscore.DEClash.Weighted>
0.0396

> <Gold.Chemscore.DEInternal.Weighted>
2.2072

> <Gold.Chemscore.Rot.Weighted>
9.7188

> <Gold.Chemscore.Internal.Correction.Weighted>
   9.000000E+99

> <Gold.Protein.RotatedTorsions>
[ 6907 6896 6895 6894 ] final -158.10 input  -60.11 | X-H torsion
[ 7974 7965 7964 7962 ] final   72.58 input  175.53 | X-H torsion
[ 8008 7997 7996 7995 ] final -137.06 input   59.86 | X-H torsion
[ 10167 10162 10161 10158 ] final   -7.37 input  -65.29 | X-H torsion
[ 10718 10713 10712 10709 ] final  -96.70 input   66.30 | X-H torsion
[ 10763 10752 10751 10750 ] final -140.55 input  -60.55 | X-H torsion
[ 11005 11000 10999 10996 ] final -164.82 input  -57.11 | X-H torsion

> <Gold.Protein.ActiveResidues>
 VAL166  LYS551  ARG553  GLY616  TRP617  ASP618  TYR619  PRO620  LYS621  CYS622 
 ASP623  PHE694  ASN695  SER759  ASP760  ASP761  ALA762  ILE779  LEU786  VAL792 
 PHE793  MET794  SER795  GLU796  ALA797  LYS798  CYS799  TRP800  GLU811  SER814 

> <Gold.Protein.RotatedAtoms>
  151.3131  133.4072  159.2648 H   0  0  0  0  0  0  0  0  0  0  0  0  # atno 6907 bound_to 6896
  151.0098  134.9388  159.8011 H   0  0  0  0  0  0  0  0  0  0  0  0  # atno 6908 bound_to 6896
  152.5297  134.3095  159.9161 H   0  0  0  0  0  0  0  0  0  0  0  0  # atno 6909 bound_to 6896
  145.7516  139.2762  143.1428 H   0  0  0  0  0  0  0  0  0  0  0  0  # atno 7974 bound_to 7965
  155.4056  140.0509  157.3034 H   0  0  0  0  0  0  0  0  0  0  0  0  # atno 8008 bound_to 7997
  154.4970  140.2142  155.9386 H   0  0  0  0  0  0  0  0  0  0  0  0  # atno 8009 bound_to 7997
  156.1418  140.3153  155.8513 H   0  0  0  0  0  0  0  0  0  0  0  0  # atno 8010 bound_to 7997
  140.7027  143.6088  150.8724 H   0  0  0  0  0  0  0  0  0  0  0  0  # atno 10167 bound_to 10162
  156.0068  130.5163  150.6265 H   0  0  0  0  0  0  0  0  0  0  0  0  # atno 10718 bound_to 10713
  154.8575  135.3550  154.5725 H   0  0  0  0  0  0  0  0  0  0  0  0  # atno 10763 bound_to 10752
  153.6338  135.7001  153.5271 H   0  0  0  0  0  0  0  0  0  0  0  0  # atno 10764 bound_to 10752
  153.3028  135.4201  155.1226 H   0  0  0  0  0  0  0  0  0  0  0  0  # atno 10765 bound_to 10752
  140.5827  134.5125  157.5181 H   0  0  0  0  0  0  0  0  0  0  0  0  # atno 11005 bound_to 11000
  146.0351  140.8220  142.9856 LP  0  0  0  0  0  0  0  0  0  0  0  0  # atno 17320 bound_to 7965
  144.6848  140.2827  143.7290 LP  0  0  0  0  0  0  0  0  0  0  0  0  # atno 17321 bound_to 7965
  139.9812  143.5950  152.2942 LP  0  0  0  0  0  0  0  0  0  0  0  0  # atno 17342 bound_to 10162
  139.6571  144.7662  151.2034 LP  0  0  0  0  0  0  0  0  0  0  0  0  # atno 17343 bound_to 10162
  157.4071  131.0818  151.1255 LP  0  0  0  0  0  0  0  0  0  0  0  0  # atno 17370 bound_to 10713
  157.1898  130.6347  149.5700 LP  0  0  0  0  0  0  0  0  0  0  0  0  # atno 17371 bound_to 10713
  139.9310  134.7964  156.0931 LP  0  0  0  0  0  0  0  0  0  0  0  0  # atno 17394 bound_to 11000
  141.0986  133.6686  156.2702 LP  0  0  0  0  0  0  0  0  0  0  0  0  # atno 17395 bound_to 11000

$$$$
