AV-unprocessed.smi:1700|AV-procd|sdf|6820|dock4
  -GOLD-   22720 7593D 1   1.00000     0.00000
 Structure written by MMmdl.
 34 35  0  0  0  0  0  0  0  0  1 V2000
  147.6949  133.0275  152.3311 C   0  0  0  0  0  0  0  0  0  0  0  0
  146.4128  133.0651  151.5152 C   0  0  0  0  0  0  0  0  0  0  0  0
  145.8980  131.8633  150.9843 C   0  0  0  0  0  0  0  0  0  0  0  0
  144.7123  131.8986  150.2308 C   0  0  0  0  0  0  0  0  0  0  0  0
  144.0874  133.1427  150.0393 C   0  0  0  0  0  0  0  0  0  0  0  0
  144.5727  134.2959  150.5425 N   0  0  0  0  0  0  0  0  0  0  0  0
  145.7168  134.2796  151.2717 C   0  0  0  0  0  0  0  0  0  0  0  0
  146.2879  135.4581  151.8308 N   0  0  0  0  0  0  0  0  0  0  0  0
  145.6656  136.4788  152.4469 C   0  0  0  0  0  0  0  0  0  0  0  0
  144.4530  136.5610  152.6455 O   0  0  0  0  0  0  0  0  0  0  0  0
  146.5405  137.4203  152.8283 N   0  0  0  0  0  0  0  0  0  0  0  0
  146.1886  138.6621  153.5073 C   0  0  0  0  0  0  0  0  0  0  0  0
  147.2814  139.7301  153.3379 C   0  0  1  0  0  0  0  0  0  0  0  0
  146.9583  141.0531  154.0257 C   0  0  0  0  0  0  0  0  0  0  0  0
  148.3347  141.6623  154.1692 C   0  0  0  0  0  0  0  0  0  0  0  0
  149.2068  140.4404  154.4548 C   0  0  0  0  0  0  0  0  0  0  0  0
  148.4964  139.3110  153.9510 O   0  0  0  0  0  0  0  0  0  0  0  0
  148.0869  132.0130  152.4087 H   0  0  0  0  0  0  0  0  0  0  0  0
  147.5155  133.3959  153.3415 H   0  0  0  0  0  0  0  0  0  0  0  0
  148.4617  133.6478  151.8662 H   0  0  0  0  0  0  0  0  0  0  0  0
  146.4033  130.9233  151.1508 H   0  0  0  0  0  0  0  0  0  0  0  0
  144.2929  130.9963  149.8111 H   0  0  0  0  0  0  0  0  0  0  0  0
  143.1740  133.2150  149.4675 H   0  0  0  0  0  0  0  0  0  0  0  0
  147.2904  135.5333  151.7466 H   0  0  0  0  0  0  0  0  0  0  0  0
  147.5184  137.2768  152.6229 H   0  0  0  0  0  0  0  0  0  0  0  0
  145.2356  139.0337  153.1268 H   0  0  0  0  0  0  0  0  0  0  0  0
  146.0359  138.4459  154.5649 H   0  0  0  0  0  0  0  0  0  0  0  0
  147.4774  139.9189  152.2809 H   0  0  0  0  0  0  0  0  0  0  0  0
  146.2731  141.6753  153.4495 H   0  0  0  0  0  0  0  0  0  0  0  0
  146.5211  140.8796  155.0101 H   0  0  0  0  0  0  0  0  0  0  0  0
  148.6350  142.1241  153.2277 H   0  0  0  0  0  0  0  0  0  0  0  0
  148.3900  142.4186  154.9528 H   0  0  0  0  0  0  0  0  0  0  0  0
  150.1889  140.5255  153.9893 H   0  0  0  0  0  0  0  0  0  0  0  0
  149.3512  140.3094  155.5276 H   0  0  0  0  0  0  0  0  0  0  0  0
  1  2  1  0  0  0  0
  1 18  1  0  0  0  0
  1 19  1  0  0  0  0
  1 20  1  0  0  0  0
  2  7  1  0  0  0  0
  2  3  2  0  0  0  0
  3  4  1  0  0  0  0
  3 21  1  0  0  0  0
  4  5  2  0  0  0  0
  4 22  1  0  0  0  0
  5  6  1  0  0  0  0
  5 23  1  0  0  0  0
  6  7  2  0  0  0  0
  7  8  1  0  0  0  0
  8  9  1  0  0  0  0
  8 24  1  0  0  0  0
  9 10  2  0  0  0  0
  9 11  1  0  0  0  0
 11 12  1  0  0  0  0
 11 25  1  0  0  0  0
 12 13  1  0  0  0  0
 12 26  1  0  0  0  0
 12 27  1  0  0  0  0
 13 17  1  0  0  0  0
 13 14  1  0  0  0  0
 13 28  1  0  0  0  0
 14 15  1  0  0  0  0
 14 29  1  0  0  0  0
 14 30  1  0  0  0  0
 15 16  1  0  0  0  0
 15 31  1  0  0  0  0
 15 32  1  0  0  0  0
 16 17  1  0  0  0  0
 16 33  1  0  0  0  0
 16 34  1  0  0  0  0
M  END
> <s_m_source_file>
AV-unprocessed.smi

> <i_m_source_file_index>
1700

> <i_lp_mmshare_version>
43012

> <i_f3d_flags>
0

> <s_epik_input>
W0NIM11jMVtjSF1bY0hdW2NIXW5jMVtOSF1DKD1PKVtOSF1bQ0gyXVtDQEBIXTJbQ0gyXVtDSDJdW0NIMl1PMg==

> <s_epik_cmdline>
J2VwaWtfcHl0aG9uJywgJy1waCcsICc3LjAnLCAnLXRuJywgJzgnLCAnLW1hJywgJzIwMCcsICctbWV0YWxfYmluZGluZycsICctaW1hZScsICc8aW5maWxlLm1hZT4nLCAnLW9tYWUnLCAnPG91dGZpbGUubWFlPic=

> <r_lp_tautomer_probability>
1

> <r_epik_Ionization_Penalty>
5.57253e-05

> <r_epik_Ionization_Penalty_Charging>
0

> <r_epik_Ionization_Penalty_Neutral>
5.57253e-05

> <r_epik_State_Penalty>
-0

> <r_epik_Charging_Adjusted_Penalty>
0

> <i_epik_Tot_Q>
0

> <i_epik_Tot_abs_Q>
0

> <r_epik_Metal_State_Penalty>
-0

> <b_epik_Metal_Only>
0

> <s_lp_Force_Field>
OPLS_2005

> <r_lp_Energy>
19.2835

> <b_lp_Chiralities_Consistent>
1

> <s_lp_Variant>
AV-unprocessed.smi:1700-2

> <Gold.Version>
5.8.1

> <Gold.Id.Protein>
6NUR|6NUR_protein|mol2

> <Gold.PLP.Fitness>
39.2732

> <Gold.PLP.PLP>
-31.2549

> <Gold.PLP.part.hbond>
-2.0000

> <Gold.PLP.part.metal>
0.0000

> <Gold.PLP.part.buried>
-3.8040

> <Gold.PLP.part.nonpolar>
-26.7273

> <Gold.PLP.part.repulsive>
1.0864

> <Gold.PLP.ligand.clash>
0.0000

> <Gold.PLP.ligand.torsion>
0.4930

> <Gold.PLP.Chemscore.Hbond>
2.0000

> <Gold.PLP.Chemscore.CHOScore>
1.0000

> <Gold.PLP.Chemscore.Metal>
0.0000

> <Gold.Chemscore.Hbonds>
donor molecule, donor type, donor heavy atom, donor atom, acceptor molecule, acceptor atom, score
      L1  H     8    24       P1  7948  1.00
      L1  H    11    25       P1  7948  1.00
      L1  C     5    23       P1 10186  1.00

> <Gold.PLP.Chemscore.Internal.Correction>
0.0043

> <Gold.Rescore>
     Score         DG    S(hbond)    S(metal)    S(lipo)     H(rot)  DE(clash)    DE(int)     intcor
     16.84     -17.39       1.93        0.00      73.78       1.23       0.05       0.50       ----

> <Gold.Chemscore.Fitness>
16.8414

> <Gold.Chemscore.DG>
-17.3884

> <Gold.Chemscore.ZeroCoef>
-5.4800

> <Gold.Chemscore.Hbond>
1.9263

> <Gold.Chemscore.Metal>
0.0000

> <Gold.Chemscore.Lipo>
73.7844

> <Gold.Chemscore.Internal_Hbond>
0.0000

> <Gold.Chemscore.DEClash>
0.0515

> <Gold.Chemscore.DEInternal>
0.4955

> <Gold.Chemscore.Rot>
1.2337

> <Gold.Chemscore.Internal.Correction>
   9.000000E+99

> <Gold.Chemscore.Hbonds>
donor molecule, donor type, donor heavy atom, donor atom, acceptor molecule, acceptor atom, score
      L1  H     8    24       P1  7948  0.99
      L1  H    11    25       P1  7948  0.95

> <Gold.Chemscore.Hbond.Weighted>
-6.4338

> <Gold.Chemscore.Metal.Weighted>
-0.0000

> <Gold.Chemscore.Lipo.Weighted>
-8.6328

> <Gold.Chemscore.Internal_Hbond.Weighted>
0.0000

> <Gold.Chemscore.DEClash.Weighted>
0.0515

> <Gold.Chemscore.DEInternal.Weighted>
0.4955

> <Gold.Chemscore.Rot.Weighted>
3.1582

> <Gold.Chemscore.Internal.Correction.Weighted>
   9.000000E+99

> <Gold.Protein.RotatedTorsions>
[ 6907 6896 6895 6894 ] final  -85.84 input  -60.11 | X-H torsion
[ 7974 7965 7964 7962 ] final   -9.08 input  175.53 | X-H torsion
[ 8008 7997 7996 7995 ] final  126.00 input   59.86 | X-H torsion
[ 10167 10162 10161 10158 ] final   83.28 input  -65.29 | X-H torsion
[ 10718 10713 10712 10709 ] final -134.05 input   66.30 | X-H torsion
[ 10763 10752 10751 10750 ] final   45.42 input  -60.55 | X-H torsion
[ 11005 11000 10999 10996 ] final   77.82 input  -57.11 | X-H torsion

> <Gold.Protein.ActiveResidues>
 VAL166  LYS551  ARG553  GLY616  TRP617  ASP618  TYR619  PRO620  LYS621  CYS622 
 ASP623  PHE694  ASN695  SER759  ASP760  ASP761  ALA762  ILE779  LEU786  VAL792 
 PHE793  MET794  SER795  GLU796  ALA797  LYS798  CYS799  TRP800  GLU811  SER814 

> <Gold.Protein.RotatedAtoms>
  150.6868  134.3142  159.4758 H   0  0  0  0  0  0  0  0  0  0  0  0  # atno 6907 bound_to 6896
  152.1024  134.9329  160.0578 H   0  0  0  0  0  0  0  0  0  0  0  0  # atno 6908 bound_to 6896
  152.0603  133.4024  159.4452 H   0  0  0  0  0  0  0  0  0  0  0  0  # atno 6909 bound_to 6896
  146.2262  140.2563  142.8349 H   0  0  0  0  0  0  0  0  0  0  0  0  # atno 7974 bound_to 7965
  156.2851  140.2703  156.2040 H   0  0  0  0  0  0  0  0  0  0  0  0  # atno 8008 bound_to 7997
  155.0332  140.0386  157.2500 H   0  0  0  0  0  0  0  0  0  0  0  0  # atno 8009 bound_to 7997
  154.7337  140.2711  155.6439 H   0  0  0  0  0  0  0  0  0  0  0  0  # atno 8010 bound_to 7997
  139.9200  144.6218  150.8450 H   0  0  0  0  0  0  0  0  0  0  0  0  # atno 10167 bound_to 10162
  156.2513  130.7155  151.1055 H   0  0  0  0  0  0  0  0  0  0  0  0  # atno 10718 bound_to 10713
  152.9825  135.6040  154.3433 H   0  0  0  0  0  0  0  0  0  0  0  0  # atno 10763 bound_to 10752
  154.3128  135.2771  155.2559 H   0  0  0  0  0  0  0  0  0  0  0  0  # atno 10764 bound_to 10752
  154.4761  135.5929  153.6412 H   0  0  0  0  0  0  0  0  0  0  0  0  # atno 10765 bound_to 10752
  139.9238  134.7714  156.1571 H   0  0  0  0  0  0  0  0  0  0  0  0  # atno 11005 bound_to 11000
  144.9374  140.8041  143.5652 LP  0  0  0  0  0  0  0  0  0  0  0  0  # atno 17320 bound_to 7965
  145.2511  139.2031  143.4942 LP  0  0  0  0  0  0  0  0  0  0  0  0  # atno 17321 bound_to 7965
  140.7664  143.3304  151.2424 LP  0  0  0  0  0  0  0  0  0  0  0  0  # atno 17342 bound_to 10162
  139.6869  143.9757  152.2839 LP  0  0  0  0  0  0  0  0  0  0  0  0  # atno 17343 bound_to 10162
  157.7215  131.0678  150.6113 LP  0  0  0  0  0  0  0  0  0  0  0  0  # atno 17370 bound_to 10713
  156.6193  130.4401  149.5828 LP  0  0  0  0  0  0  0  0  0  0  0  0  # atno 17371 bound_to 10713
  141.0780  133.6767  156.2277 LP  0  0  0  0  0  0  0  0  0  0  0  0  # atno 17394 bound_to 11000
  140.6395  134.5180  157.5568 LP  0  0  0  0  0  0  0  0  0  0  0  0  # atno 17395 bound_to 11000

$$$$
