AV-unprocessed.smi:2780|AV-procd|sdf|10716|dock3
  -GOLD-   2272015153D 1   1.00000     0.00000
 Structure written by MMmdl.
 47 49  0  0  0  0  0  0  0  0  2 V2000
  151.4771  138.4449  154.6810 C   0  0  0  0  0  0  0  0  0  0  0  0
  150.5329  139.5607  155.0956 C   0  0  0  0  0  0  0  0  0  0  0  0
  150.7786  140.3149  156.1849 C   0  0  0  0  0  0  0  0  0  0  0  0
  149.9138  141.4734  156.6460 C   0  0  0  0  0  0  0  0  0  0  0  0
  148.5899  141.5767  155.8724 C   0  0  0  0  0  0  0  0  0  0  0  0
  148.7803  141.2461  154.3810 C   0  0  2  0  0  0  0  0  0  0  0  0
  147.5284  141.5931  153.5575 C   0  0  0  0  0  0  0  0  0  0  0  0
  149.3246  139.7977  154.1852 C   0  0  2  0  0  0  0  0  0  0  0  0
  148.2732  138.6781  154.3966 C   0  0  0  0  0  0  0  0  0  0  0  0
  147.5472  138.3466  153.1542 N   0  3  0  0  0  0  0  0  0  0  0  0
  146.1791  137.8403  153.3720 C   0  0  0  0  0  0  0  0  0  0  0  0
  145.5870  137.2838  152.0703 C   0  0  0  0  0  0  0  0  0  0  0  0
  144.2686  136.7153  152.2823 N   0  0  0  0  0  0  0  0  0  0  0  0
  143.1721  137.3123  152.7743 C   0  0  0  0  0  0  0  0  0  0  0  0
  142.0886  136.5397  152.8341 N   0  0  0  0  0  0  0  0  0  0  0  0
  142.5035  135.3201  152.3376 N   0  0  0  0  0  0  0  0  0  0  0  0
  143.7996  135.4731  152.0422 C   0  0  0  0  0  0  0  0  0  0  0  0
  144.6445  134.3939  151.4423 C   0  0  0  0  0  0  0  0  0  0  0  0
  144.3869  133.8901  150.0392 C   0  0  0  0  0  0  0  0  0  0  0  0
  144.0974  133.0006  151.2197 C   0  0  0  0  0  0  0  0  0  0  0  0
  151.8472  138.6190  153.6703 H   0  0  0  0  0  0  0  0  0  0  0  0
  150.9814  137.4752  154.7023 H   0  0  0  0  0  0  0  0  0  0  0  0
  152.3395  138.3884  155.3461 H   0  0  0  0  0  0  0  0  0  0  0  0
  151.6599  140.1234  156.7799 H   0  0  0  0  0  0  0  0  0  0  0  0
  149.7182  141.3789  157.7145 H   0  0  0  0  0  0  0  0  0  0  0  0
  150.4926  142.3876  156.5111 H   0  0  0  0  0  0  0  0  0  0  0  0
  147.8553  140.9019  156.3120 H   0  0  0  0  0  0  0  0  0  0  0  0
  148.1828  142.5814  155.9923 H   0  0  0  0  0  0  0  0  0  0  0  0
  149.5604  141.9163  154.0149 H   0  0  0  0  0  0  0  0  0  0  0  0
  146.6441  141.0718  153.9245 H   0  0  0  0  0  0  0  0  0  0  0  0
  147.6643  141.3428  152.5051 H   0  0  0  0  0  0  0  0  0  0  0  0
  147.3153  142.6612  153.6113 H   0  0  0  0  0  0  0  0  0  0  0  0
  149.6954  139.7248  153.1614 H   0  0  0  0  0  0  0  0  0  0  0  0
  148.7493  137.7591  154.7361 H   0  0  0  0  0  0  0  0  0  0  0  0
  147.5651  138.9590  155.1761 H   0  0  0  0  0  0  0  0  0  0  0  0
  147.4898  139.1827  152.5903 H   0  0  0  0  0  0  0  0  0  0  0  0
  146.1975  137.0647  154.1387 H   0  0  0  0  0  0  0  0  0  0  0  0
  145.5575  138.6529  153.7497 H   0  0  0  0  0  0  0  0  0  0  0  0
  145.5159  138.0651  151.3137 H   0  0  0  0  0  0  0  0  0  0  0  0
  146.2364  136.5094  151.6597 H   0  0  0  0  0  0  0  0  0  0  0  0
  143.1626  138.3451  153.0905 H   0  0  0  0  0  0  0  0  0  0  0  0
  145.6802  134.4936  151.7609 H   0  0  0  0  0  0  0  0  0  0  0  0
  143.5343  134.2987  149.4998 H   0  0  0  0  0  0  0  0  0  0  0  0
  145.2527  133.6470  149.4269 H   0  0  0  0  0  0  0  0  0  0  0  0
  144.7699  132.1640  151.3977 H   0  0  0  0  0  0  0  0  0  0  0  0
  143.0517  132.8187  151.4606 H   0  0  0  0  0  0  0  0  0  0  0  0
  148.0762  137.6513  152.6473 H   0  0  0  0  0  0  0  0  0  0  0  0
  1  2  1  0  0  0  0
  1 21  1  0  0  0  0
  1 22  1  0  0  0  0
  1 23  1  0  0  0  0
  2  8  1  0  0  0  0
  2  3  2  0  0  0  0
  3  4  1  0  0  0  0
  3 24  1  0  0  0  0
  4  5  1  0  0  0  0
  4 25  1  0  0  0  0
  4 26  1  0  0  0  0
  5  6  1  0  0  0  0
  5 27  1  0  0  0  0
  5 28  1  0  0  0  0
  6  7  1  0  0  0  0
  6  8  1  0  0  0  0
  6 29  1  0  0  0  0
  7 30  1  0  0  0  0
  7 31  1  0  0  0  0
  7 32  1  0  0  0  0
  8  9  1  0  0  0  0
  8 33  1  0  0  0  0
  9 10  1  0  0  0  0
  9 34  1  0  0  0  0
  9 35  1  0  0  0  0
 10 11  1  0  0  0  0
 10 36  1  0  0  0  0
 10 47  1  0  0  0  0
 11 12  1  0  0  0  0
 11 37  1  0  0  0  0
 11 38  1  0  0  0  0
 12 13  1  0  0  0  0
 12 39  1  0  0  0  0
 12 40  1  0  0  0  0
 13 17  1  0  0  0  0
 13 14  1  0  0  0  0
 14 15  2  0  0  0  0
 14 41  1  0  0  0  0
 15 16  1  0  0  0  0
 16 17  2  0  0  0  0
 17 18  1  0  0  0  0
 18 20  1  0  0  0  0
 18 19  1  0  0  0  0
 18 42  1  0  0  0  0
 19 20  1  0  0  0  0
 19 43  1  0  0  0  0
 19 44  1  0  0  0  0
 20 45  1  0  0  0  0
 20 46  1  0  0  0  0
M  CHG  1  10   1
M  END
> <s_m_source_file>
AV-unprocessed.smi

> <i_m_source_file_index>
2780

> <i_lp_mmshare_version>
43012

> <i_f3d_flags>
0

> <s_epik_input>
W0NIM11DMT1bQ0hdW0NIMl1bQ0gyXVtDQEBIXShbQ0gzXSlbQ0BIXTFbQ0gyXVtOSF1bQ0gyXVtDSDJdbjJbY0hdbm5jMltDSF0zW0NIMl1bQ0gyXTM=

> <s_epik_cmdline>
J2VwaWtfcHl0aG9uJywgJy1waCcsICc3LjAnLCAnLXRuJywgJzgnLCAnLW1hJywgJzIwMCcsICctbWV0YWxfYmluZGluZycsICctaW1hZScsICc8aW5maWxlLm1hZT4nLCAnLW9tYWUnLCAnPG91dGZpbGUubWFlPic=

> <r_lp_tautomer_probability>
1

> <r_epik_Ionization_Penalty>
0.00176214

> <r_epik_Ionization_Penalty_Charging>
0.00175191

> <r_epik_Ionization_Penalty_Neutral>
1.02377e-05

> <r_epik_State_Penalty>
-0

> <r_epik_Charging_Adjusted_Penalty>
0.00175191

> <i_epik_Tot_Q>
1

> <i_epik_Tot_abs_Q>
1

> <r_epik_Metal_State_Penalty>
-0

> <b_epik_Metal_Only>
0

> <s_lp_Force_Field>
OPLS_2005

> <r_lp_Energy>
23.8201

> <b_lp_Chiralities_Consistent>
1

> <s_lp_Variant>
AV-unprocessed.smi:2780-4

> <Gold.Version>
5.8.1

> <Gold.Id.Protein>
6NUR|6NUR_protein|mol2

> <Gold.PLP.Fitness>
46.0127

> <Gold.PLP.PLP>
-38.0158

> <Gold.PLP.part.hbond>
-1.2961

> <Gold.PLP.part.metal>
0.0000

> <Gold.PLP.part.buried>
-2.8453

> <Gold.PLP.part.nonpolar>
-34.0700

> <Gold.PLP.part.repulsive>
0.3825

> <Gold.PLP.ligand.clash>
0.0000

> <Gold.PLP.ligand.torsion>
0.6833

> <Gold.PLP.Chemscore.Hbond>
2.0000

> <Gold.PLP.Chemscore.CHOScore>
1.0000

> <Gold.PLP.Chemscore.Metal>
0.0000

> <Gold.Chemscore.Hbonds>
donor molecule, donor type, donor heavy atom, donor atom, acceptor molecule, acceptor atom, score
      L1  H    10    47       P1  7948  2.00
      L1  C    14    41       P1 10175  1.00

> <Gold.PLP.Chemscore.Internal.Correction>
0.3635

> <Gold.Rescore>
     Score         DG    S(hbond)    S(metal)    S(lipo)     H(rot)  DE(clash)    DE(int)     intcor
     13.09     -13.73       1.00        0.00      85.32       1.98       0.00       0.64       ----

> <Gold.Chemscore.Fitness>
13.0943

> <Gold.Chemscore.DG>
-13.7296

> <Gold.Chemscore.ZeroCoef>
-5.4800

> <Gold.Chemscore.Hbond>
0.9988

> <Gold.Chemscore.Metal>
0.0000

> <Gold.Chemscore.Lipo>
85.3171

> <Gold.Chemscore.Internal_Hbond>
0.0000

> <Gold.Chemscore.DEClash>
0.0000

> <Gold.Chemscore.DEInternal>
0.6354

> <Gold.Chemscore.Rot>
1.9799

> <Gold.Chemscore.Internal.Correction>
   9.000000E+99

> <Gold.Chemscore.Hbonds>
donor molecule, donor type, donor heavy atom, donor atom, acceptor molecule, acceptor atom, score
      L1  H    10    47       P1  7948  1.00

> <Gold.Chemscore.Hbond.Weighted>
-3.3361

> <Gold.Chemscore.Metal.Weighted>
-0.0000

> <Gold.Chemscore.Lipo.Weighted>
-9.9821

> <Gold.Chemscore.Internal_Hbond.Weighted>
0.0000

> <Gold.Chemscore.DEClash.Weighted>
0.0000

> <Gold.Chemscore.DEInternal.Weighted>
0.6354

> <Gold.Chemscore.Rot.Weighted>
5.0685

> <Gold.Chemscore.Internal.Correction.Weighted>
   9.000000E+99

> <Gold.Protein.RotatedTorsions>
[ 6907 6896 6895 6894 ] final   60.99 input  -60.11 | X-H torsion
[ 7974 7965 7964 7962 ] final   16.52 input  175.53 | X-H torsion
[ 8008 7997 7996 7995 ] final  -76.73 input   59.86 | X-H torsion
[ 10167 10162 10161 10158 ] final   -0.04 input  -65.29 | X-H torsion
[ 10718 10713 10712 10709 ] final   21.97 input   66.30 | X-H torsion
[ 10763 10752 10751 10750 ] final  109.76 input  -60.55 | X-H torsion
[ 11005 11000 10999 10996 ] final -172.03 input  -57.11 | X-H torsion

> <Gold.Protein.ActiveResidues>
 VAL166  LYS551  ARG553  GLY616  TRP617  ASP618  TYR619  PRO620  LYS621  CYS622 
 ASP623  PHE694  ASN695  SER759  ASP760  ASP761  ALA762  ILE779  LEU786  VAL792 
 PHE793  MET794  SER795  GLU796  ALA797  LYS798  CYS799  TRP800  GLU811  SER814 

> <Gold.Protein.RotatedAtoms>
  152.4050  134.6221  160.0053 H   0  0  0  0  0  0  0  0  0  0  0  0  # atno 6907 bound_to 6896
  151.6415  133.3320  159.3139 H   0  0  0  0  0  0  0  0  0  0  0  0  # atno 6908 bound_to 6896
  150.7946  134.7038  159.6610 H   0  0  0  0  0  0  0  0  0  0  0  0  # atno 6909 bound_to 6896
  146.2247  139.8736  142.8583 H   0  0  0  0  0  0  0  0  0  0  0  0  # atno 7974 bound_to 7965
  154.5532  140.0722  156.8701 H   0  0  0  0  0  0  0  0  0  0  0  0  # atno 8008 bound_to 7997
  155.2954  140.3380  155.4232 H   0  0  0  0  0  0  0  0  0  0  0  0  # atno 8009 bound_to 7997
  156.1979  140.1710  156.7946 H   0  0  0  0  0  0  0  0  0  0  0  0  # atno 8010 bound_to 7997
  140.6750  143.6942  150.8003 H   0  0  0  0  0  0  0  0  0  0  0  0  # atno 10167 bound_to 10162
  157.1459  130.6653  149.5996 H   0  0  0  0  0  0  0  0  0  0  0  0  # atno 10718 bound_to 10713
  153.4393  135.3770  155.2218 H   0  0  0  0  0  0  0  0  0  0  0  0  # atno 10763 bound_to 10752
  154.8753  135.3859  154.4172 H   0  0  0  0  0  0  0  0  0  0  0  0  # atno 10764 bound_to 10752
  153.4716  135.7087  153.6054 H   0  0  0  0  0  0  0  0  0  0  0  0  # atno 10765 bound_to 10752
  140.5016  134.5888  157.4989 H   0  0  0  0  0  0  0  0  0  0  0  0  # atno 11005 bound_to 11000
  145.2583  141.0068  143.3841 LP  0  0  0  0  0  0  0  0  0  0  0  0  # atno 17320 bound_to 7965
  144.9319  139.4289  143.6491 LP  0  0  0  0  0  0  0  0  0  0  0  0  # atno 17321 bound_to 7965
  140.0634  143.5132  152.2616 LP  0  0  0  0  0  0  0  0  0  0  0  0  # atno 17342 bound_to 10162
  139.6037  144.7590  151.3111 LP  0  0  0  0  0  0  0  0  0  0  0  0  # atno 17343 bound_to 10162
  155.9779  130.4761  150.6626 LP  0  0  0  0  0  0  0  0  0  0  0  0  # atno 17370 bound_to 10713
  157.4265  131.0843  151.1080 LP  0  0  0  0  0  0  0  0  0  0  0  0  # atno 17371 bound_to 10713
  139.9710  134.7293  156.0042 LP  0  0  0  0  0  0  0  0  0  0  0  0  # atno 17394 bound_to 11000
  141.1432  133.6560  156.3791 LP  0  0  0  0  0  0  0  0  0  0  0  0  # atno 17395 bound_to 11000

$$$$
