AV-unprocessed.smi:2032|AV-procd|sdf|8255|dock10
  -GOLD-   2272010533D 1   1.00000     0.00000
 Structure written by MMmdl.
 42 43  0  0  0  0  0  0  0  0  3 V2000
  154.5391  138.4452  160.5363 C   0  0  0  0  0  0  0  0  0  0  0  0
  153.3465  139.2660  160.0337 C   0  0  2  0  0  0  0  0  0  0  0  0
  152.9942  138.9441  158.5702 C   0  0  0  0  0  0  0  0  0  0  0  0
  151.8656  139.7889  158.0929 N   0  3  2  0  0  0  0  0  0  0  0  0
  151.4130  139.4299  156.7080 C   0  0  2  0  0  0  0  0  0  0  0  0
  150.5329  140.5224  156.0510 C   0  0  0  0  0  0  0  0  0  0  0  0
  150.6739  138.0660  156.7287 C   0  0  0  0  0  0  0  0  0  0  0  0
  149.5233  138.0518  157.6290 N   0  0  0  0  0  0  0  0  0  0  0  0
  149.4216  137.3648  158.7762 C   0  0  0  0  0  0  0  0  0  0  0  0
  150.3656  136.6763  159.1700 O   0  0  0  0  0  0  0  0  0  0  0  0
  148.2322  137.5237  159.3982 N   0  5  0  0  0  0  0  0  0  0  0  0
  147.9131  136.7431  160.4435 C   0  0  0  0  0  0  0  0  0  0  0  0
  147.6115  137.2319  161.6519 N   0  0  0  0  0  0  0  0  0  0  0  0
  147.3126  136.2437  162.5917 C   0  0  0  0  0  0  0  0  0  0  0  0
  147.3960  134.9724  162.0890 C   0  0  0  0  0  0  0  0  0  0  0  0
  147.8573  134.9783  160.4107 S   0  0  0  0  0  0  0  0  0  0  0  0
  152.1984  141.2238  158.3118 C   0  0  0  0  0  0  0  0  0  0  0  0
  152.5955  141.4866  159.7775 C   0  0  2  0  0  0  0  0  0  0  0  0
  153.0252  142.9399  160.0076 C   0  0  0  0  0  0  0  0  0  0  0  0
  153.6829  140.6430  160.1325 O   0  0  0  0  0  0  0  0  0  0  0  0
  154.3277  137.3765  160.4896 H   0  0  0  0  0  0  0  0  0  0  0  0
  154.7720  138.6913  161.5726 H   0  0  0  0  0  0  0  0  0  0  0  0
  155.4318  138.6365  159.9399 H   0  0  0  0  0  0  0  0  0  0  0  0
  152.4883  139.0551  160.6745 H   0  0  0  0  0  0  0  0  0  0  0  0
  153.8639  139.1070  157.9314 H   0  0  0  0  0  0  0  0  0  0  0  0
  152.7501  137.8861  158.5047 H   0  0  0  0  0  0  0  0  0  0  0  0
  152.3026  139.3304  156.0839 H   0  0  0  0  0  0  0  0  0  0  0  0
  150.2083  140.2352  155.0515 H   0  0  0  0  0  0  0  0  0  0  0  0
  151.0720  141.4599  155.9168 H   0  0  0  0  0  0  0  0  0  0  0  0
  149.6374  140.7208  156.6407 H   0  0  0  0  0  0  0  0  0  0  0  0
  150.2725  137.8196  155.7480 H   0  0  0  0  0  0  0  0  0  0  0  0
  151.3761  137.2666  156.9705 H   0  0  0  0  0  0  0  0  0  0  0  0
  148.7229  138.6024  157.3539 H   0  0  0  0  0  0  0  0  0  0  0  0
  147.0504  136.5367  163.5974 H   0  0  0  0  0  0  0  0  0  0  0  0
  147.2174  134.0383  162.5997 H   0  0  0  0  0  0  0  0  0  0  0  0
  153.0062  141.5173  157.6391 H   0  0  0  0  0  0  0  0  0  0  0  0
  151.3399  141.8576  158.0922 H   0  0  0  0  0  0  0  0  0  0  0  0
  151.7475  141.2711  160.4304 H   0  0  0  0  0  0  0  0  0  0  0  0
  152.2205  143.6322  159.7583 H   0  0  0  0  0  0  0  0  0  0  0  0
  153.8903  143.1981  159.3959 H   0  0  0  0  0  0  0  0  0  0  0  0
  153.2940  143.1065  161.0510 H   0  0  0  0  0  0  0  0  0  0  0  0
  151.0799  139.5960  158.6977 H   0  0  0  0  0  0  0  0  0  0  0  0
  1  2  1  0  0  0  0
  1 21  1  0  0  0  0
  1 22  1  0  0  0  0
  1 23  1  0  0  0  0
  2 20  1  0  0  0  0
  2  3  1  0  0  0  0
  2 24  1  0  0  0  0
  3  4  1  0  0  0  0
  3 25  1  0  0  0  0
  3 26  1  0  0  0  0
  4  5  1  0  0  0  0
  4 17  1  0  0  0  0
  4 42  1  0  0  0  0
  5  6  1  0  0  0  0
  5  7  1  0  0  0  0
  5 27  1  0  0  0  0
  6 28  1  0  0  0  0
  6 29  1  0  0  0  0
  6 30  1  0  0  0  0
  7  8  1  0  0  0  0
  7 31  1  0  0  0  0
  7 32  1  0  0  0  0
  8  9  1  0  0  0  0
  8 33  1  0  0  0  0
  9 10  2  0  0  0  0
  9 11  1  0  0  0  0
 11 12  1  0  0  0  0
 12 16  1  0  0  0  0
 12 13  2  0  0  0  0
 13 14  1  0  0  0  0
 14 15  2  0  0  0  0
 14 34  1  0  0  0  0
 15 16  1  0  0  0  0
 15 35  1  0  0  0  0
 17 18  1  0  0  0  0
 17 36  1  0  0  0  0
 17 37  1  0  0  0  0
 18 19  1  0  0  0  0
 18 20  1  0  0  0  0
 18 38  1  0  0  0  0
 19 39  1  0  0  0  0
 19 40  1  0  0  0  0
 19 41  1  0  0  0  0
M  CHG  1   4   1
M  CHG  1  11  -1
M  END
> <s_m_source_file>
AV-unprocessed.smi

> <i_m_source_file_index>
2032

> <i_lp_mmshare_version>
43012

> <i_f3d_flags>
0

> <s_epik_input>
W0NIM11bQ0BASF0xW0NIMl1OKFtDSDJdW0NASF0oTzEpW0NIM10pW0NASF0oW0NIM10pW0NIMl1bTkhdQyg9TylbTkhdYzJuW2NIXVtjSF1zMg==

> <s_epik_cmdline>
J2VwaWtfcHl0aG9uJywgJy1waCcsICc3LjAnLCAnLXRuJywgJzgnLCAnLW1hJywgJzIwMCcsICctbWV0YWxfYmluZGluZycsICctaW1hZScsICc8aW5maWxlLm1hZT4nLCAnLW9tYWUnLCAnPG91dGZpbGUubWFlPic=

> <r_lp_tautomer_probability>
0.999

> <r_epik_Ionization_Penalty>
6.71699

> <r_epik_Ionization_Penalty_Charging>
5.88592

> <r_epik_Ionization_Penalty_Neutral>
0.831074

> <r_epik_State_Penalty>
6.08365

> <r_epik_Charging_Adjusted_Penalty>
11.9696

> <i_epik_Tot_Q>
0

> <i_epik_Tot_abs_Q>
2

> <r_epik_Metal_State_Penalty>
2.0947

> <b_epik_Metal_Only>
1

> <s_lp_Force_Field>
OPLS_2005

> <r_lp_Energy>
9.66165

> <b_lp_Chiralities_Consistent>
1

> <s_lp_Variant>
AV-unprocessed.smi:2032-25

> <Gold.Version>
5.8.1

> <Gold.Id.Protein>
6NUR|6NUR_protein|mol2

> <Gold.PLP.Fitness>
41.2069

> <Gold.PLP.PLP>
-35.1570

> <Gold.PLP.part.hbond>
-3.8913

> <Gold.PLP.part.metal>
0.0000

> <Gold.PLP.part.buried>
-4.6453

> <Gold.PLP.part.nonpolar>
-26.2022

> <Gold.PLP.part.repulsive>
0.1399

> <Gold.PLP.ligand.clash>
0.0000

> <Gold.PLP.ligand.torsion>
0.9135

> <Gold.PLP.Chemscore.Hbond>
2.6016

> <Gold.PLP.Chemscore.CHOScore>
0.0000

> <Gold.PLP.Chemscore.Metal>
0.0000

> <Gold.Chemscore.Hbonds>
donor molecule, donor type, donor heavy atom, donor atom, acceptor molecule, acceptor atom, score
      P1  H  6896  6909       L1    10  1.00
      P1  H  6931  6943       L1    13  0.98
      P1  H  6934  6947       L1    13  0.53

> <Gold.PLP.Chemscore.Internal.Correction>
0.0720

> <Gold.Rescore>
     Score         DG    S(hbond)    S(metal)    S(lipo)     H(rot)  DE(clash)    DE(int)     intcor
     17.90     -18.68       2.17        0.00      85.32       1.58       0.02       0.77       ----

> <Gold.Chemscore.Fitness>
17.8973

> <Gold.Chemscore.DG>
-18.6849

> <Gold.Chemscore.ZeroCoef>
-5.4800

> <Gold.Chemscore.Hbond>
2.1750

> <Gold.Chemscore.Metal>
0.0000

> <Gold.Chemscore.Lipo>
85.3243

> <Gold.Chemscore.Internal_Hbond>
0.0000

> <Gold.Chemscore.DEClash>
0.0164

> <Gold.Chemscore.DEInternal>
0.7712

> <Gold.Chemscore.Rot>
1.5791

> <Gold.Chemscore.Internal.Correction>
   9.000000E+99

> <Gold.Chemscore.Hbonds>
donor molecule, donor type, donor heavy atom, donor atom, acceptor molecule, acceptor atom, score
      P1  H  6896  6909       L1    10  1.00
      P1  H  6931  6943       L1    13  0.23
      P1  H  6934  6947       L1    13  0.05

> <Gold.Chemscore.Hbond.Weighted>
-7.2644

> <Gold.Chemscore.Metal.Weighted>
-0.0000

> <Gold.Chemscore.Lipo.Weighted>
-9.9829

> <Gold.Chemscore.Internal_Hbond.Weighted>
0.0000

> <Gold.Chemscore.DEClash.Weighted>
0.0164

> <Gold.Chemscore.DEInternal.Weighted>
0.7712

> <Gold.Chemscore.Rot.Weighted>
4.0425

> <Gold.Chemscore.Internal.Correction.Weighted>
   9.000000E+99

> <Gold.Protein.RotatedTorsions>
[ 6907 6896 6895 6894 ] final   88.66 input  -60.11 | X-H torsion
[ 7974 7965 7964 7962 ] final    6.86 input  175.53 | X-H torsion
[ 8008 7997 7996 7995 ] final  150.53 input   59.86 | X-H torsion
[ 10167 10162 10161 10158 ] final  161.65 input  -65.29 | X-H torsion
[ 10718 10713 10712 10709 ] final -144.53 input   66.30 | X-H torsion
[ 10763 10752 10751 10750 ] final  127.30 input  -60.55 | X-H torsion
[ 11005 11000 10999 10996 ] final   82.06 input  -57.11 | X-H torsion

> <Gold.Protein.ActiveResidues>
 VAL166  LYS551  ARG553  GLY616  TRP617  ASP618  TYR619  PRO620  LYS621  CYS622 
 ASP623  PHE694  ASN695  SER759  ASP760  ASP761  ALA762  ILE779  LEU786  VAL792 
 PHE793  MET794  SER795  GLU796  ALA797  LYS798  CYS799  TRP800  GLU811  SER814 

> <Gold.Protein.RotatedAtoms>
  152.5428  134.2086  159.8740 H   0  0  0  0  0  0  0  0  0  0  0  0  # atno 6907 bound_to 6896
  151.2070  133.4571  159.2605 H   0  0  0  0  0  0  0  0  0  0  0  0  # atno 6908 bound_to 6896
  151.0933  134.9942  159.8469 H   0  0  0  0  0  0  0  0  0  0  0  0  # atno 6909 bound_to 6896
  146.2431  140.0170  142.8401 H   0  0  0  0  0  0  0  0  0  0  0  0  # atno 7974 bound_to 7965
  156.2712  140.2072  156.6032 H   0  0  0  0  0  0  0  0  0  0  0  0  # atno 8008 bound_to 7997
  154.6890  140.0532  157.0367 H   0  0  0  0  0  0  0  0  0  0  0  0  # atno 8009 bound_to 7997
  155.0893  140.3195  155.4581 H   0  0  0  0  0  0  0  0  0  0  0  0  # atno 8010 bound_to 7997
  139.4851  144.4516  151.8823 H   0  0  0  0  0  0  0  0  0  0  0  0  # atno 10167 bound_to 10162
  156.3713  130.7789  151.1970 H   0  0  0  0  0  0  0  0  0  0  0  0  # atno 10718 bound_to 10713
  153.7072  135.3274  155.3238 H   0  0  0  0  0  0  0  0  0  0  0  0  # atno 10763 bound_to 10752
  154.8396  135.4468  154.1351 H   0  0  0  0  0  0  0  0  0  0  0  0  # atno 10764 bound_to 10752
  153.2434  135.6973  153.7836 H   0  0  0  0  0  0  0  0  0  0  0  0  # atno 10765 bound_to 10752
  139.9076  134.8043  156.2124 H   0  0  0  0  0  0  0  0  0  0  0  0  # atno 11005 bound_to 11000
  145.1276  140.9499  143.4563 LP  0  0  0  0  0  0  0  0  0  0  0  0  # atno 17320 bound_to 7965
  145.0419  139.3253  143.5972 LP  0  0  0  0  0  0  0  0  0  0  0  0  # atno 17321 bound_to 7965
  140.3973  144.2539  150.5895 LP  0  0  0  0  0  0  0  0  0  0  0  0  # atno 17342 bound_to 10162
  140.5090  143.2296  151.8564 LP  0  0  0  0  0  0  0  0  0  0  0  0  # atno 17343 bound_to 10162
  157.7484  131.0371  150.4442 LP  0  0  0  0  0  0  0  0  0  0  0  0  # atno 17370 bound_to 10713
  156.4669  130.4044  149.6541 LP  0  0  0  0  0  0  0  0  0  0  0  0  # atno 17371 bound_to 10713
  141.0457  133.6914  156.1679 LP  0  0  0  0  0  0  0  0  0  0  0  0  # atno 17394 bound_to 11000
  140.6887  134.4689  157.5589 LP  0  0  0  0  0  0  0  0  0  0  0  0  # atno 17395 bound_to 11000

$$$$
