AV-unprocessed.smi:101|AV-procd|sdf|925|dock4
  -GOLD-   2262017433D 1   1.00000     0.00000
 Structure written by MMmdl.
 44 46  0  0  0  0  0  0  0  0  1 V2000
  144.2487  137.1048  155.5291 C   0  0  0  0  0  0  0  0  0  0  0  0
  145.0092  137.5569  154.2933 C   0  0  0  0  0  0  0  0  0  0  0  0
  146.1467  138.2942  154.3696 C   0  0  0  0  0  0  0  0  0  0  0  0
  146.8659  138.7192  153.2588 N   0  0  0  0  0  0  0  0  0  0  0  0
  148.1412  139.5351  153.3745 C   0  0  2  0  0  0  0  0  0  0  0  0
  148.9607  138.9823  154.3633 O   0  0  0  0  0  0  0  0  0  0  0  0
  148.9713  139.8262  155.5099 C   0  0  1  0  0  0  0  0  0  0  0  0
  150.2291  139.5479  156.3385 C   0  0  0  0  0  0  0  0  0  0  0  0
  150.7185  140.7854  156.8276 O   0  0  0  0  0  0  0  0  0  0  0  0
  151.3862  140.8400  157.9946 C   0  0  0  0  0  0  0  0  0  0  0  0
  151.8104  139.8452  158.5860 O   0  0  0  0  0  0  0  0  0  0  0  0
  151.5548  142.2342  158.4972 C   0  0  0  0  0  0  0  0  0  0  0  0
  152.1060  142.4464  159.7824 C   0  0  0  0  0  0  0  0  0  0  0  0
  152.2734  143.7519  160.2841 C   0  0  0  0  0  0  0  0  0  0  0  0
  151.8930  144.8610  159.5065 C   0  0  0  0  0  0  0  0  0  0  0  0
  151.3446  144.6633  158.2258 C   0  0  0  0  0  0  0  0  0  0  0  0
  151.1755  143.3588  157.7225 C   0  0  0  0  0  0  0  0  0  0  0  0
  148.9246  141.2110  154.8722 C   0  0  2  0  0  0  0  0  0  0  0  0
  148.5909  142.2401  155.7856 O   0  0  0  0  0  0  0  0  0  0  0  0
  147.8918  141.0139  153.7654 C   0  0  2  0  0  0  0  0  0  0  0  0
  146.5702  141.2631  154.2229 O   0  0  0  0  0  0  0  0  0  0  0  0
  146.4065  138.3794  151.9700 C   0  0  0  0  0  0  0  0  0  0  0  0
  146.9873  138.7306  150.9437 O   0  0  0  0  0  0  0  0  0  0  0  0
  145.2395  137.6223  151.8911 N   0  0  0  0  0  0  0  0  0  0  0  0
  144.4869  137.1738  152.9788 C   0  0  0  0  0  0  0  0  0  0  0  0
  143.4702  136.5105  152.7814 O   0  0  0  0  0  0  0  0  0  0  0  0
  144.9087  137.3772  150.9693 H   0  0  0  0  0  0  0  0  0  0  0  0
  144.7281  137.4457  156.4474 H   0  0  0  0  0  0  0  0  0  0  0  0
  144.1946  136.0163  155.5655 H   0  0  0  0  0  0  0  0  0  0  0  0
  143.2320  137.4988  155.5173 H   0  0  0  0  0  0  0  0  0  0  0  0
  146.4981  138.5546  155.3559 H   0  0  0  0  0  0  0  0  0  0  0  0
  148.6582  139.4189  152.4200 H   0  0  0  0  0  0  0  0  0  0  0  0
  148.0716  139.6638  156.1063 H   0  0  0  0  0  0  0  0  0  0  0  0
  150.0066  138.8625  157.1576 H   0  0  0  0  0  0  0  0  0  0  0  0
  150.9955  139.0852  155.7156 H   0  0  0  0  0  0  0  0  0  0  0  0
  152.4049  141.6104  160.3981 H   0  0  0  0  0  0  0  0  0  0  0  0
  152.6939  143.9015  161.2679 H   0  0  0  0  0  0  0  0  0  0  0  0
  152.0211  145.8618  159.8917 H   0  0  0  0  0  0  0  0  0  0  0  0
  151.0519  145.5136  157.6275 H   0  0  0  0  0  0  0  0  0  0  0  0
  150.7510  143.2434  156.7358 H   0  0  0  0  0  0  0  0  0  0  0  0
  149.8934  141.4371  154.4241 H   0  0  0  0  0  0  0  0  0  0  0  0
  148.6762  143.0727  155.3474 H   0  0  0  0  0  0  0  0  0  0  0  0
  148.0906  141.6600  152.9099 H   0  0  0  0  0  0  0  0  0  0  0  0
  146.5472  142.1235  154.6131 H   0  0  0  0  0  0  0  0  0  0  0  0
  1  2  1  0  0  0  0
  1 28  1  0  0  0  0
  1 29  1  0  0  0  0
  1 30  1  0  0  0  0
  2 25  1  0  0  0  0
  2  3  2  0  0  0  0
  3  4  1  0  0  0  0
  3 31  1  0  0  0  0
  4  5  1  0  0  0  0
  4 22  1  0  0  0  0
  5 20  1  0  0  0  0
  5  6  1  0  0  0  0
  5 32  1  0  0  0  0
  6  7  1  0  0  0  0
  7  8  1  0  0  0  0
  7 18  1  0  0  0  0
  7 33  1  0  0  0  0
  8  9  1  0  0  0  0
  8 34  1  0  0  0  0
  8 35  1  0  0  0  0
  9 10  1  0  0  0  0
 10 11  2  0  0  0  0
 10 12  1  0  0  0  0
 12 17  1  0  0  0  0
 12 13  2  0  0  0  0
 13 14  1  0  0  0  0
 13 36  1  0  0  0  0
 14 15  2  0  0  0  0
 14 37  1  0  0  0  0
 15 16  1  0  0  0  0
 15 38  1  0  0  0  0
 16 17  2  0  0  0  0
 16 39  1  0  0  0  0
 17 40  1  0  0  0  0
 18 19  1  0  0  0  0
 18 20  1  0  0  0  0
 18 41  1  0  0  0  0
 19 42  1  0  0  0  0
 20 21  1  0  0  0  0
 20 43  1  0  0  0  0
 21 44  1  0  0  0  0
 22 23  2  0  0  0  0
 22 24  1  0  0  0  0
 24 27  1  0  0  0  0
 24 25  1  0  0  0  0
 25 26  2  0  0  0  0
M  END
> <s_m_source_file>
AV-unprocessed.smi

> <i_m_source_file_index>
101

> <i_lp_mmshare_version>
43012

> <i_f3d_flags>
0

> <s_epik_input>
Tz1jMVtuSF1jKD1PKW4oW2NIXWMxW0NIM10pW0NAQEhdMk9bQ0BIXShbQ0BASF0oW09IXSlbQ0BIXTJbT0hdKVtDSDJdT0MoPU8pYzNbY0hdW2NIXVtjSF1bY0hdW2NIXTM=

> <s_epik_cmdline>
J2VwaWtfcHl0aG9uJywgJy1waCcsICc3LjAnLCAnLXRuJywgJzgnLCAnLW1hJywgJzIwMCcsICctbWV0YWxfYmluZGluZycsICctaW1hZScsICc8aW5maWxlLm1hZT4nLCAnLW9tYWUnLCAnPG91dGZpbGUubWFlPic=

> <r_lp_tautomer_probability>
0.999537

> <r_epik_Ionization_Penalty>
0.00263537

> <r_epik_Ionization_Penalty_Charging>
0.00263428

> <r_epik_Ionization_Penalty_Neutral>
1.09111e-06

> <r_epik_State_Penalty>
0.00183335

> <r_epik_Charging_Adjusted_Penalty>
0.00446763

> <i_epik_Tot_Q>
0

> <i_epik_Tot_abs_Q>
0

> <r_epik_Metal_State_Penalty>
1.00528

> <b_epik_Metal_Only>
0

> <s_epik_Chemistry_Notes>
This compound has an ester and may undergo hydrolysis at high or low pH. This compound contains an acetal/aminal-like group ( X-CH(R)-Y where X, Y are N, S, or O) that may be acid/base labile, releasing an aldehyde.

> <s_lp_Force_Field>
OPLS_2005

> <r_lp_Energy>
40.9352

> <b_lp_Chiralities_Consistent>
1

> <s_lp_Variant>
AV-unprocessed.smi:101-13

> <Gold.Version>
5.8.1

> <Gold.Id.Protein>
6NUR|6NUR_protein|mol2

> <Gold.PLP.Fitness>
47.5344

> <Gold.PLP.PLP>
-42.6792

> <Gold.PLP.part.hbond>
-3.4058

> <Gold.PLP.part.metal>
0.0000

> <Gold.PLP.part.buried>
-5.5386

> <Gold.PLP.part.nonpolar>
-36.5323

> <Gold.PLP.part.repulsive>
1.5060

> <Gold.PLP.ligand.clash>
0.0000

> <Gold.PLP.ligand.torsion>
1.1945

> <Gold.PLP.Chemscore.Hbond>
2.3680

> <Gold.PLP.Chemscore.CHOScore>
0.0000

> <Gold.PLP.Chemscore.Metal>
0.0000

> <Gold.Chemscore.Hbonds>
donor molecule, donor type, donor heavy atom, donor atom, acceptor molecule, acceptor atom, score
      L1  H    19    42       P1  8028  0.85
      L1  H    24    27       P1 10171  0.48
      P1  H  7954  7966       L1    23  0.91

> <Gold.PLP.Chemscore.Internal.Correction>
0.1402

> <Gold.Rescore>
     Score         DG    S(hbond)    S(metal)    S(lipo)     H(rot)  DE(clash)    DE(int)     intcor
     10.76     -15.92       2.21        0.00      98.70       3.32       1.56       3.59       ----

> <Gold.Chemscore.Fitness>
10.7613

> <Gold.Chemscore.DG>
-15.9167

> <Gold.Chemscore.ZeroCoef>
-5.4800

> <Gold.Chemscore.Hbond>
2.2097

> <Gold.Chemscore.Metal>
0.0000

> <Gold.Chemscore.Lipo>
98.7026

> <Gold.Chemscore.Internal_Hbond>
0.0000

> <Gold.Chemscore.DEClash>
1.5638

> <Gold.Chemscore.DEInternal>
3.5916

> <Gold.Chemscore.Rot>
3.3172

> <Gold.Chemscore.Internal.Correction>
   9.000000E+99

> <Gold.Chemscore.Hbonds>
donor molecule, donor type, donor heavy atom, donor atom, acceptor molecule, acceptor atom, score
      L1  H    19    42       P1  8028  0.85
      L1  H    24    27       P1 10171  0.47
      P1  H  7954  7966       L1    23  0.88

> <Gold.Chemscore.Hbond.Weighted>
-7.3805

> <Gold.Chemscore.Metal.Weighted>
-0.0000

> <Gold.Chemscore.Lipo.Weighted>
-11.5482

> <Gold.Chemscore.Internal_Hbond.Weighted>
0.0000

> <Gold.Chemscore.DEClash.Weighted>
1.5638

> <Gold.Chemscore.DEInternal.Weighted>
3.5916

> <Gold.Chemscore.Rot.Weighted>
8.4920

> <Gold.Chemscore.Internal.Correction.Weighted>
   9.000000E+99

> <Gold.Protein.RotatedTorsions>
[ 6907 6896 6895 6894 ] final  -50.16 input  -60.11 | X-H torsion
[ 7974 7965 7964 7962 ] final -163.75 input  175.53 | X-H torsion
[ 8008 7997 7996 7995 ] final -121.84 input   59.86 | X-H torsion
[ 10167 10162 10161 10158 ] final   88.27 input  -65.29 | X-H torsion
[ 10718 10713 10712 10709 ] final    1.23 input   66.30 | X-H torsion
[ 10763 10752 10751 10750 ] final -149.54 input  -60.55 | X-H torsion
[ 11005 11000 10999 10996 ] final -125.66 input  -57.11 | X-H torsion

> <Gold.Protein.ActiveResidues>
 VAL166  LYS551  ARG553  GLY616  TRP617  ASP618  TYR619  PRO620  LYS621  CYS622 
 ASP623  PHE694  ASN695  SER759  ASP760  ASP761  ALA762  ILE779  LEU786  VAL792 
 PHE793  MET794  SER795  GLU796  ALA797  LYS798  CYS799  TRP800  GLU811  SER814 

> <Gold.Protein.RotatedAtoms>
  150.8734  134.8112  159.7171 H   0  0  0  0  0  0  0  0  0  0  0  0  # atno 6907 bound_to 6896
  152.4730  134.4911  159.9705 H   0  0  0  0  0  0  0  0  0  0  0  0  # atno 6908 bound_to 6896
  151.4996  133.3469  159.2902 H   0  0  0  0  0  0  0  0  0  0  0  0  # atno 6909 bound_to 6896
  144.7317  140.3061  143.6196 H   0  0  0  0  0  0  0  0  0  0  0  0  # atno 7974 bound_to 7965
  155.1545  140.0404  157.2828 H   0  0  0  0  0  0  0  0  0  0  0  0  # atno 8008 bound_to 7997
  154.6381  140.2540  155.7328 H   0  0  0  0  0  0  0  0  0  0  0  0  # atno 8009 bound_to 7997
  156.2518  140.2861  156.0762 H   0  0  0  0  0  0  0  0  0  0  0  0  # atno 8010 bound_to 7997
  139.8690  144.6503  150.8971 H   0  0  0  0  0  0  0  0  0  0  0  0  # atno 10167 bound_to 10162
  156.8452  130.5534  149.5674 H   0  0  0  0  0  0  0  0  0  0  0  0  # atno 10718 bound_to 10713
  154.8171  135.3306  154.7144 H   0  0  0  0  0  0  0  0  0  0  0  0  # atno 10763 bound_to 10752
  153.7783  135.6920  153.4897 H   0  0  0  0  0  0  0  0  0  0  0  0  # atno 10764 bound_to 10752
  153.1997  135.4520  155.0200 H   0  0  0  0  0  0  0  0  0  0  0  0  # atno 10765 bound_to 10752
  140.9744  134.0761  157.3834 H   0  0  0  0  0  0  0  0  0  0  0  0  # atno 11005 bound_to 11000
  145.7711  139.1858  143.2211 LP  0  0  0  0  0  0  0  0  0  0  0  0  # atno 17320 bound_to 7965
  146.0910  140.7656  142.9595 LP  0  0  0  0  0  0  0  0  0  0  0  0  # atno 17321 bound_to 7965
  140.7764  143.3680  151.1702 LP  0  0  0  0  0  0  0  0  0  0  0  0  # atno 17342 bound_to 10162
  139.7302  143.9084  152.3017 LP  0  0  0  0  0  0  0  0  0  0  0  0  # atno 17343 bound_to 10162
  156.0859  130.5857  150.9646 LP  0  0  0  0  0  0  0  0  0  0  0  0  # atno 17370 bound_to 10713
  157.6334  131.0918  150.8397 LP  0  0  0  0  0  0  0  0  0  0  0  0  # atno 17371 bound_to 10713
  139.8925  135.0125  156.6847 LP  0  0  0  0  0  0  0  0  0  0  0  0  # atno 17394 bound_to 11000
  140.7281  133.9083  155.8192 LP  0  0  0  0  0  0  0  0  0  0  0  0  # atno 17395 bound_to 11000

$$$$
