#       Name:                AV-unprocessed.smi:2706
#       Creating user name   scv26
#       Creation time:       Fri Mar 27 14:49:01 2020


#       File generated by GOLD software.
#

@<TRIPOS>MOLECULE
AV-unprocessed.smi:2706
    46    49     1
SMALL
NO_CHARGES


@<TRIPOS>ATOM
      1 ****        -4.5003  -0.4865  -2.4162 C.3            1 S1                 0.0000
      2 ****        -3.7457  -0.0431  -3.5844 N.pl3          1 S1                 0.0000
      3 ****        -4.4316   0.1844  -4.8500 C.3            1 S1                 0.0000
      4 ****        -2.3618   0.2192  -3.4670 C.ar           1 S1                 0.0000
      5 ****        -1.5912   0.6480  -4.5745 C.ar           1 S1                 0.0000
      6 ****        -0.2184   0.8941  -4.3933 C.ar           1 S1                 0.0000
      7 ****         0.3465   0.7068  -3.1190 C.ar           1 S1                 0.0000
      8 ****        -0.4772   0.2762  -2.0579 C.ar           1 S1                 0.0000
      9 ****         0.1784   0.1148  -0.8084 N.am           1 S1                 0.0000
     10 ****        -0.3493  -0.2948   0.3589 C.2            1 S1                 0.0000
     11 ****        -1.5247  -0.6179   0.5349 O.2            1 S1                 0.0000
     12 ****         0.5772  -0.3100   1.3266 N.am           1 S1                 0.0000
     13 ****         0.3629  -0.6985   2.6834 C.3            1 S1                 0.0000
     14 ****         0.9908   0.0668   3.8342 C.3            1 S1                 0.0000
     15 ****         2.3013   0.8572   3.9220 C.3            1 S1                 0.0000
     16 ****         2.9865   1.0566   2.5550 C.3            1 S1                 0.0000
     17 ****         3.4714  -0.3703   2.2173 C.3            1 S1                 0.0000
     18 ****         2.9921  -1.1796   3.4393 C.3            1 S1                 0.0000
     19 ****         3.2363  -0.1681   4.5536 C.3            1 S1                 0.0000
     20 ****         1.4688  -1.3441   3.4991 C.3            1 S1                 0.0000
     21 ****        -1.7984   0.0431  -2.2473 N.ar           1 S1                 0.0000
     22 ****        -4.0802  -1.4094  -2.0148 H              1 S1                 0.0000
     23 ****        -5.5442  -0.6773  -2.6646 H              1 S1                 0.0000
     24 ****        -4.4750   0.2735  -1.6346 H              1 S1                 0.0000
     25 ****        -4.0331  -0.4721  -5.6239 H              1 S1                 0.0000
     26 ****        -4.3127   1.2194  -5.1720 H              1 S1                 0.0000
     27 ****        -5.4997  -0.0142  -4.7627 H              1 S1                 0.0000
     28 ****        -2.0227   0.7913  -5.5535 H              1 S1                 0.0000
     29 ****         0.3928   1.2219  -5.2211 H              1 S1                 0.0000
     30 ****         1.3996   0.8922  -2.9636 H              1 S1                 0.0000
     31 ****         1.1622   0.3394  -0.8027 H              1 S1                 0.0000
     32 ****         1.5160  -0.0276   1.0857 H              1 S1                 0.0000
     33 ****        -0.6304  -1.0916   2.8959 H              1 S1                 0.0000
     34 ****         0.3763   0.1558   4.7284 H              1 S1                 0.0000
     35 ****         2.1844   1.7772   4.4955 H              1 S1                 0.0000
     36 ****         2.3281   1.4932   1.8052 H              1 S1                 0.0000
     37 ****         3.8404   1.7280   2.6541 H              1 S1                 0.0000
     38 ****         3.0941  -0.7575   1.2717 H              1 S1                 0.0000
     39 ****         4.5601  -0.3903   2.1544 H              1 S1                 0.0000
     40 ****         3.5098  -2.1302   3.5698 H              1 S1                 0.0000
     41 ****         4.2732   0.1656   4.6287 H              1 S1                 0.0000
     42 ****         2.9003  -0.5144   5.5329 H              1 S1                 0.0000
     43 ****         1.1490  -2.1257   4.1861 H              1 S1                 0.0000
     44 ****        -2.1713  -0.5869  -0.2273 LP             1 S1                 0.0000
     45 ****        -1.8325  -0.9113   1.4400 LP             1 S1                 0.0000
     46 ****        -2.3628  -0.2617  -1.4801 LP             1 S1                 0.0000
@<TRIPOS>BOND
    1    1    2 1     
    2    1   22 1     
    3    1   23 1     
    4    1   24 1     
    5    2    3 1     
    6    2    4 1     
    7    3   25 1     
    8    3   26 1     
    9    3   27 1     
   10    4   21 ar    
   11    4    5 ar    
   12    5    6 ar    
   13    5   28 1     
   14    6    7 ar    
   15    6   29 1     
   16    7    8 ar    
   17    7   30 1     
   18    8    9 1     
   19    8   21 ar    
   20    9   10 am    
   21    9   31 1     
   22   10   11 2     
   23   10   12 am    
   24   12   13 1     
   25   12   32 1     
   26   13   20 1     
   27   13   14 1     
   28   13   33 1     
   29   14   20 1     
   30   14   15 1     
   31   14   34 1     
   32   15   19 1     
   33   15   16 1     
   34   15   35 1     
   35   16   17 1     
   36   16   36 1     
   37   16   37 1     
   38   17   18 1     
   39   17   38 1     
   40   17   39 1     
   41   18   19 1     
   42   18   20 1     
   43   18   40 1     
   44   19   41 1     
   45   19   42 1     
   46   20   43 1     
   47   11   44 1     
   48   11   45 1     
   49   21   46 1     
@<TRIPOS>SUBSTRUCTURE
      1 S1             1
@<TRIPOS>SET
LONE_PAIRS      STATIC     ATOMS    <user>   **** ""
3 44 45 46
DONOR_HYDROGENS      STATIC     ATOMS    <user>   **** ""
2 31 32
ATOM$BLUE        STATIC     ATOMS    COLORGROUP SYSTEM
3 44 45 46
ATOM$RED        STATIC     ATOMS    COLORGROUP SYSTEM
2 31 32
