AV-unprocessed.smi:1426|AV-procd|sdf|5808|dock1
  -GOLD-   22720 5463D 1   1.00000     0.00000
 Structure written by MMmdl.
 44 46  0  0  0  0  0  0  0  0  2 V2000
  149.7665  134.5072  155.9207 O   0  0  0  0  0  0  0  0  0  0  0  0
  149.4505  134.9762  154.8274 C   0  0  0  0  0  0  0  0  0  0  0  0
  149.4700  136.2870  154.5487 N   0  0  0  0  0  0  0  0  0  0  0  0
  149.8573  137.3359  155.4862 C   0  0  0  0  0  0  0  0  0  0  0  0
  151.3503  137.6958  155.3641 C   0  0  1  0  0  0  0  0  0  0  0  0
  151.7672  138.1277  153.9736 C   0  0  0  0  0  0  0  0  0  0  0  0
  153.0855  138.8432  154.2513 C   0  0  0  0  0  0  0  0  0  0  0  0
  152.9430  139.4288  155.5422 O   0  0  0  0  0  0  0  0  0  0  0  0
  151.7889  138.9047  156.1932 C   0  0  0  0  0  0  0  0  0  0  0  0
  149.0235  134.2600  153.7740 N   0  0  0  0  0  0  0  0  0  0  0  0
  148.8519  132.8491  153.6846 C   0  0  0  0  0  0  0  0  0  0  0  0
  149.6927  131.9593  154.4020 C   0  0  0  0  0  0  0  0  0  0  0  0
  149.4885  130.5698  154.3095 C   0  0  0  0  0  0  0  0  0  0  0  0
  148.4483  130.0882  153.4970 C   0  0  0  0  0  0  0  0  0  0  0  0
  147.6787  130.9582  152.8111 N   0  3  0  0  0  0  0  0  0  0  0  0
  147.8345  132.3056  152.8470 C   0  0  0  0  0  0  0  0  0  0  0  0
  146.9596  133.0910  152.0621 N   0  0  0  0  0  0  0  0  0  0  0  0
  146.2283  134.2023  152.6594 C   0  0  0  0  0  0  0  0  0  0  0  0
  145.1528  134.5629  151.6385 C   0  0  0  0  0  0  0  0  0  0  0  0
  144.7894  133.2016  151.0534 C   0  0  0  0  0  0  0  0  0  0  0  0
  146.1167  132.4356  151.0669 C   0  0  0  0  0  0  0  0  0  0  0  0
  149.1928  136.5849  153.6247 H   0  0  0  0  0  0  0  0  0  0  0  0
  149.2407  138.2227  155.3295 H   0  0  0  0  0  0  0  0  0  0  0  0
  149.6375  136.9843  156.4945 H   0  0  0  0  0  0  0  0  0  0  0  0
  151.9592  136.8363  155.6502 H   0  0  0  0  0  0  0  0  0  0  0  0
  151.8753  137.2938  153.2794 H   0  0  0  0  0  0  0  0  0  0  0  0
  151.0426  138.8286  153.5565 H   0  0  0  0  0  0  0  0  0  0  0  0
  153.9069  138.1264  154.2848 H   0  0  0  0  0  0  0  0  0  0  0  0
  153.3208  139.5928  153.4955 H   0  0  0  0  0  0  0  0  0  0  0  0
  151.0169  139.6754  156.1925 H   0  0  0  0  0  0  0  0  0  0  0  0
  152.0027  138.6430  157.2300 H   0  0  0  0  0  0  0  0  0  0  0  0
  148.6972  134.7906  152.9797 H   0  0  0  0  0  0  0  0  0  0  0  0
  150.4997  132.3223  155.0204 H   0  0  0  0  0  0  0  0  0  0  0  0
  150.1210  129.8850  154.8553 H   0  0  0  0  0  0  0  0  0  0  0  0
  148.2149  129.0412  153.3674 H   0  0  0  0  0  0  0  0  0  0  0  0
  145.7564  133.8920  153.5927 H   0  0  0  0  0  0  0  0  0  0  0  0
  146.8865  135.0460  152.8692 H   0  0  0  0  0  0  0  0  0  0  0  0
  144.3014  135.0804  152.0816 H   0  0  0  0  0  0  0  0  0  0  0  0
  145.5739  135.2021  150.8610 H   0  0  0  0  0  0  0  0  0  0  0  0
  144.0712  132.7040  151.7066 H   0  0  0  0  0  0  0  0  0  0  0  0
  144.3479  133.2684  150.0584 H   0  0  0  0  0  0  0  0  0  0  0  0
  146.6002  132.5130  150.0928 H   0  0  0  0  0  0  0  0  0  0  0  0
  145.9620  131.3789  151.2890 H   0  0  0  0  0  0  0  0  0  0  0  0
  146.9385  130.5769  152.2220 H   0  0  0  0  0  0  0  0  0  0  0  0
  1  2  2  0  0  0  0
  2  3  1  0  0  0  0
  2 10  1  0  0  0  0
  3  4  1  0  0  0  0
  3 22  1  0  0  0  0
  4  5  1  0  0  0  0
  4 23  1  0  0  0  0
  4 24  1  0  0  0  0
  5  9  1  0  0  0  0
  5  6  1  0  0  0  0
  5 25  1  0  0  0  0
  6  7  1  0  0  0  0
  6 26  1  0  0  0  0
  6 27  1  0  0  0  0
  7  8  1  0  0  0  0
  7 28  1  0  0  0  0
  7 29  1  0  0  0  0
  8  9  1  0  0  0  0
  9 30  1  0  0  0  0
  9 31  1  0  0  0  0
 10 11  1  0  0  0  0
 10 32  1  0  0  0  0
 11 16  1  0  0  0  0
 11 12  2  0  0  0  0
 12 13  1  0  0  0  0
 12 33  1  0  0  0  0
 13 14  2  0  0  0  0
 13 34  1  0  0  0  0
 14 15  1  0  0  0  0
 14 35  1  0  0  0  0
 15 16  2  0  0  0  0
 15 44  1  0  0  0  0
 16 17  1  0  0  0  0
 17 21  1  0  0  0  0
 17 18  1  0  0  0  0
 18 19  1  0  0  0  0
 18 36  1  0  0  0  0
 18 37  1  0  0  0  0
 19 20  1  0  0  0  0
 19 38  1  0  0  0  0
 19 39  1  0  0  0  0
 20 21  1  0  0  0  0
 20 40  1  0  0  0  0
 20 41  1  0  0  0  0
 21 42  1  0  0  0  0
 21 43  1  0  0  0  0
M  CHG  1  15   1
M  END
> <s_m_source_file>
AV-unprocessed.smi

> <i_m_source_file_index>
1426

> <i_lp_mmshare_version>
43012

> <i_f3d_flags>
0

> <s_epik_input>
W0NIMl0xT1tDSDJdW0NIMl1bQ0BIXTFbQ0gyXVtOSF1DKD1PKVtOSF1jMltjSF1bY0hdW2NIXW5jMk4zW0NIMl1bQ0gyXVtDSDJdW0NIMl0z

> <s_epik_cmdline>
J2VwaWtfcHl0aG9uJywgJy1waCcsICc3LjAnLCAnLXRuJywgJzgnLCAnLW1hJywgJzIwMCcsICctbWV0YWxfYmluZGluZycsICctaW1hZScsICc8aW5maWxlLm1hZT4nLCAnLW9tYWUnLCAnPG91dGZpbGUubWFlPic=

> <r_lp_tautomer_probability>
0.999994

> <r_epik_Ionization_Penalty>
1.10677

> <r_epik_Ionization_Penalty_Charging>
1.10675

> <r_epik_Ionization_Penalty_Neutral>
2.02663e-05

> <r_epik_State_Penalty>
1.16438

> <r_epik_Charging_Adjusted_Penalty>
2.27113

> <i_epik_Tot_Q>
1

> <i_epik_Tot_abs_Q>
1

> <r_epik_Metal_State_Penalty>
1.25078

> <b_epik_Metal_Only>
0

> <s_lp_Force_Field>
OPLS_2005

> <r_lp_Energy>
54.362

> <b_lp_Chiralities_Consistent>
1

> <s_lp_Variant>
AV-unprocessed.smi:1426-4

> <Gold.Version>
5.8.1

> <Gold.Id.Protein>
6NUR|6NUR_protein|mol2

> <Gold.PLP.Fitness>
44.5667

> <Gold.PLP.PLP>
-36.3678

> <Gold.PLP.part.hbond>
-4.0000

> <Gold.PLP.part.metal>
0.0000

> <Gold.PLP.part.buried>
-5.3293

> <Gold.PLP.part.nonpolar>
-27.9338

> <Gold.PLP.part.repulsive>
0.2031

> <Gold.PLP.ligand.clash>
0.0000

> <Gold.PLP.ligand.torsion>
0.5982

> <Gold.PLP.Chemscore.Hbond>
3.0000

> <Gold.PLP.Chemscore.CHOScore>
0.0000

> <Gold.PLP.Chemscore.Metal>
0.0000

> <Gold.Chemscore.Hbonds>
donor molecule, donor type, donor heavy atom, donor atom, acceptor molecule, acceptor atom, score
      L1  H     3    22       P1  7948  0.99
      L1  H    10    32       P1  7948  0.94
      P1  H  7997  8009       L1     8  1.00

> <Gold.PLP.Chemscore.Internal.Correction>
0.3953

> <Gold.Rescore>
     Score         DG    S(hbond)    S(metal)    S(lipo)     H(rot)  DE(clash)    DE(int)     intcor
     17.11     -19.01       2.39        0.00      78.15       1.40       0.02       1.89       ----

> <Gold.Chemscore.Fitness>
17.1114

> <Gold.Chemscore.DG>
-19.0148

> <Gold.Chemscore.ZeroCoef>
-5.4800

> <Gold.Chemscore.Hbond>
2.3895

> <Gold.Chemscore.Metal>
0.0000

> <Gold.Chemscore.Lipo>
78.1502

> <Gold.Chemscore.Internal_Hbond>
0.0000

> <Gold.Chemscore.DEClash>
0.0152

> <Gold.Chemscore.DEInternal>
1.8882

> <Gold.Chemscore.Rot>
1.4023

> <Gold.Chemscore.Internal.Correction>
   9.000000E+99

> <Gold.Chemscore.Hbonds>
donor molecule, donor type, donor heavy atom, donor atom, acceptor molecule, acceptor atom, score
      L1  H     3    22       P1  7948  0.92
      L1  H    10    32       P1  7948  0.23
      P1  H  7997  8009       L1     8  0.88

> <Gold.Chemscore.Hbond.Weighted>
-7.9810

> <Gold.Chemscore.Metal.Weighted>
-0.0000

> <Gold.Chemscore.Lipo.Weighted>
-9.1436

> <Gold.Chemscore.Internal_Hbond.Weighted>
0.0000

> <Gold.Chemscore.DEClash.Weighted>
0.0152

> <Gold.Chemscore.DEInternal.Weighted>
1.8882

> <Gold.Chemscore.Rot.Weighted>
3.5898

> <Gold.Chemscore.Internal.Correction.Weighted>
   9.000000E+99

> <Gold.Protein.RotatedTorsions>
[ 6907 6896 6895 6894 ] final -144.17 input  -60.11 | X-H torsion
[ 7974 7965 7964 7962 ] final  126.28 input  175.53 | X-H torsion
[ 8008 7997 7996 7995 ] final -151.22 input   59.86 | X-H torsion
[ 10167 10162 10161 10158 ] final  -64.31 input  -65.29 | X-H torsion
[ 10718 10713 10712 10709 ] final   59.07 input   66.30 | X-H torsion
[ 10763 10752 10751 10750 ] final  -82.33 input  -60.55 | X-H torsion
[ 11005 11000 10999 10996 ] final  129.84 input  -57.11 | X-H torsion

> <Gold.Protein.ActiveResidues>
 VAL166  LYS551  ARG553  GLY616  TRP617  ASP618  TYR619  PRO620  LYS621  CYS622 
 ASP623  PHE694  ASN695  SER759  ASP760  ASP761  ALA762  ILE779  LEU786  VAL792 
 PHE793  MET794  SER795  GLU796  ALA797  LYS798  CYS799  TRP800  GLU811  SER814 

> <Gold.Protein.RotatedAtoms>
  151.1104  133.5177  159.2605 H   0  0  0  0  0  0  0  0  0  0  0  0  # atno 6907 bound_to 6896
  151.1973  135.0427  159.8867 H   0  0  0  0  0  0  0  0  0  0  0  0  # atno 6908 bound_to 6896
  152.5449  134.0937  159.8341 H   0  0  0  0  0  0  0  0  0  0  0  0  # atno 6909 bound_to 6896
  145.0635  139.3786  143.4993 H   0  0  0  0  0  0  0  0  0  0  0  0  # atno 7974 bound_to 7965
  155.6359  140.0696  157.2634 H   0  0  0  0  0  0  0  0  0  0  0  0  # atno 8008 bound_to 7997
  154.4195  140.1759  156.1571 H   0  0  0  0  0  0  0  0  0  0  0  0  # atno 8009 bound_to 7997
  155.9895  140.3346  155.6742 H   0  0  0  0  0  0  0  0  0  0  0  0  # atno 8010 bound_to 7997
  140.5810  143.2327  151.6343 H   0  0  0  0  0  0  0  0  0  0  0  0  # atno 10167 bound_to 10162
  157.5647  130.8862  149.9167 H   0  0  0  0  0  0  0  0  0  0  0  0  # atno 10718 bound_to 10713
  154.5744  135.5595  153.7126 H   0  0  0  0  0  0  0  0  0  0  0  0  # atno 10763 bound_to 10752
  153.0059  135.6305  154.2069 H   0  0  0  0  0  0  0  0  0  0  0  0  # atno 10764 bound_to 10752
  154.2009  135.2878  155.2971 H   0  0  0  0  0  0  0  0  0  0  0  0  # atno 10765 bound_to 10752
  139.9638  134.9596  156.9206 H   0  0  0  0  0  0  0  0  0  0  0  0  # atno 11005 bound_to 11000
  146.3525  140.0345  142.8648 LP  0  0  0  0  0  0  0  0  0  0  0  0  # atno 17320 bound_to 7965
  145.1379  140.9555  143.4506 LP  0  0  0  0  0  0  0  0  0  0  0  0  # atno 17321 bound_to 7965
  139.5169  144.3331  152.0809 LP  0  0  0  0  0  0  0  0  0  0  0  0  # atno 17342 bound_to 10162
  140.2481  144.4198  150.6233 LP  0  0  0  0  0  0  0  0  0  0  0  0  # atno 17343 bound_to 10162
  156.0696  130.3687  150.0804 LP  0  0  0  0  0  0  0  0  0  0  0  0  # atno 17370 bound_to 10713
  156.8964  130.9606  151.3582 LP  0  0  0  0  0  0  0  0  0  0  0  0  # atno 17371 bound_to 10713
  140.5442  134.0690  155.7350 LP  0  0  0  0  0  0  0  0  0  0  0  0  # atno 17394 bound_to 11000
  141.1317  133.9291  157.2522 LP  0  0  0  0  0  0  0  0  0  0  0  0  # atno 17395 bound_to 11000

$$$$
