AV-unprocessed.smi:81|AV-procd|sdf|791|dock7
  -GOLD-   2262017163D 1   1.00000     0.00000
 Structure written by MMmdl.
 64 67  0  0  0  0  0  0  0  0  2 V2000
  148.0347  132.2563  161.3344 C   0  0  0  0  0  0  0  0  0  0  0  0
  147.4434  132.7763  160.0139 C   0  0  0  0  0  0  0  0  0  0  0  0
  148.5705  132.9710  158.9883 C   0  0  0  0  0  0  0  0  0  0  0  0
  146.6471  134.0956  160.1771 C   0  0  0  0  0  0  0  0  0  0  0  0
  147.4065  135.2390  160.7038 N   0  0  0  0  0  0  0  0  0  0  0  0
  147.5167  136.2325  159.7876 C   0  0  0  0  0  0  0  0  0  0  0  0
  146.4149  136.6681  159.1210 N   0  0  0  0  0  0  0  0  0  0  0  0
  146.5273  137.6334  158.2035 C   0  0  0  0  0  0  0  0  0  0  0  0
  147.6235  138.2830  157.8056 N   0  0  0  0  0  0  0  0  0  0  0  0
  148.7301  137.8459  158.4728 C   0  0  0  0  0  0  0  0  0  0  0  0
  148.7633  136.8356  159.4731 C   0  0  0  0  0  0  0  0  0  0  0  0
  150.0604  136.6660  159.9395 N   0  0  0  0  0  0  0  0  0  0  0  0
  150.7592  137.5205  159.2430 C   0  0  0  0  0  0  0  0  0  0  0  0
  150.0424  138.2616  158.3297 N   0  0  0  0  0  0  0  0  0  0  0  0
  150.5693  139.2660  157.4185 C   0  0  0  0  0  0  0  0  0  0  0  0
  151.7278  138.7452  156.5324 C   0  0  2  0  0  0  0  0  0  0  0  0
  152.9535  139.1313  157.1318 O   0  0  0  0  0  0  0  0  0  0  0  0
  151.6821  139.3335  155.1183 C   0  0  0  0  0  0  0  0  0  0  0  0
  151.3279  138.1442  154.2336 C   0  0  0  0  0  0  0  0  0  0  0  0
  151.9473  137.0594  154.9008 O   0  0  0  0  0  0  0  0  0  0  0  0
  151.6727  137.2146  156.2852 C   0  0  1  0  0  0  0  0  0  0  0  0
  152.6091  136.3317  157.1267 C   0  0  0  0  0  0  0  0  0  0  0  0
  147.3770  135.6237  162.1281 C   0  0  2  0  0  0  0  0  0  0  0  0
  146.5434  134.6509  163.0021 C   0  0  0  0  0  0  0  0  0  0  0  0
  145.0455  134.7096  162.6511 C   0  0  0  0  0  0  0  0  0  0  0  0
  144.5156  136.0869  162.8053 N   0  3  2  0  0  0  0  0  0  0  0  0
  143.0610  136.1607  162.5521 C   0  0  0  0  0  0  0  0  0  0  0  0
  145.2793  137.0775  162.0067 C   0  0  0  0  0  0  0  0  0  0  0  0
  146.7790  137.0310  162.3545 C   0  0  0  0  0  0  0  0  0  0  0  0
  148.6821  133.0007  161.7981 H   0  0  0  0  0  0  0  0  0  0  0  0
  148.6324  131.3600  161.1671 H   0  0  0  0  0  0  0  0  0  0  0  0
  147.2637  131.9883  162.0528 H   0  0  0  0  0  0  0  0  0  0  0  0
  146.7883  132.0051  159.6094 H   0  0  0  0  0  0  0  0  0  0  0  0
  149.2802  133.7307  159.3172 H   0  0  0  0  0  0  0  0  0  0  0  0
  148.1734  133.2828  158.0218 H   0  0  0  0  0  0  0  0  0  0  0  0
  149.1235  132.0449  158.8280 H   0  0  0  0  0  0  0  0  0  0  0  0
  146.1665  134.3613  159.2369 H   0  0  0  0  0  0  0  0  0  0  0  0
  145.8139  133.9148  160.8574 H   0  0  0  0  0  0  0  0  0  0  0  0
  145.6083  137.9254  157.7169 H   0  0  0  0  0  0  0  0  0  0  0  0
  151.8269  137.6283  159.3695 H   0  0  0  0  0  0  0  0  0  0  0  0
  149.7509  139.6231  156.7920 H   0  0  0  0  0  0  0  0  0  0  0  0
  150.8970  140.1236  158.0078 H   0  0  0  0  0  0  0  0  0  0  0  0
  152.8631  139.0552  158.0694 H   0  0  0  0  0  0  0  0  0  0  0  0
  150.9684  140.1511  155.0104 H   0  0  0  0  0  0  0  0  0  0  0  0
  152.6592  139.7166  154.8193 H   0  0  0  0  0  0  0  0  0  0  0  0
  150.2484  137.9886  154.1992 H   0  0  0  0  0  0  0  0  0  0  0  0
  151.6945  138.2539  153.2129 H   0  0  0  0  0  0  0  0  0  0  0  0
  150.6497  136.8643  156.4271 H   0  0  0  0  0  0  0  0  0  0  0  0
  152.4224  136.4616  158.1928 H   0  0  0  0  0  0  0  0  0  0  0  0
  153.6578  136.5604  156.9364 H   0  0  0  0  0  0  0  0  0  0  0  0
  152.4566  135.2784  156.8923 H   0  0  0  0  0  0  0  0  0  0  0  0
  148.4015  135.6101  162.4985 H   0  0  0  0  0  0  0  0  0  0  0  0
  146.9003  133.6242  162.9287 H   0  0  0  0  0  0  0  0  0  0  0  0
  146.6704  134.9191  164.0519 H   0  0  0  0  0  0  0  0  0  0  0  0
  144.8798  134.3634  161.6296 H   0  0  0  0  0  0  0  0  0  0  0  0
  144.4929  134.0344  163.3054 H   0  0  0  0  0  0  0  0  0  0  0  0
  142.8299  135.8986  161.5188 H   0  0  0  0  0  0  0  0  0  0  0  0
  142.6879  137.1676  162.7421 H   0  0  0  0  0  0  0  0  0  0  0  0
  142.5210  135.4771  163.2078 H   0  0  0  0  0  0  0  0  0  0  0  0
  145.1280  136.8866  160.9430 H   0  0  0  0  0  0  0  0  0  0  0  0
  144.8918  138.0775  162.2051 H   0  0  0  0  0  0  0  0  0  0  0  0
  146.9064  137.3063  163.4023 H   0  0  0  0  0  0  0  0  0  0  0  0
  147.3202  137.7925  161.7952 H   0  0  0  0  0  0  0  0  0  0  0  0
  144.6510  136.3371  163.7745 H   0  0  0  0  0  0  0  0  0  0  0  0
  1  2  1  0  0  0  0
  1 30  1  0  0  0  0
  1 31  1  0  0  0  0
  1 32  1  0  0  0  0
  2  3  1  0  0  0  0
  2  4  1  0  0  0  0
  2 33  1  0  0  0  0
  3 34  1  0  0  0  0
  3 35  1  0  0  0  0
  3 36  1  0  0  0  0
  4  5  1  0  0  0  0
  4 37  1  0  0  0  0
  4 38  1  0  0  0  0
  5  6  1  0  0  0  0
  5 23  1  0  0  0  0
  6 11  1  0  0  0  0
  6  7  2  0  0  0  0
  7  8  1  0  0  0  0
  8  9  2  0  0  0  0
  8 39  1  0  0  0  0
  9 10  1  0  0  0  0
 10 14  1  0  0  0  0
 10 11  2  0  0  0  0
 11 12  1  0  0  0  0
 12 13  2  0  0  0  0
 13 14  1  0  0  0  0
 13 40  1  0  0  0  0
 14 15  1  0  0  0  0
 15 16  1  0  0  0  0
 15 41  1  0  0  0  0
 15 42  1  0  0  0  0
 16 21  1  0  0  0  0
 16 17  1  0  0  0  0
 16 18  1  0  0  0  0
 17 43  1  0  0  0  0
 18 19  1  0  0  0  0
 18 44  1  0  0  0  0
 18 45  1  0  0  0  0
 19 20  1  0  0  0  0
 19 46  1  0  0  0  0
 19 47  1  0  0  0  0
 20 21  1  0  0  0  0
 21 22  1  0  0  0  0
 21 48  1  0  0  0  0
 22 49  1  0  0  0  0
 22 50  1  0  0  0  0
 22 51  1  0  0  0  0
 23 29  1  0  0  0  0
 23 24  1  0  0  0  0
 23 52  1  0  0  0  0
 24 25  1  0  0  0  0
 24 53  1  0  0  0  0
 24 54  1  0  0  0  0
 25 26  1  0  0  0  0
 25 55  1  0  0  0  0
 25 56  1  0  0  0  0
 26 27  1  0  0  0  0
 26 28  1  0  0  0  0
 26 64  1  0  0  0  0
 27 57  1  0  0  0  0
 27 58  1  0  0  0  0
 27 59  1  0  0  0  0
 28 29  1  0  0  0  0
 28 60  1  0  0  0  0
 28 61  1  0  0  0  0
 29 62  1  0  0  0  0
 29 63  1  0  0  0  0
M  CHG  1  26   1
M  END
> <s_m_source_file>
AV-unprocessed.smi

> <i_m_source_file_index>
81

> <i_lp_mmshare_version>
43012

> <i_f3d_flags>
0

> <s_epik_input>
W0NIMl0xW0NIMl1OKFtDSDNdKVtDSDJdW0NIMl1bQ0hdMU4oW0NIMl1bQ0hdKFtDSDNdKVtDSDNdKWMobltjSF1uMiljKGMyMyluW2NIXW4zW0NIMl1bQ0BAXTQoW09IXSlbQ0gyXVtDSDJdT1tDQEhdNFtDSDNd

> <s_epik_cmdline>
J2VwaWtfcHl0aG9uJywgJy1waCcsICc3LjAnLCAnLXRuJywgJzgnLCAnLW1hJywgJzIwMCcsICctbWV0YWxfYmluZGluZycsICctaW1hZScsICc8aW5maWxlLm1hZT4nLCAnLW9tYWUnLCAnPG91dGZpbGUubWFlPic=

> <r_lp_tautomer_probability>
1

> <r_epik_Ionization_Penalty>
0.00272708

> <r_epik_Ionization_Penalty_Charging>
0.00158983

> <r_epik_Ionization_Penalty_Neutral>
0.00113725

> <r_epik_State_Penalty>
-0

> <r_epik_Charging_Adjusted_Penalty>
0.00158983

> <i_epik_Tot_Q>
1

> <i_epik_Tot_abs_Q>
1

> <r_epik_Metal_State_Penalty>
-0

> <b_epik_Metal_Only>
0

> <s_lp_Force_Field>
OPLS_2005

> <r_lp_Energy>
49.6566

> <b_lp_Chiralities_Consistent>
1

> <s_lp_Variant>
AV-unprocessed.smi:81-6

> <Gold.Version>
5.8.1

> <Gold.Id.Protein>
6NUR|6NUR_protein|mol2

> <Gold.PLP.Fitness>
47.0045

> <Gold.PLP.PLP>
-41.6361

> <Gold.PLP.part.hbond>
-3.1465

> <Gold.PLP.part.metal>
0.0000

> <Gold.PLP.part.buried>
-2.7396

> <Gold.PLP.part.nonpolar>
-35.6682

> <Gold.PLP.part.repulsive>
0.2343

> <Gold.PLP.ligand.clash>
0.0000

> <Gold.PLP.ligand.torsion>
2.4809

> <Gold.PLP.Chemscore.Hbond>
3.0000

> <Gold.PLP.Chemscore.CHOScore>
0.0000

> <Gold.PLP.Chemscore.Metal>
0.0000

> <Gold.Chemscore.Hbonds>
donor molecule, donor type, donor heavy atom, donor atom, acceptor molecule, acceptor atom, score
      P1  H  6896  6908       L1    12  1.00
      P1  H  7997  8008       L1    17  1.00
      P1  H 10752 10763       L1    20  0.98

> <Gold.PLP.Chemscore.Internal.Correction>
1.3302

> <Gold.Rescore>
     Score         DG    S(hbond)    S(metal)    S(lipo)     H(rot)  DE(clash)    DE(int)     intcor
     14.83     -18.21       2.14        0.00      98.39       2.32       0.23       3.14       ----

> <Gold.Chemscore.Fitness>
14.8306

> <Gold.Chemscore.DG>
-18.2094

> <Gold.Chemscore.ZeroCoef>
-5.4800

> <Gold.Chemscore.Hbond>
2.1401

> <Gold.Chemscore.Metal>
0.0000

> <Gold.Chemscore.Lipo>
98.3867

> <Gold.Chemscore.Internal_Hbond>
0.0000

> <Gold.Chemscore.DEClash>
0.2343

> <Gold.Chemscore.DEInternal>
3.1446

> <Gold.Chemscore.Rot>
2.3163

> <Gold.Chemscore.Internal.Correction>
   9.000000E+99

> <Gold.Chemscore.Hbonds>
donor molecule, donor type, donor heavy atom, donor atom, acceptor molecule, acceptor atom, score
      P1  H  6896  6908       L1    12  0.55
      P1  H  7997  8008       L1    17  0.39
      P1  H 10752 10763       L1    20  0.85

> <Gold.Chemscore.Hbond.Weighted>
-7.1479

> <Gold.Chemscore.Metal.Weighted>
-0.0000

> <Gold.Chemscore.Lipo.Weighted>
-11.5112

> <Gold.Chemscore.Internal_Hbond.Weighted>
0.0000

> <Gold.Chemscore.DEClash.Weighted>
0.2343

> <Gold.Chemscore.DEInternal.Weighted>
3.1446

> <Gold.Chemscore.Rot.Weighted>
5.9297

> <Gold.Chemscore.Internal.Correction.Weighted>
   9.000000E+99

> <Gold.Protein.RotatedTorsions>
[ 6907 6896 6895 6894 ] final -156.84 input  -60.11 | X-H torsion
[ 7974 7965 7964 7962 ] final   31.16 input  175.53 | X-H torsion
[ 8008 7997 7996 7995 ] final  -81.84 input   59.86 | X-H torsion
[ 10167 10162 10161 10158 ] final  -95.80 input  -65.29 | X-H torsion
[ 10718 10713 10712 10709 ] final -163.84 input   66.30 | X-H torsion
[ 10763 10752 10751 10750 ] final   52.51 input  -60.55 | X-H torsion
[ 11005 11000 10999 10996 ] final   96.72 input  -57.11 | X-H torsion

> <Gold.Protein.ActiveResidues>
 VAL166  LYS551  ARG553  GLY616  TRP617  ASP618  TYR619  PRO620  LYS621  CYS622 
 ASP623  PHE694  ASN695  SER759  ASP760  ASP761  ALA762  ILE779  LEU786  VAL792 
 PHE793  MET794  SER795  GLU796  ALA797  LYS798  CYS799  TRP800  GLU811  SER814 

> <Gold.Protein.RotatedAtoms>
  151.2937  133.4153  159.2634 H   0  0  0  0  0  0  0  0  0  0  0  0  # atno 6907 bound_to 6896
  151.0255  134.9501  159.8093 H   0  0  0  0  0  0  0  0  0  0  0  0  # atno 6908 bound_to 6896
  152.5334  134.2900  159.9092 H   0  0  0  0  0  0  0  0  0  0  0  0  # atno 6909 bound_to 6896
  146.1567  139.6693  142.9061 H   0  0  0  0  0  0  0  0  0  0  0  0  # atno 7974 bound_to 7965
  154.6025  140.0642  156.9387 H   0  0  0  0  0  0  0  0  0  0  0  0  # atno 8008 bound_to 7997
  155.2108  140.3322  155.4311 H   0  0  0  0  0  0  0  0  0  0  0  0  # atno 8009 bound_to 7997
  156.2327  140.1848  156.7184 H   0  0  0  0  0  0  0  0  0  0  0  0  # atno 8010 bound_to 7997
  140.3004  143.3166  152.0254 H   0  0  0  0  0  0  0  0  0  0  0  0  # atno 10167 bound_to 10162
  156.6304  130.8927  151.2976 H   0  0  0  0  0  0  0  0  0  0  0  0  # atno 10718 bound_to 10713
  152.9789  135.5810  154.4590 H   0  0  0  0  0  0  0  0  0  0  0  0  # atno 10763 bound_to 10752
  154.4168  135.2771  155.2003 H   0  0  0  0  0  0  0  0  0  0  0  0  # atno 10764 bound_to 10752
  154.3769  135.6155  153.5824 H   0  0  0  0  0  0  0  0  0  0  0  0  # atno 10765 bound_to 10752
  139.8780  134.8965  156.4201 H   0  0  0  0  0  0  0  0  0  0  0  0  # atno 11005 bound_to 11000
  145.4690  141.0435  143.2709 LP  0  0  0  0  0  0  0  0  0  0  0  0  # atno 17320 bound_to 7965
  144.7973  139.6209  143.7087 LP  0  0  0  0  0  0  0  0  0  0  0  0  # atno 17321 bound_to 7965
  139.4916  144.6460  151.6777 LP  0  0  0  0  0  0  0  0  0  0  0  0  # atno 17342 bound_to 10162
  140.5656  144.0195  150.6191 LP  0  0  0  0  0  0  0  0  0  0  0  0  # atno 17343 bound_to 10162
  157.7201  130.9548  150.1407 LP  0  0  0  0  0  0  0  0  0  0  0  0  # atno 17370 bound_to 10713
  156.2239  130.3676  149.8523 LP  0  0  0  0  0  0  0  0  0  0  0  0  # atno 17371 bound_to 10713
  140.9140  133.7691  155.9826 LP  0  0  0  0  0  0  0  0  0  0  0  0  # atno 17394 bound_to 11000
  140.8514  134.2949  157.5273 LP  0  0  0  0  0  0  0  0  0  0  0  0  # atno 17395 bound_to 11000

$$$$
