AV-unprocessed.smi:1695|AV-procd|sdf|6797|dock7
  -GOLD-   22720 7563D 1   1.00000     0.00000
 Structure written by MMmdl.
 50 52  0  0  0  0  0  0  0  0  1 V2000
  153.4207  142.2229  161.6545 C   0  0  0  0  0  0  0  0  0  0  0  0
  152.7583  142.0132  160.3043 C   0  0  0  0  0  0  0  0  0  0  0  0
  153.0827  140.8622  159.5514 C   0  0  0  0  0  0  0  0  0  0  0  0
  152.4915  140.6315  158.2900 C   0  0  0  0  0  0  0  0  0  0  0  0
  152.6611  139.5891  157.3949 N   0  0  0  0  0  0  0  0  0  0  0  0
  151.8415  139.9460  156.4102 C   0  0  0  0  0  0  0  0  0  0  0  0
  151.1599  141.0978  156.5622 N   0  0  0  0  0  0  0  0  0  0  0  0
  150.2162  141.6889  155.6303 C   0  0  0  0  0  0  0  0  0  0  0  0
  149.3645  140.6323  154.8992 C   0  0  2  0  0  0  0  0  0  0  0  0
  150.1619  140.0253  153.8998 O   0  0  0  0  0  0  0  0  0  0  0  0
  148.1188  141.2594  154.2377 C   0  0  0  0  0  0  0  0  0  0  0  0
  147.3593  142.1865  155.0782 N   0  0  0  0  0  0  0  0  0  0  0  0
  147.1121  141.6524  156.4201 C   0  0  0  0  0  0  0  0  0  0  0  0
  146.3525  142.6413  157.3212 C   0  0  0  0  0  0  0  0  0  0  0  0
  145.0142  143.0524  156.6750 C   0  0  0  0  0  0  0  0  0  0  0  0
  144.2860  144.1082  157.5176 C   0  0  0  0  0  0  0  0  0  0  0  0
  144.9348  145.2514  157.7533 N   0  0  0  0  0  0  0  0  0  0  0  0
  143.1549  143.8981  157.9516 O   0  0  0  0  0  0  0  0  0  0  0  0
  145.2842  143.5673  155.2477 C   0  0  0  0  0  0  0  0  0  0  0  0
  146.0866  142.5313  154.4434 C   0  0  0  0  0  0  0  0  0  0  0  0
  151.5590  141.5914  157.7988 C   0  0  0  0  0  0  0  0  0  0  0  0
  151.2262  142.7392  158.5394 C   0  0  0  0  0  0  0  0  0  0  0  0
  151.8258  142.9541  159.7979 C   0  0  0  0  0  0  0  0  0  0  0  0
  151.4605  144.1975  160.5891 C   0  0  0  0  0  0  0  0  0  0  0  0
  154.1527  141.4427  161.8645 H   0  0  0  0  0  0  0  0  0  0  0  0
  152.6762  142.2070  162.4506 H   0  0  0  0  0  0  0  0  0  0  0  0
  153.9386  143.1816  161.6831 H   0  0  0  0  0  0  0  0  0  0  0  0
  153.7912  140.1444  159.9374 H   0  0  0  0  0  0  0  0  0  0  0  0
  151.7269  139.3338  155.5274 H   0  0  0  0  0  0  0  0  0  0  0  0
  149.5734  142.3699  156.1895 H   0  0  0  0  0  0  0  0  0  0  0  0
  150.7679  142.2988  154.9129 H   0  0  0  0  0  0  0  0  0  0  0  0
  149.0590  139.8703  155.6180 H   0  0  0  0  0  0  0  0  0  0  0  0
  149.6744  140.0231  153.0903 H   0  0  0  0  0  0  0  0  0  0  0  0
  148.4642  141.8183  153.3670 H   0  0  0  0  0  0  0  0  0  0  0  0
  147.4658  140.4820  153.8373 H   0  0  0  0  0  0  0  0  0  0  0  0
  146.5530  140.7180  156.3503 H   0  0  0  0  0  0  0  0  0  0  0  0
  148.0570  141.4130  156.9067 H   0  0  0  0  0  0  0  0  0  0  0  0
  146.1766  142.1874  158.2971 H   0  0  0  0  0  0  0  0  0  0  0  0
  146.9780  143.5187  157.4955 H   0  0  0  0  0  0  0  0  0  0  0  0
  144.3825  142.1649  156.6048 H   0  0  0  0  0  0  0  0  0  0  0  0
  144.4963  145.9778  158.3006 H   0  0  0  0  0  0  0  0  0  0  0  0
  145.8632  145.3855  157.3797 H   0  0  0  0  0  0  0  0  0  0  0  0
  144.3435  143.7789  154.7380 H   0  0  0  0  0  0  0  0  0  0  0  0
  145.8394  144.5064  155.2790 H   0  0  0  0  0  0  0  0  0  0  0  0
  146.2705  142.9322  153.4458 H   0  0  0  0  0  0  0  0  0  0  0  0
  145.4849  141.6310  154.3070 H   0  0  0  0  0  0  0  0  0  0  0  0
  150.5147  143.4472  158.1406 H   0  0  0  0  0  0  0  0  0  0  0  0
  150.6794  144.7713  160.0896 H   0  0  0  0  0  0  0  0  0  0  0  0
  152.3308  144.8438  160.7043 H   0  0  0  0  0  0  0  0  0  0  0  0
  151.0938  143.9288  161.5801 H   0  0  0  0  0  0  0  0  0  0  0  0
  1  2  1  0  0  0  0
  1 25  1  0  0  0  0
  1 26  1  0  0  0  0
  1 27  1  0  0  0  0
  2 23  1  0  0  0  0
  2  3  2  0  0  0  0
  3  4  1  0  0  0  0
  3 28  1  0  0  0  0
  4 21  2  0  0  0  0
  4  5  1  0  0  0  0
  5  6  2  0  0  0  0
  6  7  1  0  0  0  0
  6 29  1  0  0  0  0
  7  8  1  0  0  0  0
  7 21  1  0  0  0  0
  8  9  1  0  0  0  0
  8 30  1  0  0  0  0
  8 31  1  0  0  0  0
  9 10  1  0  0  0  0
  9 11  1  0  0  0  0
  9 32  1  0  0  0  0
 10 33  1  0  0  0  0
 11 12  1  0  0  0  0
 11 34  1  0  0  0  0
 11 35  1  0  0  0  0
 12 20  1  0  0  0  0
 12 13  1  0  0  0  0
 13 14  1  0  0  0  0
 13 36  1  0  0  0  0
 13 37  1  0  0  0  0
 14 15  1  0  0  0  0
 14 38  1  0  0  0  0
 14 39  1  0  0  0  0
 15 16  1  0  0  0  0
 15 19  1  0  0  0  0
 15 40  1  0  0  0  0
 16 17  1  0  0  0  0
 16 18  2  0  0  0  0
 17 41  1  0  0  0  0
 17 42  1  0  0  0  0
 19 20  1  0  0  0  0
 19 43  1  0  0  0  0
 19 44  1  0  0  0  0
 20 45  1  0  0  0  0
 20 46  1  0  0  0  0
 21 22  1  0  0  0  0
 22 23  2  0  0  0  0
 22 47  1  0  0  0  0
 23 24  1  0  0  0  0
 24 48  1  0  0  0  0
 24 49  1  0  0  0  0
 24 50  1  0  0  0  0
M  END
> <s_m_source_file>
AV-unprocessed.smi

> <i_m_source_file_index>
1695

> <i_lp_mmshare_version>
43012

> <i_f3d_flags>
0

> <s_epik_input>
W0NIM11jKFtjSF0xKWMoW0NIM10pW2NIXWMoYzEyKW4oW2NIXW4yKVtDSDJdW0NASF0oW09IXSlbQ0gyXU4zW0NIMl1bQ0gyXVtDSF0oQyg9TylbTkgyXSlbQ0gyXVtDSDJdMw==

> <s_epik_cmdline>
J2VwaWtfcHl0aG9uJywgJy1waCcsICc3LjAnLCAnLXRuJywgJzgnLCAnLW1hJywgJzIwMCcsICctbWV0YWxfYmluZGluZycsICctaW1hZScsICc8aW5maWxlLm1hZT4nLCAnLW9tYWUnLCAnPG91dGZpbGUubWFlPic=

> <r_epik_Ionization_Penalty>
1.9508

> <r_epik_Ionization_Penalty_Charging>
0

> <r_epik_Ionization_Penalty_Neutral>
1.9508

> <r_epik_State_Penalty>
2.03746

> <r_epik_Charging_Adjusted_Penalty>
2.03746

> <i_epik_Tot_Q>
0

> <i_epik_Tot_abs_Q>
0

> <r_epik_Metal_State_Penalty>
2.03012

> <b_epik_Metal_Only>
0

> <s_lp_Force_Field>
OPLS_2005

> <r_lp_Energy>
30.2081

> <b_lp_Chiralities_Consistent>
1

> <s_lp_Variant>
AV-unprocessed.smi:1695-9

> <Gold.Version>
5.8.1

> <Gold.Id.Protein>
6NUR|6NUR_protein|mol2

> <Gold.PLP.Fitness>
58.1472

> <Gold.PLP.PLP>
-48.1132

> <Gold.PLP.part.hbond>
-4.0000

> <Gold.PLP.part.metal>
0.0000

> <Gold.PLP.part.buried>
-7.8801

> <Gold.PLP.part.nonpolar>
-37.4275

> <Gold.PLP.part.repulsive>
1.3349

> <Gold.PLP.ligand.clash>
0.0000

> <Gold.PLP.ligand.torsion>
0.6345

> <Gold.PLP.Chemscore.Hbond>
3.7620

> <Gold.PLP.Chemscore.CHOScore>
0.0000

> <Gold.PLP.Chemscore.Metal>
0.0000

> <Gold.Chemscore.Hbonds>
donor molecule, donor type, donor heavy atom, donor atom, acceptor molecule, acceptor atom, score
      L1  H    10    33       P1  7957  1.00
      L1  H    17    42       P1  8029  0.89
      P1  H  7989  7998       L1    10  0.91
      P1  H  7997  8010       L1     5  1.00

> <Gold.PLP.Chemscore.Internal.Correction>
0.0171

> <Gold.Rescore>
     Score         DG    S(hbond)    S(metal)    S(lipo)     H(rot)  DE(clash)    DE(int)     intcor
     17.12     -20.88       2.68        0.00     116.02       2.78       2.14       1.62       ----

> <Gold.Chemscore.Fitness>
17.1248

> <Gold.Chemscore.DG>
-20.8843

> <Gold.Chemscore.ZeroCoef>
-5.4800

> <Gold.Chemscore.Hbond>
2.6826

> <Gold.Chemscore.Metal>
0.0000

> <Gold.Chemscore.Lipo>
116.0170

> <Gold.Chemscore.Internal_Hbond>
0.0000

> <Gold.Chemscore.DEClash>
2.1421

> <Gold.Chemscore.DEInternal>
1.6173

> <Gold.Chemscore.Rot>
2.7849

> <Gold.Chemscore.Internal.Correction>
   9.000000E+99

> <Gold.Chemscore.Hbonds>
donor molecule, donor type, donor heavy atom, donor atom, acceptor molecule, acceptor atom, score
      L1  H    10    33       P1  7957  0.94
      L1  H    17    42       P1  8029  0.16
      P1  H  7989  7998       L1    10  0.28
      P1  H  7997  8010       L1     5  0.06

> <Gold.Chemscore.Hbond.Weighted>
-8.9598

> <Gold.Chemscore.Metal.Weighted>
-0.0000

> <Gold.Chemscore.Lipo.Weighted>
-13.5740

> <Gold.Chemscore.Internal_Hbond.Weighted>
0.0000

> <Gold.Chemscore.DEClash.Weighted>
2.1421

> <Gold.Chemscore.DEInternal.Weighted>
1.6173

> <Gold.Chemscore.Rot.Weighted>
7.1294

> <Gold.Chemscore.Internal.Correction.Weighted>
   9.000000E+99

> <Gold.Protein.RotatedTorsions>
[ 6907 6896 6895 6894 ] final -105.03 input  -60.11 | X-H torsion
[ 7974 7965 7964 7962 ] final  129.97 input  175.53 | X-H torsion
[ 8008 7997 7996 7995 ] final   61.69 input   59.86 | X-H torsion
[ 10167 10162 10161 10158 ] final  106.03 input  -65.29 | X-H torsion
[ 10718 10713 10712 10709 ] final  -86.74 input   66.30 | X-H torsion
[ 10763 10752 10751 10750 ] final    0.32 input  -60.55 | X-H torsion
[ 11005 11000 10999 10996 ] final   97.35 input  -57.11 | X-H torsion

> <Gold.Protein.ActiveResidues>
 VAL166  LYS551  ARG553  GLY616  TRP617  ASP618  TYR619  PRO620  LYS621  CYS622 
 ASP623  PHE694  ASN695  SER759  ASP760  ASP761  ALA762  ILE779  LEU786  VAL792 
 PHE793  MET794  SER795  GLU796  ALA797  LYS798  CYS799  TRP800  GLU811  SER814 

> <Gold.Protein.RotatedAtoms>
  150.7316  134.0187  159.3693 H   0  0  0  0  0  0  0  0  0  0  0  0  # atno 6907 bound_to 6896
  151.8151  135.0667  160.0427 H   0  0  0  0  0  0  0  0  0  0  0  0  # atno 6908 bound_to 6896
  152.3044  133.5652  159.5676 H   0  0  0  0  0  0  0  0  0  0  0  0  # atno 6909 bound_to 6896
  145.0229  139.4115  143.5188 H   0  0  0  0  0  0  0  0  0  0  0  0  # atno 7974 bound_to 7965
  155.6024  140.3494  155.4598 H   0  0  0  0  0  0  0  0  0  0  0  0  # atno 8008 bound_to 7997
  156.0218  140.1255  157.0374 H   0  0  0  0  0  0  0  0  0  0  0  0  # atno 8009 bound_to 7997
  154.4318  140.1061  156.5961 H   0  0  0  0  0  0  0  0  0  0  0  0  # atno 8010 bound_to 7997
  139.7043  144.7089  151.1132 H   0  0  0  0  0  0  0  0  0  0  0  0  # atno 10167 bound_to 10162
  155.9988  130.4775  150.4761 H   0  0  0  0  0  0  0  0  0  0  0  0  # atno 10718 bound_to 10713
  153.3222  135.6970  153.7020 H   0  0  0  0  0  0  0  0  0  0  0  0  # atno 10763 bound_to 10752
  153.5856  135.3489  155.2892 H   0  0  0  0  0  0  0  0  0  0  0  0  # atno 10764 bound_to 10752
  154.8600  135.4305  154.2389 H   0  0  0  0  0  0  0  0  0  0  0  0  # atno 10765 bound_to 10752
  139.8776  134.8996  156.4295 H   0  0  0  0  0  0  0  0  0  0  0  0  # atno 11005 bound_to 11000
  146.3488  139.9737  142.8703 LP  0  0  0  0  0  0  0  0  0  0  0  0  # atno 17320 bound_to 7965
  145.1872  140.9795  143.4232 LP  0  0  0  0  0  0  0  0  0  0  0  0  # atno 17321 bound_to 7965
  140.7718  143.5380  150.9346 LP  0  0  0  0  0  0  0  0  0  0  0  0  # atno 17342 bound_to 10162
  139.9063  143.6775  152.3123 LP  0  0  0  0  0  0  0  0  0  0  0  0  # atno 17343 bound_to 10162
  157.2771  131.0599  151.2222 LP  0  0  0  0  0  0  0  0  0  0  0  0  # atno 17370 bound_to 10713
  157.3282  130.6971  149.6308 LP  0  0  0  0  0  0  0  0  0  0  0  0  # atno 17371 bound_to 10713
  140.9077  133.7734  155.9754 LP  0  0  0  0  0  0  0  0  0  0  0  0  # atno 17394 bound_to 11000
  140.8581  134.2874  157.5246 LP  0  0  0  0  0  0  0  0  0  0  0  0  # atno 17395 bound_to 11000

$$$$
