AV-unprocessed.smi:1443|AV-procd|sdf|5877|dock8
  -GOLD-   22720 5553D 1   1.00000     0.00000
 Structure written by MMmdl.
 27 28  0  0  0  0  0  0  0  0  1 V2000
  152.8436  137.7365  156.3518 C   0  0  0  0  0  0  0  0  0  0  0  0
  152.5176  138.3713  154.6838 S   0  0  0  0  0  0  0  0  0  0  0  0
  151.2774  139.6113  154.8715 C   0  0  0  0  0  0  0  0  0  0  0  0
  150.1582  139.5810  154.1255 N   0  0  0  0  0  0  0  0  0  0  0  0
  149.1924  140.9026  154.5499 S   0  0  0  0  0  0  0  0  0  0  0  0
  150.3671  141.4238  155.7217 C   0  0  0  0  0  0  0  0  0  0  0  0
  150.1868  142.5896  156.5218 N   0  0  0  0  0  0  0  0  0  0  0  0
  150.7022  142.9310  157.7229 C   0  0  0  0  0  0  0  0  0  0  0  0
  151.4736  142.1807  158.3184 O   0  0  0  0  0  0  0  0  0  0  0  0
  150.3230  144.1233  158.2094 N   0  0  0  0  0  0  0  0  0  0  0  0
  150.7337  144.6949  159.4487 C   0  0  2  0  0  0  0  0  0  0  0  0
  151.9243  145.6277  159.4055 C   0  0  0  0  0  0  0  0  0  0  0  0
  152.0693  144.2609  160.0184 C   0  0  1  0  0  0  0  0  0  0  0  0
  152.2702  144.1197  161.5116 C   0  0  0  0  0  0  0  0  0  0  0  0
  151.4229  140.6110  155.7586 N   0  0  0  0  0  0  0  0  0  0  0  0
  153.6138  136.9661  156.3168 H   0  0  0  0  0  0  0  0  0  0  0  0
  151.9391  137.3024  156.7784 H   0  0  0  0  0  0  0  0  0  0  0  0
  153.1864  138.5386  157.0059 H   0  0  0  0  0  0  0  0  0  0  0  0
  149.5736  143.2824  156.1176 H   0  0  0  0  0  0  0  0  0  0  0  0
  149.6864  144.6717  157.6487 H   0  0  0  0  0  0  0  0  0  0  0  0
  149.9551  144.9474  160.1674 H   0  0  0  0  0  0  0  0  0  0  0  0
  152.4055  145.7972  158.4437 H   0  0  0  0  0  0  0  0  0  0  0  0
  151.9102  146.4862  160.0741 H   0  0  0  0  0  0  0  0  0  0  0  0
  152.6299  143.5341  159.4328 H   0  0  0  0  0  0  0  0  0  0  0  0
  151.6928  144.8693  162.0537 H   0  0  0  0  0  0  0  0  0  0  0  0
  153.3239  144.2442  161.7607 H   0  0  0  0  0  0  0  0  0  0  0  0
  151.9494  143.1306  161.8391 H   0  0  0  0  0  0  0  0  0  0  0  0
  1  2  1  0  0  0  0
  1 16  1  0  0  0  0
  1 17  1  0  0  0  0
  1 18  1  0  0  0  0
  2  3  1  0  0  0  0
  3 15  1  0  0  0  0
  3  4  2  0  0  0  0
  4  5  1  0  0  0  0
  5  6  1  0  0  0  0
  6  7  1  0  0  0  0
  6 15  2  0  0  0  0
  7  8  1  0  0  0  0
  7 19  1  0  0  0  0
  8  9  2  0  0  0  0
  8 10  1  0  0  0  0
 10 11  1  0  0  0  0
 10 20  1  0  0  0  0
 11 13  1  0  0  0  0
 11 12  1  0  0  0  0
 11 21  1  0  0  0  0
 12 13  1  0  0  0  0
 12 22  1  0  0  0  0
 12 23  1  0  0  0  0
 13 14  1  0  0  0  0
 13 24  1  0  0  0  0
 14 25  1  0  0  0  0
 14 26  1  0  0  0  0
 14 27  1  0  0  0  0
M  END
> <s_m_source_file>
AV-unprocessed.smi

> <i_m_source_file_index>
1443

> <i_lp_mmshare_version>
43012

> <i_f3d_flags>
0

> <s_epik_input>
W0NIM11TYzFuc2MobjEpW05IXUMoPU8pW05IXVtDQEBIXTJbQ0gyXVtDQEhdMltDSDNd

> <s_epik_cmdline>
J2VwaWtfcHl0aG9uJywgJy1waCcsICc3LjAnLCAnLXRuJywgJzgnLCAnLW1hJywgJzIwMCcsICctbWV0YWxfYmluZGluZycsICctaW1hZScsICc8aW5maWxlLm1hZT4nLCAnLW9tYWUnLCAnPG91dGZpbGUubWFlPic=

> <r_lp_tautomer_probability>
1

> <r_epik_Ionization_Penalty>
2.74658e-05

> <r_epik_Ionization_Penalty_Charging>
0

> <r_epik_Ionization_Penalty_Neutral>
2.74658e-05

> <r_epik_State_Penalty>
-0

> <r_epik_Charging_Adjusted_Penalty>
0

> <i_epik_Tot_Q>
0

> <i_epik_Tot_abs_Q>
0

> <r_epik_Metal_State_Penalty>
-0

> <b_epik_Metal_Only>
0

> <s_lp_Force_Field>
OPLS_2005

> <r_lp_Energy>
20.7527

> <b_lp_Chiralities_Consistent>
1

> <s_lp_Variant>
AV-unprocessed.smi:1443-1

> <Gold.Version>
5.8.1

> <Gold.Id.Protein>
6NUR|6NUR_protein|mol2

> <Gold.PLP.Fitness>
38.6653

> <Gold.PLP.PLP>
-35.7202

> <Gold.PLP.part.hbond>
-4.3519

> <Gold.PLP.part.metal>
0.0000

> <Gold.PLP.part.buried>
-2.9544

> <Gold.PLP.part.nonpolar>
-29.5526

> <Gold.PLP.part.repulsive>
1.0315

> <Gold.PLP.ligand.clash>
0.0000

> <Gold.PLP.ligand.torsion>
0.5510

> <Gold.PLP.Chemscore.Hbond>
1.3380

> <Gold.PLP.Chemscore.CHOScore>
0.0000

> <Gold.PLP.Chemscore.Metal>
0.0000

> <Gold.Chemscore.Hbonds>
donor molecule, donor type, donor heavy atom, donor atom, acceptor molecule, acceptor atom, score
      L1  H     7    19       P1  8028  1.00
      L1  H    10    20       P1  8028  0.34

> <Gold.PLP.Chemscore.Internal.Correction>
0.0332

> <Gold.Rescore>
     Score         DG    S(hbond)    S(metal)    S(lipo)     H(rot)  DE(clash)    DE(int)     intcor
     10.60     -13.56       1.01        0.00      67.92       1.27       0.04       2.92       ----

> <Gold.Chemscore.Fitness>
10.6004

> <Gold.Chemscore.DG>
-13.5622

> <Gold.Chemscore.ZeroCoef>
-5.4800

> <Gold.Chemscore.Hbond>
1.0141

> <Gold.Chemscore.Metal>
0.0000

> <Gold.Chemscore.Lipo>
67.9151

> <Gold.Chemscore.Internal_Hbond>
0.0000

> <Gold.Chemscore.DEClash>
0.0440

> <Gold.Chemscore.DEInternal>
2.9178

> <Gold.Chemscore.Rot>
1.2699

> <Gold.Chemscore.Internal.Correction>
   9.000000E+99

> <Gold.Chemscore.Hbonds>
donor molecule, donor type, donor heavy atom, donor atom, acceptor molecule, acceptor atom, score
      L1  H     7    19       P1  8028  1.00
      L1  H    10    20       P1  8028  0.01

> <Gold.Chemscore.Hbond.Weighted>
-3.3871

> <Gold.Chemscore.Metal.Weighted>
-0.0000

> <Gold.Chemscore.Lipo.Weighted>
-7.9461

> <Gold.Chemscore.Internal_Hbond.Weighted>
0.0000

> <Gold.Chemscore.DEClash.Weighted>
0.0440

> <Gold.Chemscore.DEInternal.Weighted>
2.9178

> <Gold.Chemscore.Rot.Weighted>
3.2509

> <Gold.Chemscore.Internal.Correction.Weighted>
   9.000000E+99

> <Gold.Protein.RotatedTorsions>
[ 6907 6896 6895 6894 ] final  141.06 input  -60.11 | X-H torsion
[ 7974 7965 7964 7962 ] final  169.56 input  175.53 | X-H torsion
[ 8008 7997 7996 7995 ] final   61.32 input   59.86 | X-H torsion
[ 10167 10162 10161 10158 ] final  -19.37 input  -65.29 | X-H torsion
[ 10718 10713 10712 10709 ] final  150.32 input   66.30 | X-H torsion
[ 10763 10752 10751 10750 ] final  -24.80 input  -60.55 | X-H torsion
[ 11005 11000 10999 10996 ] final    7.55 input  -57.11 | X-H torsion

> <Gold.Protein.ActiveResidues>
 VAL166  LYS551  ARG553  GLY616  TRP617  ASP618  TYR619  PRO620  LYS621  CYS622 
 ASP623  PHE694  ASN695  SER759  ASP760  ASP761  ALA762  ILE779  LEU786  VAL792 
 PHE793  MET794  SER795  GLU796  ALA797  LYS798  CYS799  TRP800  GLU811  SER814 

> <Gold.Protein.RotatedAtoms>
  152.2355  133.5093  159.5239 H   0  0  0  0  0  0  0  0  0  0  0  0  # atno 6907 bound_to 6896
  150.7049  134.1159  159.4026 H   0  0  0  0  0  0  0  0  0  0  0  0  # atno 6908 bound_to 6896
  151.9080  135.0351  160.0563 H   0  0  0  0  0  0  0  0  0  0  0  0  # atno 6909 bound_to 6896
  144.7351  139.9073  143.6413 H   0  0  0  0  0  0  0  0  0  0  0  0  # atno 7974 bound_to 7965
  155.5965  140.3493  155.4581 H   0  0  0  0  0  0  0  0  0  0  0  0  # atno 8008 bound_to 7997
  156.0261  140.1264  157.0332 H   0  0  0  0  0  0  0  0  0  0  0  0  # atno 8009 bound_to 7997
  154.4334  140.1053  156.6018 H   0  0  0  0  0  0  0  0  0  0  0  0  # atno 8010 bound_to 7997
  140.7267  143.4825  151.0098 H   0  0  0  0  0  0  0  0  0  0  0  0  # atno 10167 bound_to 10162
  157.2849  131.0842  151.1504 H   0  0  0  0  0  0  0  0  0  0  0  0  # atno 10718 bound_to 10713
  153.6896  135.6962  153.5094 H   0  0  0  0  0  0  0  0  0  0  0  0  # atno 10763 bound_to 10752
  153.2423  135.4302  155.0710 H   0  0  0  0  0  0  0  0  0  0  0  0  # atno 10764 bound_to 10752
  154.8376  135.3511  154.6438 H   0  0  0  0  0  0  0  0  0  0  0  0  # atno 10765 bound_to 10752
  140.5469  134.0320  155.7923 H   0  0  0  0  0  0  0  0  0  0  0  0  # atno 11005 bound_to 11000
  146.1027  139.4024  143.0337 LP  0  0  0  0  0  0  0  0  0  0  0  0  # atno 17320 bound_to 7965
  145.7555  140.9956  143.1227 LP  0  0  0  0  0  0  0  0  0  0  0  0  # atno 17321 bound_to 7965
  139.8524  143.7420  152.3177 LP  0  0  0  0  0  0  0  0  0  0  0  0  # atno 17342 bound_to 10162
  139.7607  144.7507  151.0368 LP  0  0  0  0  0  0  0  0  0  0  0  0  # atno 17343 bound_to 10162
  157.2924  130.6802  149.6121 LP  0  0  0  0  0  0  0  0  0  0  0  0  # atno 17370 bound_to 10713
  155.9665  130.4417  150.5350 LP  0  0  0  0  0  0  0  0  0  0  0  0  # atno 17371 bound_to 10713
  141.1194  133.9486  157.2759 LP  0  0  0  0  0  0  0  0  0  0  0  0  # atno 17394 bound_to 11000
  139.9475  135.0181  156.8895 LP  0  0  0  0  0  0  0  0  0  0  0  0  # atno 17395 bound_to 11000

$$$$
