AV-unprocessed.smi:3009|AV-procd|sdf|11453|dock5
  -GOLD-   2272016383D 1   1.00000     0.00000
 Structure written by MMmdl.
 43 44  0  0  0  0  0  0  0  0  1 V2000
  152.6090  144.4818  158.1637 C   0  0  0  0  0  0  0  0  0  0  0  0
  151.3927  143.6055  157.8200 C   0  0  0  0  0  0  0  0  0  0  0  0
  150.1865  143.8791  158.7350 C   0  0  0  0  0  0  0  0  0  0  0  0
  151.7307  142.1019  157.6648 C   0  0  0  0  0  0  0  0  0  0  0  0
  150.8617  141.2943  156.8023 N   0  0  0  0  0  0  0  0  0  0  0  0
  150.1990  142.0733  155.7596 C   0  0  0  0  0  0  0  0  0  0  0  0
  149.3384  141.1920  154.8382 C   0  0  0  0  0  0  0  0  0  0  0  0
  150.1386  140.1567  154.2792 O   0  0  0  0  0  0  0  0  0  0  0  0
  150.7430  139.3301  155.2707 C   0  0  1  0  0  0  0  0  0  0  0  0
  151.5643  138.2378  154.5644 C   0  0  0  0  0  0  0  0  0  0  0  0
  150.7324  137.1059  154.1704 N   0  0  0  0  0  0  0  0  0  0  0  0
  150.7089  135.9167  154.7880 C   0  0  0  0  0  0  0  0  0  0  0  0
  151.4103  135.6413  155.7620 O   0  0  0  0  0  0  0  0  0  0  0  0
  149.8301  135.0828  154.2082 N   0  0  0  0  0  0  0  0  0  0  0  0
  149.5264  133.7512  154.5890 C   0  0  0  0  0  0  0  0  0  0  0  0
  148.6972  132.8665  153.8472 C   0  0  0  0  0  0  0  0  0  0  0  0
  148.5900  131.6885  154.4453 N   0  0  0  0  0  0  0  0  0  0  0  0
  149.3421  131.8134  155.5624 N   0  0  0  0  0  0  0  0  0  0  0  0
  149.9305  133.0521  155.6918 C   0  0  0  0  0  0  0  0  0  0  0  0
  151.6210  140.2161  156.1756 C   0  0  0  0  0  0  0  0  0  0  0  0
  149.4425  131.0532  156.2201 H   0  0  0  0  0  0  0  0  0  0  0  0
  152.9857  144.2769  159.1659 H   0  0  0  0  0  0  0  0  0  0  0  0
  152.3517  145.5403  158.1205 H   0  0  0  0  0  0  0  0  0  0  0  0
  153.4243  144.3125  157.4599 H   0  0  0  0  0  0  0  0  0  0  0  0
  151.0649  143.9258  156.8301 H   0  0  0  0  0  0  0  0  0  0  0  0
  150.3964  143.6705  159.7819 H   0  0  0  0  0  0  0  0  0  0  0  0
  149.3272  143.2756  158.4415 H   0  0  0  0  0  0  0  0  0  0  0  0
  149.8845  144.9250  158.6713 H   0  0  0  0  0  0  0  0  0  0  0  0
  152.7716  141.9855  157.3592 H   0  0  0  0  0  0  0  0  0  0  0  0
  151.6822  141.6773  158.6688 H   0  0  0  0  0  0  0  0  0  0  0  0
  149.5497  142.8231  156.2051 H   0  0  0  0  0  0  0  0  0  0  0  0
  150.9418  142.6059  155.1639 H   0  0  0  0  0  0  0  0  0  0  0  0
  148.5028  140.7576  155.3893 H   0  0  0  0  0  0  0  0  0  0  0  0
  148.9136  141.7893  154.0314 H   0  0  0  0  0  0  0  0  0  0  0  0
  149.9624  138.8643  155.8752 H   0  0  0  0  0  0  0  0  0  0  0  0
  152.0368  138.6446  153.6699 H   0  0  0  0  0  0  0  0  0  0  0  0
  152.3725  137.8927  155.2115 H   0  0  0  0  0  0  0  0  0  0  0  0
  150.1189  137.2467  153.3812 H   0  0  0  0  0  0  0  0  0  0  0  0
  149.3229  135.4387  153.4112 H   0  0  0  0  0  0  0  0  0  0  0  0
  148.1804  133.0364  152.9139 H   0  0  0  0  0  0  0  0  0  0  0  0
  150.5603  133.3084  156.5310 H   0  0  0  0  0  0  0  0  0  0  0  0
  152.4394  140.6356  155.5881 H   0  0  0  0  0  0  0  0  0  0  0  0
  152.0789  139.5944  156.9462 H   0  0  0  0  0  0  0  0  0  0  0  0
  1  2  1  0  0  0  0
  1 22  1  0  0  0  0
  1 23  1  0  0  0  0
  1 24  1  0  0  0  0
  2  3  1  0  0  0  0
  2  4  1  0  0  0  0
  2 25  1  0  0  0  0
  3 26  1  0  0  0  0
  3 27  1  0  0  0  0
  3 28  1  0  0  0  0
  4  5  1  0  0  0  0
  4 29  1  0  0  0  0
  4 30  1  0  0  0  0
  5 20  1  0  0  0  0
  5  6  1  0  0  0  0
  6  7  1  0  0  0  0
  6 31  1  0  0  0  0
  6 32  1  0  0  0  0
  7  8  1  0  0  0  0
  7 33  1  0  0  0  0
  7 34  1  0  0  0  0
  8  9  1  0  0  0  0
  9 10  1  0  0  0  0
  9 20  1  0  0  0  0
  9 35  1  0  0  0  0
 10 11  1  0  0  0  0
 10 36  1  0  0  0  0
 10 37  1  0  0  0  0
 11 12  1  0  0  0  0
 11 38  1  0  0  0  0
 12 13  2  0  0  0  0
 12 14  1  0  0  0  0
 14 15  1  0  0  0  0
 14 39  1  0  0  0  0
 15 19  2  0  0  0  0
 15 16  1  0  0  0  0
 16 17  2  0  0  0  0
 16 40  1  0  0  0  0
 17 18  1  0  0  0  0
 18 21  1  0  0  0  0
 18 19  1  0  0  0  0
 19 41  1  0  0  0  0
 20 42  1  0  0  0  0
 20 43  1  0  0  0  0
M  END
> <s_m_source_file>
AV-unprocessed.smi

> <i_m_source_file_index>
3009

> <i_lp_mmshare_version>
43012

> <i_f3d_flags>
0

> <s_epik_input>
W0NIM11bQ0hdKFtDSDNdKVtDSDJdTjFbQ0gyXVtDSDJdT1tDQEhdKFtDSDJdMSlbQ0gyXVtOSF1DKD1PKVtOSF1jMltjSF1uW25IXVtjSF0y

> <s_epik_cmdline>
J2VwaWtfcHl0aG9uJywgJy1waCcsICc3LjAnLCAnLXRuJywgJzgnLCAnLW1hJywgJzIwMCcsICctbWV0YWxfYmluZGluZycsICctaW1hZScsICc8aW5maWxlLm1hZT4nLCAnLW9tYWUnLCAnPG91dGZpbGUubWFlPic=

> <r_lp_tautomer_probability>
0.5

> <r_epik_Ionization_Penalty>
1.11801

> <r_epik_Ionization_Penalty_Charging>
0

> <r_epik_Ionization_Penalty_Neutral>
1.11801

> <r_epik_State_Penalty>
1.17654

> <r_epik_Charging_Adjusted_Penalty>
1.17654

> <i_epik_Tot_Q>
0

> <i_epik_Tot_abs_Q>
0

> <r_epik_Metal_State_Penalty>
1.17654

> <b_epik_Metal_Only>
0

> <s_lp_Force_Field>
OPLS_2005

> <r_lp_Energy>
30.4002

> <b_lp_Chiralities_Consistent>
1

> <s_lp_Variant>
AV-unprocessed.smi:3009-5

> <Gold.Version>
5.8.1

> <Gold.Id.Protein>
6NUR|6NUR_protein|mol2

> <Gold.PLP.Fitness>
47.7609

> <Gold.PLP.PLP>
-38.6688

> <Gold.PLP.part.hbond>
-5.9259

> <Gold.PLP.part.metal>
0.0000

> <Gold.PLP.part.buried>
-1.8158

> <Gold.PLP.part.nonpolar>
-31.6688

> <Gold.PLP.part.repulsive>
0.4073

> <Gold.PLP.ligand.clash>
0.0000

> <Gold.PLP.ligand.torsion>
0.9870

> <Gold.PLP.Chemscore.Hbond>
3.6696

> <Gold.PLP.Chemscore.CHOScore>
0.0000

> <Gold.PLP.Chemscore.Metal>
0.0000

> <Gold.Chemscore.Hbonds>
donor molecule, donor type, donor heavy atom, donor atom, acceptor molecule, acceptor atom, score
      L1  H    11    38       P1  7948  0.62
      L1  H    14    39       P1  7948  0.95
      P1  H  7989  7998       L1     8  1.00
      P1  H 10752 10764       L1    13  1.00

> <Gold.PLP.Chemscore.Internal.Correction>
0.0573

> <Gold.Rescore>
     Score         DG    S(hbond)    S(metal)    S(lipo)     H(rot)  DE(clash)    DE(int)     intcor
     17.12     -19.80       2.34        0.00      93.86       1.76       0.46       2.21       ----

> <Gold.Chemscore.Fitness>
17.1183

> <Gold.Chemscore.DG>
-19.7963

> <Gold.Chemscore.ZeroCoef>
-5.4800

> <Gold.Chemscore.Hbond>
2.3449

> <Gold.Chemscore.Metal>
0.0000

> <Gold.Chemscore.Lipo>
93.8624

> <Gold.Chemscore.Internal_Hbond>
0.0000

> <Gold.Chemscore.DEClash>
0.4641

> <Gold.Chemscore.DEInternal>
2.2139

> <Gold.Chemscore.Rot>
1.7568

> <Gold.Chemscore.Internal.Correction>
   9.000000E+99

> <Gold.Chemscore.Hbonds>
donor molecule, donor type, donor heavy atom, donor atom, acceptor molecule, acceptor atom, score
      L1  H    11    38       P1  7948  0.12
      L1  H    14    39       P1  7948  0.21
      P1  H  7989  7998       L1     8  0.21
      P1  H 10752 10764       L1    13  0.48

> <Gold.Chemscore.Hbond.Weighted>
-7.8319

> <Gold.Chemscore.Metal.Weighted>
-0.0000

> <Gold.Chemscore.Lipo.Weighted>
-10.9819

> <Gold.Chemscore.Internal_Hbond.Weighted>
0.0000

> <Gold.Chemscore.DEClash.Weighted>
0.4641

> <Gold.Chemscore.DEInternal.Weighted>
2.2139

> <Gold.Chemscore.Rot.Weighted>
4.4974

> <Gold.Chemscore.Internal.Correction.Weighted>
   9.000000E+99

> <Gold.Protein.RotatedTorsions>
[ 6907 6896 6895 6894 ] final   77.16 input  -60.11 | X-H torsion
[ 7974 7965 7964 7962 ] final   12.66 input  175.53 | X-H torsion
[ 8008 7997 7996 7995 ] final  162.23 input   59.86 | X-H torsion
[ 10167 10162 10161 10158 ] final  -63.16 input  -65.29 | X-H torsion
[ 10718 10713 10712 10709 ] final  -22.35 input   66.30 | X-H torsion
[ 10763 10752 10751 10750 ] final  -26.14 input  -60.55 | X-H torsion
[ 11005 11000 10999 10996 ] final   62.78 input  -57.11 | X-H torsion

> <Gold.Protein.ActiveResidues>
 VAL166  LYS551  ARG553  GLY616  TRP617  ASP618  TYR619  PRO620  LYS621  CYS622 
 ASP623  PHE694  ASN695  SER759  ASP760  ASP761  ALA762  ILE779  LEU786  VAL792 
 PHE793  MET794  SER795  GLU796  ALA797  LYS798  CYS799  TRP800  GLU811  SER814 

> <Gold.Protein.RotatedAtoms>
  152.5105  134.3859  159.9366 H   0  0  0  0  0  0  0  0  0  0  0  0  # atno 6907 bound_to 6896
  151.3817  133.3813  159.2718 H   0  0  0  0  0  0  0  0  0  0  0  0  # atno 6908 bound_to 6896
  150.9499  134.8921  159.7724 H   0  0  0  0  0  0  0  0  0  0  0  0  # atno 6909 bound_to 6896
  146.2346  139.9304  142.8497 H   0  0  0  0  0  0  0  0  0  0  0  0  # atno 7974 bound_to 7965
  156.2046  140.1756  156.7826 H   0  0  0  0  0  0  0  0  0  0  0  0  # atno 8008 bound_to 7997
  154.5638  140.0695  156.8890 H   0  0  0  0  0  0  0  0  0  0  0  0  # atno 8009 bound_to 7997
  155.2799  140.3348  155.4261 H   0  0  0  0  0  0  0  0  0  0  0  0  # atno 8010 bound_to 7997
  140.5890  143.2338  151.6181 H   0  0  0  0  0  0  0  0  0  0  0  0  # atno 10167 bound_to 10162
  156.5057  130.4598  149.6676 H   0  0  0  0  0  0  0  0  0  0  0  0  # atno 10718 bound_to 10713
  153.7111  135.6950  153.5037 H   0  0  0  0  0  0  0  0  0  0  0  0  # atno 10763 bound_to 10752
  153.2272  135.4350  155.0554 H   0  0  0  0  0  0  0  0  0  0  0  0  # atno 10764 bound_to 10752
  154.8314  135.3475  154.6647 H   0  0  0  0  0  0  0  0  0  0  0  0  # atno 10765 bound_to 10752
  140.0069  134.6356  155.9841 H   0  0  0  0  0  0  0  0  0  0  0  0  # atno 11005 bound_to 11000
  145.2050  140.9871  143.4133 LP  0  0  0  0  0  0  0  0  0  0  0  0  # atno 17320 bound_to 7965
  144.9740  139.3850  143.6295 LP  0  0  0  0  0  0  0  0  0  0  0  0  # atno 17321 bound_to 7965
  139.5215  144.3190  152.0927 LP  0  0  0  0  0  0  0  0  0  0  0  0  # atno 17342 bound_to 10162
  140.2351  144.4328  150.6283 LP  0  0  0  0  0  0  0  0  0  0  0  0  # atno 17343 bound_to 10162
  156.3289  130.7321  151.2247 LP  0  0  0  0  0  0  0  0  0  0  0  0  # atno 17370 bound_to 10713
  157.7457  131.0435  150.4748 LP  0  0  0  0  0  0  0  0  0  0  0  0  # atno 17371 bound_to 10713
  141.1683  133.6537  156.4559 LP  0  0  0  0  0  0  0  0  0  0  0  0  # atno 17394 bound_to 11000
  140.4625  134.6828  157.5092 LP  0  0  0  0  0  0  0  0  0  0  0  0  # atno 17395 bound_to 11000

$$$$
