AV-unprocessed.smi:249|AV-procd|sdf|1902|dock5
  -GOLD-   2262020583D 1   1.00000     0.00000
 Structure written by MMmdl.
 64 67  0  0  0  0  0  0  0  0  2 V2000
  145.5701  134.2696  151.0398 C   0  0  0  0  0  0  0  0  0  0  0  0
  145.2606  134.6999  152.4831 C   0  0  0  0  0  0  0  0  0  0  0  0
  146.0581  135.8764  152.9376 N   0  3  2  0  0  0  0  0  0  0  0  0
  146.3278  135.8275  154.4037 C   0  0  0  0  0  0  0  0  0  0  0  0
  147.2540  136.9617  154.8615 C   0  0  0  0  0  0  0  0  0  0  0  0
  146.6531  138.3296  154.5009 C   0  0  1  0  0  0  0  0  0  0  0  0
  147.4472  139.4649  154.9896 N   0  0  0  0  0  0  0  0  0  0  0  0
  146.8232  140.7825  154.9445 C   0  0  0  0  0  0  0  0  0  0  0  0
  148.2128  139.2658  156.0892 C   0  0  0  0  0  0  0  0  0  0  0  0
  147.7286  138.5351  157.1280 N   0  0  0  0  0  0  0  0  0  0  0  0
  148.4818  138.3356  158.2142 C   0  0  0  0  0  0  0  0  0  0  0  0
  149.7191  138.7703  158.4634 N   0  0  0  0  0  0  0  0  0  0  0  0
  150.2016  139.5120  157.4256 C   0  0  0  0  0  0  0  0  0  0  0  0
  149.5206  139.8066  156.2120 C   0  0  0  0  0  0  0  0  0  0  0  0
  150.3239  140.5894  155.3921 N   0  0  0  0  0  0  0  0  0  0  0  0
  151.4193  140.7513  156.0841 C   0  0  0  0  0  0  0  0  0  0  0  0
  151.4321  140.1327  157.3142 N   0  0  0  0  0  0  0  0  0  0  0  0
  152.5103  140.1446  158.2867 C   0  0  0  0  0  0  0  0  0  0  0  0
  152.2491  141.1037  159.4742 C   0  0  1  0  0  0  0  0  0  0  0  0
  153.3028  140.9588  160.5987 C   0  0  0  0  0  0  0  0  0  0  0  0
  154.6015  141.2623  160.1323 O   0  0  0  0  0  0  0  0  0  0  0  0
  152.0897  142.5684  158.9940 C   0  0  2  0  0  0  0  0  0  0  0  0
  151.9304  143.5946  160.1022 C   0  0  0  0  0  0  0  0  0  0  0  0
  151.3380  144.7832  159.3543 C   0  0  0  0  0  0  0  0  0  0  0  0
  150.5215  144.2215  158.3339 O   0  0  0  0  0  0  0  0  0  0  0  0
  150.8176  142.8364  158.1811 C   0  0  0  0  0  0  0  0  0  0  0  0
  146.3903  138.3596  152.9849 C   0  0  0  0  0  0  0  0  0  0  0  0
  145.4781  137.1990  152.5317 C   0  0  1  0  0  0  0  0  0  0  0  0
  145.2449  137.3245  151.0115 C   0  0  0  0  0  0  0  0  0  0  0  0
  144.8570  133.5144  150.7084 H   0  0  0  0  0  0  0  0  0  0  0  0
  146.5611  133.8291  150.9380 H   0  0  0  0  0  0  0  0  0  0  0  0
  145.4979  135.1127  150.3520 H   0  0  0  0  0  0  0  0  0  0  0  0
  144.1985  134.9322  152.4976 H   0  0  0  0  0  0  0  0  0  0  0  0
  145.4050  133.8644  153.1697 H   0  0  0  0  0  0  0  0  0  0  0  0
  145.3838  135.8731  154.9494 H   0  0  0  0  0  0  0  0  0  0  0  0
  146.8032  134.8873  154.6778 H   0  0  0  0  0  0  0  0  0  0  0  0
  147.4105  136.8839  155.9376 H   0  0  0  0  0  0  0  0  0  0  0  0
  148.2315  136.8365  154.3946 H   0  0  0  0  0  0  0  0  0  0  0  0
  145.6850  138.4089  154.9981 H   0  0  0  0  0  0  0  0  0  0  0  0
  147.5624  141.5647  155.1221 H   0  0  0  0  0  0  0  0  0  0  0  0
  146.0376  140.8781  155.6946 H   0  0  0  0  0  0  0  0  0  0  0  0
  146.3802  140.9601  153.9644 H   0  0  0  0  0  0  0  0  0  0  0  0
  148.0283  137.7443  158.9962 H   0  0  0  0  0  0  0  0  0  0  0  0
  152.2561  141.3252  155.7124 H   0  0  0  0  0  0  0  0  0  0  0  0
  152.6627  139.1267  158.6478 H   0  0  0  0  0  0  0  0  0  0  0  0
  153.4236  140.4231  157.7606 H   0  0  0  0  0  0  0  0  0  0  0  0
  151.2952  140.8090  159.9142 H   0  0  0  0  0  0  0  0  0  0  0  0
  153.0697  141.6147  161.4371 H   0  0  0  0  0  0  0  0  0  0  0  0
  153.3042  139.9471  161.0046 H   0  0  0  0  0  0  0  0  0  0  0  0
  154.8781  140.5762  159.5440 H   0  0  0  0  0  0  0  0  0  0  0  0
  152.9519  142.8504  158.3873 H   0  0  0  0  0  0  0  0  0  0  0  0
  151.2267  143.2383  160.8561 H   0  0  0  0  0  0  0  0  0  0  0  0
  152.8689  143.8429  160.5986 H   0  0  0  0  0  0  0  0  0  0  0  0
  150.7675  145.4460  160.0049 H   0  0  0  0  0  0  0  0  0  0  0  0
  152.1293  145.3674  158.8833 H   0  0  0  0  0  0  0  0  0  0  0  0
  150.9347  142.5769  157.1286 H   0  0  0  0  0  0  0  0  0  0  0  0
  149.9762  142.2653  158.5762 H   0  0  0  0  0  0  0  0  0  0  0  0
  145.9279  139.3114  152.7205 H   0  0  0  0  0  0  0  0  0  0  0  0
  147.3309  138.3068  152.4344 H   0  0  0  0  0  0  0  0  0  0  0  0
  144.5135  137.3092  153.0302 H   0  0  0  0  0  0  0  0  0  0  0  0
  144.9764  138.3469  150.7431 H   0  0  0  0  0  0  0  0  0  0  0  0
  144.4236  136.6997  150.6623 H   0  0  0  0  0  0  0  0  0  0  0  0
  146.1406  137.0633  150.4468 H   0  0  0  0  0  0  0  0  0  0  0  0
  146.9539  135.8081  152.4759 H   0  0  0  0  0  0  0  0  0  0  0  0
  1  2  1  0  0  0  0
  1 30  1  0  0  0  0
  1 31  1  0  0  0  0
  1 32  1  0  0  0  0
  2  3  1  0  0  0  0
  2 33  1  0  0  0  0
  2 34  1  0  0  0  0
  3 28  1  0  0  0  0
  3  4  1  0  0  0  0
  3 64  1  0  0  0  0
  4  5  1  0  0  0  0
  4 35  1  0  0  0  0
  4 36  1  0  0  0  0
  5  6  1  0  0  0  0
  5 37  1  0  0  0  0
  5 38  1  0  0  0  0
  6  7  1  0  0  0  0
  6 27  1  0  0  0  0
  6 39  1  0  0  0  0
  7  8  1  0  0  0  0
  7  9  1  0  0  0  0
  8 40  1  0  0  0  0
  8 41  1  0  0  0  0
  8 42  1  0  0  0  0
  9 14  1  0  0  0  0
  9 10  2  0  0  0  0
 10 11  1  0  0  0  0
 11 12  2  0  0  0  0
 11 43  1  0  0  0  0
 12 13  1  0  0  0  0
 13 17  1  0  0  0  0
 13 14  2  0  0  0  0
 14 15  1  0  0  0  0
 15 16  2  0  0  0  0
 16 17  1  0  0  0  0
 16 44  1  0  0  0  0
 17 18  1  0  0  0  0
 18 19  1  0  0  0  0
 18 45  1  0  0  0  0
 18 46  1  0  0  0  0
 19 20  1  0  0  0  0
 19 22  1  0  0  0  0
 19 47  1  0  0  0  0
 20 21  1  0  0  0  0
 20 48  1  0  0  0  0
 20 49  1  0  0  0  0
 21 50  1  0  0  0  0
 22 26  1  0  0  0  0
 22 23  1  0  0  0  0
 22 51  1  0  0  0  0
 23 24  1  0  0  0  0
 23 52  1  0  0  0  0
 23 53  1  0  0  0  0
 24 25  1  0  0  0  0
 24 54  1  0  0  0  0
 24 55  1  0  0  0  0
 25 26  1  0  0  0  0
 26 56  1  0  0  0  0
 26 57  1  0  0  0  0
 27 28  1  0  0  0  0
 27 58  1  0  0  0  0
 27 59  1  0  0  0  0
 28 29  1  0  0  0  0
 28 60  1  0  0  0  0
 29 61  1  0  0  0  0
 29 62  1  0  0  0  0
 29 63  1  0  0  0  0
M  CHG  1   3   1
M  END
> <s_m_source_file>
AV-unprocessed.smi

> <i_m_source_file_index>
249

> <i_lp_mmshare_version>
43012

> <i_f3d_flags>
0

> <s_epik_input>
W0NIM11bQ0gyXU4xW0NIMl1bQ0gyXVtDQEhdKFtDSDJdW0NASF0xW0NIM10pTihbQ0gzXSljKG5bY0hdbjIpYyhjMjMpbltjSF1uM1tDSDJdW0NASF0oW0NIMl1bT0hdKVtDQEBIXTRbQ0gyXVtDSDJdT1tDSDJdNA==

> <s_epik_cmdline>
J2VwaWtfcHl0aG9uJywgJy1waCcsICc3LjAnLCAnLXRuJywgJzgnLCAnLW1hJywgJzIwMCcsICctbWV0YWxfYmluZGluZycsICctaW1hZScsICc8aW5maWxlLm1hZT4nLCAnLW9tYWUnLCAnPG91dGZpbGUubWFlPic=

> <r_lp_tautomer_probability>
1

> <r_epik_Ionization_Penalty>
0.00294688

> <r_epik_Ionization_Penalty_Charging>
0.00169971

> <r_epik_Ionization_Penalty_Neutral>
0.00124717

> <r_epik_State_Penalty>
-0

> <r_epik_Charging_Adjusted_Penalty>
0.00169971

> <i_epik_Tot_Q>
1

> <i_epik_Tot_abs_Q>
1

> <r_epik_Metal_State_Penalty>
-0

> <b_epik_Metal_Only>
0

> <s_lp_Force_Field>
OPLS_2005

> <r_lp_Energy>
53.6229

> <b_lp_Chiralities_Consistent>
1

> <s_lp_Variant>
AV-unprocessed.smi:249-5

> <Gold.Version>
5.8.1

> <Gold.Id.Protein>
6NUR|6NUR_protein|mol2

> <Gold.PLP.Fitness>
48.8305

> <Gold.PLP.PLP>
-42.2823

> <Gold.PLP.part.hbond>
-2.0000

> <Gold.PLP.part.metal>
0.0000

> <Gold.PLP.part.buried>
1.6316

> <Gold.PLP.part.nonpolar>
-41.8309

> <Gold.PLP.part.repulsive>
0.3397

> <Gold.PLP.ligand.clash>
0.0000

> <Gold.PLP.ligand.torsion>
1.6626

> <Gold.PLP.Chemscore.Hbond>
2.9920

> <Gold.PLP.Chemscore.CHOScore>
0.0000

> <Gold.PLP.Chemscore.Metal>
0.0000

> <Gold.Chemscore.Hbonds>
donor molecule, donor type, donor heavy atom, donor atom, acceptor molecule, acceptor atom, score
      L1  H     3    64       P1  7948  1.56
      P1  H  7989  7998       L1    15  0.10

> <Gold.PLP.Chemscore.Internal.Correction>
0.8973

> <Gold.Rescore>
     Score         DG    S(hbond)    S(metal)    S(lipo)     H(rot)  DE(clash)    DE(int)     intcor
     11.36     -18.46       1.82        0.00     122.37       2.90       3.04       4.05       ----

> <Gold.Chemscore.Fitness>
11.3620

> <Gold.Chemscore.DG>
-18.4578

> <Gold.Chemscore.ZeroCoef>
-5.4800

> <Gold.Chemscore.Hbond>
1.8222

> <Gold.Chemscore.Metal>
0.0000

> <Gold.Chemscore.Lipo>
122.3710

> <Gold.Chemscore.Internal_Hbond>
0.0000

> <Gold.Chemscore.DEClash>
3.0447

> <Gold.Chemscore.DEInternal>
4.0511

> <Gold.Chemscore.Rot>
2.9006

> <Gold.Chemscore.Internal.Correction>
   9.000000E+99

> <Gold.Chemscore.Hbonds>
donor molecule, donor type, donor heavy atom, donor atom, acceptor molecule, acceptor atom, score
      L1  H     3    64       P1  7948  0.77

> <Gold.Chemscore.Hbond.Weighted>
-6.0861

> <Gold.Chemscore.Metal.Weighted>
-0.0000

> <Gold.Chemscore.Lipo.Weighted>
-14.3174

> <Gold.Chemscore.Internal_Hbond.Weighted>
0.0000

> <Gold.Chemscore.DEClash.Weighted>
3.0447

> <Gold.Chemscore.DEInternal.Weighted>
4.0511

> <Gold.Chemscore.Rot.Weighted>
7.4256

> <Gold.Chemscore.Internal.Correction.Weighted>
   9.000000E+99

> <Gold.Protein.RotatedTorsions>
[ 6907 6896 6895 6894 ] final   64.40 input  -60.11 | X-H torsion
[ 7974 7965 7964 7962 ] final   61.69 input  175.53 | X-H torsion
[ 8008 7997 7996 7995 ] final -148.18 input   59.86 | X-H torsion
[ 10167 10162 10161 10158 ] final -152.48 input  -65.29 | X-H torsion
[ 10718 10713 10712 10709 ] final  -26.20 input   66.30 | X-H torsion
[ 10763 10752 10751 10750 ] final   -9.00 input  -60.55 | X-H torsion
[ 11005 11000 10999 10996 ] final -176.39 input  -57.11 | X-H torsion

> <Gold.Protein.ActiveResidues>
 VAL166  LYS551  ARG553  GLY616  TRP617  ASP618  TYR619  PRO620  LYS621  CYS622 
 ASP623  PHE694  ASN695  SER759  ASP760  ASP761  ALA762  ILE779  LEU786  VAL792 
 PHE793  MET794  SER795  GLU796  ALA797  LYS798  CYS799  TRP800  GLU811  SER814 

> <Gold.Protein.RotatedAtoms>
  152.4329  134.5743  159.9929 H   0  0  0  0  0  0  0  0  0  0  0  0  # atno 6907 bound_to 6896
  151.5862  133.3366  159.3026 H   0  0  0  0  0  0  0  0  0  0  0  0  # atno 6908 bound_to 6896
  150.8223  134.7473  159.6848 H   0  0  0  0  0  0  0  0  0  0  0  0  # atno 6909 bound_to 6896
  145.8818  139.3449  143.0701 H   0  0  0  0  0  0  0  0  0  0  0  0  # atno 7974 bound_to 7965
  155.5875  140.0649  157.2767 H   0  0  0  0  0  0  0  0  0  0  0  0  # atno 8008 bound_to 7997
  154.4315  140.1841  156.1087 H   0  0  0  0  0  0  0  0  0  0  0  0  # atno 8009 bound_to 7997
  156.0258  140.3312  155.7090 H   0  0  0  0  0  0  0  0  0  0  0  0  # atno 8010 bound_to 7997
  139.7178  143.9006  152.2492 H   0  0  0  0  0  0  0  0  0  0  0  0  # atno 10167 bound_to 10162
  156.4543  130.4490  149.6969 H   0  0  0  0  0  0  0  0  0  0  0  0  # atno 10718 bound_to 10713
  153.4485  135.7014  153.6123 H   0  0  0  0  0  0  0  0  0  0  0  0  # atno 10763 bound_to 10752
  153.4468  135.3767  155.2261 H   0  0  0  0  0  0  0  0  0  0  0  0  # atno 10764 bound_to 10752
  154.8728  135.3987  154.3894 H   0  0  0  0  0  0  0  0  0  0  0  0  # atno 10765 bound_to 10752
  140.4526  134.6329  157.4808 H   0  0  0  0  0  0  0  0  0  0  0  0  # atno 11005 bound_to 11000
  145.9014  140.9240  143.0501 LP  0  0  0  0  0  0  0  0  0  0  0  0  # atno 17320 bound_to 7965
  144.6727  140.1038  143.7459 LP  0  0  0  0  0  0  0  0  0  0  0  0  # atno 17321 bound_to 7965
  139.8893  144.6974  150.8788 LP  0  0  0  0  0  0  0  0  0  0  0  0  # atno 17342 bound_to 10162
  140.7747  143.3599  151.1849 LP  0  0  0  0  0  0  0  0  0  0  0  0  # atno 17343 bound_to 10162
  156.3783  130.7566  151.2556 LP  0  0  0  0  0  0  0  0  0  0  0  0  # atno 17370 bound_to 10713
  157.7501  131.0303  150.4131 LP  0  0  0  0  0  0  0  0  0  0  0  0  # atno 17371 bound_to 10713
  139.9997  134.6856  155.9551 LP  0  0  0  0  0  0  0  0  0  0  0  0  # atno 17394 bound_to 11000
  141.1657  133.6537  156.4472 LP  0  0  0  0  0  0  0  0  0  0  0  0  # atno 17395 bound_to 11000

$$$$
