AV-unprocessed.smi:2786|AV-procd|sdf|10749|dock4
  -GOLD-   2272015183D 1   1.00000     0.00000
 Structure written by MMmdl.
 27 28  0  0  0  0  0  0  0  0  2 V2000
  151.8778  145.0123  159.1818 C   0  0  0  0  0  0  0  0  0  0  0  0
  152.1223  143.6239  159.5215 N   0  0  0  0  0  0  0  0  0  0  0  0
  153.0964  143.1612  160.3965 C   0  0  0  0  0  0  0  0  0  0  0  0
  152.9872  141.7921  160.4201 C   0  0  0  0  0  0  0  0  0  0  0  0
  151.9586  141.3976  159.5715 N   0  0  0  0  0  0  0  0  0  0  0  0
  151.4737  142.5319  159.0710 C   0  0  0  0  0  0  0  0  0  0  0  0
  150.3452  142.5975  158.0826 C   0  0  1  0  0  0  0  0  0  0  0  0
  150.7426  141.9609  156.7323 C   0  0  0  0  0  0  0  0  0  0  0  0
  149.6338  142.0754  155.7622 N   0  3  0  0  0  0  0  0  0  0  0  0
  148.3889  141.4936  156.3027 C   0  0  0  0  0  0  0  0  0  0  0  0
  148.0477  142.1471  157.6545 C   0  0  0  0  0  0  0  0  0  0  0  0
  149.1453  141.9331  158.5926 N   0  0  0  0  0  0  0  0  0  0  0  0
  152.6327  145.6505  159.6422 H   0  0  0  0  0  0  0  0  0  0  0  0
  150.8944  145.3127  159.5439 H   0  0  0  0  0  0  0  0  0  0  0  0
  151.9202  145.1427  158.1001 H   0  0  0  0  0  0  0  0  0  0  0  0
  153.7707  143.8263  160.9158 H   0  0  0  0  0  0  0  0  0  0  0  0
  153.5640  141.0672  160.9754 H   0  0  0  0  0  0  0  0  0  0  0  0
  150.0951  143.6472  157.9241 H   0  0  0  0  0  0  0  0  0  0  0  0
  151.6197  142.4605  156.3198 H   0  0  0  0  0  0  0  0  0  0  0  0
  151.0054  140.9096  156.8616 H   0  0  0  0  0  0  0  0  0  0  0  0
  149.4746  143.0536  155.5682 H   0  0  0  0  0  0  0  0  0  0  0  0
  147.5810  141.6534  155.5885 H   0  0  0  0  0  0  0  0  0  0  0  0
  148.5086  140.4149  156.4155 H   0  0  0  0  0  0  0  0  0  0  0  0
  147.8534  143.2145  157.5389 H   0  0  0  0  0  0  0  0  0  0  0  0
  147.1425  141.7002  158.0661 H   0  0  0  0  0  0  0  0  0  0  0  0
  149.3273  140.9404  158.6440 H   0  0  0  0  0  0  0  0  0  0  0  0
  149.8838  141.6037  154.9049 H   0  0  0  0  0  0  0  0  0  0  0  0
  1  2  1  0  0  0  0
  1 13  1  0  0  0  0
  1 14  1  0  0  0  0
  1 15  1  0  0  0  0
  2  6  1  0  0  0  0
  2  3  1  0  0  0  0
  3  4  2  0  0  0  0
  3 16  1  0  0  0  0
  4  5  1  0  0  0  0
  4 17  1  0  0  0  0
  5  6  2  0  0  0  0
  6  7  1  0  0  0  0
  7 12  1  0  0  0  0
  7  8  1  0  0  0  0
  7 18  1  0  0  0  0
  8  9  1  0  0  0  0
  8 19  1  0  0  0  0
  8 20  1  0  0  0  0
  9 10  1  0  0  0  0
  9 21  1  0  0  0  0
  9 27  1  0  0  0  0
 10 11  1  0  0  0  0
 10 22  1  0  0  0  0
 10 23  1  0  0  0  0
 11 12  1  0  0  0  0
 11 24  1  0  0  0  0
 11 25  1  0  0  0  0
 12 26  1  0  0  0  0
M  CHG  1   9   1
M  END
> <s_m_source_file>
AV-unprocessed.smi

> <i_m_source_file_index>
2786

> <i_lp_mmshare_version>
43012

> <i_f3d_flags>
0

> <s_epik_input>
W0NIM11uMVtjSF1bY0hdbmMxW0NAQEhdMltDSDJdW05IXVtDSDJdW0NIMl1bTkhdMg==

> <s_epik_cmdline>
J2VwaWtfcHl0aG9uJywgJy1waCcsICc3LjAnLCAnLXRuJywgJzgnLCAnLW1hJywgJzIwMCcsICctbWV0YWxfYmluZGluZycsICctaW1hZScsICc8aW5maWxlLm1hZT4nLCAnLW9tYWUnLCAnPG91dGZpbGUubWFlPic=

> <r_lp_tautomer_probability>
1

> <r_epik_Ionization_Penalty>
0.130484

> <r_epik_Ionization_Penalty_Charging>
0.130409

> <r_epik_Ionization_Penalty_Neutral>
7.57914e-05

> <r_epik_State_Penalty>
0.270147

> <r_epik_Charging_Adjusted_Penalty>
0.400555

> <i_epik_Tot_Q>
1

> <i_epik_Tot_abs_Q>
1

> <r_epik_Metal_State_Penalty>
0.136376

> <b_epik_Metal_Only>
0

> <s_lp_Force_Field>
OPLS_2005

> <r_lp_Energy>
9.37099

> <b_lp_Chiralities_Consistent>
1

> <s_lp_Variant>
AV-unprocessed.smi:2786-2

> <Gold.Version>
5.8.1

> <Gold.Id.Protein>
6NUR|6NUR_protein|mol2

> <Gold.PLP.Fitness>
33.3921

> <Gold.PLP.PLP>
-27.4977

> <Gold.PLP.part.hbond>
-1.5991

> <Gold.PLP.part.metal>
0.0000

> <Gold.PLP.part.buried>
-4.3929

> <Gold.PLP.part.nonpolar>
-22.2089

> <Gold.PLP.part.repulsive>
0.1384

> <Gold.PLP.ligand.clash>
0.0000

> <Gold.PLP.ligand.torsion>
0.0566

> <Gold.PLP.Chemscore.Hbond>
2.0000

> <Gold.PLP.Chemscore.CHOScore>
0.0000

> <Gold.PLP.Chemscore.Metal>
0.0000

> <Gold.Chemscore.Hbonds>
donor molecule, donor type, donor heavy atom, donor atom, acceptor molecule, acceptor atom, score
      L1  H     9    21       P1  8028  2.00

> <Gold.PLP.Chemscore.Internal.Correction>
0.0076

> <Gold.Rescore>
     Score         DG    S(hbond)    S(metal)    S(lipo)     H(rot)  DE(clash)    DE(int)     intcor
     13.15     -13.25       1.00        0.00      59.84       1.00       0.07       0.03       ----

> <Gold.Chemscore.Fitness>
13.1488

> <Gold.Chemscore.DG>
-13.2461

> <Gold.Chemscore.ZeroCoef>
-5.4800

> <Gold.Chemscore.Hbond>
0.9953

> <Gold.Chemscore.Metal>
0.0000

> <Gold.Chemscore.Lipo>
59.8430

> <Gold.Chemscore.Internal_Hbond>
0.0000

> <Gold.Chemscore.DEClash>
0.0694

> <Gold.Chemscore.DEInternal>
0.0278

> <Gold.Chemscore.Rot>
1.0000

> <Gold.Chemscore.Internal.Correction>
   9.000000E+99

> <Gold.Chemscore.Hbonds>
donor molecule, donor type, donor heavy atom, donor atom, acceptor molecule, acceptor atom, score
      L1  H     9    21       P1  8028  1.00

> <Gold.Chemscore.Hbond.Weighted>
-3.3244

> <Gold.Chemscore.Metal.Weighted>
-0.0000

> <Gold.Chemscore.Lipo.Weighted>
-7.0016

> <Gold.Chemscore.Internal_Hbond.Weighted>
0.0000

> <Gold.Chemscore.DEClash.Weighted>
0.0694

> <Gold.Chemscore.DEInternal.Weighted>
0.0278

> <Gold.Chemscore.Rot.Weighted>
2.5600

> <Gold.Chemscore.Internal.Correction.Weighted>
   9.000000E+99

> <Gold.Protein.RotatedTorsions>
[ 6907 6896 6895 6894 ] final   60.07 input  -60.11 | X-H torsion
[ 7974 7965 7964 7962 ] final -152.70 input  175.53 | X-H torsion
[ 8008 7997 7996 7995 ] final   71.55 input   59.86 | X-H torsion
[ 10167 10162 10161 10158 ] final -178.32 input  -65.29 | X-H torsion
[ 10718 10713 10712 10709 ] final -108.64 input   66.30 | X-H torsion
[ 10763 10752 10751 10750 ] final   89.75 input  -60.55 | X-H torsion
[ 11005 11000 10999 10996 ] final   89.48 input  -57.11 | X-H torsion

> <Gold.Protein.ActiveResidues>
 VAL166  LYS551  ARG553  GLY616  TRP617  ASP618  TYR619  PRO620  LYS621  CYS622 
 ASP623  PHE694  ASN695  SER759  ASP760  ASP761  ALA762  ILE779  LEU786  VAL792 
 PHE793  MET794  SER795  GLU796  ALA797  LYS798  CYS799  TRP800  GLU811  SER814 

> <Gold.Protein.RotatedAtoms>
  152.3971  134.6348  160.0084 H   0  0  0  0  0  0  0  0  0  0  0  0  # atno 6907 bound_to 6896
  151.6564  133.3313  159.3172 H   0  0  0  0  0  0  0  0  0  0  0  0  # atno 6908 bound_to 6896
  150.7877  134.6918  159.6546 H   0  0  0  0  0  0  0  0  0  0  0  0  # atno 6909 bound_to 6896
  144.7780  140.4626  143.5859 H   0  0  0  0  0  0  0  0  0  0  0  0  # atno 7974 bound_to 7965
  155.7556  140.3487  155.5172 H   0  0  0  0  0  0  0  0  0  0  0  0  # atno 8008 bound_to 7997
  155.8963  140.1026  157.1403 H   0  0  0  0  0  0  0  0  0  0  0  0  # atno 8009 bound_to 7997
  154.4039  140.1294  156.4367 H   0  0  0  0  0  0  0  0  0  0  0  0  # atno 8010 bound_to 7997
  139.5438  144.2291  152.0948 H   0  0  0  0  0  0  0  0  0  0  0  0  # atno 10167 bound_to 10162
  156.0496  130.5723  150.7989 H   0  0  0  0  0  0  0  0  0  0  0  0  # atno 10718 bound_to 10713
  153.1903  135.4459  155.0141 H   0  0  0  0  0  0  0  0  0  0  0  0  # atno 10763 bound_to 10752
  154.8086  135.3285  154.7368 H   0  0  0  0  0  0  0  0  0  0  0  0  # atno 10764 bound_to 10752
  153.7822  135.6976  153.4941 H   0  0  0  0  0  0  0  0  0  0  0  0  # atno 10765 bound_to 10752
  139.8874  134.8554  156.3148 H   0  0  0  0  0  0  0  0  0  0  0  0  # atno 11005 bound_to 11000
  145.6131  139.1515  143.3065 LP  0  0  0  0  0  0  0  0  0  0  0  0  # atno 17320 bound_to 7965
  146.1971  140.6246  142.9119 LP  0  0  0  0  0  0  0  0  0  0  0  0  # atno 17321 bound_to 7965
  140.1774  144.4877  150.6546 LP  0  0  0  0  0  0  0  0  0  0  0  0  # atno 17342 bound_to 10162
  140.6678  143.2274  151.5699 LP  0  0  0  0  0  0  0  0  0  0  0  0  # atno 17343 bound_to 10162
  157.5408  131.0940  150.9830 LP  0  0  0  0  0  0  0  0  0  0  0  0  # atno 17370 bound_to 10713
  157.0113  130.5638  149.5321 LP  0  0  0  0  0  0  0  0  0  0  0  0  # atno 17371 bound_to 10713
  140.9826  133.7258  156.0694 LP  0  0  0  0  0  0  0  0  0  0  0  0  # atno 17394 bound_to 11000
  140.7730  134.3811  157.5504 LP  0  0  0  0  0  0  0  0  0  0  0  0  # atno 17395 bound_to 11000

$$$$
