AV-unprocessed.smi:2243|AV-procd|sdf|9062|dock2
  -GOLD-   2272012263D 1   1.00000     0.00000
 Structure written by MMmdl.
 34 35  0  0  0  0  0  0  0  0  1 V2000
  146.7636  141.6240  153.8088 C   0  0  0  0  0  0  0  0  0  0  0  0
  147.5823  140.3533  153.5223 C   0  0  2  0  0  0  0  0  0  0  0  0
  146.6662  139.2123  153.5430 N   0  0  0  0  0  0  0  0  0  0  0  0
  146.4277  138.3723  152.5240 C   0  0  0  0  0  0  0  0  0  0  0  0
  146.9718  138.4589  151.4229 O   0  0  0  0  0  0  0  0  0  0  0  0
  145.5284  137.4358  152.8689 N   0  0  0  0  0  0  0  0  0  0  0  0
  145.0291  136.3799  152.0652 C   0  0  0  0  0  0  0  0  0  0  0  0
  145.3451  136.1304  150.7934 N   0  0  0  0  0  0  0  0  0  0  0  0
  144.6022  135.0064  150.4626 C   0  0  0  0  0  0  0  0  0  0  0  0
  143.8726  134.6369  151.5633 C   0  0  0  0  0  0  0  0  0  0  0  0
  144.1339  135.5027  152.5912 O   0  0  0  0  0  0  0  0  0  0  0  0
  148.7476  140.1326  154.5234 C   0  0  0  0  0  0  0  0  0  0  0  0
  149.4988  141.4382  154.8550 C   0  0  0  0  0  0  0  0  0  0  0  0
  150.6956  141.1756  155.7834 C   0  0  0  0  0  0  0  0  0  0  0  0
  151.5757  140.2297  155.1897 O   0  0  0  0  0  0  0  0  0  0  0  0
  150.9609  138.9636  154.9868 C   0  0  0  0  0  0  0  0  0  0  0  0
  149.7788  139.1021  154.0142 C   0  0  0  0  0  0  0  0  0  0  0  0
  147.3578  142.5274  153.6751 H   0  0  0  0  0  0  0  0  0  0  0  0
  146.3734  141.6251  154.8271 H   0  0  0  0  0  0  0  0  0  0  0  0
  145.9146  141.7025  153.1285 H   0  0  0  0  0  0  0  0  0  0  0  0
  148.0137  140.4623  152.5255 H   0  0  0  0  0  0  0  0  0  0  0  0
  146.1704  139.0533  154.4079 H   0  0  0  0  0  0  0  0  0  0  0  0
  145.1607  137.4814  153.8076 H   0  0  0  0  0  0  0  0  0  0  0  0
  144.6504  134.5616  149.4796 H   0  0  0  0  0  0  0  0  0  0  0  0
  143.1713  133.8410  151.7655 H   0  0  0  0  0  0  0  0  0  0  0  0
  148.3257  139.7462  155.4528 H   0  0  0  0  0  0  0  0  0  0  0  0
  149.8511  141.9064  153.9349 H   0  0  0  0  0  0  0  0  0  0  0  0
  148.8345  142.1551  155.3365 H   0  0  0  0  0  0  0  0  0  0  0  0
  151.2426  142.1021  155.9586 H   0  0  0  0  0  0  0  0  0  0  0  0
  150.3607  140.8155  156.7574 H   0  0  0  0  0  0  0  0  0  0  0  0
  151.7012  138.2751  154.5788 H   0  0  0  0  0  0  0  0  0  0  0  0
  150.6333  138.5487  155.9412 H   0  0  0  0  0  0  0  0  0  0  0  0
  149.3172  138.1235  153.8807 H   0  0  0  0  0  0  0  0  0  0  0  0
  150.1504  139.4058  153.0345 H   0  0  0  0  0  0  0  0  0  0  0  0
  1  2  1  0  0  0  0
  1 18  1  0  0  0  0
  1 19  1  0  0  0  0
  1 20  1  0  0  0  0
  2  3  1  0  0  0  0
  2 12  1  0  0  0  0
  2 21  1  0  0  0  0
  3  4  1  0  0  0  0
  3 22  1  0  0  0  0
  4  5  2  0  0  0  0
  4  6  1  0  0  0  0
  6  7  1  0  0  0  0
  6 23  1  0  0  0  0
  7 11  1  0  0  0  0
  7  8  2  0  0  0  0
  8  9  1  0  0  0  0
  9 10  2  0  0  0  0
  9 24  1  0  0  0  0
 10 11  1  0  0  0  0
 10 25  1  0  0  0  0
 12 17  1  0  0  0  0
 12 13  1  0  0  0  0
 12 26  1  0  0  0  0
 13 14  1  0  0  0  0
 13 27  1  0  0  0  0
 13 28  1  0  0  0  0
 14 15  1  0  0  0  0
 14 29  1  0  0  0  0
 14 30  1  0  0  0  0
 15 16  1  0  0  0  0
 16 17  1  0  0  0  0
 16 31  1  0  0  0  0
 16 32  1  0  0  0  0
 17 33  1  0  0  0  0
 17 34  1  0  0  0  0
M  END
> <s_m_source_file>
AV-unprocessed.smi

> <i_m_source_file_index>
2243

> <i_lp_mmshare_version>
43012

> <i_f3d_flags>
0

> <s_epik_input>
W0NIMl0xW0NIMl1PW0NIMl1bQ0gyXVtDSF0xW0NASF0oW0NIM10pW05IXUMoPU8pW05IXWMybltjSF1bY0hdbzI=

> <s_epik_cmdline>
J2VwaWtfcHl0aG9uJywgJy1waCcsICc3LjAnLCAnLXRuJywgJzgnLCAnLW1hJywgJzIwMCcsICctbWV0YWxfYmluZGluZycsICctaW1hZScsICc8aW5maWxlLm1hZT4nLCAnLW9tYWUnLCAnPG91dGZpbGUubWFlPic=

> <r_lp_tautomer_probability>
0.785861

> <r_epik_Ionization_Penalty>
5.17761e-05

> <r_epik_Ionization_Penalty_Charging>
0

> <r_epik_Ionization_Penalty_Neutral>
5.17761e-05

> <r_epik_State_Penalty>
0.0447104

> <r_epik_Charging_Adjusted_Penalty>
0.0447104

> <i_epik_Tot_Q>
0

> <i_epik_Tot_abs_Q>
0

> <r_epik_Metal_State_Penalty>
0.0593601

> <b_epik_Metal_Only>
0

> <s_lp_Force_Field>
OPLS_2005

> <r_lp_Energy>
10.6877

> <b_lp_Chiralities_Consistent>
1

> <s_lp_Variant>
AV-unprocessed.smi:2243-1

> <Gold.Version>
5.8.1

> <Gold.Id.Protein>
6NUR|6NUR_protein|mol2

> <Gold.PLP.Fitness>
37.5911

> <Gold.PLP.PLP>
-29.2296

> <Gold.PLP.part.hbond>
-2.0000

> <Gold.PLP.part.metal>
0.0000

> <Gold.PLP.part.buried>
-3.3349

> <Gold.PLP.part.nonpolar>
-26.8266

> <Gold.PLP.part.repulsive>
2.9277

> <Gold.PLP.ligand.clash>
0.0000

> <Gold.PLP.ligand.torsion>
0.2668

> <Gold.PLP.Chemscore.Hbond>
1.9600

> <Gold.PLP.Chemscore.CHOScore>
1.0000

> <Gold.PLP.Chemscore.Metal>
0.0000

> <Gold.Chemscore.Hbonds>
donor molecule, donor type, donor heavy atom, donor atom, acceptor molecule, acceptor atom, score
      P1  H  7954  7966       L1     5  1.00
      P1  H  7989  7998       L1    15  0.96
      L1  C     9    24       P1  7921  1.00

> <Gold.PLP.Chemscore.Internal.Correction>
0.0151

> <Gold.Rescore>
     Score         DG    S(hbond)    S(metal)    S(lipo)     H(rot)  DE(clash)    DE(int)     intcor
     10.30     -13.17       1.18        0.00      60.94       1.32       1.34       1.53       ----

> <Gold.Chemscore.Fitness>
10.3001

> <Gold.Chemscore.DG>
-13.1740

> <Gold.Chemscore.ZeroCoef>
-5.4800

> <Gold.Chemscore.Hbond>
1.1805

> <Gold.Chemscore.Metal>
0.0000

> <Gold.Chemscore.Lipo>
60.9448

> <Gold.Chemscore.Internal_Hbond>
0.0000

> <Gold.Chemscore.DEClash>
1.3410

> <Gold.Chemscore.DEInternal>
1.5329

> <Gold.Chemscore.Rot>
1.3201

> <Gold.Chemscore.Internal.Correction>
   9.000000E+99

> <Gold.Chemscore.Hbonds>
donor molecule, donor type, donor heavy atom, donor atom, acceptor molecule, acceptor atom, score
      P1  H  7954  7966       L1     5  0.93
      P1  H  7989  7998       L1    15  0.08

> <Gold.Chemscore.Hbond.Weighted>
-3.9428

> <Gold.Chemscore.Metal.Weighted>
-0.0000

> <Gold.Chemscore.Lipo.Weighted>
-7.1305

> <Gold.Chemscore.Internal_Hbond.Weighted>
0.0000

> <Gold.Chemscore.DEClash.Weighted>
1.3410

> <Gold.Chemscore.DEInternal.Weighted>
1.5329

> <Gold.Chemscore.Rot.Weighted>
3.3794

> <Gold.Chemscore.Internal.Correction.Weighted>
   9.000000E+99

> <Gold.Protein.RotatedTorsions>
[ 6907 6896 6895 6894 ] final -165.69 input  -60.11 | X-H torsion
[ 7974 7965 7964 7962 ] final  134.55 input  175.53 | X-H torsion
[ 8008 7997 7996 7995 ] final  -60.72 input   59.86 | X-H torsion
[ 10167 10162 10161 10158 ] final  114.70 input  -65.29 | X-H torsion
[ 10718 10713 10712 10709 ] final  -38.74 input   66.30 | X-H torsion
[ 10763 10752 10751 10750 ] final  107.10 input  -60.55 | X-H torsion
[ 11005 11000 10999 10996 ] final -117.96 input  -57.11 | X-H torsion

> <Gold.Protein.ActiveResidues>
 VAL166  LYS551  ARG553  GLY616  TRP617  ASP618  TYR619  PRO620  LYS621  CYS622 
 ASP623  PHE694  ASN695  SER759  ASP760  ASP761  ALA762  ILE779  LEU786  VAL792 
 PHE793  MET794  SER795  GLU796  ALA797  LYS798  CYS799  TRP800  GLU811  SER814 

> <Gold.Protein.RotatedAtoms>
  151.4317  133.3668  159.2769 H   0  0  0  0  0  0  0  0  0  0  0  0  # atno 6907 bound_to 6896
  150.9220  134.8639  159.7506 H   0  0  0  0  0  0  0  0  0  0  0  0  # atno 6908 bound_to 6896
  152.4986  134.4256  159.9547 H   0  0  0  0  0  0  0  0  0  0  0  0  # atno 6909 bound_to 6896
  144.9752  139.4562  143.5413 H   0  0  0  0  0  0  0  0  0  0  0  0  # atno 7974 bound_to 7965
  154.4412  140.1033  156.6317 H   0  0  0  0  0  0  0  0  0  0  0  0  # atno 8008 bound_to 7997
  155.5597  140.3487  155.4470 H   0  0  0  0  0  0  0  0  0  0  0  0  # atno 8009 bound_to 7997
  156.0469  140.1295  157.0083 H   0  0  0  0  0  0  0  0  0  0  0  0  # atno 8010 bound_to 7997
  139.6370  144.7120  151.2315 H   0  0  0  0  0  0  0  0  0  0  0  0  # atno 10167 bound_to 10162
  156.3003  130.4239  149.8150 H   0  0  0  0  0  0  0  0  0  0  0  0  # atno 10718 bound_to 10713
  153.4021  135.3855  155.1995 H   0  0  0  0  0  0  0  0  0  0  0  0  # atno 10763 bound_to 10752
  154.8730  135.3774  154.4605 H   0  0  0  0  0  0  0  0  0  0  0  0  # atno 10764 bound_to 10752
  153.5104  135.7087  153.5846 H   0  0  0  0  0  0  0  0  0  0  0  0  # atno 10765 bound_to 10752
  141.0319  133.9968  157.3130 H   0  0  0  0  0  0  0  0  0  0  0  0  # atno 11005 bound_to 11000
  146.3393  139.8991  142.8797 LP  0  0  0  0  0  0  0  0  0  0  0  0  # atno 17320 bound_to 7965
  145.2500  141.0040  143.3886 LP  0  0  0  0  0  0  0  0  0  0  0  0  # atno 17321 bound_to 7965
  140.7470  143.6379  150.8362 LP  0  0  0  0  0  0  0  0  0  0  0  0  # atno 17342 bound_to 10162
  140.0011  143.5743  152.2875 LP  0  0  0  0  0  0  0  0  0  0  0  0  # atno 17343 bound_to 10162
  156.5530  130.8350  151.3305 LP  0  0  0  0  0  0  0  0  0  0  0  0  # atno 17370 bound_to 10713
  157.7366  130.9782  150.2146 LP  0  0  0  0  0  0  0  0  0  0  0  0  # atno 17371 bound_to 10713
  139.9214  135.0200  156.8076 LP  0  0  0  0  0  0  0  0  0  0  0  0  # atno 17394 bound_to 11000
  140.6391  133.9835  155.7699 LP  0  0  0  0  0  0  0  0  0  0  0  0  # atno 17395 bound_to 11000

$$$$
