AV-unprocessed.smi:726|AV-procd|sdf|3510|dock7
  -GOLD-   22720 0513D 1   1.00000     0.00000
 Structure written by MMmdl.
 24 24  0  0  0  0  0  0  0  0  2 V2000
  150.5276  135.8204  156.3691 C   0  0  0  0  0  0  0  0  0  0  0  0
  150.9070  137.2815  156.1556 C   0  0  0  0  0  0  0  0  0  0  0  0
  150.4447  137.9420  155.0781 C   0  0  0  0  0  0  0  0  0  0  0  0
  150.8347  139.3084  154.8487 C   0  0  0  0  0  0  0  0  0  0  0  0
  150.3568  139.9768  153.7916 O   0  0  0  0  0  0  0  0  0  0  0  0
  151.6904  139.9022  155.6972 C   0  0  0  0  0  0  0  0  0  0  0  0
  152.2361  139.2071  156.8646 C   0  0  0  0  0  0  0  0  0  0  0  0
  153.0564  139.7674  157.5913 O   0  0  0  0  0  0  0  0  0  0  0  0
  151.7886  137.9225  157.0864 N   0  0  0  0  0  0  0  0  0  0  0  0
  152.1891  137.2101  158.3388 C   0  0  2  0  0  0  0  0  0  0  0  0
  152.0486  138.0767  159.6158 C   0  0  0  0  0  0  0  0  0  0  0  0
  153.5408  136.4870  158.1955 C   0  0  0  0  0  0  0  0  0  0  0  0
  154.1745  136.6341  157.1271 O   0  0  0  0  0  0  0  0  0  0  0  0
  153.9183  135.7925  159.1648 O   0  5  0  0  0  0  0  0  0  0  0  0
  150.0281  135.4162  155.4880 H   0  0  0  0  0  0  0  0  0  0  0  0
  149.8387  135.7174  157.2080 H   0  0  0  0  0  0  0  0  0  0  0  0
  151.4056  135.1983  156.5420 H   0  0  0  0  0  0  0  0  0  0  0  0
  149.7929  137.4466  154.3731 H   0  0  0  0  0  0  0  0  0  0  0  0
  150.0986  139.3376  153.1454 H   0  0  0  0  0  0  0  0  0  0  0  0
  151.9875  140.9260  155.5200 H   0  0  0  0  0  0  0  0  0  0  0  0
  151.4979  136.4039  158.5620 H   0  0  0  0  0  0  0  0  0  0  0  0
  152.1696  137.4620  160.5085 H   0  0  0  0  0  0  0  0  0  0  0  0
  151.0590  138.5307  159.6700 H   0  0  0  0  0  0  0  0  0  0  0  0
  152.7865  138.8743  159.6882 H   0  0  0  0  0  0  0  0  0  0  0  0
  1  2  1  0  0  0  0
  1 15  1  0  0  0  0
  1 16  1  0  0  0  0
  1 17  1  0  0  0  0
  2  9  1  0  0  0  0
  2  3  2  0  0  0  0
  3  4  1  0  0  0  0
  3 18  1  0  0  0  0
  4  5  1  0  0  0  0
  4  6  2  0  0  0  0
  5 19  1  0  0  0  0
  6  7  1  0  0  0  0
  6 20  1  0  0  0  0
  7  8  2  0  0  0  0
  7  9  1  0  0  0  0
  9 10  1  0  0  0  0
 10 11  1  0  0  0  0
 10 12  1  0  0  0  0
 10 21  1  0  0  0  0
 11 22  1  0  0  0  0
 11 23  1  0  0  0  0
 11 24  1  0  0  0  0
 12 13  2  0  0  0  0
 12 14  1  0  0  0  0
M  CHG  1  14  -1
M  END
> <s_m_source_file>
AV-unprocessed.smi

> <i_m_source_file_index>
726

> <i_lp_mmshare_version>
43012

> <i_f3d_flags>
0

> <s_epik_input>
W0NIM11jMVtjSF1jKFtPSF0pW2NIXWMoPU8pbjFbQ0BIXShbQ0gzXSlDKD1PKVtPSF0=

> <s_epik_cmdline>
J2VwaWtfcHl0aG9uJywgJy1waCcsICc3LjAnLCAnLXRuJywgJzgnLCAnLW1hJywgJzIwMCcsICctbWV0YWxfYmluZGluZycsICctaW1hZScsICc8aW5maWxlLm1hZT4nLCAnLW9tYWUnLCAnPG91dGZpbGUubWFlPic=

> <r_lp_tautomer_probability>
0.999984

> <r_epik_Ionization_Penalty>
0.316948

> <r_epik_Ionization_Penalty_Charging>
0.000813874

> <r_epik_Ionization_Penalty_Neutral>
0.316134

> <r_epik_State_Penalty>
0.363429

> <r_epik_Charging_Adjusted_Penalty>
0.364242

> <i_epik_Tot_Q>
-1

> <i_epik_Tot_abs_Q>
1

> <r_epik_Metal_State_Penalty>
0.363429

> <b_epik_Metal_Only>
0

> <s_lp_Force_Field>
OPLS_2005

> <r_lp_Energy>
20.5014

> <b_lp_Chiralities_Consistent>
1

> <s_lp_Variant>
AV-unprocessed.smi:726-1

> <Gold.Version>
5.8.1

> <Gold.Id.Protein>
6NUR|6NUR_protein|mol2

> <Gold.PLP.Fitness>
36.9492

> <Gold.PLP.PLP>
-19.1202

> <Gold.PLP.part.hbond>
-4.8645

> <Gold.PLP.part.metal>
0.0000

> <Gold.PLP.part.buried>
-1.5229

> <Gold.PLP.part.nonpolar>
-13.0445

> <Gold.PLP.part.repulsive>
0.0000

> <Gold.PLP.ligand.clash>
0.0000

> <Gold.PLP.ligand.torsion>
0.5740

> <Gold.PLP.Chemscore.Hbond>
6.2279

> <Gold.PLP.Chemscore.CHOScore>
0.0000

> <Gold.PLP.Chemscore.Metal>
0.0000

> <Gold.Chemscore.Hbonds>
donor molecule, donor type, donor heavy atom, donor atom, acceptor molecule, acceptor atom, score
      L1  H     5    19       P1  7957  0.26
      P1  H  6896  6908       L1    14  2.00
      P1  H  7989  7998       L1     5  0.88
      P1  H  7997  8008       L1     8  1.00
      P1  H 10752 10764       L1    13  1.21

> <Gold.PLP.Chemscore.Internal.Correction>
0.2932

> <Gold.Rescore>
     Score         DG    S(hbond)    S(metal)    S(lipo)     H(rot)  DE(clash)    DE(int)     intcor
     14.44     -16.39       3.54        0.00      37.14       2.06       0.01       1.94       ----

> <Gold.Chemscore.Fitness>
14.4381

> <Gold.Chemscore.DG>
-16.3865

> <Gold.Chemscore.ZeroCoef>
-5.4800

> <Gold.Chemscore.Hbond>
3.5427

> <Gold.Chemscore.Metal>
0.0000

> <Gold.Chemscore.Lipo>
37.1386

> <Gold.Chemscore.Internal_Hbond>
0.0000

> <Gold.Chemscore.DEClash>
0.0130

> <Gold.Chemscore.DEInternal>
1.9354

> <Gold.Chemscore.Rot>
2.0592

> <Gold.Chemscore.Internal.Correction>
   9.000000E+99

> <Gold.Chemscore.Hbonds>
donor molecule, donor type, donor heavy atom, donor atom, acceptor molecule, acceptor atom, score
      L1  H     5    19       P1  7957  0.24
      P1  H  6896  6908       L1    14  0.81
      P1  H  7989  7998       L1     5  0.18
      P1  H  7997  8008       L1     8  0.64
      P1  H 10752 10764       L1    13  0.58

> <Gold.Chemscore.Hbond.Weighted>
-11.8327

> <Gold.Chemscore.Metal.Weighted>
-0.0000

> <Gold.Chemscore.Lipo.Weighted>
-4.3452

> <Gold.Chemscore.Internal_Hbond.Weighted>
0.0000

> <Gold.Chemscore.DEClash.Weighted>
0.0130

> <Gold.Chemscore.DEInternal.Weighted>
1.9354

> <Gold.Chemscore.Rot.Weighted>
5.2715

> <Gold.Chemscore.Internal.Correction.Weighted>
   9.000000E+99

> <Gold.Protein.RotatedTorsions>
[ 6907 6896 6895 6894 ] final  -54.31 input  -60.11 | X-H torsion
[ 7974 7965 7964 7962 ] final   31.75 input  175.53 | X-H torsion
[ 8008 7997 7996 7995 ] final  -62.61 input   59.86 | X-H torsion
[ 10167 10162 10161 10158 ] final -178.12 input  -65.29 | X-H torsion
[ 10718 10713 10712 10709 ] final   -3.05 input   66.30 | X-H torsion
[ 10763 10752 10751 10750 ] final   32.61 input  -60.55 | X-H torsion
[ 11005 11000 10999 10996 ] final  -76.89 input  -57.11 | X-H torsion

> <Gold.Protein.ActiveResidues>
 VAL166  LYS551  ARG553  GLY616  TRP617  ASP618  TYR619  PRO620  LYS621  CYS622 
 ASP623  PHE694  ASN695  SER759  ASP760  ASP761  ALA762  ILE779  LEU786  VAL792 
 PHE793  MET794  SER795  GLU796  ALA797  LYS798  CYS799  TRP800  GLU811  SER814 

> <Gold.Protein.RotatedAtoms>
  150.8349  134.7618  159.6884 H   0  0  0  0  0  0  0  0  0  0  0  0  # atno 6907 bound_to 6896
  152.4448  134.5514  159.9878 H   0  0  0  0  0  0  0  0  0  0  0  0  # atno 6908 bound_to 6896
  151.5667  133.3358  159.3017 H   0  0  0  0  0  0  0  0  0  0  0  0  # atno 6909 bound_to 6896
  146.1530  139.6616  142.9085 H   0  0  0  0  0  0  0  0  0  0  0  0  # atno 7974 bound_to 7965
  154.4509  140.0992  156.6614 H   0  0  0  0  0  0  0  0  0  0  0  0  # atno 8008 bound_to 7997
  155.5289  140.3481  155.4403 H   0  0  0  0  0  0  0  0  0  0  0  0  # atno 8009 bound_to 7997
  156.0678  140.1342  156.9854 H   0  0  0  0  0  0  0  0  0  0  0  0  # atno 8010 bound_to 7997
  139.5447  144.2267  152.0965 H   0  0  0  0  0  0  0  0  0  0  0  0  # atno 10167 bound_to 10162
  156.7818  130.5333  149.5749 H   0  0  0  0  0  0  0  0  0  0  0  0  # atno 10718 bound_to 10713
  153.0253  135.6408  154.1382 H   0  0  0  0  0  0  0  0  0  0  0  0  # atno 10763 bound_to 10752
  154.1112  135.2853  155.3231 H   0  0  0  0  0  0  0  0  0  0  0  0  # atno 10764 bound_to 10752
  154.6330  135.5486  153.7765 H   0  0  0  0  0  0  0  0  0  0  0  0  # atno 10765 bound_to 10752
  141.1657  133.7001  156.7737 H   0  0  0  0  0  0  0  0  0  0  0  0  # atno 11005 bound_to 11000
  145.4776  141.0437  143.2664 LP  0  0  0  0  0  0  0  0  0  0  0  0  # atno 17320 bound_to 7965
  144.7928  139.6294  143.7106 LP  0  0  0  0  0  0  0  0  0  0  0  0  # atno 17321 bound_to 7965
  140.1751  144.4898  150.6558 LP  0  0  0  0  0  0  0  0  0  0  0  0  # atno 17342 bound_to 10162
  140.6691  143.2279  151.5669 LP  0  0  0  0  0  0  0  0  0  0  0  0  # atno 17343 bound_to 10162
  156.1213  130.6112  151.0197 LP  0  0  0  0  0  0  0  0  0  0  0  0  # atno 17370 bound_to 10713
  157.6642  131.0875  150.7767 LP  0  0  0  0  0  0  0  0  0  0  0  0  # atno 17371 bound_to 10713
  140.2445  134.8588  157.3606 LP  0  0  0  0  0  0  0  0  0  0  0  0  # atno 17394 bound_to 11000
  140.1763  134.4545  155.7800 LP  0  0  0  0  0  0  0  0  0  0  0  0  # atno 17395 bound_to 11000

$$$$
