AV-unprocessed.smi:3193|AV-procd|sdf|12204|dock3
  -GOLD-   2272018 43D 1   1.00000     0.00000
 Structure written by MMmdl.
 40 41  0  0  0  0  0  0  0  0  2 V2000
  153.0111  141.4731  159.0764 C   0  0  0  0  0  0  0  0  0  0  0  0
  152.1999  142.7512  159.3614 C   0  0  1  0  0  0  0  0  0  0  0  0
  152.5692  143.2927  160.7590 C   0  0  0  0  0  0  0  0  0  0  0  0
  151.7502  144.5357  161.1311 C   0  0  0  0  0  0  0  0  0  0  0  0
  151.9152  145.6323  160.0735 C   0  0  0  0  0  0  0  0  0  0  0  0
  151.5401  145.1083  158.6805 C   0  0  0  0  0  0  0  0  0  0  0  0
  152.3639  143.8634  158.2814 C   0  0  2  0  0  0  0  0  0  0  0  0
  151.9547  143.4152  156.8602 C   0  0  0  0  0  0  0  0  0  0  0  0
  150.5889  142.8570  156.8309 N   0  3  0  0  0  0  0  0  0  0  0  0
  150.4612  141.5909  156.0825 C   0  0  0  0  0  0  0  0  0  0  0  0
  151.4236  140.5240  156.6268 C   0  0  0  0  0  0  0  0  0  0  0  0
  151.5367  139.3917  155.7259 N   0  0  0  0  0  0  0  0  0  0  0  0
  150.5303  138.8388  154.9449 C   0  0  0  0  0  0  0  0  0  0  0  0
  151.0928  137.7775  154.2722 C   0  0  0  0  0  0  0  0  0  0  0  0
  152.4366  137.6624  154.6197 N   0  0  0  0  0  0  0  0  0  0  0  0
  152.6290  138.6557  155.4772 C   0  0  0  0  0  0  0  0  0  0  0  0
  154.0662  141.6967  158.9161 H   0  0  0  0  0  0  0  0  0  0  0  0
  152.6374  140.9423  158.2014 H   0  0  0  0  0  0  0  0  0  0  0  0
  152.9466  140.7741  159.9107 H   0  0  0  0  0  0  0  0  0  0  0  0
  151.1480  142.4630  159.3918 H   0  0  0  0  0  0  0  0  0  0  0  0
  152.4089  142.5215  161.5133 H   0  0  0  0  0  0  0  0  0  0  0  0
  153.6323  143.5360  160.7911 H   0  0  0  0  0  0  0  0  0  0  0  0
  150.6969  144.2684  161.2231 H   0  0  0  0  0  0  0  0  0  0  0  0
  152.0621  144.9094  162.1067 H   0  0  0  0  0  0  0  0  0  0  0  0
  151.2934  146.4911  160.3283 H   0  0  0  0  0  0  0  0  0  0  0  0
  152.9467  145.9869  160.0681 H   0  0  0  0  0  0  0  0  0  0  0  0
  150.4758  144.8689  158.6580 H   0  0  0  0  0  0  0  0  0  0  0  0
  151.6895  145.9056  157.9515 H   0  0  0  0  0  0  0  0  0  0  0  0
  153.4115  144.1687  158.2542 H   0  0  0  0  0  0  0  0  0  0  0  0
  152.0369  144.2517  156.1648 H   0  0  0  0  0  0  0  0  0  0  0  0
  152.6286  142.6378  156.4976 H   0  0  0  0  0  0  0  0  0  0  0  0
  150.2698  142.7153  157.7787 H   0  0  0  0  0  0  0  0  0  0  0  0
  149.4345  141.2281  156.1494 H   0  0  0  0  0  0  0  0  0  0  0  0
  150.6654  141.7781  155.0278 H   0  0  0  0  0  0  0  0  0  0  0  0
  152.4177  140.9509  156.7645 H   0  0  0  0  0  0  0  0  0  0  0  0
  151.0937  140.1702  157.6047 H   0  0  0  0  0  0  0  0  0  0  0  0
  149.5240  139.2314  154.9347 H   0  0  0  0  0  0  0  0  0  0  0  0
  150.6374  137.0933  153.5711 H   0  0  0  0  0  0  0  0  0  0  0  0
  153.5848  138.8439  155.9443 H   0  0  0  0  0  0  0  0  0  0  0  0
  149.9895  143.5389  156.3880 H   0  0  0  0  0  0  0  0  0  0  0  0
  1  2  1  0  0  0  0
  1 17  1  0  0  0  0
  1 18  1  0  0  0  0
  1 19  1  0  0  0  0
  2  7  1  0  0  0  0
  2  3  1  0  0  0  0
  2 20  1  0  0  0  0
  3  4  1  0  0  0  0
  3 21  1  0  0  0  0
  3 22  1  0  0  0  0
  4  5  1  0  0  0  0
  4 23  1  0  0  0  0
  4 24  1  0  0  0  0
  5  6  1  0  0  0  0
  5 25  1  0  0  0  0
  5 26  1  0  0  0  0
  6  7  1  0  0  0  0
  6 27  1  0  0  0  0
  6 28  1  0  0  0  0
  7  8  1  0  0  0  0
  7 29  1  0  0  0  0
  8  9  1  0  0  0  0
  8 30  1  0  0  0  0
  8 31  1  0  0  0  0
  9 10  1  0  0  0  0
  9 32  1  0  0  0  0
  9 40  1  0  0  0  0
 10 11  1  0  0  0  0
 10 33  1  0  0  0  0
 10 34  1  0  0  0  0
 11 12  1  0  0  0  0
 11 35  1  0  0  0  0
 11 36  1  0  0  0  0
 12 16  1  0  0  0  0
 12 13  1  0  0  0  0
 13 14  2  0  0  0  0
 13 37  1  0  0  0  0
 14 15  1  0  0  0  0
 14 38  1  0  0  0  0
 15 16  2  0  0  0  0
 16 39  1  0  0  0  0
M  CHG  1   9   1
M  END
> <s_m_source_file>
AV-unprocessed.smi

> <i_m_source_file_index>
3193

> <i_lp_mmshare_version>
43012

> <i_f3d_flags>
0

> <s_epik_input>
W0NIM11bQ0BASF0xW0NIMl1bQ0gyXVtDSDJdW0NIMl1bQ0BIXTFbQ0gyXVtOSF1bQ0gyXVtDSDJdbjJbY0hdW2NIXW5bY0hdMg==

> <s_epik_cmdline>
J2VwaWtfcHl0aG9uJywgJy1waCcsICc3LjAnLCAnLXRuJywgJzgnLCAnLW1hJywgJzIwMCcsICctbWV0YWxfYmluZGluZycsICctaW1hZScsICc8aW5maWxlLm1hZT4nLCAnLW9tYWUnLCAnPG91dGZpbGUubWFlPic=

> <r_lp_tautomer_probability>
1

> <r_epik_Ionization_Penalty>
0.0503046

> <r_epik_Ionization_Penalty_Charging>
0.0503046

> <r_epik_Ionization_Penalty_Neutral>
0

> <r_epik_State_Penalty>
0.0981804

> <r_epik_Charging_Adjusted_Penalty>
0.148485

> <i_epik_Tot_Q>
1

> <i_epik_Tot_abs_Q>
1

> <r_epik_Metal_State_Penalty>
0.000105854

> <b_epik_Metal_Only>
0

> <s_lp_Force_Field>
OPLS_2005

> <r_lp_Energy>
18.894

> <b_lp_Chiralities_Consistent>
1

> <s_lp_Variant>
AV-unprocessed.smi:3193-4

> <Gold.Version>
5.8.1

> <Gold.Id.Protein>
6NUR|6NUR_protein|mol2

> <Gold.PLP.Fitness>
53.3624

> <Gold.PLP.PLP>
-44.5212

> <Gold.PLP.part.hbond>
-2.0000

> <Gold.PLP.part.metal>
0.0000

> <Gold.PLP.part.buried>
-5.1029

> <Gold.PLP.part.nonpolar>
-37.6091

> <Gold.PLP.part.repulsive>
0.1291

> <Gold.PLP.ligand.clash>
0.0000

> <Gold.PLP.ligand.torsion>
0.7508

> <Gold.PLP.Chemscore.Hbond>
2.3838

> <Gold.PLP.Chemscore.CHOScore>
1.0593

> <Gold.PLP.Chemscore.Metal>
0.0000

> <Gold.Chemscore.Hbonds>
donor molecule, donor type, donor heavy atom, donor atom, acceptor molecule, acceptor atom, score
      L1  H     9    40       P1  8028  2.00
      P1  H 10752 10764       L1    15  0.53
      L1  C    14    38       P1  7948  0.46
      L1  C    14    38       P1  7949  0.64

> <Gold.PLP.Chemscore.Internal.Correction>
0.0136

> <Gold.Rescore>
     Score         DG    S(hbond)    S(metal)    S(lipo)     H(rot)  DE(clash)    DE(int)     intcor
     18.78     -20.62       1.90        0.00     116.65       1.89       1.32       0.52       ----

> <Gold.Chemscore.Fitness>
18.7796

> <Gold.Chemscore.DG>
-20.6216

> <Gold.Chemscore.ZeroCoef>
-5.4800

> <Gold.Chemscore.Hbond>
1.8955

> <Gold.Chemscore.Metal>
0.0000

> <Gold.Chemscore.Lipo>
116.6465

> <Gold.Chemscore.Internal_Hbond>
0.0000

> <Gold.Chemscore.DEClash>
1.3247

> <Gold.Chemscore.DEInternal>
0.5173

> <Gold.Chemscore.Rot>
1.8895

> <Gold.Chemscore.Internal.Correction>
   9.000000E+99

> <Gold.Chemscore.Hbonds>
donor molecule, donor type, donor heavy atom, donor atom, acceptor molecule, acceptor atom, score
      L1  H     9    40       P1  8028  1.00
      P1  H 10752 10764       L1    15  0.31

> <Gold.Chemscore.Hbond.Weighted>
-6.3310

> <Gold.Chemscore.Metal.Weighted>
-0.0000

> <Gold.Chemscore.Lipo.Weighted>
-13.6476

> <Gold.Chemscore.Internal_Hbond.Weighted>
0.0000

> <Gold.Chemscore.DEClash.Weighted>
1.3247

> <Gold.Chemscore.DEInternal.Weighted>
0.5173

> <Gold.Chemscore.Rot.Weighted>
4.8371

> <Gold.Chemscore.Internal.Correction.Weighted>
   9.000000E+99

> <Gold.Protein.RotatedTorsions>
[ 6907 6896 6895 6894 ] final  -91.46 input  -60.11 | X-H torsion
[ 7974 7965 7964 7962 ] final  -17.40 input  175.53 | X-H torsion
[ 8008 7997 7996 7995 ] final   16.05 input   59.86 | X-H torsion
[ 10167 10162 10161 10158 ] final   89.48 input  -65.29 | X-H torsion
[ 10718 10713 10712 10709 ] final  -96.90 input   66.30 | X-H torsion
[ 10763 10752 10751 10750 ] final  -78.83 input  -60.55 | X-H torsion
[ 11005 11000 10999 10996 ] final  -74.24 input  -57.11 | X-H torsion

> <Gold.Protein.ActiveResidues>
 VAL166  LYS551  ARG553  GLY616  TRP617  ASP618  TYR619  PRO620  LYS621  CYS622 
 ASP623  PHE694  ASN695  SER759  ASP760  ASP761  ALA762  ILE779  LEU786  VAL792 
 PHE793  MET794  SER795  GLU796  ALA797  LYS798  CYS799  TRP800  GLU811  SER814 

> <Gold.Protein.RotatedAtoms>
  150.6893  134.2274  159.4420 H   0  0  0  0  0  0  0  0  0  0  0  0  # atno 6907 bound_to 6896
  152.0227  134.9811  160.0580 H   0  0  0  0  0  0  0  0  0  0  0  0  # atno 6908 bound_to 6896
  152.1382  133.4413  159.4790 H   0  0  0  0  0  0  0  0  0  0  0  0  # atno 6909 bound_to 6896
  146.1943  140.3774  142.8446 H   0  0  0  0  0  0  0  0  0  0  0  0  # atno 7974 bound_to 7965
  154.8714  140.2959  155.5479 H   0  0  0  0  0  0  0  0  0  0  0  0  # atno 8008 bound_to 7997
  156.3021  140.2459  156.3636 H   0  0  0  0  0  0  0  0  0  0  0  0  # atno 8009 bound_to 7997
  154.8813  140.0398  157.1773 H   0  0  0  0  0  0  0  0  0  0  0  0  # atno 8010 bound_to 7997
  139.8568  144.6565  150.9105 H   0  0  0  0  0  0  0  0  0  0  0  0  # atno 10167 bound_to 10162
  156.0072  130.5171  150.6295 H   0  0  0  0  0  0  0  0  0  0  0  0  # atno 10718 bound_to 10713
  154.5309  135.5716  153.6758 H   0  0  0  0  0  0  0  0  0  0  0  0  # atno 10763 bound_to 10752
  152.9939  135.6204  154.2630 H   0  0  0  0  0  0  0  0  0  0  0  0  # atno 10764 bound_to 10752
  154.2556  135.2857  155.2778 H   0  0  0  0  0  0  0  0  0  0  0  0  # atno 10765 bound_to 10752
  141.1633  133.6905  156.7334 H   0  0  0  0  0  0  0  0  0  0  0  0  # atno 11005 bound_to 11000
  144.8548  140.7054  143.6145 LP  0  0  0  0  0  0  0  0  0  0  0  0  # atno 17320 bound_to 7965
  145.3695  139.1662  143.4340 LP  0  0  0  0  0  0  0  0  0  0  0  0  # atno 17321 bound_to 7965
  140.7780  143.3779  151.1530 LP  0  0  0  0  0  0  0  0  0  0  0  0  # atno 17342 bound_to 10162
  139.7412  143.8921  152.3050 LP  0  0  0  0  0  0  0  0  0  0  0  0  # atno 17343 bound_to 10162
  157.4095  131.0821  151.1234 LP  0  0  0  0  0  0  0  0  0  0  0  0  # atno 17370 bound_to 10713
  157.1870  130.6335  149.5691 LP  0  0  0  0  0  0  0  0  0  0  0  0  # atno 17371 bound_to 10713
  140.2728  134.8379  157.3863 LP  0  0  0  0  0  0  0  0  0  0  0  0  # atno 17394 bound_to 11000
  140.1505  134.4855  155.7964 LP  0  0  0  0  0  0  0  0  0  0  0  0  # atno 17395 bound_to 11000

$$$$
