AV-unprocessed.smi:36|AV-procd|sdf|291|dock6
  -GOLD-   2262016 83D 1   1.00000     0.00000
 Structure written by MMmdl.
 64 67  0  0  0  0  0  0  0  0  1 V2000
  146.8262  133.8045  162.1498 C   0  0  0  0  0  0  0  0  0  0  0  0
  146.3974  135.2185  161.7236 C   0  0  0  0  0  0  0  0  0  0  0  0
  145.1126  135.6161  162.4708 C   0  0  0  0  0  0  0  0  0  0  0  0
  147.5190  136.2228  162.0372 C   0  0  0  0  0  0  0  0  0  0  0  0
  146.0460  135.2254  159.8462 Si  0  0  0  0  0  0  0  0  0  0  0  0
  144.6109  134.0522  159.4208 C   0  0  0  0  0  0  0  0  0  0  0  0
  145.6432  136.9747  159.2253 C   0  0  0  0  0  0  0  0  0  0  0  0
  147.4513  134.7037  159.0582 O   0  0  0  0  0  0  0  0  0  0  0  0
  147.5147  134.3535  157.6905 C   0  0  0  0  0  0  0  0  0  0  0  0
  148.8192  134.9021  157.0915 C   0  0  2  0  0  0  0  0  0  0  0  0
  148.5776  136.0723  156.3205 O   0  0  0  0  0  0  0  0  0  0  0  0
  149.6271  136.2713  155.4213 C   0  0  1  0  0  0  0  0  0  0  0  0
  150.5037  137.3702  155.9359 N   0  0  0  0  0  0  0  0  0  0  0  0
  151.1912  138.2918  155.2317 C   0  0  0  0  0  0  0  0  0  0  0  0
  151.8936  139.1570  155.9594 N   0  0  0  0  0  0  0  0  0  0  0  0
  151.6307  138.7441  157.2615 C   0  0  0  0  0  0  0  0  0  0  0  0
  152.1103  139.2815  158.5537 C   0  0  0  0  0  0  0  0  0  0  0  0
  152.9008  140.3116  158.5236 N   0  0  0  0  0  0  0  0  0  0  0  0
  153.3975  140.8447  159.7066 C   0  0  0  0  0  0  0  0  0  0  0  0
  154.1608  140.3257  160.5259 O   0  0  0  0  0  0  0  0  0  0  0  0
  152.8463  142.1979  160.0243 C   0  0  0  0  0  0  0  0  0  0  0  0
  152.5268  143.0981  158.9850 C   0  0  0  0  0  0  0  0  0  0  0  0
  152.0056  144.3711  159.2882 C   0  0  0  0  0  0  0  0  0  0  0  0
  151.8033  144.7491  160.6296 C   0  0  0  0  0  0  0  0  0  0  0  0
  152.1214  143.8538  161.6690 C   0  0  0  0  0  0  0  0  0  0  0  0
  152.6409  142.5795  161.3674 C   0  0  0  0  0  0  0  0  0  0  0  0
  151.5803  138.5266  159.6082 N   0  0  0  0  0  0  0  0  0  0  0  0
  150.7160  137.4280  159.4818 C   0  0  0  0  0  0  0  0  0  0  0  0
  150.2825  136.9450  158.3481 N   0  0  0  0  0  0  0  0  0  0  0  0
  150.7856  137.6556  157.2676 C   0  0  0  0  0  0  0  0  0  0  0  0
  150.4223  134.9588  155.3403 C   0  0  0  0  0  0  0  0  0  0  0  0
  149.5506  133.9818  156.1096 C   0  0  2  0  0  0  0  0  0  0  0  0
  148.6547  133.3144  155.2407 O   0  0  0  0  0  0  0  0  0  0  0  0
  147.0148  133.7540  163.2225 H   0  0  0  0  0  0  0  0  0  0  0  0
  147.7397  133.4950  161.6415 H   0  0  0  0  0  0  0  0  0  0  0  0
  146.0550  133.0698  161.9162 H   0  0  0  0  0  0  0  0  0  0  0  0
  144.2959  134.9285  162.2478 H   0  0  0  0  0  0  0  0  0  0  0  0
  144.7828  136.6174  162.1932 H   0  0  0  0  0  0  0  0  0  0  0  0
  145.2629  135.6088  163.5508 H   0  0  0  0  0  0  0  0  0  0  0  0
  147.7452  136.2434  163.1038 H   0  0  0  0  0  0  0  0  0  0  0  0
  147.2407  137.2347  161.7416 H   0  0  0  0  0  0  0  0  0  0  0  0
  148.4393  135.9673  161.5113 H   0  0  0  0  0  0  0  0  0  0  0  0
  143.6784  134.3816  159.8784 H   0  0  0  0  0  0  0  0  0  0  0  0
  144.8008  133.0381  159.7713 H   0  0  0  0  0  0  0  0  0  0  0  0
  144.4410  133.9978  158.3458 H   0  0  0  0  0  0  0  0  0  0  0  0
  144.7554  137.3786  159.7116 H   0  0  0  0  0  0  0  0  0  0  0  0
  145.4580  136.9837  158.1515 H   0  0  0  0  0  0  0  0  0  0  0  0
  146.4630  137.6664  159.4172 H   0  0  0  0  0  0  0  0  0  0  0  0
  147.4781  133.2679  157.5933 H   0  0  0  0  0  0  0  0  0  0  0  0
  146.6433  134.7537  157.1720 H   0  0  0  0  0  0  0  0  0  0  0  0
  149.5128  135.1593  157.8924 H   0  0  0  0  0  0  0  0  0  0  0  0
  149.2531  136.6302  154.4617 H   0  0  0  0  0  0  0  0  0  0  0  0
  151.1813  138.3334  154.1526 H   0  0  0  0  0  0  0  0  0  0  0  0
  152.6772  142.8156  157.9530 H   0  0  0  0  0  0  0  0  0  0  0  0
  151.7605  145.0577  158.4911 H   0  0  0  0  0  0  0  0  0  0  0  0
  151.4040  145.7256  160.8612 H   0  0  0  0  0  0  0  0  0  0  0  0
  151.9666  144.1432  162.6979 H   0  0  0  0  0  0  0  0  0  0  0  0
  152.8812  141.8983  162.1708 H   0  0  0  0  0  0  0  0  0  0  0  0
  150.4182  136.9867  160.4340 H   0  0  0  0  0  0  0  0  0  0  0  0
  150.6015  134.6710  154.3037 H   0  0  0  0  0  0  0  0  0  0  0  0
  151.3865  135.0761  155.8383 H   0  0  0  0  0  0  0  0  0  0  0  0
  150.1464  133.2317  156.6303 H   0  0  0  0  0  0  0  0  0  0  0  0
  149.0291  133.3018  154.3732 H   0  0  0  0  0  0  0  0  0  0  0  0
  151.8413  138.8014  160.5443 H   0  0  0  0  0  0  0  0  0  0  0  0
  1  2  1  0  0  0  0
  1 34  1  0  0  0  0
  1 35  1  0  0  0  0
  1 36  1  0  0  0  0
  2  3  1  0  0  0  0
  2  4  1  0  0  0  0
  2  5  1  0  0  0  0
  3 37  1  0  0  0  0
  3 38  1  0  0  0  0
  3 39  1  0  0  0  0
  4 40  1  0  0  0  0
  4 41  1  0  0  0  0
  4 42  1  0  0  0  0
  5  6  1  0  0  0  0
  5  7  1  0  0  0  0
  5  8  1  0  0  0  0
  6 43  1  0  0  0  0
  6 44  1  0  0  0  0
  6 45  1  0  0  0  0
  7 46  1  0  0  0  0
  7 47  1  0  0  0  0
  7 48  1  0  0  0  0
  8  9  1  0  0  0  0
  9 10  1  0  0  0  0
  9 49  1  0  0  0  0
  9 50  1  0  0  0  0
 10 32  1  0  0  0  0
 10 11  1  0  0  0  0
 10 51  1  0  0  0  0
 11 12  1  0  0  0  0
 12 13  1  0  0  0  0
 12 31  1  0  0  0  0
 12 52  1  0  0  0  0
 13 30  1  0  0  0  0
 13 14  1  0  0  0  0
 14 15  2  0  0  0  0
 14 53  1  0  0  0  0
 15 16  1  0  0  0  0
 16 30  2  0  0  0  0
 16 17  1  0  0  0  0
 17 18  2  0  0  0  0
 17 27  1  0  0  0  0
 18 19  1  0  0  0  0
 19 20  2  0  0  0  0
 19 21  1  0  0  0  0
 21 26  1  0  0  0  0
 21 22  2  0  0  0  0
 22 23  1  0  0  0  0
 22 54  1  0  0  0  0
 23 24  2  0  0  0  0
 23 55  1  0  0  0  0
 24 25  1  0  0  0  0
 24 56  1  0  0  0  0
 25 26  2  0  0  0  0
 25 57  1  0  0  0  0
 26 58  1  0  0  0  0
 27 28  1  0  0  0  0
 27 64  1  0  0  0  0
 28 29  2  0  0  0  0
 28 59  1  0  0  0  0
 29 30  1  0  0  0  0
 31 32  1  0  0  0  0
 31 60  1  0  0  0  0
 31 61  1  0  0  0  0
 32 33  1  0  0  0  0
 32 62  1  0  0  0  0
 33 63  1  0  0  0  0
M  END
> <s_m_source_file>
AV-unprocessed.smi

> <i_m_source_file_index>
36

> <i_lp_mmshare_version>
43012

> <i_f3d_flags>
0

> <s_epik_input>
W0NIM11DKFtDSDNdKShbQ0gzXSlbU2ldKFtDSDNdKShbQ0gzXSlPW0NIMl1bQ0BASF0xT1tDQEhdKFtDSDJdW0NASF0xW09IXSluKFtjSF1uMiljKGMyMyluW2NIXW5jM1tOSF1DKD1PKWM0W2NIXVtjSF1bY0hdW2NIXVtjSF00

> <s_epik_cmdline>
J2VwaWtfcHl0aG9uJywgJy1waCcsICc3LjAnLCAnLXRuJywgJzgnLCAnLW1hJywgJzIwMCcsICctbWV0YWxfYmluZGluZycsICctaW1hZScsICc8aW5maWxlLm1hZT4nLCAnLW9tYWUnLCAnPG91dGZpbGUubWFlPic=

> <r_epik_Ionization_Penalty>
0.0850405

> <r_epik_Ionization_Penalty_Charging>
0.0850403

> <r_epik_Ionization_Penalty_Neutral>
1.47497e-07

> <r_epik_State_Penalty>
2.6133

> <r_epik_Charging_Adjusted_Penalty>
2.69834

> <i_epik_Tot_Q>
0

> <i_epik_Tot_abs_Q>
0

> <r_epik_Metal_State_Penalty>
2.92945

> <b_epik_Metal_Only>
0

> <s_epik_Chemistry_Notes>
This compound contains an acetal/aminal-like group ( X-CH(R)-Y where X, Y are N, S, or O) that may be acid/base labile, releasing an aldehyde.

> <s_lp_Force_Field>
OPLS_2005

> <r_lp_Energy>
50.6146

> <b_lp_Chiralities_Consistent>
1

> <s_lp_Variant>
AV-unprocessed.smi:36-13

> <Gold.Version>
5.8.1

> <Gold.Id.Protein>
6NUR|6NUR_protein|mol2

> <Gold.PLP.Fitness>
51.3793

> <Gold.PLP.PLP>
-53.9718

> <Gold.PLP.part.hbond>
-1.0000

> <Gold.PLP.part.metal>
0.0000

> <Gold.PLP.part.buried>
-7.0828

> <Gold.PLP.part.nonpolar>
-45.6987

> <Gold.PLP.part.repulsive>
0.1566

> <Gold.PLP.ligand.clash>
0.0000

> <Gold.PLP.ligand.torsion>
2.7462

> <Gold.PLP.Chemscore.Hbond>
0.8480

> <Gold.PLP.Chemscore.CHOScore>
0.0000

> <Gold.PLP.Chemscore.Metal>
0.0000

> <Gold.Chemscore.Hbonds>
donor molecule, donor type, donor heavy atom, donor atom, acceptor molecule, acceptor atom, score
      P1  H  7997  8008       L1    18  0.38

> <Gold.PLP.Chemscore.Internal.Correction>
0.3558

> <Gold.Rescore>
     Score         DG    S(hbond)    S(metal)    S(lipo)     H(rot)  DE(clash)    DE(int)     intcor
     10.07     -15.64       0.68        0.00     126.51       2.70       0.19       5.38       ----

> <Gold.Chemscore.Fitness>
10.0721

> <Gold.Chemscore.DG>
-15.6409

> <Gold.Chemscore.ZeroCoef>
-5.4800

> <Gold.Chemscore.Hbond>
0.6832

> <Gold.Chemscore.Metal>
0.0000

> <Gold.Chemscore.Lipo>
126.5097

> <Gold.Chemscore.Internal_Hbond>
0.0000

> <Gold.Chemscore.DEClash>
0.1882

> <Gold.Chemscore.DEInternal>
5.3806

> <Gold.Chemscore.Rot>
2.7041

> <Gold.Chemscore.Internal.Correction>
   9.000000E+99

> <Gold.Chemscore.Hbonds>
donor molecule, donor type, donor heavy atom, donor atom, acceptor molecule, acceptor atom, score
      P1  H  7997  8008       L1    18  0.24

> <Gold.Chemscore.Hbond.Weighted>
-2.2818

> <Gold.Chemscore.Metal.Weighted>
-0.0000

> <Gold.Chemscore.Lipo.Weighted>
-14.8016

> <Gold.Chemscore.Internal_Hbond.Weighted>
0.0000

> <Gold.Chemscore.DEClash.Weighted>
0.1882

> <Gold.Chemscore.DEInternal.Weighted>
5.3806

> <Gold.Chemscore.Rot.Weighted>
6.9225

> <Gold.Chemscore.Internal.Correction.Weighted>
   9.000000E+99

> <Gold.Protein.RotatedTorsions>
[ 6907 6896 6895 6894 ] final  -79.57 input  -60.11 | X-H torsion
[ 7974 7965 7964 7962 ] final  -12.05 input  175.53 | X-H torsion
[ 8008 7997 7996 7995 ] final  -82.69 input   59.86 | X-H torsion
[ 10167 10162 10161 10158 ] final  -41.08 input  -65.29 | X-H torsion
[ 10718 10713 10712 10709 ] final -162.99 input   66.30 | X-H torsion
[ 10763 10752 10751 10750 ] final    2.07 input  -60.55 | X-H torsion
[ 11005 11000 10999 10996 ] final  -94.72 input  -57.11 | X-H torsion

> <Gold.Protein.ActiveResidues>
 VAL166  LYS551  ARG553  GLY616  TRP617  ASP618  TYR619  PRO620  LYS621  CYS622 
 ASP623  PHE694  ASN695  SER759  ASP760  ASP761  ALA762  ILE779  LEU786  VAL792 
 PHE793  MET794  SER795  GLU796  ALA797  LYS798  CYS799  TRP800  GLU811  SER814 

> <Gold.Protein.RotatedAtoms>
  150.6947  134.4101  159.5157 H   0  0  0  0  0  0  0  0  0  0  0  0  # atno 6907 bound_to 6896
  152.1861  134.8710  160.0531 H   0  0  0  0  0  0  0  0  0  0  0  0  # atno 6908 bound_to 6896
  151.9682  133.3682  159.4098 H   0  0  0  0  0  0  0  0  0  0  0  0  # atno 6909 bound_to 6896
  146.2166  140.3001  142.8374 H   0  0  0  0  0  0  0  0  0  0  0  0  # atno 7974 bound_to 7965
  154.6113  140.0629  156.9497 H   0  0  0  0  0  0  0  0  0  0  0  0  # atno 8008 bound_to 7997
  155.1969  140.3312  155.4331 H   0  0  0  0  0  0  0  0  0  0  0  0  # atno 8009 bound_to 7997
  156.2378  140.1871  156.7055 H   0  0  0  0  0  0  0  0  0  0  0  0  # atno 8010 bound_to 7997
  140.7014  143.3115  151.3015 H   0  0  0  0  0  0  0  0  0  0  0  0  # atno 10167 bound_to 10162
  156.6183  130.8879  151.2952 H   0  0  0  0  0  0  0  0  0  0  0  0  # atno 10718 bound_to 10713
  153.3001  135.6955  153.7211 H   0  0  0  0  0  0  0  0  0  0  0  0  # atno 10763 bound_to 10752
  153.6128  135.3441  155.2985 H   0  0  0  0  0  0  0  0  0  0  0  0  # atno 10764 bound_to 10752
  154.8548  135.4367  154.2110 H   0  0  0  0  0  0  0  0  0  0  0  0  # atno 10765 bound_to 10752
  141.1462  133.7975  157.0336 H   0  0  0  0  0  0  0  0  0  0  0  0  # atno 11005 bound_to 11000
  144.9063  140.7704  143.5835 LP  0  0  0  0  0  0  0  0  0  0  0  0  # atno 17320 bound_to 7965
  145.2930  139.1877  143.4730 LP  0  0  0  0  0  0  0  0  0  0  0  0  # atno 17321 bound_to 7965
  139.6540  144.0310  152.2646 LP  0  0  0  0  0  0  0  0  0  0  0  0  # atno 17342 bound_to 10162
  139.9856  144.6398  150.7861 LP  0  0  0  0  0  0  0  0  0  0  0  0  # atno 17343 bound_to 10162
  157.7235  130.9590  150.1536 LP  0  0  0  0  0  0  0  0  0  0  0  0  # atno 17370 bound_to 10713
  156.2333  130.3684  149.8420 LP  0  0  0  0  0  0  0  0  0  0  0  0  # atno 17371 bound_to 10713
  140.0738  134.9687  157.1511 LP  0  0  0  0  0  0  0  0  0  0  0  0  # atno 17394 bound_to 11000
  140.3673  134.2429  155.7181 LP  0  0  0  0  0  0  0  0  0  0  0  0  # atno 17395 bound_to 11000

$$$$
