AV-unprocessed.smi:798|AV-procd|sdf|3779|dock2
  -GOLD-   22720 1213D 1   1.00000     0.00000
 Structure written by MMmdl.
 33 35  0  0  0  0  0  0  0  0  2 V2000
  149.4570  135.7767  158.9153 O   0  0  0  0  0  0  0  0  0  0  0  0
  148.9877  136.8668  159.2500 C   0  0  0  0  0  0  0  0  0  0  0  0
  148.2048  137.1063  160.3266 N   0  5  0  0  0  0  0  0  0  0  0  0
  147.6608  136.0827  161.0050 C   0  0  0  0  0  0  0  0  0  0  0  0
  147.3392  134.9206  160.4146 N   0  0  0  0  0  0  0  0  0  0  0  0
  146.8011  133.9912  161.2945 N   0  0  0  0  0  0  0  0  0  0  0  0
  146.7374  134.4764  162.5342 C   0  0  0  0  0  0  0  0  0  0  0  0
  147.3298  136.1113  162.7395 S   0  0  0  0  0  0  0  0  0  0  0  0
  149.2382  137.9582  158.5138 N   0  0  0  0  0  0  0  0  0  0  0  0
  150.0353  138.0045  157.2896 C   0  0  2  0  0  0  0  0  0  0  0  0
  151.1382  139.0796  157.4059 C   0  0  1  0  0  0  0  0  0  0  0  0
  152.1832  138.8410  156.3011 C   0  0  0  0  0  0  0  0  0  0  0  0
  151.4341  139.2888  155.0322 C   0  0  0  0  0  0  0  0  0  0  0  0
  150.0501  139.7048  155.5756 C   0  0  2  0  0  0  0  0  0  0  0  0
  150.4399  140.3404  156.9040 C   0  0  0  0  0  0  0  0  0  0  0  0
  149.2226  138.4876  156.0601 C   0  0  1  0  0  0  0  0  0  0  0  0
  148.9533  137.3891  155.0131 C   0  0  0  0  0  0  0  0  0  0  0  0
  148.2688  137.9229  153.8992 O   0  0  0  0  0  0  0  0  0  0  0  0
  146.3421  133.8669  163.3333 H   0  0  0  0  0  0  0  0  0  0  0  0
  148.8351  138.8289  158.8270 H   0  0  0  0  0  0  0  0  0  0  0  0
  150.4856  137.0242  157.1208 H   0  0  0  0  0  0  0  0  0  0  0  0
  151.5773  139.1592  158.4013 H   0  0  0  0  0  0  0  0  0  0  0  0
  153.0675  139.4589  156.4620 H   0  0  0  0  0  0  0  0  0  0  0  0
  152.5076  137.8010  156.2502 H   0  0  0  0  0  0  0  0  0  0  0  0
  151.9367  140.1462  154.5830 H   0  0  0  0  0  0  0  0  0  0  0  0
  151.3865  138.5114  154.2711 H   0  0  0  0  0  0  0  0  0  0  0  0
  149.4993  140.3645  154.9043 H   0  0  0  0  0  0  0  0  0  0  0  0
  149.5837  140.6351  157.5136 H   0  0  0  0  0  0  0  0  0  0  0  0
  151.1114  141.1942  156.7973 H   0  0  0  0  0  0  0  0  0  0  0  0
  148.2538  138.8639  156.3959 H   0  0  0  0  0  0  0  0  0  0  0  0
  149.8724  136.9078  154.6809 H   0  0  0  0  0  0  0  0  0  0  0  0
  148.3342  136.6054  155.4497 H   0  0  0  0  0  0  0  0  0  0  0  0
  148.5799  137.4875  153.1202 H   0  0  0  0  0  0  0  0  0  0  0  0
  1  2  2  0  0  0  0
  2  3  1  0  0  0  0
  2  9  1  0  0  0  0
  3  4  1  0  0  0  0
  4  8  1  0  0  0  0
  4  5  2  0  0  0  0
  5  6  1  0  0  0  0
  6  7  2  0  0  0  0
  7  8  1  0  0  0  0
  7 19  1  0  0  0  0
  9 10  1  0  0  0  0
  9 20  1  0  0  0  0
 10 16  1  0  0  0  0
 10 11  1  0  0  0  0
 10 21  1  0  0  0  0
 11 15  1  0  0  0  0
 11 12  1  0  0  0  0
 11 22  1  0  0  0  0
 12 13  1  0  0  0  0
 12 23  1  0  0  0  0
 12 24  1  0  0  0  0
 13 14  1  0  0  0  0
 13 25  1  0  0  0  0
 13 26  1  0  0  0  0
 14 15  1  0  0  0  0
 14 16  1  0  0  0  0
 14 27  1  0  0  0  0
 15 28  1  0  0  0  0
 15 29  1  0  0  0  0
 16 17  1  0  0  0  0
 16 30  1  0  0  0  0
 17 18  1  0  0  0  0
 17 31  1  0  0  0  0
 17 32  1  0  0  0  0
 18 33  1  0  0  0  0
M  CHG  1   3  -1
M  END
> <s_m_source_file>
AV-unprocessed.smi

> <i_m_source_file_index>
798

> <i_lp_mmshare_version>
43012

> <i_f3d_flags>
0

> <s_epik_input>
W0NIMl0xW0NIMl1bQ0BASF0oW0NIMl0yKVtDQEBIXShbQ0gyXVtPSF0pW0NAQEhdKFtDQEhdMTIpW05IXUMoPU8pW05IXWMzbm5bY0hdczM=

> <s_epik_cmdline>
J2VwaWtfcHl0aG9uJywgJy1waCcsICc3LjAnLCAnLXRuJywgJzgnLCAnLW1hJywgJzIwMCcsICctbWV0YWxfYmluZGluZycsICctaW1hZScsICc8aW5maWxlLm1hZT4nLCAnLW9tYWUnLCAnPG91dGZpbGUubWFlPic=

> <r_lp_tautomer_probability>
1

> <r_epik_Ionization_Penalty>
4.53732

> <r_epik_Ionization_Penalty_Charging>
4.48632

> <r_epik_Ionization_Penalty_Neutral>
0.0510007

> <r_epik_State_Penalty>
4.48602

> <r_epik_Charging_Adjusted_Penalty>
8.97234

> <i_epik_Tot_Q>
-1

> <i_epik_Tot_abs_Q>
1

> <r_epik_Metal_State_Penalty>
0.812492

> <b_epik_Metal_Only>
1

> <s_lp_Force_Field>
OPLS_2005

> <r_lp_Energy>
47.3134

> <b_lp_Chiralities_Consistent>
1

> <s_lp_Variant>
AV-unprocessed.smi:798-11

> <Gold.Version>
5.8.1

> <Gold.Id.Protein>
6NUR|6NUR_protein|mol2

> <Gold.PLP.Fitness>
40.6699

> <Gold.PLP.PLP>
-28.3430

> <Gold.PLP.part.hbond>
-4.0000

> <Gold.PLP.part.metal>
0.0000

> <Gold.PLP.part.buried>
-3.9264

> <Gold.PLP.part.nonpolar>
-21.2299

> <Gold.PLP.part.repulsive>
0.1730

> <Gold.PLP.ligand.clash>
0.0000

> <Gold.PLP.ligand.torsion>
0.2581

> <Gold.PLP.Chemscore.Hbond>
4.2608

> <Gold.PLP.Chemscore.CHOScore>
0.0000

> <Gold.PLP.Chemscore.Metal>
0.0000

> <Gold.Chemscore.Hbonds>
donor molecule, donor type, donor heavy atom, donor atom, acceptor molecule, acceptor atom, score
      L1  H    18    33       P1  7948  1.00
      P1  H  6896  6908       L1     1  1.00
      P1  H  6931  6943       L1     3  1.17
      P1  H  6934  6947       L1     3  0.65

> <Gold.PLP.Chemscore.Internal.Correction>
0.0606

> <Gold.Rescore>
     Score         DG    S(hbond)    S(metal)    S(lipo)     H(rot)  DE(clash)    DE(int)     intcor
     14.66     -16.39       2.92        0.00      52.03       1.92       0.00       1.73       ----

> <Gold.Chemscore.Fitness>
14.6572

> <Gold.Chemscore.DG>
-16.3902

> <Gold.Chemscore.ZeroCoef>
-5.4800

> <Gold.Chemscore.Hbond>
2.9162

> <Gold.Chemscore.Metal>
0.0000

> <Gold.Chemscore.Lipo>
52.0255

> <Gold.Chemscore.Internal_Hbond>
0.0000

> <Gold.Chemscore.DEClash>
0.0000

> <Gold.Chemscore.DEInternal>
1.7330

> <Gold.Chemscore.Rot>
1.9207

> <Gold.Chemscore.Internal.Correction>
   9.000000E+99

> <Gold.Chemscore.Hbonds>
donor molecule, donor type, donor heavy atom, donor atom, acceptor molecule, acceptor atom, score
      L1  H    18    33       P1  7948  1.00
      P1  H  6896  6908       L1     1  1.00
      P1  H  6931  6943       L1     3  0.19
      P1  H  6934  6947       L1     3  0.23

> <Gold.Chemscore.Hbond.Weighted>
-9.7401

> <Gold.Chemscore.Metal.Weighted>
-0.0000

> <Gold.Chemscore.Lipo.Weighted>
-6.0870

> <Gold.Chemscore.Internal_Hbond.Weighted>
0.0000

> <Gold.Chemscore.DEClash.Weighted>
0.0000

> <Gold.Chemscore.DEInternal.Weighted>
1.7330

> <Gold.Chemscore.Rot.Weighted>
4.9169

> <Gold.Chemscore.Internal.Correction.Weighted>
   9.000000E+99

> <Gold.Protein.RotatedTorsions>
[ 6907 6896 6895 6894 ] final  173.78 input  -60.11 | X-H torsion
[ 7974 7965 7964 7962 ] final  174.42 input  175.53 | X-H torsion
[ 8008 7997 7996 7995 ] final  -29.24 input   59.86 | X-H torsion
[ 10167 10162 10161 10158 ] final   73.74 input  -65.29 | X-H torsion
[ 10718 10713 10712 10709 ] final  -49.59 input   66.30 | X-H torsion
[ 10763 10752 10751 10750 ] final  -17.60 input  -60.55 | X-H torsion
[ 11005 11000 10999 10996 ] final   42.82 input  -57.11 | X-H torsion

> <Gold.Protein.ActiveResidues>
 VAL166  LYS551  ARG553  GLY616  TRP617  ASP618  TYR619  PRO620  LYS621  CYS622 
 ASP623  PHE694  ASN695  SER759  ASP760  ASP761  ALA762  ILE779  LEU786  VAL792 
 PHE793  MET794  SER795  GLU796  ALA797  LYS798  CYS799  TRP800  GLU811  SER814 

> <Gold.Protein.RotatedAtoms>
  151.7628  133.3335  159.3422 H   0  0  0  0  0  0  0  0  0  0  0  0  # atno 6907 bound_to 6896
  150.7491  134.6090  159.6085 H   0  0  0  0  0  0  0  0  0  0  0  0  # atno 6908 bound_to 6896
  152.3394  134.7157  160.0319 H   0  0  0  0  0  0  0  0  0  0  0  0  # atno 6909 bound_to 6896
  144.7222  139.9794  143.6438 H   0  0  0  0  0  0  0  0  0  0  0  0  # atno 7974 bound_to 7965
  154.4298  140.1824  156.1216 H   0  0  0  0  0  0  0  0  0  0  0  0  # atno 8008 bound_to 7997
  156.0139  140.3348  155.6943 H   0  0  0  0  0  0  0  0  0  0  0  0  # atno 8009 bound_to 7997
  155.6072  140.0646  157.2707 H   0  0  0  0  0  0  0  0  0  0  0  0  # atno 8010 bound_to 7997
  140.0213  144.5538  150.7580 H   0  0  0  0  0  0  0  0  0  0  0  0  # atno 10167 bound_to 10162
  156.1879  130.4152  149.9413 H   0  0  0  0  0  0  0  0  0  0  0  0  # atno 10718 bound_to 10713
  153.5764  135.7006  153.5482 H   0  0  0  0  0  0  0  0  0  0  0  0  # atno 10763 bound_to 10752
  153.3299  135.4050  155.1486 H   0  0  0  0  0  0  0  0  0  0  0  0  # atno 10764 bound_to 10752
  154.8625  135.3716  154.5289 H   0  0  0  0  0  0  0  0  0  0  0  0  # atno 10765 bound_to 10752
  140.1703  134.4230  155.8261 H   0  0  0  0  0  0  0  0  0  0  0  0  # atno 11005 bound_to 11000
  146.0500  139.3502  143.0645 LP  0  0  0  0  0  0  0  0  0  0  0  0  # atno 17320 bound_to 7965
  145.8227  140.9671  143.0890 LP  0  0  0  0  0  0  0  0  0  0  0  0  # atno 17321 bound_to 7965
  140.7341  143.2725  151.3843 LP  0  0  0  0  0  0  0  0  0  0  0  0  # atno 17342 bound_to 10162
  139.6138  144.1044  152.2325 LP  0  0  0  0  0  0  0  0  0  0  0  0  # atno 17343 bound_to 10162
  156.7162  130.8989  151.3614 LP  0  0  0  0  0  0  0  0  0  0  0  0  # atno 17370 bound_to 10713
  157.6911  130.9234  150.0515 LP  0  0  0  0  0  0  0  0  0  0  0  0  # atno 17371 bound_to 10713
  141.2217  133.6953  156.7752 LP  0  0  0  0  0  0  0  0  0  0  0  0  # atno 17394 bound_to 11000
  140.2385  134.8632  157.3549 LP  0  0  0  0  0  0  0  0  0  0  0  0  # atno 17395 bound_to 11000

$$$$
