AV-unprocessed.smi:673|AV-procd|sdf|3297|dock7
  -GOLD-   22720 0253D 1   1.00000     0.00000
 Structure written by MMmdl.
 45 46  0  0  0  0  0  0  0  0  1 V2000
  152.9302  138.9273  154.6340 C   0  0  0  0  0  0  0  0  0  0  0  0
  151.7465  138.3350  155.4155 C   0  0  2  0  0  0  0  0  0  0  0  0
  150.5232  138.1185  154.5043 C   0  0  0  0  0  0  0  0  0  0  0  0
  149.7583  139.3375  154.3088 N   0  0  0  0  0  0  0  0  0  0  0  0
  148.5676  139.5329  153.7405 C   0  0  0  0  0  0  0  0  0  0  0  0
  148.1706  140.7979  153.7521 N   0  0  0  0  0  0  0  0  0  0  0  0
  149.2387  141.3670  154.3863 C   0  0  0  0  0  0  0  0  0  0  0  0
  150.2184  140.5356  154.7408 N   0  0  0  0  0  0  0  0  0  0  0  0
  151.3873  139.2109  156.5274 N   0  0  0  0  0  0  0  0  0  0  0  0
  152.2239  139.6698  157.4737 C   0  0  0  0  0  0  0  0  0  0  0  0
  153.4325  139.4315  157.4566 O   0  0  0  0  0  0  0  0  0  0  0  0
  151.6296  140.4400  158.4200 N   0  0  0  0  0  0  0  0  0  0  0  0
  150.2155  140.8389  158.4203 C   0  0  0  0  0  0  0  0  0  0  0  0
  149.9738  142.1203  157.5977 C   0  0  0  0  0  0  0  0  0  0  0  0
  151.1718  143.0881  157.4291 C   0  0  0  0  0  0  0  0  0  0  0  0
  151.9788  143.4968  158.6958 C   0  0  0  0  0  0  0  0  0  0  0  0
  152.8186  144.7371  158.3229 C   0  0  0  0  0  0  0  0  0  0  0  0
  151.0493  143.9072  159.8581 C   0  0  0  0  0  0  0  0  0  0  0  0
  152.9845  142.3910  159.1324 C   0  0  0  0  0  0  0  0  0  0  0  0
  152.3934  141.0241  159.5277 C   0  0  0  0  0  0  0  0  0  0  0  0
  153.2099  138.2834  153.8001 H   0  0  0  0  0  0  0  0  0  0  0  0
  153.8097  139.0387  155.2688 H   0  0  0  0  0  0  0  0  0  0  0  0
  152.6863  139.9100  154.2285 H   0  0  0  0  0  0  0  0  0  0  0  0
  152.0490  137.3641  155.8127 H   0  0  0  0  0  0  0  0  0  0  0  0
  150.8316  137.7309  153.5317 H   0  0  0  0  0  0  0  0  0  0  0  0
  149.8581  137.3719  154.9399 H   0  0  0  0  0  0  0  0  0  0  0  0
  147.9778  138.7341  153.3152 H   0  0  0  0  0  0  0  0  0  0  0  0
  149.2961  142.4255  154.5935 H   0  0  0  0  0  0  0  0  0  0  0  0
  150.4131  139.4659  156.6037 H   0  0  0  0  0  0  0  0  0  0  0  0
  149.5718  140.0339  158.0614 H   0  0  0  0  0  0  0  0  0  0  0  0
  149.8729  141.0008  159.4421 H   0  0  0  0  0  0  0  0  0  0  0  0
  149.6462  141.8296  156.5989 H   0  0  0  0  0  0  0  0  0  0  0  0
  149.1287  142.6570  158.0298 H   0  0  0  0  0  0  0  0  0  0  0  0
  151.8617  142.6705  156.6942 H   0  0  0  0  0  0  0  0  0  0  0  0
  150.7763  143.9880  156.9561 H   0  0  0  0  0  0  0  0  0  0  0  0
  153.4335  145.0712  159.1595 H   0  0  0  0  0  0  0  0  0  0  0  0
  152.1868  145.5771  158.0317 H   0  0  0  0  0  0  0  0  0  0  0  0
  153.4886  144.5291  157.4876 H   0  0  0  0  0  0  0  0  0  0  0  0
  151.6231  144.2687  160.7120 H   0  0  0  0  0  0  0  0  0  0  0  0
  150.4344  143.0832  160.2144 H   0  0  0  0  0  0  0  0  0  0  0  0
  150.3730  144.7077  159.5570 H   0  0  0  0  0  0  0  0  0  0  0  0
  153.7061  142.2295  158.3302 H   0  0  0  0  0  0  0  0  0  0  0  0
  153.5720  142.7573  159.9753 H   0  0  0  0  0  0  0  0  0  0  0  0
  151.7808  141.1259  160.4235 H   0  0  0  0  0  0  0  0  0  0  0  0
  153.2012  140.3554  159.8296 H   0  0  0  0  0  0  0  0  0  0  0  0
  1  2  1  0  0  0  0
  1 21  1  0  0  0  0
  1 22  1  0  0  0  0
  1 23  1  0  0  0  0
  2  3  1  0  0  0  0
  2  9  1  0  0  0  0
  2 24  1  0  0  0  0
  3  4  1  0  0  0  0
  3 25  1  0  0  0  0
  3 26  1  0  0  0  0
  4  8  1  0  0  0  0
  4  5  1  0  0  0  0
  5  6  2  0  0  0  0
  5 27  1  0  0  0  0
  6  7  1  0  0  0  0
  7  8  2  0  0  0  0
  7 28  1  0  0  0  0
  9 10  1  0  0  0  0
  9 29  1  0  0  0  0
 10 11  2  0  0  0  0
 10 12  1  0  0  0  0
 12 20  1  0  0  0  0
 12 13  1  0  0  0  0
 13 14  1  0  0  0  0
 13 30  1  0  0  0  0
 13 31  1  0  0  0  0
 14 15  1  0  0  0  0
 14 32  1  0  0  0  0
 14 33  1  0  0  0  0
 15 16  1  0  0  0  0
 15 34  1  0  0  0  0
 15 35  1  0  0  0  0
 16 17  1  0  0  0  0
 16 18  1  0  0  0  0
 16 19  1  0  0  0  0
 17 36  1  0  0  0  0
 17 37  1  0  0  0  0
 17 38  1  0  0  0  0
 18 39  1  0  0  0  0
 18 40  1  0  0  0  0
 18 41  1  0  0  0  0
 19 20  1  0  0  0  0
 19 42  1  0  0  0  0
 19 43  1  0  0  0  0
 20 44  1  0  0  0  0
 20 45  1  0  0  0  0
M  END
> <s_m_source_file>
AV-unprocessed.smi

> <i_m_source_file_index>
673

> <i_lp_mmshare_version>
43012

> <i_f3d_flags>
0

> <s_epik_input>
bjFbY0hdbltjSF1uMVtDSDJdW0NAQEhdKFtDSDNdKVtOSF1DKD1PKU4oW0NIMl1bQ0gyXTIpW0NIMl1bQ0gyXVtDSDJdQzIoW0NIM10pW0NIM10=

> <s_epik_cmdline>
J2VwaWtfcHl0aG9uJywgJy1waCcsICc3LjAnLCAnLXRuJywgJzgnLCAnLW1hJywgJzIwMCcsICctbWV0YWxfYmluZGluZycsICctaW1hZScsICc8aW5maWxlLm1hZT4nLCAnLW9tYWUnLCAnPG91dGZpbGUubWFlPic=

> <r_lp_tautomer_probability>
1

> <r_epik_Ionization_Penalty>
0.000118908

> <r_epik_Ionization_Penalty_Charging>
0

> <r_epik_Ionization_Penalty_Neutral>
0.000118908

> <r_epik_State_Penalty>
-0

> <r_epik_Charging_Adjusted_Penalty>
0

> <i_epik_Tot_Q>
0

> <i_epik_Tot_abs_Q>
0

> <r_epik_Metal_State_Penalty>
-0

> <b_epik_Metal_Only>
0

> <s_lp_Force_Field>
OPLS_2005

> <r_lp_Energy>
35.7371

> <b_lp_Chiralities_Consistent>
1

> <s_lp_Variant>
AV-unprocessed.smi:673-1

> <Gold.Version>
5.8.1

> <Gold.Id.Protein>
6NUR|6NUR_protein|mol2

> <Gold.PLP.Fitness>
49.0443

> <Gold.PLP.PLP>
-41.0882

> <Gold.PLP.part.hbond>
-1.6784

> <Gold.PLP.part.metal>
0.0000

> <Gold.PLP.part.buried>
-2.8970

> <Gold.PLP.part.nonpolar>
-37.1597

> <Gold.PLP.part.repulsive>
0.3097

> <Gold.PLP.ligand.clash>
0.0000

> <Gold.PLP.ligand.torsion>
0.3110

> <Gold.PLP.Chemscore.Hbond>
1.8560

> <Gold.PLP.Chemscore.CHOScore>
0.9961

> <Gold.PLP.Chemscore.Metal>
0.0000

> <Gold.Chemscore.Hbonds>
donor molecule, donor type, donor heavy atom, donor atom, acceptor molecule, acceptor atom, score
      P1  H  7989  7998       L1     8  0.93
      P1  H  7997  8008       L1    11  0.74
      L1  C     7    28       P1  8028  0.96

> <Gold.PLP.Chemscore.Internal.Correction>
0.0218

> <Gold.Rescore>
     Score         DG    S(hbond)    S(metal)    S(lipo)     H(rot)  DE(clash)    DE(int)     intcor
     14.51     -17.29       1.49        0.00      99.03       1.86       0.11       2.67       ----

> <Gold.Chemscore.Fitness>
14.5082

> <Gold.Chemscore.DG>
-17.2852

> <Gold.Chemscore.ZeroCoef>
-5.4800

> <Gold.Chemscore.Hbond>
1.4923

> <Gold.Chemscore.Metal>
0.0000

> <Gold.Chemscore.Lipo>
99.0284

> <Gold.Chemscore.Internal_Hbond>
0.0000

> <Gold.Chemscore.DEClash>
0.1073

> <Gold.Chemscore.DEInternal>
2.6698

> <Gold.Chemscore.Rot>
1.8614

> <Gold.Chemscore.Internal.Correction>
   9.000000E+99

> <Gold.Chemscore.Hbonds>
donor molecule, donor type, donor heavy atom, donor atom, acceptor molecule, acceptor atom, score
      P1  H  7989  7998       L1     8  0.14
      P1  H  7997  8008       L1    11  0.71

> <Gold.Chemscore.Hbond.Weighted>
-4.9842

> <Gold.Chemscore.Metal.Weighted>
-0.0000

> <Gold.Chemscore.Lipo.Weighted>
-11.5863

> <Gold.Chemscore.Internal_Hbond.Weighted>
0.0000

> <Gold.Chemscore.DEClash.Weighted>
0.1073

> <Gold.Chemscore.DEInternal.Weighted>
2.6698

> <Gold.Chemscore.Rot.Weighted>
4.7653

> <Gold.Chemscore.Internal.Correction.Weighted>
   9.000000E+99

> <Gold.Protein.RotatedTorsions>
[ 6907 6896 6895 6894 ] final    6.47 input  -60.11 | X-H torsion
[ 7974 7965 7964 7962 ] final   94.80 input  175.53 | X-H torsion
[ 8008 7997 7996 7995 ] final  -98.35 input   59.86 | X-H torsion
[ 10167 10162 10161 10158 ] final   60.61 input  -65.29 | X-H torsion
[ 10718 10713 10712 10709 ] final  105.51 input   66.30 | X-H torsion
[ 10763 10752 10751 10750 ] final  131.83 input  -60.55 | X-H torsion
[ 11005 11000 10999 10996 ] final  176.70 input  -57.11 | X-H torsion

> <Gold.Protein.ActiveResidues>
 VAL166  LYS551  ARG553  GLY616  TRP617  ASP618  TYR619  PRO620  LYS621  CYS622 
 ASP623  PHE694  ASN695  SER759  ASP760  ASP761  ALA762  ILE779  LEU786  VAL792 
 PHE793  MET794  SER795  GLU796  ALA797  LYS798  CYS799  TRP800  GLU811  SER814 

> <Gold.Protein.RotatedAtoms>
  151.6742  135.0971  160.0203 H   0  0  0  0  0  0  0  0  0  0  0  0  # atno 6907 bound_to 6896
  152.3873  133.6625  159.6218 H   0  0  0  0  0  0  0  0  0  0  0  0  # atno 6908 bound_to 6896
  150.7796  133.8930  159.3360 H   0  0  0  0  0  0  0  0  0  0  0  0  # atno 6909 bound_to 6896
  145.4607  139.2287  143.2989 H   0  0  0  0  0  0  0  0  0  0  0  0  # atno 7974 bound_to 7965
  154.8000  140.0456  157.1266 H   0  0  0  0  0  0  0  0  0  0  0  0  # atno 8008 bound_to 7997
  154.9490  140.3062  155.5064 H   0  0  0  0  0  0  0  0  0  0  0  0  # atno 8009 bound_to 7997
  156.2960  140.2291  156.4566 H   0  0  0  0  0  0  0  0  0  0  0  0  # atno 8010 bound_to 7997
  140.1637  144.4345  150.6696 H   0  0  0  0  0  0  0  0  0  0  0  0  # atno 10167 bound_to 10162
  157.6702  131.0829  150.5868 H   0  0  0  0  0  0  0  0  0  0  0  0  # atno 10718 bound_to 10713
  153.7808  135.3169  155.3365 H   0  0  0  0  0  0  0  0  0  0  0  0  # atno 10763 bound_to 10752
  154.8162  135.4634  154.0653 H   0  0  0  0  0  0  0  0  0  0  0  0  # atno 10764 bound_to 10752
  153.1941  135.6913  153.8400 H   0  0  0  0  0  0  0  0  0  0  0  0  # atno 10765 bound_to 10752
  140.3760  134.6988  157.4422 H   0  0  0  0  0  0  0  0  0  0  0  0  # atno 11005 bound_to 11000
  146.2453  140.5375  142.8916 LP  0  0  0  0  0  0  0  0  0  0  0  0  # atno 17320 bound_to 7965
  144.8004  140.6203  143.6481 LP  0  0  0  0  0  0  0  0  0  0  0  0  # atno 17321 bound_to 7965
  140.6626  143.2257  151.5819 LP  0  0  0  0  0  0  0  0  0  0  0  0  # atno 17342 bound_to 10162
  139.5369  144.2756  152.1270 LP  0  0  0  0  0  0  0  0  0  0  0  0  # atno 17343 bound_to 10162
  156.6168  130.4395  149.5837 LP  0  0  0  0  0  0  0  0  0  0  0  0  # atno 17370 bound_to 10713
  156.2387  130.6838  151.1534 LP  0  0  0  0  0  0  0  0  0  0  0  0  # atno 17371 bound_to 10713
  140.0515  134.6124  155.8856 LP  0  0  0  0  0  0  0  0  0  0  0  0  # atno 17394 bound_to 11000
  141.1939  133.6581  156.5570 LP  0  0  0  0  0  0  0  0  0  0  0  0  # atno 17395 bound_to 11000

$$$$
