#       Name:                AV-unprocessed.smi:2061
#       Creating user name   scv26
#       Creation time:       Fri Mar 27 11:03:48 2020


#       File generated by GOLD software.
#

@<TRIPOS>MOLECULE
AV-unprocessed.smi:2061
    53    54     1
SMALL
NO_CHARGES


@<TRIPOS>ATOM
      1 ****        -4.4803   5.0999   3.0512 C.3            1 S1                 0.0000
      2 ****        -3.8557   3.7681   2.8101 C.2            1 S1                 0.0000
      3 ****        -3.3543   3.1655   1.6907 C.2            1 S1                 0.0000
      4 ****        -2.9213   1.9021   2.1744 C.2            1 S1                 0.0000
      5 ****        -2.3316   0.9516   1.3025 N.am           1 S1                 0.0000
      6 ****        -1.8841  -0.2771   1.6129 C.2            1 S1                 0.0000
      7 ****        -1.9014  -0.7737   2.7398 O.2            1 S1                 0.0000
      8 ****        -1.4034  -0.9067   0.5311 N.am           1 S1                 0.0000
      9 ****        -0.8250  -2.2492   0.5138 C.3            1 S1                 0.0000
     10 ****         0.7245  -2.2257   0.4403 C.3            1 S1                 0.0000
     11 ****         1.2708  -1.7661   1.8110 C.3            1 S1                 0.0000
     12 ****         1.2623  -1.4510  -0.7000 N.3            1 S1                 0.0000
     13 ****         0.7585  -1.9287  -1.9913 C.3            1 S1                 0.0000
     14 ****         1.3155  -1.1411  -3.1934 C.3            1 S1                 0.0000
     15 ****         0.7119   0.2675  -3.3298 C.3            1 S1                 0.0000
     16 ****         2.7404  -1.1080  -3.1454 O.3            1 S1                 0.0000
     17 ****         3.2880  -0.6365  -1.9181 C.3            1 S1                 0.0000
     18 ****         4.8144  -0.7351  -2.0114 C.3            1 S1                 0.0000
     19 ****         2.7257  -1.4663  -0.7497 C.3            1 S1                 0.0000
     20 ****        -3.1376   1.7482   3.4720 N.2            1 S1                 0.0000
     21 ****        -3.7378   2.9432   3.8858 O.3            1 S1                 0.0000
     22 ****        -4.1992   5.8084   2.2718 H              1 S1                 0.0000
     23 ****        -4.1632   5.5105   4.0101 H              1 S1                 0.0000
     24 ****        -5.5673   5.0196   3.0599 H              1 S1                 0.0000
     25 ****        -3.3081   3.5660   0.6888 H              1 S1                 0.0000
     26 ****        -2.2485   1.2347   0.3374 H              1 S1                 0.0000
     27 ****        -1.4227  -0.4153  -0.3504 H              1 S1                 0.0000
     28 ****        -1.1492  -2.8223   1.3841 H              1 S1                 0.0000
     29 ****        -1.2462  -2.7894  -0.3332 H              1 S1                 0.0000
     30 ****         1.0393  -3.2633   0.3181 H              1 S1                 0.0000
     31 ****         0.7570  -2.2690   2.6307 H              1 S1                 0.0000
     32 ****         1.1431  -0.6924   1.9532 H              1 S1                 0.0000
     33 ****         2.3287  -1.9979   1.9296 H              1 S1                 0.0000
     34 ****         1.0137  -2.9829  -2.1101 H              1 S1                 0.0000
     35 ****        -0.3277  -1.8672  -2.0310 H              1 S1                 0.0000
     36 ****         1.0544  -1.6871  -4.1005 H              1 S1                 0.0000
     37 ****        -0.3652   0.2135  -3.4890 H              1 S1                 0.0000
     38 ****         1.1451   0.7951  -4.1797 H              1 S1                 0.0000
     39 ****         0.8781   0.8736  -2.4395 H              1 S1                 0.0000
     40 ****         3.0215   0.4118  -1.7810 H              1 S1                 0.0000
     41 ****         5.2878  -0.3652  -1.1016 H              1 S1                 0.0000
     42 ****         5.1925  -0.1447  -2.8464 H              1 S1                 0.0000
     43 ****         5.1350  -1.7666  -2.1607 H              1 S1                 0.0000
     44 ****         3.1429  -1.0565   0.1689 H              1 S1                 0.0000
     45 ****         3.0809  -2.4953  -0.8255 H              1 S1                 0.0000
     46 ****        -2.2696  -0.2529   3.5101 LP             1 S1                 0.0000
     47 ****        -1.5474  -1.6976   2.8845 LP             1 S1                 0.0000
     48 ****         0.9444  -0.5159  -0.5433 LP             1 S1                 0.0000
     49 ****         3.0621  -0.5098  -3.8793 LP             1 S1                 0.0000
     50 ****         3.0781  -2.0365  -3.2999 LP             1 S1                 0.0000
     51 ****        -2.9194   0.9508   4.0345 LP             1 S1                 0.0000
     52 ****        -4.6437   2.7515   4.2636 LP             1 S1                 0.0000
     53 ****        -3.1710   3.3801   4.5842 LP             1 S1                 0.0000
@<TRIPOS>BOND
    1    1    2 1     
    2    1   22 1     
    3    1   23 1     
    4    1   24 1     
    5    2   21 1     
    6    2    3 2     
    7    3    4 1     
    8    3   25 1     
    9    4    5 1     
   10    4   20 2     
   11    5    6 am    
   12    5   26 1     
   13    6    7 2     
   14    6    8 am    
   15    8    9 1     
   16    8   27 1     
   17    9   10 1     
   18    9   28 1     
   19    9   29 1     
   20   10   11 1     
   21   10   12 1     
   22   10   30 1     
   23   11   31 1     
   24   11   32 1     
   25   11   33 1     
   26   12   19 1     
   27   12   13 1     
   28   13   14 1     
   29   13   34 1     
   30   13   35 1     
   31   14   15 1     
   32   14   16 1     
   33   14   36 1     
   34   15   37 1     
   35   15   38 1     
   36   15   39 1     
   37   16   17 1     
   38   17   18 1     
   39   17   19 1     
   40   17   40 1     
   41   18   41 1     
   42   18   42 1     
   43   18   43 1     
   44   19   44 1     
   45   19   45 1     
   46   20   21 1     
   47    7   46 1     
   48    7   47 1     
   49   12   48 1     
   50   16   49 1     
   51   16   50 1     
   52   20   51 1     
   53   21   52 1     
   54   21   53 1     
@<TRIPOS>SUBSTRUCTURE
      1 S1             1
@<TRIPOS>SET
LONE_PAIRS      STATIC     ATOMS    <user>   **** ""
8 46 47 48 49 50 51 52 53
DONOR_HYDROGENS      STATIC     ATOMS    <user>   **** ""
2 26 27
ATOM$BLUE        STATIC     ATOMS    COLORGROUP SYSTEM
8 46 47 48 49 50 51 52 53
ATOM$RED        STATIC     ATOMS    COLORGROUP SYSTEM
2 26 27
