#       Name:                AV-unprocessed.smi:447
#       Creating user name   scv26
#       Creation time:       Thu Mar 26 22:59:46 2020


#       File generated by GOLD software.
#

@<TRIPOS>MOLECULE
AV-unprocessed.smi:447
    50    52     1
SMALL
NO_CHARGES


@<TRIPOS>ATOM
      1 ****        -2.6762   4.6420   0.8621 C.3            1 S1                 0.0000
      2 ****        -2.0828   3.2640   0.5889 C.2            1 S1                 0.0000
      3 ****        -1.6729   2.9828  -0.5363 O.2            1 S1                 0.0000
      4 ****        -2.0410   2.4145   1.6271 N.am           1 S1                 0.0000
      5 ****        -1.5423   1.0417   1.5750 C.3            1 S1                 0.0000
      6 ****        -1.9812   0.2894   2.8383 C.3            1 S1                 0.0000
      7 ****        -0.0503   0.9675   1.4136 C.2            1 S1                 0.0000
      8 ****         0.8604   1.8527   1.9136 N.pl3          1 S1                 1.0000
      9 ****         2.1511   1.4542   1.5662 C.ar           1 S1                 0.0000
     10 ****         3.3879   2.0326   1.8349 C.ar           1 S1                 0.0000
     11 ****         4.5224   1.3640   1.3297 C.ar           1 S1                 0.0000
     12 ****         4.4022   0.1687   0.5913 C.ar           1 S1                 0.0000
     13 ****         3.1427  -0.4089   0.3268 C.ar           1 S1                 0.0000
     14 ****         2.0264   0.2599   0.8286 C.ar           1 S1                 0.0000
     15 ****         0.6543  -0.0056   0.7648 N.pl3          1 S1                 0.0000
     16 ****         0.1944  -1.2078   0.0517 C.3            1 S1                 0.0000
     17 ****         0.1183  -1.0059  -1.4750 C.3            1 S1                 0.0000
     18 ****        -0.7514   0.0689  -1.7710 O.3            1 S1                 0.0000
     19 ****        -0.2892  -2.2881  -2.1829 C.ar           1 S1                 0.0000
     20 ****         0.6846  -3.0683  -2.8427 C.ar           1 S1                 0.0000
     21 ****         0.3157  -4.2594  -3.4977 C.ar           1 S1                 0.0000
     22 ****        -1.0283  -4.6790  -3.4937 C.ar           1 S1                 0.0000
     23 ****        -2.0033  -3.9080  -2.8322 C.ar           1 S1                 0.0000
     24 ****        -1.6352  -2.7164  -2.1776 C.ar           1 S1                 0.0000
     25 ****        -2.5151   4.9421   1.8982 H              1 S1                 0.0000
     26 ****        -3.7488   4.6349   0.6682 H              1 S1                 0.0000
     27 ****        -2.2163   5.3913   0.2171 H              1 S1                 0.0000
     28 ****        -2.4048   2.7332   2.5135 H              1 S1                 0.0000
     29 ****        -2.0059   0.5556   0.7154 H              1 S1                 0.0000
     30 ****        -1.6707  -0.7553   2.8009 H              1 S1                 0.0000
     31 ****        -3.0661   0.3047   2.9476 H              1 S1                 0.0000
     32 ****        -1.5486   0.7329   3.7360 H              1 S1                 0.0000
     33 ****         3.4828   2.9482   2.4001 H              1 S1                 0.0000
     34 ****         5.5043   1.7767   1.5115 H              1 S1                 0.0000
     35 ****         5.2939  -0.3154   0.2197 H              1 S1                 0.0000
     36 ****         3.0607  -1.3243  -0.2405 H              1 S1                 0.0000
     37 ****         0.8639  -2.0316   0.3013 H              1 S1                 0.0000
     38 ****        -0.7828  -1.4820   0.4504 H              1 S1                 0.0000
     39 ****         1.1030  -0.7147  -1.8424 H              1 S1                 0.0000
     40 ****        -0.7151   0.2377  -2.7002 H              1 S1                 0.0000
     41 ****         1.7188  -2.7564  -2.8495 H              1 S1                 0.0000
     42 ****         1.0642  -4.8515  -4.0034 H              1 S1                 0.0000
     43 ****        -1.3111  -5.5922  -3.9965 H              1 S1                 0.0000
     44 ****        -3.0342  -4.2304  -2.8267 H              1 S1                 0.0000
     45 ****        -2.3899  -2.1329  -1.6705 H              1 S1                 0.0000
     46 ****         0.6100   2.6760   2.4455 H              1 S1                 0.0000
     47 ****        -1.7287   3.6578  -1.2720 LP             1 S1                 0.0000
     48 ****        -1.2838   2.0791  -0.7153 LP             1 S1                 0.0000
     49 ****        -0.4630   0.8841  -1.2687 LP             1 S1                 0.0000
     50 ****        -1.6858  -0.1714  -1.5082 LP             1 S1                 0.0000
@<TRIPOS>BOND
    1    1    2 1     
    2    1   25 1     
    3    1   26 1     
    4    1   27 1     
    5    2    3 2     
    6    2    4 am    
    7    4    5 1     
    8    4   28 1     
    9    5    6 1     
   10    5    7 1     
   11    5   29 1     
   12    6   30 1     
   13    6   31 1     
   14    6   32 1     
   15    7   15 1     
   16    7    8 2     
   17    8    9 1     
   18    8   46 1     
   19    9   14 ar    
   20    9   10 ar    
   21   10   11 ar    
   22   10   33 1     
   23   11   12 ar    
   24   11   34 1     
   25   12   13 ar    
   26   12   35 1     
   27   13   14 ar    
   28   13   36 1     
   29   14   15 1     
   30   15   16 1     
   31   16   17 1     
   32   16   37 1     
   33   16   38 1     
   34   17   18 1     
   35   17   19 1     
   36   17   39 1     
   37   18   40 1     
   38   19   24 ar    
   39   19   20 ar    
   40   20   21 ar    
   41   20   41 1     
   42   21   22 ar    
   43   21   42 1     
   44   22   23 ar    
   45   22   43 1     
   46   23   24 ar    
   47   23   44 1     
   48   24   45 1     
   49    3   47 1     
   50    3   48 1     
   51   18   49 1     
   52   18   50 1     
@<TRIPOS>SUBSTRUCTURE
      1 S1             1
@<TRIPOS>SET
LONE_PAIRS      STATIC     ATOMS    <user>   **** ""
4 47 48 49 50
DONOR_HYDROGENS      STATIC     ATOMS    <user>   **** ""
3 28 46 40
ATOM$BLUE        STATIC     ATOMS    COLORGROUP SYSTEM
4 47 48 49 50
ATOM$RED        STATIC     ATOMS    COLORGROUP SYSTEM
3 28 46 40
