#       Name:                AV-unprocessed.smi:2709
#       Creating user name   scv26
#       Creation time:       Fri Mar 27 14:50:03 2020


#       File generated by GOLD software.
#

@<TRIPOS>MOLECULE
AV-unprocessed.smi:2709
    46    48     1
SMALL
NO_CHARGES


@<TRIPOS>ATOM
      1 ****        -3.8423  -0.5969  -2.9916 C.3            1 S1                 0.0000
      2 ****        -3.7684  -0.4406  -1.5840 O.3            1 S1                 0.0000
      3 ****        -3.1642  -1.5408  -0.9179 C.3            1 S1                 0.0000
      4 ****        -4.1104  -2.7464  -0.8325 C.3            1 S1                 0.0000
      5 ****        -3.7396  -3.4309   0.4780 C.3            1 S1                 0.0000
      6 ****        -3.4402  -2.2691   1.4235 C.3            1 S1                 0.0000
      7 ****        -2.8370  -1.1587   0.5448 C.3            1 S1                 0.0000
      8 ****        -1.3968  -1.0648   0.7703 N.am           1 S1                 0.0000
      9 ****        -0.6234  -0.0447   0.3737 C.2            1 S1                 0.0000
     10 ****        -1.0527   0.9318  -0.2388 O.2            1 S1                 0.0000
     11 ****         0.6581  -0.2467   0.7243 N.am           1 S1                 0.0000
     12 ****         1.7881   0.5885   0.5082 C.ar           1 S1                 0.0000
     13 ****         3.0684   0.0868   0.8233 C.ar           1 S1                 0.0000
     14 ****         4.1888   0.8211   0.6560 N.ar           1 S1                 0.0000
     15 ****         4.0313   2.0612   0.1863 C.ar           1 S1                 0.0000
     16 ****         5.2780   2.8605  -0.0341 C.3            1 S1                 0.0000
     17 ****         6.2588   3.0943   1.0968 C.3            1 S1                 0.0000
     18 ****         5.4342   4.2384   0.5767 C.3            1 S1                 0.0000
     19 ****         2.8781   2.6421  -0.1544 N.ar           1 S1                 0.0000
     20 ****         1.7516   1.9149   0.0102 C.ar           1 S1                 0.0000
     21 ****        -4.3078   0.2851  -3.4310 H              1 S1                 0.0000
     22 ****        -4.4420  -1.4641  -3.2698 H              1 S1                 0.0000
     23 ****        -2.8486  -0.7029  -3.4284 H              1 S1                 0.0000
     24 ****        -2.2491  -1.8396  -1.4341 H              1 S1                 0.0000
     25 ****        -5.1449  -2.4040  -0.7780 H              1 S1                 0.0000
     26 ****        -4.0249  -3.4107  -1.6928 H              1 S1                 0.0000
     27 ****        -4.5299  -4.0833   0.8507 H              1 S1                 0.0000
     28 ****        -2.8422  -4.0351   0.3382 H              1 S1                 0.0000
     29 ****        -4.3757  -1.9131   1.8570 H              1 S1                 0.0000
     30 ****        -2.7969  -2.5666   2.2528 H              1 S1                 0.0000
     31 ****        -3.3027  -0.2081   0.8129 H              1 S1                 0.0000
     32 ****        -0.9623  -1.8307   1.2636 H              1 S1                 0.0000
     33 ****         0.8538  -1.1199   1.1913 H              1 S1                 0.0000
     34 ****         3.1977  -0.9129   1.2114 H              1 S1                 0.0000
     35 ****         5.6812   2.6981  -1.0319 H              1 S1                 0.0000
     36 ****         6.0051   2.7018   2.0797 H              1 S1                 0.0000
     37 ****         7.3185   3.0850   0.8506 H              1 S1                 0.0000
     38 ****         5.9421   4.9953  -0.0175 H              1 S1                 0.0000
     39 ****         4.6317   4.6065   1.2131 H              1 S1                 0.0000
     40 ****         0.8376   2.4212  -0.2548 H              1 S1                 0.0000
     41 ****        -4.6968  -0.3282  -1.2297 LP             1 S1                 0.0000
     42 ****        -3.2340   0.3809  -1.3853 LP             1 S1                 0.0000
     43 ****        -2.0249   0.9923  -0.4651 LP             1 S1                 0.0000
     44 ****        -0.4295   1.6651  -0.5106 LP             1 S1                 0.0000
     45 ****         5.0932   0.4540   0.8733 LP             1 S1                 0.0000
     46 ****         2.8497   3.5742  -0.5155 LP             1 S1                 0.0000
@<TRIPOS>BOND
    1    1    2 1     
    2    1   21 1     
    3    1   22 1     
    4    1   23 1     
    5    2    3 1     
    6    3    7 1     
    7    3    4 1     
    8    3   24 1     
    9    4    5 1     
   10    4   25 1     
   11    4   26 1     
   12    5    6 1     
   13    5   27 1     
   14    5   28 1     
   15    6    7 1     
   16    6   29 1     
   17    6   30 1     
   18    7    8 1     
   19    7   31 1     
   20    8    9 am    
   21    8   32 1     
   22    9   10 2     
   23    9   11 am    
   24   11   12 1     
   25   11   33 1     
   26   12   20 ar    
   27   12   13 ar    
   28   13   14 ar    
   29   13   34 1     
   30   14   15 ar    
   31   15   16 1     
   32   15   19 ar    
   33   16   18 1     
   34   16   17 1     
   35   16   35 1     
   36   17   18 1     
   37   17   36 1     
   38   17   37 1     
   39   18   38 1     
   40   18   39 1     
   41   19   20 ar    
   42   20   40 1     
   43    2   41 1     
   44    2   42 1     
   45   10   43 1     
   46   10   44 1     
   47   14   45 1     
   48   19   46 1     
@<TRIPOS>SUBSTRUCTURE
      1 S1             1
@<TRIPOS>SET
LONE_PAIRS      STATIC     ATOMS    <user>   **** ""
6 41 42 43 44 45 46
DONOR_HYDROGENS      STATIC     ATOMS    <user>   **** ""
2 32 33
ATOM$BLUE        STATIC     ATOMS    COLORGROUP SYSTEM
6 41 42 43 44 45 46
ATOM$RED        STATIC     ATOMS    COLORGROUP SYSTEM
2 32 33
