AV-unprocessed.smi:2476|AV-procd|sdf|9758|dock9
  -GOLD-   2272013403D 1   1.00000     0.00000
 Structure written by MMmdl.
 34 35  0  0  0  0  0  0  0  0  1 V2000
  146.7319  145.5311  160.4199 C   0  0  0  0  0  0  0  0  0  0  0  0
  146.8438  144.1288  159.8309 C   0  0  0  0  0  0  0  0  0  0  0  0
  146.7514  143.1460  160.5655 O   0  0  0  0  0  0  0  0  0  0  0  0
  147.0432  144.0485  158.5066 N   0  0  0  0  0  0  0  0  0  0  0  0
  147.1691  142.8064  157.7512 C   0  0  0  0  0  0  0  0  0  0  0  0
  148.5923  142.5899  157.2048 C   0  0  1  0  0  0  0  0  0  0  0  0
  149.6206  142.2653  158.3098 C   0  0  0  0  0  0  0  0  0  0  0  0
  150.9199  141.9737  157.7172 N   0  0  0  0  0  0  0  0  0  0  0  0
  151.9404  141.7910  158.6622 C   0  0  0  0  0  0  0  0  0  0  0  0
  152.4263  140.5389  158.8467 N   0  0  0  0  0  0  0  0  0  0  0  0
  153.4109  140.3610  159.7537 C   0  0  0  0  0  0  0  0  0  0  0  0
  153.9573  141.4106  160.5179 C   0  0  0  0  0  0  0  0  0  0  0  0
  153.4508  142.7102  160.3263 C   0  0  0  0  0  0  0  0  0  0  0  0
  152.4241  142.9060  159.3822 C   0  0  0  0  0  0  0  0  0  0  0  0
  151.9152  144.1442  159.1735 F   0  0  0  0  0  0  0  0  0  0  0  0
  150.8526  140.9142  156.7196 C   0  0  0  0  0  0  0  0  0  0  0  0
  149.8005  141.2648  155.6547 C   0  0  0  0  0  0  0  0  0  0  0  0
  148.5449  141.5000  156.2859 O   0  0  0  0  0  0  0  0  0  0  0  0
  146.4781  146.2653  159.6543 H   0  0  0  0  0  0  0  0  0  0  0  0
  147.6770  145.8233  160.8779 H   0  0  0  0  0  0  0  0  0  0  0  0
  145.9568  145.5590  161.1861 H   0  0  0  0  0  0  0  0  0  0  0  0
  147.1107  144.9096  157.9836 H   0  0  0  0  0  0  0  0  0  0  0  0
  146.8953  141.9808  158.4089 H   0  0  0  0  0  0  0  0  0  0  0  0
  146.4467  142.7987  156.9331 H   0  0  0  0  0  0  0  0  0  0  0  0
  148.9057  143.4860  156.6658 H   0  0  0  0  0  0  0  0  0  0  0  0
  149.7185  143.1069  158.9966 H   0  0  0  0  0  0  0  0  0  0  0  0
  149.2814  141.4085  158.8936 H   0  0  0  0  0  0  0  0  0  0  0  0
  153.7750  139.3512  159.8737 H   0  0  0  0  0  0  0  0  0  0  0  0
  154.7449  141.2230  161.2326 H   0  0  0  0  0  0  0  0  0  0  0  0
  153.8431  143.5418  160.8927 H   0  0  0  0  0  0  0  0  0  0  0  0
  151.8295  140.7819  156.2530 H   0  0  0  0  0  0  0  0  0  0  0  0
  150.5921  139.9700  157.2001 H   0  0  0  0  0  0  0  0  0  0  0  0
  150.1032  142.1429  155.0818 H   0  0  0  0  0  0  0  0  0  0  0  0
  149.6939  140.4431  154.9468 H   0  0  0  0  0  0  0  0  0  0  0  0
  1  2  1  0  0  0  0
  1 19  1  0  0  0  0
  1 20  1  0  0  0  0
  1 21  1  0  0  0  0
  2  3  2  0  0  0  0
  2  4  1  0  0  0  0
  4  5  1  0  0  0  0
  4 22  1  0  0  0  0
  5  6  1  0  0  0  0
  5 23  1  0  0  0  0
  5 24  1  0  0  0  0
  6 18  1  0  0  0  0
  6  7  1  0  0  0  0
  6 25  1  0  0  0  0
  7  8  1  0  0  0  0
  7 26  1  0  0  0  0
  7 27  1  0  0  0  0
  8  9  1  0  0  0  0
  8 16  1  0  0  0  0
  9 14  1  0  0  0  0
  9 10  2  0  0  0  0
 10 11  1  0  0  0  0
 11 12  2  0  0  0  0
 11 28  1  0  0  0  0
 12 13  1  0  0  0  0
 12 29  1  0  0  0  0
 13 14  2  0  0  0  0
 13 30  1  0  0  0  0
 14 15  1  0  0  0  0
 16 17  1  0  0  0  0
 16 31  1  0  0  0  0
 16 32  1  0  0  0  0
 17 18  1  0  0  0  0
 17 33  1  0  0  0  0
 17 34  1  0  0  0  0
M  END
> <s_m_source_file>
AV-unprocessed.smi

> <i_m_source_file_index>
2476

> <i_lp_mmshare_version>
43012

> <i_f3d_flags>
0

> <s_epik_input>
W0NIM11DKD1PKVtOSF1bQ0gyXVtDQEBIXTFbQ0gyXU4oW0NIMl1bQ0gyXU8xKWMybltjSF1bY0hdW2NIXWMyRg==

> <s_epik_cmdline>
J2VwaWtfcHl0aG9uJywgJy1waCcsICc3LjAnLCAnLXRuJywgJzgnLCAnLW1hJywgJzIwMCcsICctbWV0YWxfYmluZGluZycsICctaW1hZScsICc8aW5maWxlLm1hZT4nLCAnLW9tYWUnLCAnPG91dGZpbGUubWFlPic=

> <r_lp_tautomer_probability>
1

> <r_epik_Ionization_Penalty>
1.69306e-05

> <r_epik_Ionization_Penalty_Charging>
0

> <r_epik_Ionization_Penalty_Neutral>
1.69306e-05

> <r_epik_State_Penalty>
-0

> <r_epik_Charging_Adjusted_Penalty>
0

> <i_epik_Tot_Q>
0

> <i_epik_Tot_abs_Q>
0

> <r_epik_Metal_State_Penalty>
-0

> <b_epik_Metal_Only>
0

> <s_lp_Force_Field>
OPLS_2005

> <r_lp_Energy>
19.3351

> <b_lp_Chiralities_Consistent>
1

> <s_lp_Variant>
AV-unprocessed.smi:2476-2

> <Gold.Version>
5.8.1

> <Gold.Id.Protein>
6NUR|6NUR_protein|mol2

> <Gold.PLP.Fitness>
39.7905

> <Gold.PLP.PLP>
-32.1977

> <Gold.PLP.part.hbond>
-3.0000

> <Gold.PLP.part.metal>
0.0000

> <Gold.PLP.part.buried>
-2.3564

> <Gold.PLP.part.nonpolar>
-27.0230

> <Gold.PLP.part.repulsive>
0.2254

> <Gold.PLP.ligand.clash>
0.0000

> <Gold.PLP.ligand.torsion>
0.5170

> <Gold.PLP.Chemscore.Hbond>
2.8400

> <Gold.PLP.Chemscore.CHOScore>
0.0000

> <Gold.PLP.Chemscore.Metal>
0.0000

> <Gold.Chemscore.Hbonds>
donor molecule, donor type, donor heavy atom, donor atom, acceptor molecule, acceptor atom, score
      L1  H     4    22       P1  8029  0.81
      P1  H  6933  6944       L1     3  0.83
      P1  H  6934  6946       L1     3  0.33

> <Gold.PLP.Chemscore.Internal.Correction>
0.1068

> <Gold.Rescore>
     Score         DG    S(hbond)    S(metal)    S(lipo)     H(rot)  DE(clash)    DE(int)     intcor
     14.24     -15.03       1.71        0.00      68.03       1.61       0.05       0.75       ----

> <Gold.Chemscore.Fitness>
14.2398

> <Gold.Chemscore.DG>
-15.0319

> <Gold.Chemscore.ZeroCoef>
-5.4800

> <Gold.Chemscore.Hbond>
1.7089

> <Gold.Chemscore.Metal>
0.0000

> <Gold.Chemscore.Lipo>
68.0346

> <Gold.Chemscore.Internal_Hbond>
0.0000

> <Gold.Chemscore.DEClash>
0.0457

> <Gold.Chemscore.DEInternal>
0.7463

> <Gold.Chemscore.Rot>
1.6078

> <Gold.Chemscore.Internal.Correction>
   9.000000E+99

> <Gold.Chemscore.Hbonds>
donor molecule, donor type, donor heavy atom, donor atom, acceptor molecule, acceptor atom, score
      L1  H     4    22       P1  8029  0.62
      P1  H  6933  6944       L1     3  0.76
      P1  H  6934  6946       L1     3  0.31

> <Gold.Chemscore.Hbond.Weighted>
-5.7078

> <Gold.Chemscore.Metal.Weighted>
-0.0000

> <Gold.Chemscore.Lipo.Weighted>
-7.9600

> <Gold.Chemscore.Internal_Hbond.Weighted>
0.0000

> <Gold.Chemscore.DEClash.Weighted>
0.0457

> <Gold.Chemscore.DEInternal.Weighted>
0.7463

> <Gold.Chemscore.Rot.Weighted>
4.1159

> <Gold.Chemscore.Internal.Correction.Weighted>
   9.000000E+99

> <Gold.Protein.RotatedTorsions>
[ 6907 6896 6895 6894 ] final  -39.68 input  -60.11 | X-H torsion
[ 7974 7965 7964 7962 ] final  163.05 input  175.53 | X-H torsion
[ 8008 7997 7996 7995 ] final -115.09 input   59.86 | X-H torsion
[ 10167 10162 10161 10158 ] final -173.43 input  -65.29 | X-H torsion
[ 10718 10713 10712 10709 ] final -176.87 input   66.30 | X-H torsion
[ 10763 10752 10751 10750 ] final  144.86 input  -60.55 | X-H torsion
[ 11005 11000 10999 10996 ] final -176.70 input  -57.11 | X-H torsion

> <Gold.Protein.ActiveResidues>
 VAL166  LYS551  ARG553  GLY616  TRP617  ASP618  TYR619  PRO620  LYS621  CYS622 
 ASP623  PHE694  ASN695  SER759  ASP760  ASP761  ALA762  ILE779  LEU786  VAL792 
 PHE793  MET794  SER795  GLU796  ALA797  LYS798  CYS799  TRP800  GLU811  SER814 

> <Gold.Protein.RotatedAtoms>
  150.9874  134.9217  159.7879 H   0  0  0  0  0  0  0  0  0  0  0  0  # atno 6907 bound_to 6896
  152.5241  134.3327  159.9199 H   0  0  0  0  0  0  0  0  0  0  0  0  # atno 6908 bound_to 6896
  151.3334  133.3950  159.2699 H   0  0  0  0  0  0  0  0  0  0  0  0  # atno 6909 bound_to 6896
  144.7608  139.8126  143.6333 H   0  0  0  0  0  0  0  0  0  0  0  0  # atno 7974 bound_to 7965
  155.0466  140.0392  157.2529 H   0  0  0  0  0  0  0  0  0  0  0  0  # atno 8008 bound_to 7997
  154.7172  140.2704  155.6550 H   0  0  0  0  0  0  0  0  0  0  0  0  # atno 8009 bound_to 7997
  156.2806  140.2710  156.1832 H   0  0  0  0  0  0  0  0  0  0  0  0  # atno 8010 bound_to 7997
  139.5689  144.1690  152.1354 H   0  0  0  0  0  0  0  0  0  0  0  0  # atno 10167 bound_to 10162
  156.8210  130.9620  151.3111 H   0  0  0  0  0  0  0  0  0  0  0  0  # atno 10718 bound_to 10713
  153.9959  135.2928  155.3407 H   0  0  0  0  0  0  0  0  0  0  0  0  # atno 10763 bound_to 10752
  154.7187  135.5118  153.8782 H   0  0  0  0  0  0  0  0  0  0  0  0  # atno 10764 bound_to 10752
  153.0788  135.6672  154.0206 H   0  0  0  0  0  0  0  0  0  0  0  0  # atno 10765 bound_to 10752
  140.4492  134.6359  157.4793 H   0  0  0  0  0  0  0  0  0  0  0  0  # atno 11005 bound_to 11000
  146.1668  139.4803  142.9953 LP  0  0  0  0  0  0  0  0  0  0  0  0  # atno 17320 bound_to 7965
  145.6626  141.0236  143.1700 LP  0  0  0  0  0  0  0  0  0  0  0  0  # atno 17321 bound_to 7965
  140.1218  144.5366  150.6858 LP  0  0  0  0  0  0  0  0  0  0  0  0  # atno 17342 bound_to 10162
  140.6973  143.2412  151.4965 LP  0  0  0  0  0  0  0  0  0  0  0  0  # atno 17343 bound_to 10162
  157.6457  130.8842  149.9533 LP  0  0  0  0  0  0  0  0  0  0  0  0  # atno 17370 bound_to 10713
  156.0989  130.3657  150.0255 LP  0  0  0  0  0  0  0  0  0  0  0  0  # atno 17371 bound_to 10713
  140.0018  134.6824  155.9518 LP  0  0  0  0  0  0  0  0  0  0  0  0  # atno 17394 bound_to 11000
  141.1672  133.6537  156.4520 LP  0  0  0  0  0  0  0  0  0  0  0  0  # atno 17395 bound_to 11000

$$$$
