AV-unprocessed.smi:3112|AV-procd|sdf|11838|dock9
  -GOLD-   2272017213D 1   1.00000     0.00000
 Structure written by MMmdl.
 37 37  0  0  0  0  0  0  0  0  2 V2000
  151.0480  137.5092  154.6367 C   0  0  0  0  0  0  0  0  0  0  0  0
  150.5175  138.9439  154.7647 C   0  0  0  0  0  0  0  0  0  0  0  0
  151.5025  139.9013  155.4598 C   0  0  2  0  0  0  0  0  0  0  0  0
  152.8154  139.5977  155.0306 O   0  0  0  0  0  0  0  0  0  0  0  0
  151.4515  139.7682  156.9912 C   0  0  0  0  0  0  0  0  0  0  0  0
  152.1726  140.8809  157.6446 N   0  3  0  0  0  0  0  0  0  0  0  0
  152.3335  140.7720  159.1141 C   0  0  1  0  0  0  0  0  0  0  0  0
  153.0614  139.4676  159.4939 C   0  0  0  0  0  0  0  0  0  0  0  0
  153.0467  142.0244  159.6892 C   0  0  2  0  0  0  0  0  0  0  0  0
  153.3032  141.9296  161.2053 C   0  0  0  0  0  0  0  0  0  0  0  0
  152.3874  143.2763  159.3285 N   0  0  0  0  0  0  0  0  0  0  0  0
  152.1864  144.3901  160.1187 C   0  0  0  0  0  0  0  0  0  0  0  0
  151.5459  145.3243  159.3564 C   0  0  0  0  0  0  0  0  0  0  0  0
  151.3972  144.6863  158.0943 C   0  0  0  0  0  0  0  0  0  0  0  0
  151.9038  143.4643  158.0790 N   0  0  0  0  0  0  0  0  0  0  0  0
  150.3340  136.8793  154.1057 H   0  0  0  0  0  0  0  0  0  0  0  0
  151.2214  137.0579  155.6137 H   0  0  0  0  0  0  0  0  0  0  0  0
  151.9872  137.4841  154.0835 H   0  0  0  0  0  0  0  0  0  0  0  0
  150.3020  139.3178  153.7632 H   0  0  0  0  0  0  0  0  0  0  0  0
  149.5647  138.9364  155.2962 H   0  0  0  0  0  0  0  0  0  0  0  0
  151.2681  140.9282  155.1749 H   0  0  0  0  0  0  0  0  0  0  0  0
  152.8172  138.7290  154.6571 H   0  0  0  0  0  0  0  0  0  0  0  0
  150.4141  139.7877  157.3274 H   0  0  0  0  0  0  0  0  0  0  0  0
  151.8691  138.8087  157.2965 H   0  0  0  0  0  0  0  0  0  0  0  0
  153.0863  140.9733  157.2235 H   0  0  0  0  0  0  0  0  0  0  0  0
  151.3354  140.7416  159.5540 H   0  0  0  0  0  0  0  0  0  0  0  0
  153.2346  139.4177  160.5692 H   0  0  0  0  0  0  0  0  0  0  0  0
  154.0298  139.3873  158.9989 H   0  0  0  0  0  0  0  0  0  0  0  0
  152.4797  138.5863  159.2250 H   0  0  0  0  0  0  0  0  0  0  0  0
  154.0328  142.0603  159.2232 H   0  0  0  0  0  0  0  0  0  0  0  0
  153.8733  141.0329  161.4495 H   0  0  0  0  0  0  0  0  0  0  0  0
  152.3755  141.8976  161.7772 H   0  0  0  0  0  0  0  0  0  0  0  0
  153.8766  142.7877  161.5575 H   0  0  0  0  0  0  0  0  0  0  0  0
  152.5131  144.4264  161.1477 H   0  0  0  0  0  0  0  0  0  0  0  0
  151.2322  146.3137  159.6546 H   0  0  0  0  0  0  0  0  0  0  0  0
  150.9411  145.0725  157.1946 H   0  0  0  0  0  0  0  0  0  0  0  0
  151.6542  141.7268  157.4566 H   0  0  0  0  0  0  0  0  0  0  0  0
  1  2  1  0  0  0  0
  1 16  1  0  0  0  0
  1 17  1  0  0  0  0
  1 18  1  0  0  0  0
  2  3  1  0  0  0  0
  2 19  1  0  0  0  0
  2 20  1  0  0  0  0
  3  4  1  0  0  0  0
  3  5  1  0  0  0  0
  3 21  1  0  0  0  0
  4 22  1  0  0  0  0
  5  6  1  0  0  0  0
  5 23  1  0  0  0  0
  5 24  1  0  0  0  0
  6  7  1  0  0  0  0
  6 25  1  0  0  0  0
  6 37  1  0  0  0  0
  7  8  1  0  0  0  0
  7  9  1  0  0  0  0
  7 26  1  0  0  0  0
  8 27  1  0  0  0  0
  8 28  1  0  0  0  0
  8 29  1  0  0  0  0
  9 10  1  0  0  0  0
  9 11  1  0  0  0  0
  9 30  1  0  0  0  0
 10 31  1  0  0  0  0
 10 32  1  0  0  0  0
 10 33  1  0  0  0  0
 11 15  1  0  0  0  0
 11 12  1  0  0  0  0
 12 13  2  0  0  0  0
 12 34  1  0  0  0  0
 13 14  1  0  0  0  0
 13 35  1  0  0  0  0
 14 15  2  0  0  0  0
 14 36  1  0  0  0  0
M  CHG  1   6   1
M  END
> <s_m_source_file>
AV-unprocessed.smi

> <i_m_source_file_index>
3112

> <i_lp_mmshare_version>
43012

> <i_f3d_flags>
0

> <s_epik_input>
W0NIM11bQ0gyXVtDQEhdKFtPSF0pW0NIMl1bTkhdW0NASF0oW0NIM10pW0NASF0oW0NIM10pbjFbY0hdW2NIXVtjSF1uMQ==

> <s_epik_cmdline>
J2VwaWtfcHl0aG9uJywgJy1waCcsICc3LjAnLCAnLXRuJywgJzgnLCAnLW1hJywgJzIwMCcsICctbWV0YWxfYmluZGluZycsICctaW1hZScsICc8aW5maWxlLm1hZT4nLCAnLW9tYWUnLCAnPG91dGZpbGUubWFlPic=

> <r_lp_tautomer_probability>
1

> <r_epik_Ionization_Penalty>
0.0154842

> <r_epik_Ionization_Penalty_Charging>
0.0154724

> <r_epik_Ionization_Penalty_Neutral>
1.17979e-05

> <r_epik_State_Penalty>
0.0121607

> <r_epik_Charging_Adjusted_Penalty>
0.0276331

> <i_epik_Tot_Q>
1

> <i_epik_Tot_abs_Q>
1

> <r_epik_Metal_State_Penalty>
0.0121863

> <b_epik_Metal_Only>
0

> <s_lp_Force_Field>
OPLS_2005

> <r_lp_Energy>
12.0711

> <b_lp_Chiralities_Consistent>
1

> <s_lp_Variant>
AV-unprocessed.smi:3112-3

> <Gold.Version>
5.8.1

> <Gold.Id.Protein>
6NUR|6NUR_protein|mol2

> <Gold.PLP.Fitness>
44.9790

> <Gold.PLP.PLP>
-40.1553

> <Gold.PLP.part.hbond>
-2.0000

> <Gold.PLP.part.metal>
0.0000

> <Gold.PLP.part.buried>
-3.9852

> <Gold.PLP.part.nonpolar>
-34.1561

> <Gold.PLP.part.repulsive>
0.1538

> <Gold.PLP.ligand.clash>
0.0000

> <Gold.PLP.ligand.torsion>
0.6863

> <Gold.PLP.Chemscore.Hbond>
1.0000

> <Gold.PLP.Chemscore.CHOScore>
0.9897

> <Gold.PLP.Chemscore.Metal>
0.0000

> <Gold.Chemscore.Hbonds>
donor molecule, donor type, donor heavy atom, donor atom, acceptor molecule, acceptor atom, score
      P1  H  7997  8010       L1     4  1.00
      L1  C    14    36       P1  8028  0.98

> <Gold.PLP.Chemscore.Internal.Correction>
0.2271

> <Gold.Rescore>
     Score         DG    S(hbond)    S(metal)    S(lipo)     H(rot)  DE(clash)    DE(int)     intcor
     12.22     -14.44       0.99        0.00     100.92       2.41       0.05       2.18       ----

> <Gold.Chemscore.Fitness>
12.2200

> <Gold.Chemscore.DG>
-14.4424

> <Gold.Chemscore.ZeroCoef>
-5.4800

> <Gold.Chemscore.Hbond>
0.9946

> <Gold.Chemscore.Metal>
0.0000

> <Gold.Chemscore.Lipo>
100.9155

> <Gold.Chemscore.Internal_Hbond>
0.0000

> <Gold.Chemscore.DEClash>
0.0473

> <Gold.Chemscore.DEInternal>
2.1751

> <Gold.Chemscore.Rot>
2.4089

> <Gold.Chemscore.Internal.Correction>
   9.000000E+99

> <Gold.Chemscore.Hbonds>
donor molecule, donor type, donor heavy atom, donor atom, acceptor molecule, acceptor atom, score
      P1  H  7997  8010       L1     4  0.93

> <Gold.Chemscore.Hbond.Weighted>
-3.3219

> <Gold.Chemscore.Metal.Weighted>
-0.0000

> <Gold.Chemscore.Lipo.Weighted>
-11.8071

> <Gold.Chemscore.Internal_Hbond.Weighted>
0.0000

> <Gold.Chemscore.DEClash.Weighted>
0.0473

> <Gold.Chemscore.DEInternal.Weighted>
2.1751

> <Gold.Chemscore.Rot.Weighted>
6.1667

> <Gold.Chemscore.Internal.Correction.Weighted>
   9.000000E+99

> <Gold.Protein.RotatedTorsions>
[ 6907 6896 6895 6894 ] final -125.92 input  -60.11 | X-H torsion
[ 7974 7965 7964 7962 ] final  -40.08 input  175.53 | X-H torsion
[ 8008 7997 7996 7995 ] final  102.25 input   59.86 | X-H torsion
[ 10167 10162 10161 10158 ] final  148.18 input  -65.29 | X-H torsion
[ 10718 10713 10712 10709 ] final -155.49 input   66.30 | X-H torsion
[ 10763 10752 10751 10750 ] final  -36.74 input  -60.55 | X-H torsion
[ 11005 11000 10999 10996 ] final -150.99 input  -57.11 | X-H torsion

> <Gold.Protein.ActiveResidues>
 VAL166  LYS551  ARG553  GLY616  TRP617  ASP618  TYR619  PRO620  LYS621  CYS622 
 ASP623  PHE694  ASN695  SER759  ASP760  ASP761  ALA762  ILE779  LEU786  VAL792 
 PHE793  MET794  SER795  GLU796  ALA797  LYS798  CYS799  TRP800  GLU811  SER814 

> <Gold.Protein.RotatedAtoms>
  150.8916  133.7236  159.2902 H   0  0  0  0  0  0  0  0  0  0  0  0  # atno 6907 bound_to 6896
  151.4784  135.1049  159.9780 H   0  0  0  0  0  0  0  0  0  0  0  0  # atno 6908 bound_to 6896
  152.4823  133.8239  159.7123 H   0  0  0  0  0  0  0  0  0  0  0  0  # atno 6909 bound_to 6896
  146.0337  140.6698  142.9120 H   0  0  0  0  0  0  0  0  0  0  0  0  # atno 7974 bound_to 7965
  156.1375  140.3184  155.8444 H   0  0  0  0  0  0  0  0  0  0  0  0  # atno 8008 bound_to 7997
  155.4216  140.0512  157.3042 H   0  0  0  0  0  0  0  0  0  0  0  0  # atno 8009 bound_to 7997
  154.4949  140.2107  155.9481 H   0  0  0  0  0  0  0  0  0  0  0  0  # atno 8010 bound_to 7997
  139.4878  144.5699  151.7075 H   0  0  0  0  0  0  0  0  0  0  0  0  # atno 10167 bound_to 10162
  156.5135  130.8446  151.2655 H   0  0  0  0  0  0  0  0  0  0  0  0  # atno 10718 bound_to 10713
  153.8848  135.6818  153.4764 H   0  0  0  0  0  0  0  0  0  0  0  0  # atno 10763 bound_to 10752
  153.1214  135.4738  154.9199 H   0  0  0  0  0  0  0  0  0  0  0  0  # atno 10764 bound_to 10752
  154.7651  135.3222  154.8254 H   0  0  0  0  0  0  0  0  0  0  0  0  # atno 10765 bound_to 10752
  140.7343  134.3586  157.5160 H   0  0  0  0  0  0  0  0  0  0  0  0  # atno 11005 bound_to 11000
  144.7042  140.3782  143.7131 LP  0  0  0  0  0  0  0  0  0  0  0  0  # atno 17320 bound_to 7965
  145.6998  139.1658  143.2599 LP  0  0  0  0  0  0  0  0  0  0  0  0  # atno 17321 bound_to 7965
  140.5284  144.0769  150.6045 LP  0  0  0  0  0  0  0  0  0  0  0  0  # atno 17342 bound_to 10162
  140.3751  143.2833  152.0234 LP  0  0  0  0  0  0  0  0  0  0  0  0  # atno 17343 bound_to 10162
  157.7447  130.9941  150.2697 LP  0  0  0  0  0  0  0  0  0  0  0  0  # atno 17370 bound_to 10713
  156.3217  130.3787  149.7569 LP  0  0  0  0  0  0  0  0  0  0  0  0  # atno 17371 bound_to 10713
  139.8819  134.9039  156.2865 LP  0  0  0  0  0  0  0  0  0  0  0  0  # atno 17394 bound_to 11000
  140.9893  133.7218  156.0790 LP  0  0  0  0  0  0  0  0  0  0  0  0  # atno 17395 bound_to 11000

$$$$
