AV-unprocessed.smi:2597|AV-procd|sdf|10173|dock6
  -GOLD-   2272014183D 1   1.00000     0.00000
 Structure written by MMmdl.
 31 32  0  0  0  0  0  0  0  0  2 V2000
  143.8502  133.2967  148.9261 N   0  3  0  0  0  0  0  0  0  0  0  0
  144.8729  132.6945  149.8025 C   0  0  2  0  0  0  0  0  0  0  0  0
  144.3157  131.4557  150.5332 C   0  0  0  0  0  0  0  0  0  0  0  0
  145.3790  130.8199  151.4427 C   0  0  0  0  0  0  0  0  0  0  0  0
  145.9494  131.8351  152.4452 C   0  0  0  0  0  0  0  0  0  0  0  0
  146.5067  133.0807  151.7306 C   0  0  0  0  0  0  0  0  0  0  0  0
  145.4994  133.7432  150.7617 C   0  0  2  0  0  0  0  0  0  0  0  0
  144.5188  134.5827  151.4522 N   0  0  0  0  0  0  0  0  0  0  0  0
  143.5318  134.1704  152.3255 C   0  0  0  0  0  0  0  0  0  0  0  0
  142.9175  135.3327  152.6959 C   0  0  0  0  0  0  0  0  0  0  0  0
  141.7723  135.5437  153.6384 C   0  0  0  0  0  0  0  0  0  0  0  0
  141.2980  134.2624  153.9922 O   0  0  0  0  0  0  0  0  0  0  0  0
  143.5395  136.3917  152.0393 N   0  0  0  0  0  0  0  0  0  0  0  0
  144.4930  135.9299  151.2951 N   0  0  0  0  0  0  0  0  0  0  0  0
  145.6667  132.3454  149.1407 H   0  0  0  0  0  0  0  0  0  0  0  0
  146.0786  134.4281  150.1401 H   0  0  0  0  0  0  0  0  0  0  0  0
  143.0975  133.6634  149.4914 H   0  0  0  0  0  0  0  0  0  0  0  0
  143.4872  132.5946  148.2973 H   0  0  0  0  0  0  0  0  0  0  0  0
  143.4351  131.7135  151.1209 H   0  0  0  0  0  0  0  0  0  0  0  0
  143.9806  130.7173  149.8039 H   0  0  0  0  0  0  0  0  0  0  0  0
  144.9511  129.9715  151.9776 H   0  0  0  0  0  0  0  0  0  0  0  0
  146.1889  130.4206  150.8309 H   0  0  0  0  0  0  0  0  0  0  0  0
  145.1808  132.1181  153.1633 H   0  0  0  0  0  0  0  0  0  0  0  0
  146.7417  131.3658  153.0292 H   0  0  0  0  0  0  0  0  0  0  0  0
  146.8579  133.8068  152.4650 H   0  0  0  0  0  0  0  0  0  0  0  0
  147.3888  132.7823  151.1624 H   0  0  0  0  0  0  0  0  0  0  0  0
  143.3615  133.1399  152.6009 H   0  0  0  0  0  0  0  0  0  0  0  0
  142.0804  136.0808  154.5360 H   0  0  0  0  0  0  0  0  0  0  0  0
  140.9721  136.1139  153.1665 H   0  0  0  0  0  0  0  0  0  0  0  0
  142.0413  133.6934  154.1219 H   0  0  0  0  0  0  0  0  0  0  0  0
  144.2632  134.0471  148.3908 H   0  0  0  0  0  0  0  0  0  0  0  0
  1  2  1  0  0  0  0
  1 17  1  0  0  0  0
  1 18  1  0  0  0  0
  1 31  1  0  0  0  0
  2 15  1  0  0  0  0
  2  7  1  0  0  0  0
  2  3  1  0  0  0  0
  3  4  1  0  0  0  0
  3 19  1  0  0  0  0
  3 20  1  0  0  0  0
  4  5  1  0  0  0  0
  4 21  1  0  0  0  0
  4 22  1  0  0  0  0
  5  6  1  0  0  0  0
  5 23  1  0  0  0  0
  5 24  1  0  0  0  0
  6  7  1  0  0  0  0
  6 25  1  0  0  0  0
  6 26  1  0  0  0  0
  7 16  1  0  0  0  0
  7  8  1  0  0  0  0
  8 14  1  0  0  0  0
  8  9  1  0  0  0  0
  9 10  2  0  0  0  0
  9 27  1  0  0  0  0
 10 11  1  0  0  0  0
 10 13  1  0  0  0  0
 11 12  1  0  0  0  0
 11 28  1  0  0  0  0
 11 29  1  0  0  0  0
 12 30  1  0  0  0  0
 13 14  2  0  0  0  0
M  CHG  1   1   1
M  END
> <s_m_source_file>
AV-unprocessed.smi

> <i_m_source_file_index>
2597

> <i_lp_mmshare_version>
43012

> <i_f3d_flags>
0

> <s_epik_input>
W05IMl1bQ0BIXTFbQ0gyXVtDSDJdW0NIMl1bQ0gyXVtDQEhdMW4yW2NIXWMobm4yKVtDSDJdW09IXQ==

> <s_epik_cmdline>
J2VwaWtfcHl0aG9uJywgJy1waCcsICc3LjAnLCAnLXRuJywgJzgnLCAnLW1hJywgJzIwMCcsICctbWV0YWxfYmluZGluZycsICctaW1hZScsICc8aW5maWxlLm1hZT4nLCAnLW9tYWUnLCAnPG91dGZpbGUubWFlPic=

> <r_lp_tautomer_probability>
1

> <r_epik_Ionization_Penalty>
0.014346

> <r_epik_Ionization_Penalty_Charging>
0.014316

> <r_epik_Ionization_Penalty_Neutral>
3.00097e-05

> <r_epik_State_Penalty>
0.0111909

> <r_epik_Charging_Adjusted_Penalty>
0.0255069

> <i_epik_Tot_Q>
1

> <i_epik_Tot_abs_Q>
1

> <r_epik_Metal_State_Penalty>
0.011192

> <b_epik_Metal_Only>
0

> <s_lp_Force_Field>
OPLS_2005

> <r_lp_Energy>
16.1833

> <b_lp_Chiralities_Consistent>
1

> <s_lp_Variant>
AV-unprocessed.smi:2597-4

> <Gold.Version>
5.8.1

> <Gold.Id.Protein>
6NUR|6NUR_protein|mol2

> <Gold.PLP.Fitness>
41.7626

> <Gold.PLP.PLP>
-27.6882

> <Gold.PLP.part.hbond>
-5.0000

> <Gold.PLP.part.metal>
0.0000

> <Gold.PLP.part.buried>
-5.2706

> <Gold.PLP.part.nonpolar>
-19.8928

> <Gold.PLP.part.repulsive>
0.5572

> <Gold.PLP.ligand.clash>
0.0000

> <Gold.PLP.ligand.torsion>
0.0921

> <Gold.PLP.Chemscore.Hbond>
4.0514

> <Gold.PLP.Chemscore.CHOScore>
0.6799

> <Gold.PLP.Chemscore.Metal>
0.0000

> <Gold.Chemscore.Hbonds>
donor molecule, donor type, donor heavy atom, donor atom, acceptor molecule, acceptor atom, score
      L1  H     1    17       P1 10186  0.97
      L1  H     1    31       P1  7921  0.63
      L1  H    12    30       P1 10957  0.69
      P1  H 11000 11005       L1    12  1.00
      L1  C     9    27       P1 10957  0.68

> <Gold.PLP.Chemscore.Internal.Correction>
0.0649

> <Gold.Rescore>
     Score         DG    S(hbond)    S(metal)    S(lipo)     H(rot)  DE(clash)    DE(int)     intcor
     18.37     -18.49       3.05        0.00      64.61       1.86       0.08       0.03       ----

> <Gold.Chemscore.Fitness>
18.3718

> <Gold.Chemscore.DG>
-18.4882

> <Gold.Chemscore.ZeroCoef>
-5.4800

> <Gold.Chemscore.Hbond>
3.0531

> <Gold.Chemscore.Metal>
0.0000

> <Gold.Chemscore.Lipo>
64.6128

> <Gold.Chemscore.Internal_Hbond>
0.0000

> <Gold.Chemscore.DEClash>
0.0825

> <Gold.Chemscore.DEInternal>
0.0339

> <Gold.Chemscore.Rot>
1.8551

> <Gold.Chemscore.Internal.Correction>
   9.000000E+99

> <Gold.Chemscore.Hbonds>
donor molecule, donor type, donor heavy atom, donor atom, acceptor molecule, acceptor atom, score
      L1  H     1    17       P1 10186  0.47
      L1  H     1    31       P1  7921  0.61
      L1  H    12    30       P1 10957  0.68
      P1  H 11000 11005       L1    12  0.34

> <Gold.Chemscore.Hbond.Weighted>
-10.1975

> <Gold.Chemscore.Metal.Weighted>
-0.0000

> <Gold.Chemscore.Lipo.Weighted>
-7.5597

> <Gold.Chemscore.Internal_Hbond.Weighted>
0.0000

> <Gold.Chemscore.DEClash.Weighted>
0.0825

> <Gold.Chemscore.DEInternal.Weighted>
0.0339

> <Gold.Chemscore.Rot.Weighted>
4.7489

> <Gold.Chemscore.Internal.Correction.Weighted>
   9.000000E+99

> <Gold.Protein.RotatedTorsions>
[ 6907 6896 6895 6894 ] final  139.42 input  -60.11 | X-H torsion
[ 7974 7965 7964 7962 ] final   29.06 input  175.53 | X-H torsion
[ 8008 7997 7996 7995 ] final  -57.42 input   59.86 | X-H torsion
[ 10167 10162 10161 10158 ] final -120.02 input  -65.29 | X-H torsion
[ 10718 10713 10712 10709 ] final  -85.56 input   66.30 | X-H torsion
[ 10763 10752 10751 10750 ] final  -12.77 input  -60.55 | X-H torsion
[ 11005 11000 10999 10996 ] final   23.39 input  -57.11 | X-H torsion

> <Gold.Protein.ActiveResidues>
 VAL166  LYS551  ARG553  GLY616  TRP617  ASP618  TYR619  PRO620  LYS621  CYS622 
 ASP623  PHE694  ASN695  SER759  ASP760  ASP761  ALA762  ILE779  LEU786  VAL792 
 PHE793  MET794  SER795  GLU796  ALA797  LYS798  CYS799  TRP800  GLU811  SER814 

> <Gold.Protein.RotatedAtoms>
  152.2551  133.5248  159.5347 H   0  0  0  0  0  0  0  0  0  0  0  0  # atno 6907 bound_to 6896
  150.7106  134.0907  159.3940 H   0  0  0  0  0  0  0  0  0  0  0  0  # atno 6908 bound_to 6896
  151.8826  135.0447  160.0541 H   0  0  0  0  0  0  0  0  0  0  0  0  # atno 6909 bound_to 6896
  146.1693  139.6972  142.8979 H   0  0  0  0  0  0  0  0  0  0  0  0  # atno 7974 bound_to 7965
  154.4267  140.1107  156.5794 H   0  0  0  0  0  0  0  0  0  0  0  0  # atno 8008 bound_to 7997
  155.6128  140.3494  155.4608 H   0  0  0  0  0  0  0  0  0  0  0  0  # atno 8009 bound_to 7997
  156.0086  140.1214  157.0466 H   0  0  0  0  0  0  0  0  0  0  0  0  # atno 8010 bound_to 7997
  140.0403  143.5160  152.2133 H   0  0  0  0  0  0  0  0  0  0  0  0  # atno 10167 bound_to 10162
  155.9996  130.4735  150.4581 H   0  0  0  0  0  0  0  0  0  0  0  0  # atno 10718 bound_to 10713
  153.5034  135.7017  153.5819 H   0  0  0  0  0  0  0  0  0  0  0  0  # atno 10763 bound_to 10752
  153.3941  135.3888  155.1943 H   0  0  0  0  0  0  0  0  0  0  0  0  # atno 10764 bound_to 10752
  154.8709  135.3865  154.4507 H   0  0  0  0  0  0  0  0  0  0  0  0  # atno 10765 bound_to 10752
  140.3702  134.2031  155.7667 H   0  0  0  0  0  0  0  0  0  0  0  0  # atno 11005 bound_to 11000
  145.4383  141.0420  143.2872 LP  0  0  0  0  0  0  0  0  0  0  0  0  # atno 17320 bound_to 7965
  144.8139  139.5912  143.7017 LP  0  0  0  0  0  0  0  0  0  0  0  0  # atno 17321 bound_to 7965
  139.6018  144.7585  151.3154 LP  0  0  0  0  0  0  0  0  0  0  0  0  # atno 17342 bound_to 10162
  140.7263  143.6994  150.7857 LP  0  0  0  0  0  0  0  0  0  0  0  0  # atno 17343 bound_to 10162
  157.2608  131.0566  151.2321 LP  0  0  0  0  0  0  0  0  0  0  0  0  # atno 17370 bound_to 10713
  157.3437  130.7046  149.6397 LP  0  0  0  0  0  0  0  0  0  0  0  0  # atno 17371 bound_to 10713
  141.1957  133.8100  157.0704 LP  0  0  0  0  0  0  0  0  0  0  0  0  # atno 17394 bound_to 11000
  140.0558  134.9781  157.1217 LP  0  0  0  0  0  0  0  0  0  0  0  0  # atno 17395 bound_to 11000

$$$$
