AV-unprocessed.smi:1762|AV-procd|sdf|7115|dock10
  -GOLD-   22720 8343D 1   1.00000     0.00000
 Structure written by MMmdl.
 53 54  0  0  0  0  0  0  0  0  2 V2000
  151.2228  134.7159  155.8856 C   0  0  0  0  0  0  0  0  0  0  0  0
  149.9711  135.3893  155.3121 C   0  0  2  0  0  0  0  0  0  0  0  0
  150.2196  136.8675  154.9547 C   0  0  0  0  0  0  0  0  0  0  0  0
  148.9718  137.5225  154.4714 N   0  3  2  0  0  0  0  0  0  0  0  0
  149.1251  138.9589  154.0531 C   0  0  2  0  0  0  0  0  0  0  0  0
  150.0608  139.7205  155.0166 C   0  0  0  0  0  0  0  0  0  0  0  0
  151.1831  140.0669  154.6459 O   0  0  0  0  0  0  0  0  0  0  0  0
  149.5857  139.9744  156.2449 N   0  0  0  0  0  0  0  0  0  0  0  0
  150.3240  140.6816  157.2819 C   0  0  0  0  0  0  0  0  0  0  0  0
  150.7736  142.0609  156.7806 C   0  0  0  0  0  0  0  0  0  0  0  0
  151.3787  142.9041  157.8871 C   0  0  0  0  0  0  0  0  0  0  0  0
  151.5781  144.2901  157.7105 C   0  0  0  0  0  0  0  0  0  0  0  0
  152.1372  145.0277  158.7722 C   0  0  0  0  0  0  0  0  0  0  0  0
  152.4723  144.3549  159.9629 C   0  0  0  0  0  0  0  0  0  0  0  0
  152.2327  142.9682  160.0398 C   0  0  0  0  0  0  0  0  0  0  0  0
  151.6976  142.2515  159.0278 N   0  0  0  0  0  0  0  0  0  0  0  0
  147.7712  139.7272  153.8763 C   0  0  0  0  0  0  0  0  0  0  0  0
  146.9091  139.1803  152.7213 C   0  0  0  0  0  0  0  0  0  0  0  0
  147.9283  141.2565  153.7409 C   0  0  0  0  0  0  0  0  0  0  0  0
  147.8982  137.3237  155.4878 C   0  0  0  0  0  0  0  0  0  0  0  0
  147.7096  135.8314  155.8138 C   0  0  2  0  0  0  0  0  0  0  0  0
  146.6496  135.6050  156.8975 C   0  0  0  0  0  0  0  0  0  0  0  0
  148.9417  135.3066  156.2877 O   0  0  0  0  0  0  0  0  0  0  0  0
  152.0459  134.7416  155.1712 H   0  0  0  0  0  0  0  0  0  0  0  0
  151.0268  133.6711  156.1283 H   0  0  0  0  0  0  0  0  0  0  0  0
  151.5553  135.2123  156.7978 H   0  0  0  0  0  0  0  0  0  0  0  0
  149.6643  134.8426  154.4183 H   0  0  0  0  0  0  0  0  0  0  0  0
  150.6025  137.4096  155.8209 H   0  0  0  0  0  0  0  0  0  0  0  0
  150.9961  136.8845  154.1927 H   0  0  0  0  0  0  0  0  0  0  0  0
  149.6068  138.9385  153.0734 H   0  0  0  0  0  0  0  0  0  0  0  0
  148.6557  139.6566  156.4775 H   0  0  0  0  0  0  0  0  0  0  0  0
  149.6893  140.7895  158.1628 H   0  0  0  0  0  0  0  0  0  0  0  0
  151.1931  140.0923  157.5798 H   0  0  0  0  0  0  0  0  0  0  0  0
  151.5088  141.9475  155.9824 H   0  0  0  0  0  0  0  0  0  0  0  0
  149.9273  142.5941  156.3453 H   0  0  0  0  0  0  0  0  0  0  0  0
  151.3094  144.7789  156.7855 H   0  0  0  0  0  0  0  0  0  0  0  0
  152.3049  146.0902  158.6751 H   0  0  0  0  0  0  0  0  0  0  0  0
  152.9022  144.8883  160.7977 H   0  0  0  0  0  0  0  0  0  0  0  0
  152.4766  142.4206  160.9382 H   0  0  0  0  0  0  0  0  0  0  0  0
  147.1645  139.5396  154.7609 H   0  0  0  0  0  0  0  0  0  0  0  0
  147.3467  139.3915  151.7452 H   0  0  0  0  0  0  0  0  0  0  0  0
  145.9161  139.6304  152.7318 H   0  0  0  0  0  0  0  0  0  0  0  0
  146.7778  138.1011  152.8039 H   0  0  0  0  0  0  0  0  0  0  0  0
  148.4196  141.5310  152.8075 H   0  0  0  0  0  0  0  0  0  0  0  0
  148.5105  141.6830  154.5571 H   0  0  0  0  0  0  0  0  0  0  0  0
  146.9546  141.7474  153.7483 H   0  0  0  0  0  0  0  0  0  0  0  0
  148.1529  137.8752  156.3944 H   0  0  0  0  0  0  0  0  0  0  0  0
  146.9436  137.7178  155.1398 H   0  0  0  0  0  0  0  0  0  0  0  0
  147.4058  135.2924  154.9144 H   0  0  0  0  0  0  0  0  0  0  0  0
  145.6767  135.9825  156.5816 H   0  0  0  0  0  0  0  0  0  0  0  0
  146.9194  136.1091  157.8261 H   0  0  0  0  0  0  0  0  0  0  0  0
  146.5376  134.5427  157.1163 H   0  0  0  0  0  0  0  0  0  0  0  0
  148.6863  137.0193  153.6430 H   0  0  0  0  0  0  0  0  0  0  0  0
  1  2  1  0  0  0  0
  1 24  1  0  0  0  0
  1 25  1  0  0  0  0
  1 26  1  0  0  0  0
  2 23  1  0  0  0  0
  2  3  1  0  0  0  0
  2 27  1  0  0  0  0
  3  4  1  0  0  0  0
  3 28  1  0  0  0  0
  3 29  1  0  0  0  0
  4  5  1  0  0  0  0
  4 20  1  0  0  0  0
  4 53  1  0  0  0  0
  5  6  1  0  0  0  0
  5 17  1  0  0  0  0
  5 30  1  0  0  0  0
  6  7  2  0  0  0  0
  6  8  1  0  0  0  0
  8  9  1  0  0  0  0
  8 31  1  0  0  0  0
  9 10  1  0  0  0  0
  9 32  1  0  0  0  0
  9 33  1  0  0  0  0
 10 11  1  0  0  0  0
 10 34  1  0  0  0  0
 10 35  1  0  0  0  0
 11 16  1  0  0  0  0
 11 12  2  0  0  0  0
 12 13  1  0  0  0  0
 12 36  1  0  0  0  0
 13 14  2  0  0  0  0
 13 37  1  0  0  0  0
 14 15  1  0  0  0  0
 14 38  1  0  0  0  0
 15 16  2  0  0  0  0
 15 39  1  0  0  0  0
 17 18  1  0  0  0  0
 17 19  1  0  0  0  0
 17 40  1  0  0  0  0
 18 41  1  0  0  0  0
 18 42  1  0  0  0  0
 18 43  1  0  0  0  0
 19 44  1  0  0  0  0
 19 45  1  0  0  0  0
 19 46  1  0  0  0  0
 20 21  1  0  0  0  0
 20 47  1  0  0  0  0
 20 48  1  0  0  0  0
 21 22  1  0  0  0  0
 21 23  1  0  0  0  0
 21 49  1  0  0  0  0
 22 50  1  0  0  0  0
 22 51  1  0  0  0  0
 22 52  1  0  0  0  0
M  CHG  1   4   1
M  END
> <s_m_source_file>
AV-unprocessed.smi

> <i_m_source_file_index>
1762

> <i_lp_mmshare_version>
43012

> <i_f3d_flags>
0

> <s_epik_input>
W0NIM11bQ0BASF0xW0NIMl1OKFtDSDJdW0NASF0oTzEpW0NIM10pW0NAQEhdKFtDSF0oW0NIM10pW0NIM10pQyg9TylbTkhdW0NIMl1bQ0gyXWMyW2NIXVtjSF1bY0hdW2NIXW4y

> <s_epik_cmdline>
J2VwaWtfcHl0aG9uJywgJy1waCcsICc3LjAnLCAnLXRuJywgJzgnLCAnLW1hJywgJzIwMCcsICctbWV0YWxfYmluZGluZycsICctaW1hZScsICc8aW5maWxlLm1hZT4nLCAnLW9tYWUnLCAnPG91dGZpbGUubWFlPic=

> <r_epik_Ionization_Penalty>
2.27005

> <r_epik_Ionization_Penalty_Charging>
2.24983

> <r_epik_Ionization_Penalty_Neutral>
0.0202209

> <r_epik_State_Penalty>
2.40228

> <r_epik_Charging_Adjusted_Penalty>
4.65211

> <i_epik_Tot_Q>
1

> <i_epik_Tot_abs_Q>
1

> <r_epik_Metal_State_Penalty>
2.40762

> <b_epik_Metal_Only>
0

> <s_lp_Force_Field>
OPLS_2005

> <r_lp_Energy>
21.2519

> <b_lp_Chiralities_Consistent>
1

> <s_lp_Variant>
AV-unprocessed.smi:1762-17

> <Gold.Version>
5.8.1

> <Gold.Id.Protein>
6NUR|6NUR_protein|mol2

> <Gold.PLP.Fitness>
49.6050

> <Gold.PLP.PLP>
-42.0362

> <Gold.PLP.part.hbond>
-2.0000

> <Gold.PLP.part.metal>
0.0000

> <Gold.PLP.part.buried>
-5.0133

> <Gold.PLP.part.nonpolar>
-35.7889

> <Gold.PLP.part.repulsive>
0.1229

> <Gold.PLP.ligand.clash>
0.0000

> <Gold.PLP.ligand.torsion>
0.8484

> <Gold.PLP.Chemscore.Hbond>
3.0000

> <Gold.PLP.Chemscore.CHOScore>
0.0000

> <Gold.PLP.Chemscore.Metal>
0.0000

> <Gold.Chemscore.Hbonds>
donor molecule, donor type, donor heavy atom, donor atom, acceptor molecule, acceptor atom, score
      L1  H     4    53       P1  7948  2.00
      P1  H  7989  7998       L1     7  0.84

> <Gold.PLP.Chemscore.Internal.Correction>
0.2656

> <Gold.Rescore>
     Score         DG    S(hbond)    S(metal)    S(lipo)     H(rot)  DE(clash)    DE(int)     intcor
     20.29     -21.18       1.92        0.00     115.77       1.66       0.06       0.82       ----

> <Gold.Chemscore.Fitness>
20.2946

> <Gold.Chemscore.DG>
-21.1818

> <Gold.Chemscore.ZeroCoef>
-5.4800

> <Gold.Chemscore.Hbond>
1.9206

> <Gold.Chemscore.Metal>
0.0000

> <Gold.Chemscore.Lipo>
115.7749

> <Gold.Chemscore.Internal_Hbond>
0.0000

> <Gold.Chemscore.DEClash>
0.0631

> <Gold.Chemscore.DEInternal>
0.8241

> <Gold.Chemscore.Rot>
1.6635

> <Gold.Chemscore.Internal.Correction>
   9.000000E+99

> <Gold.Chemscore.Hbonds>
donor molecule, donor type, donor heavy atom, donor atom, acceptor molecule, acceptor atom, score
      L1  H     4    53       P1  7948  0.96
      P1  H  7989  7998       L1     7  0.82

> <Gold.Chemscore.Hbond.Weighted>
-6.4148

> <Gold.Chemscore.Metal.Weighted>
-0.0000

> <Gold.Chemscore.Lipo.Weighted>
-13.5457

> <Gold.Chemscore.Internal_Hbond.Weighted>
0.0000

> <Gold.Chemscore.DEClash.Weighted>
0.0631

> <Gold.Chemscore.DEInternal.Weighted>
0.8241

> <Gold.Chemscore.Rot.Weighted>
4.2586

> <Gold.Chemscore.Internal.Correction.Weighted>
   9.000000E+99

> <Gold.Protein.RotatedTorsions>
[ 6907 6896 6895 6894 ] final  129.06 input  -60.11 | X-H torsion
[ 7974 7965 7964 7962 ] final   71.23 input  175.53 | X-H torsion
[ 8008 7997 7996 7995 ] final   64.19 input   59.86 | X-H torsion
[ 10167 10162 10161 10158 ] final  132.44 input  -65.29 | X-H torsion
[ 10718 10713 10712 10709 ] final   87.61 input   66.30 | X-H torsion
[ 10763 10752 10751 10750 ] final   44.56 input  -60.55 | X-H torsion
[ 11005 11000 10999 10996 ] final  -50.41 input  -57.11 | X-H torsion

> <Gold.Protein.ActiveResidues>
 VAL166  LYS551  ARG553  GLY616  TRP617  ASP618  TYR619  PRO620  LYS621  CYS622 
 ASP623  PHE694  ASN695  SER759  ASP760  ASP761  ALA762  ILE779  LEU786  VAL792 
 PHE793  MET794  SER795  GLU796  ALA797  LYS798  CYS799  TRP800  GLU811  SER814 

> <Gold.Protein.RotatedAtoms>
  152.3660  133.6358  159.6050 H   0  0  0  0  0  0  0  0  0  0  0  0  # atno 6907 bound_to 6896
  150.7634  133.9347  159.3446 H   0  0  0  0  0  0  0  0  0  0  0  0  # atno 6908 bound_to 6896
  151.7177  135.0901  160.0330 H   0  0  0  0  0  0  0  0  0  0  0  0  # atno 6909 bound_to 6896
  145.7683  139.2832  143.1336 H   0  0  0  0  0  0  0  0  0  0  0  0  # atno 7974 bound_to 7965
  155.6422  140.3497  155.4719 H   0  0  0  0  0  0  0  0  0  0  0  0  # atno 8008 bound_to 7997
  155.9917  140.1195  157.0655 H   0  0  0  0  0  0  0  0  0  0  0  0  # atno 8009 bound_to 7997
  154.4221  140.1118  156.5560 H   0  0  0  0  0  0  0  0  0  0  0  0  # atno 8010 bound_to 7997
  139.5339  144.6662  151.4852 H   0  0  0  0  0  0  0  0  0  0  0  0  # atno 10167 bound_to 10162
  157.6942  131.0262  150.3149 H   0  0  0  0  0  0  0  0  0  0  0  0  # atno 10718 bound_to 10713
  152.9839  135.6067  154.3293 H   0  0  0  0  0  0  0  0  0  0  0  0  # atno 10763 bound_to 10752
  154.2998  135.2773  155.2618 H   0  0  0  0  0  0  0  0  0  0  0  0  # atno 10764 bound_to 10752
  154.4876  135.5901  153.6491 H   0  0  0  0  0  0  0  0  0  0  0  0  # atno 10765 bound_to 10752
  141.0814  133.6652  156.3726 H   0  0  0  0  0  0  0  0  0  0  0  0  # atno 11005 bound_to 11000
  146.0195  140.8361  142.9930 LP  0  0  0  0  0  0  0  0  0  0  0  0  # atno 17320 bound_to 7965
  144.6817  140.2608  143.7319 LP  0  0  0  0  0  0  0  0  0  0  0  0  # atno 17321 bound_to 7965
  140.6535  143.8648  150.6810 LP  0  0  0  0  0  0  0  0  0  0  0  0  # atno 17342 bound_to 10162
  140.2020  143.3952  152.1784 LP  0  0  0  0  0  0  0  0  0  0  0  0  # atno 17343 bound_to 10162
  156.3645  130.3852  149.7225 LP  0  0  0  0  0  0  0  0  0  0  0  0  # atno 17370 bound_to 10713
  156.4660  130.7974  151.2993 LP  0  0  0  0  0  0  0  0  0  0  0  0  # atno 17371 bound_to 10713
  140.5460  134.6074  157.5394 LP  0  0  0  0  0  0  0  0  0  0  0  0  # atno 17394 bound_to 11000
  139.9628  134.7423  156.0200 LP  0  0  0  0  0  0  0  0  0  0  0  0  # atno 17395 bound_to 11000

$$$$
