AV-unprocessed.smi:1976|AV-procd|sdf|7990|dock10
  -GOLD-   2272010173D 1   1.00000     0.00000
 Structure written by MMmdl.
 45 47  0  0  0  0  0  0  0  0  2 V2000
  149.3462  135.0274  158.0976 O   0  0  0  0  0  0  0  0  0  0  0  0
  148.7927  136.1173  158.2470 C   0  0  0  0  0  0  0  0  0  0  0  0
  148.6100  136.7213  159.6465 C   0  0  0  0  0  0  0  0  0  0  0  0
  147.8588  135.8441  160.5598 N   0  0  0  0  0  0  0  0  0  0  0  0
  147.3903  134.6224  160.0380 C   0  0  0  0  0  0  0  0  0  0  0  0
  146.6819  133.7381  160.7662 C   0  0  0  0  0  0  0  0  0  0  0  0
  146.2438  132.3992  160.1932 C   0  0  0  0  0  0  0  0  0  0  0  0
  145.4397  132.5665  159.1432 F   0  0  0  0  0  0  0  0  0  0  0  0
  147.3097  131.7073  159.7935 F   0  0  0  0  0  0  0  0  0  0  0  0
  145.5962  131.6735  161.1053 F   0  0  0  0  0  0  0  0  0  0  0  0
  146.4415  134.0894  162.1520 C   0  0  0  0  0  0  0  0  0  0  0  0
  146.8945  135.2476  162.6707 C   0  0  0  0  0  0  0  0  0  0  0  0
  147.6500  136.2061  161.8611 C   0  0  0  0  0  0  0  0  0  0  0  0
  148.0707  137.2674  162.3230 O   0  0  0  0  0  0  0  0  0  0  0  0
  148.3003  136.8335  157.2259 N   0  0  0  0  0  0  0  0  0  0  0  0
  148.3747  136.4376  155.8240 C   0  0  1  0  0  0  0  0  0  0  0  0
  147.4473  135.2641  155.4540 C   0  0  0  0  0  0  0  0  0  0  0  0
  146.9138  135.5943  154.0457 C   0  0  0  0  0  0  0  0  0  0  0  0
  147.6073  136.8338  153.6461 N   0  3  1  0  0  0  0  0  0  0  0  0
  146.9426  137.6848  152.6353 C   0  0  0  0  0  0  0  0  0  0  0  0
  147.8566  138.8800  152.2970 C   0  0  0  0  0  0  0  0  0  0  0  0
  148.2901  139.6477  153.5633 C   0  0  0  0  0  0  0  0  0  0  0  0
  148.8893  138.6939  154.6152 C   0  0  0  0  0  0  0  0  0  0  0  0
  147.8981  137.5528  154.8954 C   0  0  2  0  0  0  0  0  0  0  0  0
  149.5861  136.9575  160.0749 H   0  0  0  0  0  0  0  0  0  0  0  0
  148.1068  137.6829  159.5372 H   0  0  0  0  0  0  0  0  0  0  0  0
  147.6544  134.4437  159.0058 H   0  0  0  0  0  0  0  0  0  0  0  0
  145.8856  133.4140  162.7855 H   0  0  0  0  0  0  0  0  0  0  0  0
  146.6954  135.4769  163.7073 H   0  0  0  0  0  0  0  0  0  0  0  0
  147.8565  137.7162  157.4341 H   0  0  0  0  0  0  0  0  0  0  0  0
  149.4036  136.1781  155.5651 H   0  0  0  0  0  0  0  0  0  0  0  0
  147.9874  134.3169  155.4727 H   0  0  0  0  0  0  0  0  0  0  0  0
  146.6139  135.1796  156.1532 H   0  0  0  0  0  0  0  0  0  0  0  0
  147.1073  134.7956  153.3291 H   0  0  0  0  0  0  0  0  0  0  0  0
  145.8362  135.7620  154.0846 H   0  0  0  0  0  0  0  0  0  0  0  0
  146.7410  137.0988  151.7379 H   0  0  0  0  0  0  0  0  0  0  0  0
  145.9815  138.0336  153.0166 H   0  0  0  0  0  0  0  0  0  0  0  0
  148.7442  138.5180  151.7761 H   0  0  0  0  0  0  0  0  0  0  0  0
  147.3490  139.5541  151.6062 H   0  0  0  0  0  0  0  0  0  0  0  0
  149.0124  140.4226  153.3043 H   0  0  0  0  0  0  0  0  0  0  0  0
  147.4265  140.1601  153.9893 H   0  0  0  0  0  0  0  0  0  0  0  0
  149.8363  138.2906  154.2537 H   0  0  0  0  0  0  0  0  0  0  0  0
  149.1103  139.2385  155.5337 H   0  0  0  0  0  0  0  0  0  0  0  0
  146.9644  137.9684  155.2825 H   0  0  0  0  0  0  0  0  0  0  0  0
  148.4993  136.5528  153.2646 H   0  0  0  0  0  0  0  0  0  0  0  0
  1  2  2  0  0  0  0
  2  3  1  0  0  0  0
  2 15  1  0  0  0  0
  3  4  1  0  0  0  0
  3 25  1  0  0  0  0
  3 26  1  0  0  0  0
  4 13  1  0  0  0  0
  4  5  1  0  0  0  0
  5  6  2  0  0  0  0
  5 27  1  0  0  0  0
  6  7  1  0  0  0  0
  6 11  1  0  0  0  0
  7  8  1  0  0  0  0
  7  9  1  0  0  0  0
  7 10  1  0  0  0  0
 11 12  2  0  0  0  0
 11 28  1  0  0  0  0
 12 13  1  0  0  0  0
 12 29  1  0  0  0  0
 13 14  2  0  0  0  0
 15 16  1  0  0  0  0
 15 30  1  0  0  0  0
 16 24  1  0  0  0  0
 16 17  1  0  0  0  0
 16 31  1  0  0  0  0
 17 18  1  0  0  0  0
 17 32  1  0  0  0  0
 17 33  1  0  0  0  0
 18 19  1  0  0  0  0
 18 34  1  0  0  0  0
 18 35  1  0  0  0  0
 19 24  1  0  0  0  0
 19 20  1  0  0  0  0
 19 45  1  0  0  0  0
 20 21  1  0  0  0  0
 20 36  1  0  0  0  0
 20 37  1  0  0  0  0
 21 22  1  0  0  0  0
 21 38  1  0  0  0  0
 21 39  1  0  0  0  0
 22 23  1  0  0  0  0
 22 40  1  0  0  0  0
 22 41  1  0  0  0  0
 23 24  1  0  0  0  0
 23 42  1  0  0  0  0
 23 43  1  0  0  0  0
 24 44  1  0  0  0  0
M  CHG  1  19   1
M  END
> <s_m_source_file>
AV-unprocessed.smi

> <i_m_source_file_index>
1976

> <i_lp_mmshare_version>
43012

> <i_f3d_flags>
0

> <s_epik_input>
W0NIMl0xW0NIMl1bQ0gyXVtDSDJdW0NASF0oTjEyKVtDQEBIXShbQ0gyXVtDSDJdMilbTkhdQyg9TylbQ0gyXW4zW2NIXWMoQyhGKShGKUYpW2NIXVtjSF1jMz1P

> <s_epik_cmdline>
J2VwaWtfcHl0aG9uJywgJy1waCcsICc3LjAnLCAnLXRuJywgJzgnLCAnLW1hJywgJzIwMCcsICctbWV0YWxfYmluZGluZycsICctaW1hZScsICc8aW5maWxlLm1hZT4nLCAnLW9tYWUnLCAnPG91dGZpbGUubWFlPic=

> <r_lp_tautomer_probability>
1

> <r_epik_Ionization_Penalty>
0.00171506

> <r_epik_Ionization_Penalty_Charging>
0.00171498

> <r_epik_Ionization_Penalty_Neutral>
7.81737e-08

> <r_epik_State_Penalty>
0.00115937

> <r_epik_Charging_Adjusted_Penalty>
0.00287436

> <i_epik_Tot_Q>
1

> <i_epik_Tot_abs_Q>
1

> <r_epik_Metal_State_Penalty>
-0

> <b_epik_Metal_Only>
0

> <s_lp_Force_Field>
OPLS_2005

> <r_lp_Energy>
46.2407

> <b_lp_Chiralities_Consistent>
1

> <s_lp_Variant>
AV-unprocessed.smi:1976-8

> <Gold.Version>
5.8.1

> <Gold.Id.Protein>
6NUR|6NUR_protein|mol2

> <Gold.PLP.Fitness>
45.3584

> <Gold.PLP.PLP>
-34.5854

> <Gold.PLP.part.hbond>
-3.6472

> <Gold.PLP.part.metal>
0.0000

> <Gold.PLP.part.buried>
-2.8112

> <Gold.PLP.part.nonpolar>
-28.8587

> <Gold.PLP.part.repulsive>
0.0000

> <Gold.PLP.ligand.clash>
1.0140

> <Gold.PLP.ligand.torsion>
0.1173

> <Gold.PLP.Chemscore.Hbond>
3.9927

> <Gold.PLP.Chemscore.CHOScore>
0.0000

> <Gold.PLP.Chemscore.Metal>
0.0000

> <Gold.Chemscore.Hbonds>
donor molecule, donor type, donor heavy atom, donor atom, acceptor molecule, acceptor atom, score
      L1  H    19    45       P1  7948  1.27
      P1  H  6896  6908       L1     1  1.00
      P1  H  6931  6943       L1    14  0.73
      P1  H  6934  6947       L1    14  0.04

> <Gold.PLP.Chemscore.Internal.Correction>
0.0436

> <Gold.Rescore>
     Score         DG    S(hbond)    S(metal)    S(lipo)     H(rot)  DE(clash)    DE(int)     intcor
     16.78     -18.29       2.86        0.00      62.46       1.58       0.01       1.50       ----

> <Gold.Chemscore.Fitness>
16.7819

> <Gold.Chemscore.DG>
-18.2948

> <Gold.Chemscore.ZeroCoef>
-5.4800

> <Gold.Chemscore.Hbond>
2.8620

> <Gold.Chemscore.Metal>
0.0000

> <Gold.Chemscore.Lipo>
62.4628

> <Gold.Chemscore.Internal_Hbond>
0.0000

> <Gold.Chemscore.DEClash>
0.0137

> <Gold.Chemscore.DEInternal>
1.4991

> <Gold.Chemscore.Rot>
1.5830

> <Gold.Chemscore.Internal.Correction>
   9.000000E+99

> <Gold.Chemscore.Hbonds>
donor molecule, donor type, donor heavy atom, donor atom, acceptor molecule, acceptor atom, score
      L1  H    19    45       P1  7948  0.59
      P1  H  6896  6908       L1     1  0.91
      P1  H  6931  6943       L1    14  0.69
      P1  H  6934  6947       L1    14  0.03

> <Gold.Chemscore.Hbond.Weighted>
-9.5590

> <Gold.Chemscore.Metal.Weighted>
-0.0000

> <Gold.Chemscore.Lipo.Weighted>
-7.3081

> <Gold.Chemscore.Internal_Hbond.Weighted>
0.0000

> <Gold.Chemscore.DEClash.Weighted>
0.0137

> <Gold.Chemscore.DEInternal.Weighted>
1.4991

> <Gold.Chemscore.Rot.Weighted>
4.0524

> <Gold.Chemscore.Internal.Correction.Weighted>
   9.000000E+99

> <Gold.Protein.RotatedTorsions>
[ 6907 6896 6895 6894 ] final  164.57 input  -60.11 | X-H torsion
[ 7974 7965 7964 7962 ] final  -93.30 input  175.53 | X-H torsion
[ 8008 7997 7996 7995 ] final  -49.91 input   59.86 | X-H torsion
[ 10167 10162 10161 10158 ] final -170.67 input  -65.29 | X-H torsion
[ 10718 10713 10712 10709 ] final   50.36 input   66.30 | X-H torsion
[ 10763 10752 10751 10750 ] final  -54.99 input  -60.55 | X-H torsion
[ 11005 11000 10999 10996 ] final  -36.77 input  -57.11 | X-H torsion

> <Gold.Protein.ActiveResidues>
 VAL166  LYS551  ARG553  GLY616  TRP617  ASP618  TYR619  PRO620  LYS621  CYS622 
 ASP623  PHE694  ASN695  SER759  ASP760  ASP761  ALA762  ILE779  LEU786  VAL792 
 PHE793  MET794  SER795  GLU796  ALA797  LYS798  CYS799  TRP800  GLU811  SER814 

> <Gold.Protein.RotatedAtoms>
  151.9078  133.3553  159.3852 H   0  0  0  0  0  0  0  0  0  0  0  0  # atno 6907 bound_to 6896
  150.7065  134.4763  159.5458 H   0  0  0  0  0  0  0  0  0  0  0  0  # atno 6908 bound_to 6896
  152.2363  134.8272  160.0517 H   0  0  0  0  0  0  0  0  0  0  0  0  # atno 6909 bound_to 6896
  145.3884  140.9525  143.2354 H   0  0  0  0  0  0  0  0  0  0  0  0  # atno 7974 bound_to 7965
  154.4052  140.1285  156.4580 H   0  0  0  0  0  0  0  0  0  0  0  0  # atno 8008 bound_to 7997
  155.7301  140.3491  155.5036 H   0  0  0  0  0  0  0  0  0  0  0  0  # atno 8009 bound_to 7997
  155.9135  140.1040  157.1252 H   0  0  0  0  0  0  0  0  0  0  0  0  # atno 8010 bound_to 7997
  139.5848  144.1343  152.1561 H   0  0  0  0  0  0  0  0  0  0  0  0  # atno 10167 bound_to 10162
  157.4877  130.8356  149.8166 H   0  0  0  0  0  0  0  0  0  0  0  0  # atno 10718 bound_to 10713
  154.1837  135.6439  153.5041 H   0  0  0  0  0  0  0  0  0  0  0  0  # atno 10763 bound_to 10752
  153.0053  135.5412  154.6488 H   0  0  0  0  0  0  0  0  0  0  0  0  # atno 10764 bound_to 10752
  154.5859  135.2929  155.0658 H   0  0  0  0  0  0  0  0  0  0  0  0  # atno 10765 bound_to 10752
  140.9900  133.7010  156.1833 H   0  0  0  0  0  0  0  0  0  0  0  0  # atno 11005 bound_to 11000
  144.8458  139.5400  143.6879 LP  0  0  0  0  0  0  0  0  0  0  0  0  # atno 17320 bound_to 7965
  146.2809  139.6875  142.9229 LP  0  0  0  0  0  0  0  0  0  0  0  0  # atno 17321 bound_to 7965
  140.0904  144.5625  150.7059 LP  0  0  0  0  0  0  0  0  0  0  0  0  # atno 17342 bound_to 10162
  140.7121  143.2514  151.4548 LP  0  0  0  0  0  0  0  0  0  0  0  0  # atno 17343 bound_to 10162
  156.0156  130.3815  150.2122 LP  0  0  0  0  0  0  0  0  0  0  0  0  # atno 17370 bound_to 10713
  157.0310  131.0007  151.3312 LP  0  0  0  0  0  0  0  0  0  0  0  0  # atno 17371 bound_to 10713
  140.7054  134.4518  157.5584 LP  0  0  0  0  0  0  0  0  0  0  0  0  # atno 17394 bound_to 11000
  139.8988  134.8606  156.1987 LP  0  0  0  0  0  0  0  0  0  0  0  0  # atno 17395 bound_to 11000

$$$$
