#       Name:                AV-unprocessed.smi:1865
#       Creating user name   scv26
#       Creation time:       Fri Mar 27 09:27:20 2020


#       File generated by GOLD software.
#

@<TRIPOS>MOLECULE
AV-unprocessed.smi:1865
    43    44     1
SMALL
NO_CHARGES


@<TRIPOS>ATOM
      1 ****        -0.5648   1.2878  -0.2994 O.2            1 S1                 0.0000
      2 ****        -0.0092   0.2586  -0.6844 C.2            1 S1                 0.0000
      3 ****         1.5190   0.1566  -0.6980 C.3            1 S1                 0.0000
      4 ****         2.1815   0.8696   0.4963 C.3            1 S1                 0.0000
      5 ****         3.7136   0.7220   0.5118 C.3            1 S1                 0.0000
      6 ****         4.3723   1.3296   1.7519 C.3            1 S1                 0.0000
      7 ****         5.8451   1.4919   1.3675 C.3            1 S1                 0.0000
      8 ****         5.8688   1.6589  -0.1590 C.3            1 S1                 0.0000
      9 ****         4.4306   1.4310  -0.6430 C.3            1 S1                 0.0000
     10 ****        -0.6813  -0.8185  -1.1193 N.am           1 S1                 0.0000
     11 ****        -2.1330  -0.9153  -1.2175 C.3            1 S1                 0.0000
     12 ****        -2.7834  -1.1744   0.1517 C.3            1 S1                 0.0000
     13 ****        -4.2928  -1.2793   0.0535 C.ar           1 S1                 0.0000
     14 ****        -4.9189  -2.5345  -0.1118 C.ar           1 S1                 0.0000
     15 ****        -6.3249  -2.5985  -0.2060 C.ar           1 S1                 0.0000
     16 ****        -7.0730  -1.4054  -0.1331 C.ar           1 S1                 0.0000
     17 ****        -6.4389  -0.2227   0.0247 N.pl3          1 S1                 1.0000
     18 ****        -5.0950  -0.1192   0.1191 C.ar           1 S1                 0.0000
     19 ****         1.8117  -0.8946  -0.7027 H              1 S1                 0.0000
     20 ****         1.8753   0.5844  -1.6354 H              1 S1                 0.0000
     21 ****         1.9193   1.9288   0.4938 H              1 S1                 0.0000
     22 ****         1.7794   0.4588   1.4237 H              1 S1                 0.0000
     23 ****         3.9714  -0.3380   0.4807 H              1 S1                 0.0000
     24 ****         3.9407   2.3095   1.9612 H              1 S1                 0.0000
     25 ****         4.2402   0.7132   2.6416 H              1 S1                 0.0000
     26 ****         6.3084   2.3338   1.8826 H              1 S1                 0.0000
     27 ****         6.3992   0.5943   1.6446 H              1 S1                 0.0000
     28 ****         6.2223   2.6493  -0.4480 H              1 S1                 0.0000
     29 ****         6.5457   0.9292  -0.6049 H              1 S1                 0.0000
     30 ****         4.3938   0.8584  -1.5703 H              1 S1                 0.0000
     31 ****         3.9593   2.3959  -0.8353 H              1 S1                 0.0000
     32 ****        -0.1473  -1.6214  -1.4195 H              1 S1                 0.0000
     33 ****        -2.5336  -0.0047  -1.6665 H              1 S1                 0.0000
     34 ****        -2.3718  -1.7297  -1.9022 H              1 S1                 0.0000
     35 ****        -2.3872  -2.0929   0.5874 H              1 S1                 0.0000
     36 ****        -2.5349  -0.3728   0.8486 H              1 S1                 0.0000
     37 ****        -4.3305  -3.4388  -0.1685 H              1 S1                 0.0000
     38 ****        -6.8219  -3.5491  -0.3334 H              1 S1                 0.0000
     39 ****        -8.1505  -1.3617  -0.1967 H              1 S1                 0.0000
     40 ****        -4.7051   0.8811   0.2407 H              1 S1                 0.0000
     41 ****        -6.9990   0.6289   0.0739 H              1 S1                 0.0000
     42 ****        -0.0177   2.0664   0.0080 LP             1 S1                 0.0000
     43 ****        -1.5632   1.3451  -0.2941 LP             1 S1                 0.0000
@<TRIPOS>BOND
    1    1    2 2     
    2    2    3 1     
    3    2   10 am    
    4    3    4 1     
    5    3   19 1     
    6    3   20 1     
    7    4    5 1     
    8    4   21 1     
    9    4   22 1     
   10    5    9 1     
   11    5    6 1     
   12    5   23 1     
   13    6    7 1     
   14    6   24 1     
   15    6   25 1     
   16    7    8 1     
   17    7   26 1     
   18    7   27 1     
   19    8    9 1     
   20    8   28 1     
   21    8   29 1     
   22    9   30 1     
   23    9   31 1     
   24   10   11 1     
   25   10   32 1     
   26   11   12 1     
   27   11   33 1     
   28   11   34 1     
   29   12   13 1     
   30   12   35 1     
   31   12   36 1     
   32   13   18 ar    
   33   13   14 ar    
   34   14   15 ar    
   35   14   37 1     
   36   15   16 ar    
   37   15   38 1     
   38   16   17 ar    
   39   16   39 1     
   40   17   18 ar    
   41   17   41 1     
   42   18   40 1     
   43    1   42 1     
   44    1   43 1     
@<TRIPOS>SUBSTRUCTURE
      1 S1             1
@<TRIPOS>SET
LONE_PAIRS      STATIC     ATOMS    <user>   **** ""
2 42 43
DONOR_HYDROGENS      STATIC     ATOMS    <user>   **** ""
2 32 41
ATOM$BLUE        STATIC     ATOMS    COLORGROUP SYSTEM
2 42 43
ATOM$RED        STATIC     ATOMS    COLORGROUP SYSTEM
2 32 41
