AV-unprocessed.smi:2446|AV-procd|sdf|9646|dock7
  -GOLD-   2272013283D 1   1.00000     0.00000
 Structure written by MMmdl.
 40 41  0  0  0  0  0  0  0  0  2 V2000
  150.2562  138.9539  154.6187 C   0  0  0  0  0  0  0  0  0  0  0  0
  149.2284  140.0416  154.3561 C   0  0  0  0  0  0  0  0  0  0  0  0
  149.5159  141.3736  154.7260 C   0  0  0  0  0  0  0  0  0  0  0  0
  148.6115  142.3498  154.5018 N   0  3  0  0  0  0  0  0  0  0  0  0
  147.4109  142.1153  153.9330 C   0  0  0  0  0  0  0  0  0  0  0  0
  147.0618  140.8076  153.5413 C   0  0  0  0  0  0  0  0  0  0  0  0
  147.9844  139.7484  153.7401 C   0  0  0  0  0  0  0  0  0  0  0  0
  147.7082  138.3970  153.3890 N   0  0  0  0  0  0  0  0  0  0  0  0
  146.5477  137.7161  153.4625 C   0  0  0  0  0  0  0  0  0  0  0  0
  145.4932  138.1735  153.8971 O   0  0  0  0  0  0  0  0  0  0  0  0
  146.6190  136.4558  152.9955 N   0  0  0  0  0  0  0  0  0  0  0  0
  145.5573  135.4486  152.9262 C   0  0  1  0  0  0  0  0  0  0  0  0
  144.2652  136.1001  152.4019 C   0  0  0  0  0  0  0  0  0  0  0  0
  143.1384  135.0660  152.2557 C   0  0  0  0  0  0  0  0  0  0  0  0
  143.5672  133.8949  151.3576 C   0  0  0  0  0  0  0  0  0  0  0  0
  144.8559  133.2235  151.8772 C   0  0  1  0  0  0  0  0  0  0  0  0
  145.2872  132.0330  150.9963 C   0  0  0  0  0  0  0  0  0  0  0  0
  145.8149  132.4584  149.8480 F   0  0  0  0  0  0  0  0  0  0  0  0
  146.1923  131.2957  151.6400 F   0  0  0  0  0  0  0  0  0  0  0  0
  144.2357  131.2591  150.7275 F   0  0  0  0  0  0  0  0  0  0  0  0
  145.9784  134.2732  152.0185 C   0  0  0  0  0  0  0  0  0  0  0  0
  151.1376  139.3548  155.1200 H   0  0  0  0  0  0  0  0  0  0  0  0
  150.5793  138.5005  153.6812 H   0  0  0  0  0  0  0  0  0  0  0  0
  149.8347  138.1732  155.2528 H   0  0  0  0  0  0  0  0  0  0  0  0
  150.4379  141.6871  155.1940 H   0  0  0  0  0  0  0  0  0  0  0  0
  146.7662  142.9740  153.8140 H   0  0  0  0  0  0  0  0  0  0  0  0
  146.0873  140.6438  153.1081 H   0  0  0  0  0  0  0  0  0  0  0  0
  148.4708  137.9053  152.9466 H   0  0  0  0  0  0  0  0  0  0  0  0
  147.5230  136.1569  152.6581 H   0  0  0  0  0  0  0  0  0  0  0  0
  145.3494  135.0694  153.9286 H   0  0  0  0  0  0  0  0  0  0  0  0
  143.9467  136.8958  153.0764 H   0  0  0  0  0  0  0  0  0  0  0  0
  144.4513  136.5701  151.4350 H   0  0  0  0  0  0  0  0  0  0  0  0
  142.8584  134.6887  153.2399 H   0  0  0  0  0  0  0  0  0  0  0  0
  142.2488  135.5431  151.8435 H   0  0  0  0  0  0  0  0  0  0  0  0
  142.7584  133.1658  151.3052 H   0  0  0  0  0  0  0  0  0  0  0  0
  143.7217  134.2563  150.3401 H   0  0  0  0  0  0  0  0  0  0  0  0
  144.6450  132.8293  152.8728 H   0  0  0  0  0  0  0  0  0  0  0  0
  146.2506  134.6520  151.0322 H   0  0  0  0  0  0  0  0  0  0  0  0
  146.8738  133.7976  152.4184 H   0  0  0  0  0  0  0  0  0  0  0  0
  148.8429  143.3041  154.7789 H   0  0  0  0  0  0  0  0  0  0  0  0
  1  2  1  0  0  0  0
  1 22  1  0  0  0  0
  1 23  1  0  0  0  0
  1 24  1  0  0  0  0
  2  7  1  0  0  0  0
  2  3  2  0  0  0  0
  3  4  1  0  0  0  0
  3 25  1  0  0  0  0
  4  5  2  0  0  0  0
  4 40  1  0  0  0  0
  5  6  1  0  0  0  0
  5 26  1  0  0  0  0
  6  7  2  0  0  0  0
  6 27  1  0  0  0  0
  7  8  1  0  0  0  0
  8  9  1  0  0  0  0
  8 28  1  0  0  0  0
  9 10  2  0  0  0  0
  9 11  1  0  0  0  0
 11 12  1  0  0  0  0
 11 29  1  0  0  0  0
 12 21  1  0  0  0  0
 12 13  1  0  0  0  0
 12 30  1  0  0  0  0
 13 14  1  0  0  0  0
 13 31  1  0  0  0  0
 13 32  1  0  0  0  0
 14 15  1  0  0  0  0
 14 33  1  0  0  0  0
 14 34  1  0  0  0  0
 15 16  1  0  0  0  0
 15 35  1  0  0  0  0
 15 36  1  0  0  0  0
 16 17  1  0  0  0  0
 16 21  1  0  0  0  0
 16 37  1  0  0  0  0
 17 18  1  0  0  0  0
 17 19  1  0  0  0  0
 17 20  1  0  0  0  0
 21 38  1  0  0  0  0
 21 39  1  0  0  0  0
M  CHG  1   4   1
M  END
> <s_m_source_file>
AV-unprocessed.smi

> <i_m_source_file_index>
2446

> <i_lp_mmshare_version>
43012

> <i_f3d_flags>
0

> <s_epik_input>
W0NIM11jMVtjSF1uW2NIXVtjSF1jMVtOSF1DKD1PKVtOSF1bQ0BASF0yW0NIMl1bQ0gyXVtDSDJdW0NAQEhdKEMoRikoRilGKVtDSDJdMg==

> <s_epik_cmdline>
J2VwaWtfcHl0aG9uJywgJy1waCcsICc3LjAnLCAnLXRuJywgJzgnLCAnLW1hJywgJzIwMCcsICctbWV0YWxfYmluZGluZycsICctaW1hZScsICc8aW5maWxlLm1hZT4nLCAnLW9tYWUnLCAnPG91dGZpbGUubWFlPic=

> <r_epik_Ionization_Penalty>
0.736582

> <r_epik_Ionization_Penalty_Charging>
0.736562

> <r_epik_Ionization_Penalty_Neutral>
1.98379e-05

> <r_epik_State_Penalty>
0.762314

> <r_epik_Charging_Adjusted_Penalty>
1.49888

> <i_epik_Tot_Q>
1

> <i_epik_Tot_abs_Q>
1

> <r_epik_Metal_State_Penalty>
0.914579

> <b_epik_Metal_Only>
0

> <s_lp_Force_Field>
OPLS_2005

> <r_lp_Energy>
31.4788

> <b_lp_Chiralities_Consistent>
1

> <s_lp_Variant>
AV-unprocessed.smi:2446-6

> <Gold.Version>
5.8.1

> <Gold.Id.Protein>
6NUR|6NUR_protein|mol2

> <Gold.PLP.Fitness>
48.7092

> <Gold.PLP.PLP>
-38.3974

> <Gold.PLP.part.hbond>
-3.0000

> <Gold.PLP.part.metal>
0.0000

> <Gold.PLP.part.buried>
-2.8686

> <Gold.PLP.part.nonpolar>
-32.7814

> <Gold.PLP.part.repulsive>
1.2851

> <Gold.PLP.ligand.clash>
0.0000

> <Gold.PLP.ligand.torsion>
0.6858

> <Gold.PLP.Chemscore.Hbond>
3.8882

> <Gold.PLP.Chemscore.CHOScore>
0.0000

> <Gold.PLP.Chemscore.Metal>
0.0000

> <Gold.Chemscore.Hbonds>
donor molecule, donor type, donor heavy atom, donor atom, acceptor molecule, acceptor atom, score
      L1  H     4    40       P1  8028  2.00
      L1  H     8    28       P1  7948  0.89
      L1  H    11    29       P1  7948  1.00

> <Gold.PLP.Chemscore.Internal.Correction>
0.0190

> <Gold.Rescore>
     Score         DG    S(hbond)    S(metal)    S(lipo)     H(rot)  DE(clash)    DE(int)     intcor
     19.77     -21.54       2.93        0.00      75.39       1.00       0.04       1.73       ----

> <Gold.Chemscore.Fitness>
19.7689

> <Gold.Chemscore.DG>
-21.5375

> <Gold.Chemscore.ZeroCoef>
-5.4800

> <Gold.Chemscore.Hbond>
2.9333

> <Gold.Chemscore.Metal>
0.0000

> <Gold.Chemscore.Lipo>
75.3863

> <Gold.Chemscore.Internal_Hbond>
0.0000

> <Gold.Chemscore.DEClash>
0.0425

> <Gold.Chemscore.DEInternal>
1.7260

> <Gold.Chemscore.Rot>
1.0000

> <Gold.Chemscore.Internal.Correction>
   9.000000E+99

> <Gold.Chemscore.Hbonds>
donor molecule, donor type, donor heavy atom, donor atom, acceptor molecule, acceptor atom, score
      L1  H     4    40       P1  8028  0.99
      L1  H     8    28       P1  7948  0.81
      L1  H    11    29       P1  7948  0.99

> <Gold.Chemscore.Hbond.Weighted>
-9.7973

> <Gold.Chemscore.Metal.Weighted>
-0.0000

> <Gold.Chemscore.Lipo.Weighted>
-8.8202

> <Gold.Chemscore.Internal_Hbond.Weighted>
0.0000

> <Gold.Chemscore.DEClash.Weighted>
0.0425

> <Gold.Chemscore.DEInternal.Weighted>
1.7260

> <Gold.Chemscore.Rot.Weighted>
2.5600

> <Gold.Chemscore.Internal.Correction.Weighted>
   9.000000E+99

> <Gold.Protein.RotatedTorsions>
[ 6907 6896 6895 6894 ] final -167.05 input  -60.11 | X-H torsion
[ 7974 7965 7964 7962 ] final   30.61 input  175.53 | X-H torsion
[ 8008 7997 7996 7995 ] final  157.69 input   59.86 | X-H torsion
[ 10167 10162 10161 10158 ] final -108.46 input  -65.29 | X-H torsion
[ 10718 10713 10712 10709 ] final  166.06 input   66.30 | X-H torsion
[ 10763 10752 10751 10750 ] final   49.09 input  -60.55 | X-H torsion
[ 11005 11000 10999 10996 ] final  -34.69 input  -57.11 | X-H torsion

> <Gold.Protein.ActiveResidues>
 VAL166  LYS551  ARG553  GLY616  TRP617  ASP618  TYR619  PRO620  LYS621  CYS622 
 ASP623  PHE694  ASN695  SER759  ASP760  ASP761  ALA762  ILE779  LEU786  VAL792 
 PHE793  MET794  SER795  GLU796  ALA797  LYS798  CYS799  TRP800  GLU811  SER814 

> <Gold.Protein.RotatedAtoms>
  151.4534  133.3611  159.2798 H   0  0  0  0  0  0  0  0  0  0  0  0  # atno 6907 bound_to 6896
  150.9075  134.8492  159.7413 H   0  0  0  0  0  0  0  0  0  0  0  0  # atno 6908 bound_to 6896
  152.4914  134.4460  159.9611 H   0  0  0  0  0  0  0  0  0  0  0  0  # atno 6909 bound_to 6896
  146.1601  139.6766  142.9039 H   0  0  0  0  0  0  0  0  0  0  0  0  # atno 7974 bound_to 7965
  156.2349  140.1878  156.7146 H   0  0  0  0  0  0  0  0  0  0  0  0  # atno 8008 bound_to 7997
  154.6088  140.0625  156.9493 H   0  0  0  0  0  0  0  0  0  0  0  0  # atno 8009 bound_to 7997
  155.2051  140.3295  155.4340 H   0  0  0  0  0  0  0  0  0  0  0  0  # atno 8010 bound_to 7997
  140.1659  143.4082  152.1391 H   0  0  0  0  0  0  0  0  0  0  0  0  # atno 10167 bound_to 10162
  157.0713  131.0367  151.2610 H   0  0  0  0  0  0  0  0  0  0  0  0  # atno 10718 bound_to 10713
  152.9788  135.5923  154.4032 H   0  0  0  0  0  0  0  0  0  0  0  0  # atno 10763 bound_to 10752
  154.3675  135.2767  155.2287 H   0  0  0  0  0  0  0  0  0  0  0  0  # atno 10764 bound_to 10752
  154.4257  135.6048  153.6092 H   0  0  0  0  0  0  0  0  0  0  0  0  # atno 10765 bound_to 10752
  140.9737  133.7095  156.1566 H   0  0  0  0  0  0  0  0  0  0  0  0  # atno 11005 bound_to 11000
  145.4610  141.0433  143.2752 LP  0  0  0  0  0  0  0  0  0  0  0  0  # atno 17320 bound_to 7965
  144.8015  139.6131  143.7069 LP  0  0  0  0  0  0  0  0  0  0  0  0  # atno 17321 bound_to 7965
  139.5360  144.7209  151.4893 LP  0  0  0  0  0  0  0  0  0  0  0  0  # atno 17342 bound_to 10162
  140.6613  143.8492  150.6891 LP  0  0  0  0  0  0  0  0  0  0  0  0  # atno 17343 bound_to 10162
  157.4875  130.7802  149.7475 LP  0  0  0  0  0  0  0  0  0  0  0  0  # atno 17370 bound_to 10713
  155.9949  130.3915  150.2838 LP  0  0  0  0  0  0  0  0  0  0  0  0  # atno 17371 bound_to 10713
  140.7291  134.4274  157.5567 LP  0  0  0  0  0  0  0  0  0  0  0  0  # atno 17394 bound_to 11000
  139.8922  134.8761  156.2283 LP  0  0  0  0  0  0  0  0  0  0  0  0  # atno 17395 bound_to 11000

$$$$
