#       Name:                AV-unprocessed.smi:554
#       Creating user name   scv26
#       Creation time:       Thu Mar 26 23:40:03 2020


#       File generated by GOLD software.
#

@<TRIPOS>MOLECULE
AV-unprocessed.smi:554
    30    31     1
SMALL
NO_CHARGES


@<TRIPOS>ATOM
      1 ****        -1.3584  -3.8911   1.5251 C.3            1 S1                 0.0000
      2 ****        -2.1347  -2.6285   1.2079 C.3            1 S1                 0.0000
      3 ****        -1.9614  -1.9312  -0.1209 C.3            1 S1                 0.0000
      4 ****        -1.4756  -1.2646   1.1459 C.3            1 S1                 0.0000
      5 ****         0.0080  -1.0748   1.4118 C.3            1 S1                 0.0000
      6 ****         0.5160   0.2601   1.1239 N.am           1 S1                 0.0000
      7 ****         0.7582   0.7389  -0.1046 C.2            1 S1                 0.0000
      8 ****         0.5832   0.0864  -1.1343 O.2            1 S1                 0.0000
      9 ****         1.2101   2.0043  -0.0534 N.am           1 S1                 0.0000
     10 ****         1.5623   2.8552  -1.1337 C.2            1 S1                 0.0000
     11 ****         1.4881   2.5075  -2.4238 N.2            1 S1                 0.0000
     12 ****         1.8949   3.5421  -3.2699 C.2            1 S1                 0.0000
     13 ****         2.2783   4.6786  -2.6025 C.2            1 S1                 0.0000
     14 ****         2.1428   4.4937  -0.8742 S.3            1 S1                 0.0000
     15 ****        -0.4088  -3.9173   0.9907 H              1 S1                 0.0000
     16 ****        -1.9379  -4.7668   1.2326 H              1 S1                 0.0000
     17 ****        -1.1593  -3.9488   2.5953 H              1 S1                 0.0000
     18 ****        -3.1435  -2.6345   1.6162 H              1 S1                 0.0000
     19 ****        -1.2108  -2.3212  -0.8059 H              1 S1                 0.0000
     20 ****        -2.8499  -1.5181  -0.5937 H              1 S1                 0.0000
     21 ****        -2.0873  -0.4479   1.5252 H              1 S1                 0.0000
     22 ****         0.1915  -1.2745   2.4674 H              1 S1                 0.0000
     23 ****         0.5864  -1.8125   0.8540 H              1 S1                 0.0000
     24 ****         0.6889   0.8627   1.9153 H              1 S1                 0.0000
     25 ****         1.3088   2.4086   0.8660 H              1 S1                 0.0000
     26 ****         1.8795   3.3832  -4.3380 H              1 S1                 0.0000
     27 ****         2.6304   5.6094  -3.0216 H              1 S1                 0.0000
     28 ****         0.2433  -0.8524  -1.0796 LP             1 S1                 0.0000
     29 ****         0.7810   0.4955  -2.0251 LP             1 S1                 0.0000
     30 ****         1.1780   1.6126  -2.7445 LP             1 S1                 0.0000
@<TRIPOS>BOND
    1    1    2 1     
    2    1   15 1     
    3    1   16 1     
    4    1   17 1     
    5    2    4 1     
    6    2    3 1     
    7    2   18 1     
    8    3    4 1     
    9    3   19 1     
   10    3   20 1     
   11    4    5 1     
   12    4   21 1     
   13    5    6 1     
   14    5   22 1     
   15    5   23 1     
   16    6    7 am    
   17    6   24 1     
   18    7    8 2     
   19    7    9 am    
   20    9   10 1     
   21    9   25 1     
   22   10   14 1     
   23   10   11 2     
   24   11   12 1     
   25   12   13 2     
   26   12   26 1     
   27   13   14 1     
   28   13   27 1     
   29    8   28 1     
   30    8   29 1     
   31   11   30 1     
@<TRIPOS>SUBSTRUCTURE
      1 S1             1
@<TRIPOS>SET
LONE_PAIRS      STATIC     ATOMS    <user>   **** ""
3 28 29 30
DONOR_HYDROGENS      STATIC     ATOMS    <user>   **** ""
2 24 25
ATOM$BLUE        STATIC     ATOMS    COLORGROUP SYSTEM
3 28 29 30
ATOM$RED        STATIC     ATOMS    COLORGROUP SYSTEM
2 24 25
