AV-unprocessed.smi:1263|AV-procd|sdf|5312|dock6
  -GOLD-   22720 4433D 1   1.00000     0.00000
 Structure written by MMmdl.
 43 45  0  0  0  0  0  0  0  0  1 V2000
  149.4517  131.3925  158.0902 C   0  0  0  0  0  0  0  0  0  0  0  0
  149.8307  132.6983  157.6686 O   0  0  0  0  0  0  0  0  0  0  0  0
  149.7850  132.9951  156.3196 C   0  0  0  0  0  0  0  0  0  0  0  0
  149.3720  132.0292  155.4608 N   0  0  0  0  0  0  0  0  0  0  0  0
  149.3201  132.3185  154.1444 C   0  0  0  0  0  0  0  0  0  0  0  0
  149.6674  133.5760  153.6180 C   0  0  0  0  0  0  0  0  0  0  0  0
  150.0971  134.5791  154.5061 C   0  0  0  0  0  0  0  0  0  0  0  0
  150.1713  134.2863  155.8897 C   0  0  0  0  0  0  0  0  0  0  0  0
  150.5706  135.2320  156.8741 N   0  0  0  0  0  0  0  0  0  0  0  0
  151.3508  136.3165  156.7284 C   0  0  0  0  0  0  0  0  0  0  0  0
  151.9057  136.6575  155.6838 O   0  0  0  0  0  0  0  0  0  0  0  0
  151.4696  136.9815  157.8865 N   0  0  0  0  0  0  0  0  0  0  0  0
  152.2495  138.1979  158.1002 C   0  0  0  0  0  0  0  0  0  0  0  0
  152.4538  138.4359  159.6047 C   0  0  0  0  0  0  0  0  0  0  0  0
  153.1266  139.7955  159.8630 C   0  0  0  0  0  0  0  0  0  0  0  0
  152.3195  140.8749  159.2934 N   0  0  0  0  0  0  0  0  0  0  0  0
  152.9561  142.1465  159.5954 C   0  0  0  0  0  0  0  0  0  0  0  0
  152.0978  143.2282  160.2103 C   0  0  0  0  0  0  0  0  0  0  0  0
  152.5457  143.3468  158.7734 C   0  0  0  0  0  0  0  0  0  0  0  0
  152.2354  140.7199  157.8410 C   0  0  0  0  0  0  0  0  0  0  0  0
  151.5198  139.4040  157.4884 C   0  0  0  0  0  0  0  0  0  0  0  0
  149.5426  131.3225  159.1741 H   0  0  0  0  0  0  0  0  0  0  0  0
  150.0980  130.6292  157.6544 H   0  0  0  0  0  0  0  0  0  0  0  0
  148.4146  131.1748  157.8307 H   0  0  0  0  0  0  0  0  0  0  0  0
  148.9842  131.5257  153.4924 H   0  0  0  0  0  0  0  0  0  0  0  0
  149.6005  133.7684  152.5575 H   0  0  0  0  0  0  0  0  0  0  0  0
  150.3440  135.5525  154.1116 H   0  0  0  0  0  0  0  0  0  0  0  0
  150.2665  135.0271  157.8149 H   0  0  0  0  0  0  0  0  0  0  0  0
  150.9795  136.6166  158.6901 H   0  0  0  0  0  0  0  0  0  0  0  0
  153.2304  138.1177  157.6282 H   0  0  0  0  0  0  0  0  0  0  0  0
  151.4939  138.4042  160.1227 H   0  0  0  0  0  0  0  0  0  0  0  0
  153.0619  137.6368  160.0303 H   0  0  0  0  0  0  0  0  0  0  0  0
  153.2337  139.9484  160.9376 H   0  0  0  0  0  0  0  0  0  0  0  0
  154.1309  139.8087  159.4362 H   0  0  0  0  0  0  0  0  0  0  0  0
  153.9960  142.1417  159.9186 H   0  0  0  0  0  0  0  0  0  0  0  0
  151.0481  143.0047  160.3914 H   0  0  0  0  0  0  0  0  0  0  0  0
  152.5665  143.8856  160.9397 H   0  0  0  0  0  0  0  0  0  0  0  0
  153.3127  144.0838  158.5448 H   0  0  0  0  0  0  0  0  0  0  0  0
  151.7934  143.2025  158.0000 H   0  0  0  0  0  0  0  0  0  0  0  0
  151.6820  141.5582  157.4163 H   0  0  0  0  0  0  0  0  0  0  0  0
  153.2335  140.7392  157.3999 H   0  0  0  0  0  0  0  0  0  0  0  0
  151.4618  139.2951  156.4049 H   0  0  0  0  0  0  0  0  0  0  0  0
  150.4914  139.4438  157.8512 H   0  0  0  0  0  0  0  0  0  0  0  0
  1  2  1  0  0  0  0
  1 22  1  0  0  0  0
  1 23  1  0  0  0  0
  1 24  1  0  0  0  0
  2  3  1  0  0  0  0
  3  8  1  0  0  0  0
  3  4  2  0  0  0  0
  4  5  1  0  0  0  0
  5  6  2  0  0  0  0
  5 25  1  0  0  0  0
  6  7  1  0  0  0  0
  6 26  1  0  0  0  0
  7  8  2  0  0  0  0
  7 27  1  0  0  0  0
  8  9  1  0  0  0  0
  9 10  1  0  0  0  0
  9 28  1  0  0  0  0
 10 11  2  0  0  0  0
 10 12  1  0  0  0  0
 12 13  1  0  0  0  0
 12 29  1  0  0  0  0
 13 21  1  0  0  0  0
 13 14  1  0  0  0  0
 13 30  1  0  0  0  0
 14 15  1  0  0  0  0
 14 31  1  0  0  0  0
 14 32  1  0  0  0  0
 15 16  1  0  0  0  0
 15 33  1  0  0  0  0
 15 34  1  0  0  0  0
 16 17  1  0  0  0  0
 16 20  1  0  0  0  0
 17 19  1  0  0  0  0
 17 18  1  0  0  0  0
 17 35  1  0  0  0  0
 18 19  1  0  0  0  0
 18 36  1  0  0  0  0
 18 37  1  0  0  0  0
 19 38  1  0  0  0  0
 19 39  1  0  0  0  0
 20 21  1  0  0  0  0
 20 40  1  0  0  0  0
 20 41  1  0  0  0  0
 21 42  1  0  0  0  0
 21 43  1  0  0  0  0
M  END
> <s_m_source_file>
AV-unprocessed.smi

> <i_m_source_file_index>
1263

> <i_lp_mmshare_version>
43012

> <i_f3d_flags>
0

> <s_epik_input>
W0NIM11PYzFuW2NIXVtjSF1bY0hdYzFbTkhdQyg9TylbTkhdW0NIXTJbQ0gyXVtDSDJdTihbQ0gyXVtDSDJdMilbQ0hdM1tDSDJdW0NIMl0z

> <s_epik_cmdline>
J2VwaWtfcHl0aG9uJywgJy1waCcsICc3LjAnLCAnLXRuJywgJzgnLCAnLW1hJywgJzIwMCcsICctbWV0YWxfYmluZGluZycsICctaW1hZScsICc8aW5maWxlLm1hZT4nLCAnLW9tYWUnLCAnPG91dGZpbGUubWFlPic=

> <r_lp_tautomer_probability>
1

> <r_epik_Ionization_Penalty>
1.02543

> <r_epik_Ionization_Penalty_Charging>
0

> <r_epik_Ionization_Penalty_Neutral>
1.02543

> <r_epik_State_Penalty>
1.07599

> <r_epik_Charging_Adjusted_Penalty>
1.07599

> <i_epik_Tot_Q>
0

> <i_epik_Tot_abs_Q>
0

> <r_epik_Metal_State_Penalty>
1.07599

> <b_epik_Metal_Only>
0

> <s_lp_Force_Field>
OPLS_2005

> <r_lp_Energy>
24.353

> <b_lp_Chiralities_Consistent>
1

> <s_lp_Variant>
AV-unprocessed.smi:1263-3

> <Gold.Version>
5.8.1

> <Gold.Id.Protein>
6NUR|6NUR_protein|mol2

> <Gold.PLP.Fitness>
38.7099

> <Gold.PLP.PLP>
-33.8918

> <Gold.PLP.part.hbond>
-2.0000

> <Gold.PLP.part.metal>
0.0000

> <Gold.PLP.part.buried>
-5.0738

> <Gold.PLP.part.nonpolar>
-27.5358

> <Gold.PLP.part.repulsive>
0.3129

> <Gold.PLP.ligand.clash>
0.0000

> <Gold.PLP.ligand.torsion>
1.1767

> <Gold.PLP.Chemscore.Hbond>
2.0000

> <Gold.PLP.Chemscore.CHOScore>
0.0000

> <Gold.PLP.Chemscore.Metal>
0.0000

> <Gold.Chemscore.Hbonds>
donor molecule, donor type, donor heavy atom, donor atom, acceptor molecule, acceptor atom, score
      P1  H  6896  6909       L1     2  0.68
      P1  H 10752 10765       L1    11  1.00

> <Gold.PLP.Chemscore.Internal.Correction>
1.1715

> <Gold.Rescore>
     Score         DG    S(hbond)    S(metal)    S(lipo)     H(rot)  DE(clash)    DE(int)     intcor
     16.24     -18.34       1.86        0.00      87.56       1.41       0.00       2.11       ----

> <Gold.Chemscore.Fitness>
16.2382

> <Gold.Chemscore.DG>
-18.3444

> <Gold.Chemscore.ZeroCoef>
-5.4800

> <Gold.Chemscore.Hbond>
1.8616

> <Gold.Chemscore.Metal>
0.0000

> <Gold.Chemscore.Lipo>
87.5597

> <Gold.Chemscore.Internal_Hbond>
0.0000

> <Gold.Chemscore.DEClash>
0.0000

> <Gold.Chemscore.DEInternal>
2.1062

> <Gold.Chemscore.Rot>
1.4053

> <Gold.Chemscore.Internal.Correction>
   9.000000E+99

> <Gold.Chemscore.Hbonds>
donor molecule, donor type, donor heavy atom, donor atom, acceptor molecule, acceptor atom, score
      P1  H  6896  6909       L1     2  0.34
      P1  H 10752 10765       L1    11  0.95

> <Gold.Chemscore.Hbond.Weighted>
-6.2176

> <Gold.Chemscore.Metal.Weighted>
-0.0000

> <Gold.Chemscore.Lipo.Weighted>
-10.2445

> <Gold.Chemscore.Internal_Hbond.Weighted>
0.0000

> <Gold.Chemscore.DEClash.Weighted>
0.0000

> <Gold.Chemscore.DEInternal.Weighted>
2.1062

> <Gold.Chemscore.Rot.Weighted>
3.5977

> <Gold.Chemscore.Internal.Correction.Weighted>
   9.000000E+99

> <Gold.Protein.RotatedTorsions>
[ 6907 6896 6895 6894 ] final  -29.47 input  -60.11 | X-H torsion
[ 7974 7965 7964 7962 ] final   31.69 input  175.53 | X-H torsion
[ 8008 7997 7996 7995 ] final  166.05 input   59.86 | X-H torsion
[ 10167 10162 10161 10158 ] final   82.35 input  -65.29 | X-H torsion
[ 10718 10713 10712 10709 ] final  146.03 input   66.30 | X-H torsion
[ 10763 10752 10751 10750 ] final -156.43 input  -60.55 | X-H torsion
[ 11005 11000 10999 10996 ] final  156.36 input  -57.11 | X-H torsion

> <Gold.Protein.ActiveResidues>
 VAL166  LYS551  ARG553  GLY616  TRP617  ASP618  TYR619  PRO620  LYS621  CYS622 
 ASP623  PHE694  ASN695  SER759  ASP760  ASP761  ALA762  ILE779  LEU786  VAL792 
 PHE793  MET794  SER795  GLU796  ALA797  LYS798  CYS799  TRP800  GLU811  SER814 

> <Gold.Protein.RotatedAtoms>
  151.1187  135.0067  159.8528 H   0  0  0  0  0  0  0  0  0  0  0  0  # atno 6907 bound_to 6896
  152.5447  134.1748  159.8622 H   0  0  0  0  0  0  0  0  0  0  0  0  # atno 6908 bound_to 6896
  151.1805  133.4683  159.2627 H   0  0  0  0  0  0  0  0  0  0  0  0  # atno 6909 bound_to 6896
  146.1534  139.6623  142.9083 H   0  0  0  0  0  0  0  0  0  0  0  0  # atno 7974 bound_to 7965
  156.1750  140.1653  156.8379 H   0  0  0  0  0  0  0  0  0  0  0  0  # atno 8008 bound_to 7997
  154.5297  140.0759  156.8357 H   0  0  0  0  0  0  0  0  0  0  0  0  # atno 8009 bound_to 7997
  155.3432  140.3386  155.4241 H   0  0  0  0  0  0  0  0  0  0  0  0  # atno 8010 bound_to 7997
  139.9298  144.6159  150.8357 H   0  0  0  0  0  0  0  0  0  0  0  0  # atno 10167 bound_to 10162
  157.3381  131.0931  151.1106 H   0  0  0  0  0  0  0  0  0  0  0  0  # atno 10718 bound_to 10713
  154.7713  135.3146  154.8183 H   0  0  0  0  0  0  0  0  0  0  0  0  # atno 10763 bound_to 10752
  153.8918  135.6824  153.4764 H   0  0  0  0  0  0  0  0  0  0  0  0  # atno 10764 bound_to 10752
  153.1327  135.4773  154.9309 H   0  0  0  0  0  0  0  0  0  0  0  0  # atno 10765 bound_to 10752
  140.1667  134.8571  157.2641 H   0  0  0  0  0  0  0  0  0  0  0  0  # atno 11005 bound_to 11000
  145.4768  141.0437  143.2668 LP  0  0  0  0  0  0  0  0  0  0  0  0  # atno 17320 bound_to 7965
  144.7932  139.6286  143.7104 LP  0  0  0  0  0  0  0  0  0  0  0  0  # atno 17321 bound_to 7965
  140.7640  143.3238  151.2561 LP  0  0  0  0  0  0  0  0  0  0  0  0  # atno 17342 bound_to 10162
  139.6792  143.9884  152.2799 LP  0  0  0  0  0  0  0  0  0  0  0  0  # atno 17343 bound_to 10162
  157.2328  130.6533  149.5857 LP  0  0  0  0  0  0  0  0  0  0  0  0  # atno 17370 bound_to 10713
  155.9704  130.4593  150.6031 LP  0  0  0  0  0  0  0  0  0  0  0  0  # atno 17371 bound_to 10713
  140.2425  134.3779  155.7475 LP  0  0  0  0  0  0  0  0  0  0  0  0  # atno 17394 bound_to 11000
  141.2214  133.7273  156.8811 LP  0  0  0  0  0  0  0  0  0  0  0  0  # atno 17395 bound_to 11000

$$$$
