AV-unprocessed.smi:1899|AV-procd|sdf|7705|dock2
  -GOLD-   22720 9443D 1   1.00000     0.00000
 Structure written by MMmdl.
 34 35  0  0  0  0  0  0  0  0  2 V2000
  151.0906  140.8061  156.6167 O   0  0  0  0  0  0  0  0  0  0  0  0
  150.6648  141.9495  156.7847 C   0  0  0  0  0  0  0  0  0  0  0  0
  149.8416  142.5612  155.9185 N   0  0  0  0  0  0  0  0  0  0  0  0
  149.3063  141.9625  154.6988 C   0  0  0  0  0  0  0  0  0  0  0  0
  147.9580  141.2585  154.9438 C   0  0  0  0  0  0  0  0  0  0  0  0
  147.7102  140.1605  154.0034 N   0  0  0  0  0  0  0  0  0  0  0  0
  146.7131  140.0791  153.0658 C   0  0  0  0  0  0  0  0  0  0  0  0
  146.8890  138.8874  152.4109 C   0  0  0  0  0  0  0  0  0  0  0  0
  147.9823  138.2902  152.9787 N   0  3  0  0  0  0  0  0  0  0  0  0
  148.4773  139.0634  153.9504 C   0  0  0  0  0  0  0  0  0  0  0  0
  151.0385  142.7334  158.0486 C   0  0  2  0  0  0  0  0  0  0  0  0
  151.5269  144.1593  157.7031 C   0  0  0  0  0  0  0  0  0  0  0  0
  152.1558  144.8551  158.8976 C   0  0  0  0  0  0  0  0  0  0  0  0
  152.5472  144.2084  160.0089 C   0  0  0  0  0  0  0  0  0  0  0  0
  152.4091  142.7079  160.1953 C   0  0  0  0  0  0  0  0  0  0  0  0
  152.1046  141.9821  158.8716 C   0  0  0  0  0  0  0  0  0  0  0  0
  149.5476  143.5039  156.1306 H   0  0  0  0  0  0  0  0  0  0  0  0
  149.1650  142.7659  153.9757 H   0  0  0  0  0  0  0  0  0  0  0  0
  150.0247  141.2748  154.2492 H   0  0  0  0  0  0  0  0  0  0  0  0
  147.9015  140.8699  155.9619 H   0  0  0  0  0  0  0  0  0  0  0  0
  147.1399  141.9709  154.8320 H   0  0  0  0  0  0  0  0  0  0  0  0
  145.9768  140.8584  152.9325 H   0  0  0  0  0  0  0  0  0  0  0  0
  146.3344  138.4323  151.6035 H   0  0  0  0  0  0  0  0  0  0  0  0
  149.3367  138.8500  154.5607 H   0  0  0  0  0  0  0  0  0  0  0  0
  150.1458  142.8241  158.6710 H   0  0  0  0  0  0  0  0  0  0  0  0
  152.2631  144.1448  156.8983 H   0  0  0  0  0  0  0  0  0  0  0  0
  150.6873  144.7614  157.3537 H   0  0  0  0  0  0  0  0  0  0  0  0
  152.2971  145.9231  158.8201 H   0  0  0  0  0  0  0  0  0  0  0  0
  152.9769  144.7636  160.8299 H   0  0  0  0  0  0  0  0  0  0  0  0
  153.3263  142.3131  160.6331 H   0  0  0  0  0  0  0  0  0  0  0  0
  151.6105  142.5297  160.9159 H   0  0  0  0  0  0  0  0  0  0  0  0
  151.7853  140.9599  159.0796 H   0  0  0  0  0  0  0  0  0  0  0  0
  153.0249  141.9034  158.2900 H   0  0  0  0  0  0  0  0  0  0  0  0
  148.3649  137.3946  152.7024 H   0  0  0  0  0  0  0  0  0  0  0  0
  1  2  2  0  0  0  0
  2  3  1  0  0  0  0
  2 11  1  0  0  0  0
  3  4  1  0  0  0  0
  3 17  1  0  0  0  0
  4  5  1  0  0  0  0
  4 18  1  0  0  0  0
  4 19  1  0  0  0  0
  5  6  1  0  0  0  0
  5 20  1  0  0  0  0
  5 21  1  0  0  0  0
  6 10  1  0  0  0  0
  6  7  1  0  0  0  0
  7  8  2  0  0  0  0
  7 22  1  0  0  0  0
  8  9  1  0  0  0  0
  8 23  1  0  0  0  0
  9 10  2  0  0  0  0
  9 34  1  0  0  0  0
 10 24  1  0  0  0  0
 11 16  1  0  0  0  0
 11 12  1  0  0  0  0
 11 25  1  0  0  0  0
 12 13  1  0  0  0  0
 12 26  1  0  0  0  0
 12 27  1  0  0  0  0
 13 14  2  0  0  0  0
 13 28  1  0  0  0  0
 14 15  1  0  0  0  0
 14 29  1  0  0  0  0
 15 16  1  0  0  0  0
 15 30  1  0  0  0  0
 15 31  1  0  0  0  0
 16 32  1  0  0  0  0
 16 33  1  0  0  0  0
M  CHG  1   9   1
M  END
> <s_m_source_file>
AV-unprocessed.smi

> <i_m_source_file_index>
1899

> <i_lp_mmshare_version>
43012

> <i_f3d_flags>
0

> <s_epik_input>
W0NIMl0xW0NIMl1bQ0hdPVtDSF1bQ0gyXVtDQEhdMUMoPU8pW05IXVtDSDJdW0NIMl1uMltjSF1bY0hdbltjSF0y

> <s_epik_cmdline>
J2VwaWtfcHl0aG9uJywgJy1waCcsICc3LjAnLCAnLXRuJywgJzgnLCAnLW1hJywgJzIwMCcsICctbWV0YWxfYmluZGluZycsICctaW1hZScsICc8aW5maWxlLm1hZT4nLCAnLW9tYWUnLCAnPG91dGZpbGUubWFlPic=

> <r_lp_tautomer_probability>
1

> <r_epik_Ionization_Penalty>
0.268283

> <r_epik_Ionization_Penalty_Charging>
0

> <r_epik_Ionization_Penalty_Neutral>
0.268283

> <r_epik_State_Penalty>
0.260312

> <r_epik_Charging_Adjusted_Penalty>
0.260312

> <i_epik_Tot_Q>
1

> <i_epik_Tot_abs_Q>
1

> <r_epik_Metal_State_Penalty>
0.545819

> <b_epik_Metal_Only>
0

> <s_lp_Force_Field>
OPLS_2005

> <r_lp_Energy>
10.5606

> <b_lp_Chiralities_Consistent>
1

> <s_lp_Variant>
AV-unprocessed.smi:1899-1

> <Gold.Version>
5.8.1

> <Gold.Id.Protein>
6NUR|6NUR_protein|mol2

> <Gold.PLP.Fitness>
47.1679

> <Gold.PLP.PLP>
-36.4265

> <Gold.PLP.part.hbond>
-2.3344

> <Gold.PLP.part.metal>
0.0000

> <Gold.PLP.part.buried>
-0.5637

> <Gold.PLP.part.nonpolar>
-34.2513

> <Gold.PLP.part.repulsive>
0.2043

> <Gold.PLP.ligand.clash>
0.0000

> <Gold.PLP.ligand.torsion>
0.5191

> <Gold.PLP.Chemscore.Hbond>
3.0000

> <Gold.PLP.Chemscore.CHOScore>
0.9181

> <Gold.PLP.Chemscore.Metal>
0.0000

> <Gold.Chemscore.Hbonds>
donor molecule, donor type, donor heavy atom, donor atom, acceptor molecule, acceptor atom, score
      L1  H     3    17       P1  8028  0.78
      L1  H     9    34       P1  7948  2.00
      L1  C     7    22       P1 10175  0.91

> <Gold.PLP.Chemscore.Internal.Correction>
0.0253

> <Gold.Rescore>
     Score         DG    S(hbond)    S(metal)    S(lipo)     H(rot)  DE(clash)    DE(int)     intcor
     17.97     -18.74       1.87        0.00     100.80       1.87       0.29       0.47       ----

> <Gold.Chemscore.Fitness>
17.9713

> <Gold.Chemscore.DG>
-18.7375

> <Gold.Chemscore.ZeroCoef>
-5.4800

> <Gold.Chemscore.Hbond>
1.8750

> <Gold.Chemscore.Metal>
0.0000

> <Gold.Chemscore.Lipo>
100.7984

> <Gold.Chemscore.Internal_Hbond>
0.0000

> <Gold.Chemscore.DEClash>
0.2924

> <Gold.Chemscore.DEInternal>
0.4738

> <Gold.Chemscore.Rot>
1.8743

> <Gold.Chemscore.Internal.Correction>
   9.000000E+99

> <Gold.Chemscore.Hbonds>
donor molecule, donor type, donor heavy atom, donor atom, acceptor molecule, acceptor atom, score
      L1  H     3    17       P1  8028  0.76
      L1  H     9    34       P1  7948  0.94

> <Gold.Chemscore.Hbond.Weighted>
-6.2624

> <Gold.Chemscore.Metal.Weighted>
-0.0000

> <Gold.Chemscore.Lipo.Weighted>
-11.7934

> <Gold.Chemscore.Internal_Hbond.Weighted>
0.0000

> <Gold.Chemscore.DEClash.Weighted>
0.2924

> <Gold.Chemscore.DEInternal.Weighted>
0.4738

> <Gold.Chemscore.Rot.Weighted>
4.7983

> <Gold.Chemscore.Internal.Correction.Weighted>
   9.000000E+99

> <Gold.Protein.RotatedTorsions>
[ 6907 6896 6895 6894 ] final  175.01 input  -60.11 | X-H torsion
[ 7974 7965 7964 7962 ] final  -30.70 input  175.53 | X-H torsion
[ 8008 7997 7996 7995 ] final -141.06 input   59.86 | X-H torsion
[ 10167 10162 10161 10158 ] final   41.48 input  -65.29 | X-H torsion
[ 10718 10713 10712 10709 ] final   -8.50 input   66.30 | X-H torsion
[ 10763 10752 10751 10750 ] final  -48.41 input  -60.55 | X-H torsion
[ 11005 11000 10999 10996 ] final   78.38 input  -57.11 | X-H torsion

> <Gold.Protein.ActiveResidues>
 VAL166  LYS551  ARG553  GLY616  TRP617  ASP618  TYR619  PRO620  LYS621  CYS622 
 ASP623  PHE694  ASN695  SER759  ASP760  ASP761  ALA762  ILE779  LEU786  VAL792 
 PHE793  MET794  SER795  GLU796  ALA797  LYS798  CYS799  TRP800  GLU811  SER814 

> <Gold.Protein.RotatedAtoms>
  151.7431  133.3323  159.3370 H   0  0  0  0  0  0  0  0  0  0  0  0  # atno 6907 bound_to 6896
  150.7565  134.6260  159.6170 H   0  0  0  0  0  0  0  0  0  0  0  0  # atno 6908 bound_to 6896
  152.3517  134.6998  160.0286 H   0  0  0  0  0  0  0  0  0  0  0  0  # atno 6909 bound_to 6896
  146.1123  140.5573  142.8772 H   0  0  0  0  0  0  0  0  0  0  0  0  # atno 7974 bound_to 7965
  155.4716  140.0553  157.2979 H   0  0  0  0  0  0  0  0  0  0  0  0  # atno 8008 bound_to 7997
  154.4696  140.2034  155.9983 H   0  0  0  0  0  0  0  0  0  0  0  0  # atno 8009 bound_to 7997
  156.1033  140.3215  155.7976 H   0  0  0  0  0  0  0  0  0  0  0  0  # atno 8010 bound_to 7997
  140.3639  144.2193  150.6136 H   0  0  0  0  0  0  0  0  0  0  0  0  # atno 10167 bound_to 10162
  156.7016  130.5095  149.5915 H   0  0  0  0  0  0  0  0  0  0  0  0  # atno 10718 bound_to 10713
  154.0773  135.6596  153.4833 H   0  0  0  0  0  0  0  0  0  0  0  0  # atno 10763 bound_to 10752
  153.0368  135.5171  154.7508 H   0  0  0  0  0  0  0  0  0  0  0  0  # atno 10764 bound_to 10752
  154.6592  135.3012  154.9856 H   0  0  0  0  0  0  0  0  0  0  0  0  # atno 10765 bound_to 10752
  139.9215  134.7759  156.1642 H   0  0  0  0  0  0  0  0  0  0  0  0  # atno 11005 bound_to 11000
  144.7522  140.5220  143.6793 LP  0  0  0  0  0  0  0  0  0  0  0  0  # atno 17320 bound_to 7965
  145.5638  139.1480  143.3326 LP  0  0  0  0  0  0  0  0  0  0  0  0  # atno 17321 bound_to 7965
  140.5100  143.2293  151.8550 LP  0  0  0  0  0  0  0  0  0  0  0  0  # atno 17342 bound_to 10162
  139.4811  144.4961  151.9122 LP  0  0  0  0  0  0  0  0  0  0  0  0  # atno 17343 bound_to 10162
  156.1724  130.6446  151.0854 LP  0  0  0  0  0  0  0  0  0  0  0  0  # atno 17370 bound_to 10713
  157.6971  131.0790  150.6936 LP  0  0  0  0  0  0  0  0  0  0  0  0  # atno 17371 bound_to 10713
  141.0739  133.6784  156.2197 LP  0  0  0  0  0  0  0  0  0  0  0  0  # atno 17394 bound_to 11000
  140.6460  134.5116  157.5573 LP  0  0  0  0  0  0  0  0  0  0  0  0  # atno 17395 bound_to 11000

$$$$
