#       Name:                AV-unprocessed.smi:1641
#       Creating user name   scv26
#       Creation time:       Fri Mar 27 07:25:12 2020


#       File generated by GOLD software.
#

@<TRIPOS>MOLECULE
AV-unprocessed.smi:1641
    48    49     1
SMALL
NO_CHARGES


@<TRIPOS>ATOM
      1 ****        -6.7529   5.7647   0.0166 C.3            1 S1                 0.0000
      2 ****        -5.4745   5.1180   0.4264 C.2            1 S1                 0.0000
      3 ****        -5.1521   4.9044   1.7043 N.2            1 S1                 0.0000
      4 ****        -3.9148   4.2908   1.8359 N.2            1 S1                 0.0000
      5 ****        -3.3235   4.0416   0.6589 C.2            1 S1                 0.0000
      6 ****        -2.1180   3.4557   0.5697 N.pl3          1 S1                -1.0000
      7 ****        -2.0271   2.1345   0.2986 C.2            1 S1                 0.0000
      8 ****        -2.9659   1.3604   0.0991 O.2            1 S1                 0.0000
      9 ****        -0.7685   1.6798   0.2535 N.am           1 S1                 0.0000
     10 ****        -0.3861   0.3024  -0.0221 C.3            1 S1                 0.0000
     11 ****         1.1442   0.1661  -0.0389 C.3            1 S1                 0.0000
     12 ****         1.5854  -1.2103  -0.3754 N.4            1 S1                 1.0000
     13 ****         2.9838  -1.2500  -0.8647 C.3            1 S1                 0.0000
     14 ****         3.3777  -2.6846  -1.2629 C.3            1 S1                 0.0000
     15 ****         4.8425  -2.7808  -1.7031 C.3            1 S1                 0.0000
     16 ****         3.1932  -3.5437  -0.1434 O.3            1 S1                 0.0000
     17 ****         1.8384  -3.5916   0.2906 C.3            1 S1                 0.0000
     18 ****         1.7378  -4.6112   1.4305 C.3            1 S1                 0.0000
     19 ****         1.3987  -2.1822   0.7301 C.3            1 S1                 0.0000
     20 ****        -4.2683   4.5792  -0.7301 S.3            1 S1                 0.0000
     21 ****        -7.5996   5.2095   0.4207 H              1 S1                 0.0000
     22 ****        -6.8363   5.7868  -1.0701 H              1 S1                 0.0000
     23 ****        -6.7908   6.7876   0.3913 H              1 S1                 0.0000
     24 ****        -0.0268   2.3426   0.4253 H              1 S1                 0.0000
     25 ****        -0.8291  -0.3374   0.7414 H              1 S1                 0.0000
     26 ****        -0.8006  -0.0031  -0.9841 H              1 S1                 0.0000
     27 ****         1.5368   0.8574  -0.7864 H              1 S1                 0.0000
     28 ****         1.5720   0.4696   0.9182 H              1 S1                 0.0000
     29 ****         3.0916  -0.5887  -1.7255 H              1 S1                 0.0000
     30 ****         3.6516  -0.8759  -0.0867 H              1 S1                 0.0000
     31 ****         2.7461  -3.0255  -2.0854 H              1 S1                 0.0000
     32 ****         5.0338  -2.1515  -2.5726 H              1 S1                 0.0000
     33 ****         5.1020  -3.8051  -1.9718 H              1 S1                 0.0000
     34 ****         5.5165  -2.4651  -0.9063 H              1 S1                 0.0000
     35 ****         1.2097  -3.9324  -0.5341 H              1 S1                 0.0000
     36 ****         0.7135  -4.6935   1.7950 H              1 S1                 0.0000
     37 ****         2.3710  -4.3280   2.2718 H              1 S1                 0.0000
     38 ****         2.0514  -5.6006   1.0967 H              1 S1                 0.0000
     39 ****         1.9765  -1.8612   1.5986 H              1 S1                 0.0000
     40 ****         0.3535  -2.2122   1.0361 H              1 S1                 0.0000
     41 ****         1.0067  -1.5182  -1.1437 H              1 S1                 0.0000
     42 ****        -5.7347   5.1573   2.4767 LP             1 S1                 0.0000
     43 ****        -3.5059   4.0583   2.7183 LP             1 S1                 0.0000
     44 ****        -1.2879   3.9969   0.7038 LP             1 S1                 0.0000
     45 ****        -3.9070   1.6972   0.1305 LP             1 S1                 0.0000
     46 ****        -2.7862   0.3959  -0.0942 LP             1 S1                 0.0000
     47 ****         3.7600  -3.2131   0.6112 LP             1 S1                 0.0000
     48 ****         3.4814  -4.4670  -0.3971 LP             1 S1                 0.0000
@<TRIPOS>BOND
    1    1    2 1     
    2    1   21 1     
    3    1   22 1     
    4    1   23 1     
    5    2   20 1     
    6    2    3 2     
    7    3    4 1     
    8    4    5 2     
    9    5    6 1     
   10    5   20 1     
   11    6    7 1     
   12    7    8 2     
   13    7    9 am    
   14    9   10 1     
   15    9   24 1     
   16   10   11 1     
   17   10   25 1     
   18   10   26 1     
   19   11   12 1     
   20   11   27 1     
   21   11   28 1     
   22   12   19 1     
   23   12   13 1     
   24   12   41 1     
   25   13   14 1     
   26   13   29 1     
   27   13   30 1     
   28   14   15 1     
   29   14   16 1     
   30   14   31 1     
   31   15   32 1     
   32   15   33 1     
   33   15   34 1     
   34   16   17 1     
   35   17   18 1     
   36   17   19 1     
   37   17   35 1     
   38   18   36 1     
   39   18   37 1     
   40   18   38 1     
   41   19   39 1     
   42   19   40 1     
   43    3   42 1     
   44    4   43 1     
   45    6   44 1     
   46    8   45 1     
   47    8   46 1     
   48   16   47 1     
   49   16   48 1     
@<TRIPOS>SUBSTRUCTURE
      1 S1             1
@<TRIPOS>SET
LONE_PAIRS      STATIC     ATOMS    <user>   **** ""
7 42 43 44 45 46 47 48
DONOR_HYDROGENS      STATIC     ATOMS    <user>   **** ""
2 24 41
ATOM$BLUE        STATIC     ATOMS    COLORGROUP SYSTEM
7 42 43 44 45 46 47 48
ATOM$RED        STATIC     ATOMS    COLORGROUP SYSTEM
2 24 41
