AV-unprocessed.smi:79|AV-procd|sdf|783|dock6
  -GOLD-   2262017143D 1   1.00000     0.00000
 Structure written by MMmdl.
 56 59  0  0  0  0  0  0  0  0  2 V2000
  147.2816  131.6716  150.1024 C   0  0  0  0  0  0  0  0  0  0  0  0
  146.9104  132.5458  151.3096 C   0  0  2  0  0  0  0  0  0  0  0  0
  147.9914  132.5275  152.2173 O   0  0  0  0  0  0  0  0  0  0  0  0
  145.6482  132.0544  152.0469 C   0  0  0  0  0  0  0  0  0  0  0  0
  144.9141  133.1524  152.7264 N   0  3  1  0  0  0  0  0  0  0  0  0
  145.6755  133.7178  153.8696 C   0  0  0  0  0  0  0  0  0  0  0  0
  144.8462  134.7719  154.6223 C   0  0  0  0  0  0  0  0  0  0  0  0
  144.3622  135.7986  153.7021 N   0  0  0  0  0  0  0  0  0  0  0  0
  145.1718  136.8816  153.5667 C   0  0  0  0  0  0  0  0  0  0  0  0
  145.3995  137.4133  152.3361 N   0  0  0  0  0  0  0  0  0  0  0  0
  146.2028  138.4718  152.1949 C   0  0  0  0  0  0  0  0  0  0  0  0
  146.8689  139.1440  153.1349 N   0  0  0  0  0  0  0  0  0  0  0  0
  146.6425  138.6191  154.3729 C   0  0  0  0  0  0  0  0  0  0  0  0
  145.8164  137.5000  154.6748 C   0  0  0  0  0  0  0  0  0  0  0  0
  145.8210  137.2655  156.0445 N   0  0  0  0  0  0  0  0  0  0  0  0
  146.6094  138.1885  156.5239 C   0  0  0  0  0  0  0  0  0  0  0  0
  147.1546  139.0392  155.5885 N   0  0  0  0  0  0  0  0  0  0  0  0
  148.0574  140.1518  155.8426 C   0  0  0  0  0  0  0  0  0  0  0  0
  149.4157  139.7294  156.4331 C   0  0  0  0  0  0  0  0  0  0  0  0
  149.9532  138.5330  155.6220 C   0  0  0  0  0  0  0  0  0  0  0  0
  151.2767  138.1874  155.9791 O   0  0  0  0  0  0  0  0  0  0  0  0
  150.4008  140.8814  156.6783 C   0  0  0  0  0  0  0  0  0  0  0  0
  150.5896  140.5061  158.0605 O   0  0  0  0  0  0  0  0  0  0  0  0
  149.4772  139.5898  157.9611 C   0  0  0  0  0  0  0  0  0  0  0  0
  143.6280  135.3033  152.5330 C   0  0  2  0  0  0  0  0  0  0  0  0
  142.2258  134.8038  152.9217 C   0  0  0  0  0  0  0  0  0  0  0  0
  144.4396  134.2130  151.7958 C   0  0  0  0  0  0  0  0  0  0  0  0
  146.4941  131.6838  149.3484 H   0  0  0  0  0  0  0  0  0  0  0  0
  147.4449  130.6339  150.3960 H   0  0  0  0  0  0  0  0  0  0  0  0
  148.1941  132.0302  149.6247 H   0  0  0  0  0  0  0  0  0  0  0  0
  146.7894  133.5789  150.9855 H   0  0  0  0  0  0  0  0  0  0  0  0
  148.7336  132.1154  151.8013 H   0  0  0  0  0  0  0  0  0  0  0  0
  144.9919  131.5732  151.3199 H   0  0  0  0  0  0  0  0  0  0  0  0
  145.9041  131.2869  152.7795 H   0  0  0  0  0  0  0  0  0  0  0  0
  145.9557  132.9222  154.5608 H   0  0  0  0  0  0  0  0  0  0  0  0
  146.6022  134.1621  153.5022 H   0  0  0  0  0  0  0  0  0  0  0  0
  143.9905  134.3003  155.1056 H   0  0  0  0  0  0  0  0  0  0  0  0
  145.4467  135.1987  155.4252 H   0  0  0  0  0  0  0  0  0  0  0  0
  146.3304  138.8317  151.1846 H   0  0  0  0  0  0  0  0  0  0  0  0
  146.8133  138.2742  157.5813 H   0  0  0  0  0  0  0  0  0  0  0  0
  148.1982  140.7027  154.9116 H   0  0  0  0  0  0  0  0  0  0  0  0
  147.5462  140.8412  156.5158 H   0  0  0  0  0  0  0  0  0  0  0  0
  149.3389  137.6458  155.7741 H   0  0  0  0  0  0  0  0  0  0  0  0
  149.9375  138.7503  154.5535 H   0  0  0  0  0  0  0  0  0  0  0  0
  151.5787  138.7939  156.6378 H   0  0  0  0  0  0  0  0  0  0  0  0
  151.3214  140.8207  156.0969 H   0  0  0  0  0  0  0  0  0  0  0  0
  149.9554  141.8733  156.5879 H   0  0  0  0  0  0  0  0  0  0  0  0
  148.5986  139.9730  158.4808 H   0  0  0  0  0  0  0  0  0  0  0  0
  149.7268  138.5867  158.3090 H   0  0  0  0  0  0  0  0  0  0  0  0
  143.4663  136.1306  151.8404 H   0  0  0  0  0  0  0  0  0  0  0  0
  141.6583  134.5139  152.0370 H   0  0  0  0  0  0  0  0  0  0  0  0
  141.6609  135.5862  153.4293 H   0  0  0  0  0  0  0  0  0  0  0  0
  142.2653  133.9389  153.5838 H   0  0  0  0  0  0  0  0  0  0  0  0
  145.3056  134.6622  151.3082 H   0  0  0  0  0  0  0  0  0  0  0  0
  143.8298  133.7862  151.0006 H   0  0  0  0  0  0  0  0  0  0  0  0
  144.0886  132.7323  153.1291 H   0  0  0  0  0  0  0  0  0  0  0  0
  1  2  1  0  0  0  0
  1 28  1  0  0  0  0
  1 29  1  0  0  0  0
  1 30  1  0  0  0  0
  2  3  1  0  0  0  0
  2  4  1  0  0  0  0
  2 31  1  0  0  0  0
  3 32  1  0  0  0  0
  4  5  1  0  0  0  0
  4 33  1  0  0  0  0
  4 34  1  0  0  0  0
  5 27  1  0  0  0  0
  5  6  1  0  0  0  0
  5 56  1  0  0  0  0
  6  7  1  0  0  0  0
  6 35  1  0  0  0  0
  6 36  1  0  0  0  0
  7  8  1  0  0  0  0
  7 37  1  0  0  0  0
  7 38  1  0  0  0  0
  8  9  1  0  0  0  0
  8 25  1  0  0  0  0
  9 14  1  0  0  0  0
  9 10  2  0  0  0  0
 10 11  1  0  0  0  0
 11 12  2  0  0  0  0
 11 39  1  0  0  0  0
 12 13  1  0  0  0  0
 13 17  1  0  0  0  0
 13 14  2  0  0  0  0
 14 15  1  0  0  0  0
 15 16  2  0  0  0  0
 16 17  1  0  0  0  0
 16 40  1  0  0  0  0
 17 18  1  0  0  0  0
 18 19  1  0  0  0  0
 18 41  1  0  0  0  0
 18 42  1  0  0  0  0
 19 24  1  0  0  0  0
 19 20  1  0  0  0  0
 19 22  1  0  0  0  0
 20 21  1  0  0  0  0
 20 43  1  0  0  0  0
 20 44  1  0  0  0  0
 21 45  1  0  0  0  0
 22 23  1  0  0  0  0
 22 46  1  0  0  0  0
 22 47  1  0  0  0  0
 23 24  1  0  0  0  0
 24 48  1  0  0  0  0
 24 49  1  0  0  0  0
 25 26  1  0  0  0  0
 25 27  1  0  0  0  0
 25 50  1  0  0  0  0
 26 51  1  0  0  0  0
 26 52  1  0  0  0  0
 26 53  1  0  0  0  0
 27 54  1  0  0  0  0
 27 55  1  0  0  0  0
M  CHG  1   5   1
M  END
> <s_m_source_file>
AV-unprocessed.smi

> <i_m_source_file_index>
79

> <i_lp_mmshare_version>
43012

> <i_f3d_flags>
0

> <s_epik_input>
W0NIM11bQ0BIXShbT0hdKVtDSDJdTjFbQ0gyXVtDSDJdTihbQ0BASF0oW0NIM10pW0NIMl0xKWMobltjSF1uMiljKGMyMyluW2NIXW4zW0NIMl1DNChbQ0gyXVtPSF0pW0NIMl1PW0NIMl00

> <s_epik_cmdline>
J2VwaWtfcHl0aG9uJywgJy1waCcsICc3LjAnLCAnLXRuJywgJzgnLCAnLW1hJywgJzIwMCcsICctbWV0YWxfYmluZGluZycsICctaW1hZScsICc8aW5maWxlLm1hZT4nLCAnLW9tYWUnLCAnPG91dGZpbGUubWFlPic=

> <r_lp_tautomer_probability>
1

> <r_epik_Ionization_Penalty>
0.00515943

> <r_epik_Ionization_Penalty_Charging>
0.00509693

> <r_epik_Ionization_Penalty_Neutral>
6.25007e-05

> <r_epik_State_Penalty>
-0

> <r_epik_Charging_Adjusted_Penalty>
0.00509693

> <i_epik_Tot_Q>
1

> <i_epik_Tot_abs_Q>
1

> <r_epik_Metal_State_Penalty>
-0

> <b_epik_Metal_Only>
0

> <s_lp_Force_Field>
OPLS_2005

> <r_lp_Energy>
51.2807

> <b_lp_Chiralities_Consistent>
1

> <s_lp_Variant>
AV-unprocessed.smi:79-7

> <Gold.Version>
5.8.1

> <Gold.Id.Protein>
6NUR|6NUR_protein|mol2

> <Gold.PLP.Fitness>
48.8285

> <Gold.PLP.PLP>
-32.7094

> <Gold.PLP.part.hbond>
-5.0000

> <Gold.PLP.part.metal>
0.0000

> <Gold.PLP.part.buried>
-4.2042

> <Gold.PLP.part.nonpolar>
-27.8077

> <Gold.PLP.part.repulsive>
1.2636

> <Gold.PLP.ligand.clash>
0.0000

> <Gold.PLP.ligand.torsion>
0.9522

> <Gold.PLP.Chemscore.Hbond>
4.8780

> <Gold.PLP.Chemscore.CHOScore>
0.8205

> <Gold.PLP.Chemscore.Metal>
0.0000

> <Gold.Chemscore.Hbonds>
donor molecule, donor type, donor heavy atom, donor atom, acceptor molecule, acceptor atom, score
      L1  H     3    32       P1 10747  0.74
      L1  H     5    56       P1 10957  0.29
      L1  C    11    39       P1 10171  0.18

> <Gold.PLP.Chemscore.Internal.Correction>
0.9278

> <Gold.Rescore>
     Score         DG    S(hbond)    S(metal)    S(lipo)     H(rot)  DE(clash)    DE(int)     intcor
     13.47     -16.19       3.40        0.00      75.92       3.72       1.72       1.01       ----

> <Gold.Chemscore.Fitness>
13.4659

> <Gold.Chemscore.DG>
-16.1921

> <Gold.Chemscore.ZeroCoef>
-5.4800

> <Gold.Chemscore.Hbond>
3.4009

> <Gold.Chemscore.Metal>
0.0000

> <Gold.Chemscore.Lipo>
75.9208

> <Gold.Chemscore.Internal_Hbond>
0.0000

> <Gold.Chemscore.DEClash>
1.7174

> <Gold.Chemscore.DEInternal>
1.0088

> <Gold.Chemscore.Rot>
3.7226

> <Gold.Chemscore.Internal.Correction>
   9.000000E+99

> <Gold.Chemscore.Hbonds>
donor molecule, donor type, donor heavy atom, donor atom, acceptor molecule, acceptor atom, score
      L1  H     3    32       P1 10747  0.69
      L1  H     5    56       P1 10957  0.05

> <Gold.Chemscore.Hbond.Weighted>
-11.3591

> <Gold.Chemscore.Metal.Weighted>
-0.0000

> <Gold.Chemscore.Lipo.Weighted>
-8.8827

> <Gold.Chemscore.Internal_Hbond.Weighted>
0.0000

> <Gold.Chemscore.DEClash.Weighted>
1.7174

> <Gold.Chemscore.DEInternal.Weighted>
1.0088

> <Gold.Chemscore.Rot.Weighted>
9.5298

> <Gold.Chemscore.Internal.Correction.Weighted>
   9.000000E+99

> <Gold.Protein.RotatedTorsions>
[ 6907 6896 6895 6894 ] final  104.21 input  -60.11 | X-H torsion
[ 7974 7965 7964 7962 ] final    7.18 input  175.53 | X-H torsion
[ 8008 7997 7996 7995 ] final   60.06 input   59.86 | X-H torsion
[ 10167 10162 10161 10158 ] final  138.77 input  -65.29 | X-H torsion
[ 10718 10713 10712 10709 ] final   90.15 input   66.30 | X-H torsion
[ 10763 10752 10751 10750 ] final   27.59 input  -60.55 | X-H torsion
[ 11005 11000 10999 10996 ] final  -18.35 input  -57.11 | X-H torsion

> <Gold.Protein.ActiveResidues>
 VAL166  LYS551  ARG553  GLY616  TRP617  ASP618  TYR619  PRO620  LYS621  CYS622 
 ASP623  PHE694  ASN695  SER759  ASP760  ASP761  ALA762  ILE779  LEU786  VAL792 
 PHE793  MET794  SER795  GLU796  ALA797  LYS798  CYS799  TRP800  GLU811  SER814 

> <Gold.Protein.RotatedAtoms>
  152.5271  133.9711  159.7761 H   0  0  0  0  0  0  0  0  0  0  0  0  # atno 6907 bound_to 6896
  150.9982  133.6074  159.2705 H   0  0  0  0  0  0  0  0  0  0  0  0  # atno 6908 bound_to 6896
  151.3192  135.0820  159.9353 H   0  0  0  0  0  0  0  0  0  0  0  0  # atno 6909 bound_to 6896
  146.2429  140.0121  142.8405 H   0  0  0  0  0  0  0  0  0  0  0  0  # atno 7974 bound_to 7965
  155.5762  140.3490  155.4528 H   0  0  0  0  0  0  0  0  0  0  0  0  # atno 8008 bound_to 7997
  156.0407  140.1295  157.0184 H   0  0  0  0  0  0  0  0  0  0  0  0  # atno 8009 bound_to 7997
  154.4391  140.1024  156.6219 H   0  0  0  0  0  0  0  0  0  0  0  0  # atno 8010 bound_to 7997
  139.5100  144.6334  151.5759 H   0  0  0  0  0  0  0  0  0  0  0  0  # atno 10167 bound_to 10162
  157.6958  131.0360  150.3534 H   0  0  0  0  0  0  0  0  0  0  0  0  # atno 10718 bound_to 10713
  153.0546  135.6533  154.0609 H   0  0  0  0  0  0  0  0  0  0  0  0  # atno 10763 bound_to 10752
  154.0291  135.2913  155.3372 H   0  0  0  0  0  0  0  0  0  0  0  0  # atno 10764 bound_to 10752
  154.6853  135.5304  153.8386 H   0  0  0  0  0  0  0  0  0  0  0  0  # atno 10765 bound_to 10752
  140.8259  133.8033  155.9708 H   0  0  0  0  0  0  0  0  0  0  0  0  # atno 11005 bound_to 11000
  145.1318  140.9522  143.4540 LP  0  0  0  0  0  0  0  0  0  0  0  0  # atno 17320 bound_to 7965
  145.0380  139.3284  143.5991 LP  0  0  0  0  0  0  0  0  0  0  0  0  # atno 17321 bound_to 7965
  140.6074  143.9498  150.6429 LP  0  0  0  0  0  0  0  0  0  0  0  0  # atno 17342 bound_to 10162
  140.2730  143.3443  152.1221 LP  0  0  0  0  0  0  0  0  0  0  0  0  # atno 17343 bound_to 10162
  156.3980  130.3910  149.6981 LP  0  0  0  0  0  0  0  0  0  0  0  0  # atno 17370 bound_to 10713
  156.4308  130.7814  151.2834 LP  0  0  0  0  0  0  0  0  0  0  0  0  # atno 17371 bound_to 10713
  140.9049  134.2332  157.5020 LP  0  0  0  0  0  0  0  0  0  0  0  0  # atno 17394 bound_to 11000
  139.8706  134.9724  156.4770 LP  0  0  0  0  0  0  0  0  0  0  0  0  # atno 17395 bound_to 11000

$$$$
