#       Name:                AV-unprocessed.smi:1314
#       Creating user name   scv26
#       Creation time:       Fri Mar 27 05:02:31 2020


#       File generated by GOLD software.
#

@<TRIPOS>MOLECULE
AV-unprocessed.smi:1314
    46    47     1
SMALL
NO_CHARGES


@<TRIPOS>ATOM
      1 ****        -3.1775   3.8093   1.6733 C.3            1 S1                 0.0000
      2 ****        -3.1102   3.9561   0.1802 C.2            1 S1                 0.0000
      3 ****        -3.3716   5.1278  -0.3748 N.2            1 S1                 0.0000
      4 ****        -3.2222   4.9406  -1.7524 O.3            1 S1                 0.0000
      5 ****        -2.8736   3.6477  -1.9749 C.2            1 S1                 0.0000
      6 ****        -2.6610   3.2450  -3.3949 C.3            1 S1                 0.0000
      7 ****        -2.7889   2.9660  -0.7920 C.2            1 S1                 0.0000
      8 ****        -2.4374   1.5189  -0.5597 C.3            1 S1                 0.0000
      9 ****        -0.9171   1.3504  -0.5252 C.2            1 S1                 0.0000
     10 ****        -0.2510   1.9404   0.3257 O.2            1 S1                 0.0000
     11 ****        -0.3837   0.5462  -1.4580 N.am           1 S1                 0.0000
     12 ****         1.0384   0.2611  -1.6235 C.3            1 S1                 0.0000
     13 ****         1.4263  -1.1040  -1.0325 C.3            1 S1                 0.0000
     14 ****         1.4525  -1.0973   0.7838 S.3            1 S1                 0.0000
     15 ****         1.9114  -2.8228   1.1151 C.3            1 S1                 0.0000
     16 ****         1.8757  -3.1600   2.6051 C.3            1 S1                 0.0000
     17 ****         2.7417  -4.4153   2.7336 C.3            1 S1                 0.0000
     18 ****         3.7552  -4.3523   1.5806 C.3            1 S1                 0.0000
     19 ****         3.3494  -3.1564   0.7085 C.3            1 S1                 0.0000
     20 ****        -2.3111   3.2661   2.0508 H              1 S1                 0.0000
     21 ****        -4.0699   3.2582   1.9698 H              1 S1                 0.0000
     22 ****        -3.2025   4.7778   2.1741 H              1 S1                 0.0000
     23 ****        -1.7727   2.6204  -3.4905 H              1 S1                 0.0000
     24 ****        -2.5282   4.1178  -4.0348 H              1 S1                 0.0000
     25 ****        -3.5149   2.6789  -3.7666 H              1 S1                 0.0000
     26 ****        -2.8436   1.1582   0.3858 H              1 S1                 0.0000
     27 ****        -2.8666   0.8817  -1.3344 H              1 S1                 0.0000
     28 ****        -1.0130   0.1029  -2.1114 H              1 S1                 0.0000
     29 ****         1.2416   0.2553  -2.6946 H              1 S1                 0.0000
     30 ****         1.6601   1.0534  -1.2031 H              1 S1                 0.0000
     31 ****         0.7456  -1.8806  -1.3831 H              1 S1                 0.0000
     32 ****         2.4219  -1.3744  -1.3838 H              1 S1                 0.0000
     33 ****         1.2210  -3.4816   0.5864 H              1 S1                 0.0000
     34 ****         2.3240  -2.3496   3.1819 H              1 S1                 0.0000
     35 ****         0.8621  -3.3111   2.9776 H              1 S1                 0.0000
     36 ****         3.2274  -4.4761   3.7081 H              1 S1                 0.0000
     37 ****         2.1190  -5.3040   2.6234 H              1 S1                 0.0000
     38 ****         4.7746  -4.2337   1.9493 H              1 S1                 0.0000
     39 ****         3.7235  -5.2780   1.0047 H              1 S1                 0.0000
     40 ****         3.4419  -3.3729  -0.3561 H              1 S1                 0.0000
     41 ****         4.0028  -2.3114   0.9300 H              1 S1                 0.0000
     42 ****        -3.6242   5.9740   0.0944 LP             1 S1                 0.0000
     43 ****        -2.5074   5.5475  -2.1000 LP             1 S1                 0.0000
     44 ****        -4.0850   5.1421  -2.2160 LP             1 S1                 0.0000
     45 ****        -0.7036   2.5301   0.9946 LP             1 S1                 0.0000
     46 ****         0.7427   1.8300   0.3478 LP             1 S1                 0.0000
@<TRIPOS>BOND
    1    1    2 1     
    2    1   20 1     
    3    1   21 1     
    4    1   22 1     
    5    2    7 1     
    6    2    3 2     
    7    3    4 1     
    8    4    5 1     
    9    5    6 1     
   10    5    7 2     
   11    6   23 1     
   12    6   24 1     
   13    6   25 1     
   14    7    8 1     
   15    8    9 1     
   16    8   26 1     
   17    8   27 1     
   18    9   10 2     
   19    9   11 am    
   20   11   12 1     
   21   11   28 1     
   22   12   13 1     
   23   12   29 1     
   24   12   30 1     
   25   13   14 1     
   26   13   31 1     
   27   13   32 1     
   28   14   15 1     
   29   15   19 1     
   30   15   16 1     
   31   15   33 1     
   32   16   17 1     
   33   16   34 1     
   34   16   35 1     
   35   17   18 1     
   36   17   36 1     
   37   17   37 1     
   38   18   19 1     
   39   18   38 1     
   40   18   39 1     
   41   19   40 1     
   42   19   41 1     
   43    3   42 1     
   44    4   43 1     
   45    4   44 1     
   46   10   45 1     
   47   10   46 1     
@<TRIPOS>SUBSTRUCTURE
      1 S1             1
@<TRIPOS>SET
LONE_PAIRS      STATIC     ATOMS    <user>   **** ""
5 42 43 44 45 46
DONOR_HYDROGENS      STATIC     ATOMS    <user>   **** ""
1 28
ATOM$BLUE        STATIC     ATOMS    COLORGROUP SYSTEM
5 42 43 44 45 46
ATOM$RED        STATIC     ATOMS    COLORGROUP SYSTEM
1 28
