AV-unprocessed.smi:1593|AV-procd|sdf|6411|dock4
  -GOLD-   22720 7 43D 1   1.00000     0.00000
 Structure written by MMmdl.
 35 36  0  0  0  0  0  0  0  0  2 V2000
  153.0073  142.7814  162.7533 C   0  0  0  0  0  0  0  0  0  0  0  0
  153.2689  141.8046  161.6582 C   0  0  0  0  0  0  0  0  0  0  0  0
  152.6851  141.5982  160.4406 C   0  0  0  0  0  0  0  0  0  0  0  0
  153.4183  140.5014  159.9104 C   0  0  0  0  0  0  0  0  0  0  0  0
  153.2284  139.9281  158.7121 N   0  5  0  0  0  0  0  0  0  0  0  0
  152.0309  140.0280  158.0898 C   0  0  0  0  0  0  0  0  0  0  0  0
  150.9808  140.4436  158.5852 O   0  0  0  0  0  0  0  0  0  0  0  0
  152.0496  139.6202  156.8141 N   0  0  0  0  0  0  0  0  0  0  0  0
  150.8985  139.5990  155.9199 C   0  0  0  0  0  0  0  0  0  0  0  0
  150.2840  141.0029  155.7780 C   0  0  0  0  0  0  0  0  0  0  0  0
  148.8628  141.0357  155.4292 N   0  0  0  0  0  0  0  0  0  0  0  0
  148.0555  141.7521  156.4140 C   0  0  0  0  0  0  0  0  0  0  0  0
  146.5694  141.7923  156.0166 C   0  0  0  0  0  0  0  0  0  0  0  0
  146.4333  142.3730  154.7233 O   0  0  0  0  0  0  0  0  0  0  0  0
  147.1692  141.6700  153.7275 C   0  0  0  0  0  0  0  0  0  0  0  0
  148.6572  141.6368  154.1163 C   0  0  0  0  0  0  0  0  0  0  0  0
  154.3742  140.0906  160.7270 N   0  0  0  0  0  0  0  0  0  0  0  0
  154.2808  140.9169  161.8532 O   0  0  0  0  0  0  0  0  0  0  0  0
  153.0360  143.8028  162.3737 H   0  0  0  0  0  0  0  0  0  0  0  0
  153.7522  142.6945  163.5446 H   0  0  0  0  0  0  0  0  0  0  0  0
  152.0250  142.6109  163.1937 H   0  0  0  0  0  0  0  0  0  0  0  0
  151.8621  142.1407  160.0002 H   0  0  0  0  0  0  0  0  0  0  0  0
  152.9245  139.2789  156.4435 H   0  0  0  0  0  0  0  0  0  0  0  0
  151.1862  139.1994  154.9468 H   0  0  0  0  0  0  0  0  0  0  0  0
  150.1519  138.9155  156.3261 H   0  0  0  0  0  0  0  0  0  0  0  0
  150.4465  141.5594  156.7021 H   0  0  0  0  0  0  0  0  0  0  0  0
  150.8477  141.5331  155.0094 H   0  0  0  0  0  0  0  0  0  0  0  0
  148.1397  141.2764  157.3908 H   0  0  0  0  0  0  0  0  0  0  0  0
  148.4277  142.7715  156.5273 H   0  0  0  0  0  0  0  0  0  0  0  0
  146.1429  140.7881  156.0186 H   0  0  0  0  0  0  0  0  0  0  0  0
  146.0007  142.3830  156.7348 H   0  0  0  0  0  0  0  0  0  0  0  0
  146.7754  140.6580  153.6198 H   0  0  0  0  0  0  0  0  0  0  0  0
  147.0382  142.1694  152.7676 H   0  0  0  0  0  0  0  0  0  0  0  0
  149.0543  142.6530  154.1088 H   0  0  0  0  0  0  0  0  0  0  0  0
  149.2132  141.0782  153.3625 H   0  0  0  0  0  0  0  0  0  0  0  0
  1  2  1  0  0  0  0
  1 19  1  0  0  0  0
  1 20  1  0  0  0  0
  1 21  1  0  0  0  0
  2 18  1  0  0  0  0
  2  3  2  0  0  0  0
  3  4  1  0  0  0  0
  3 22  1  0  0  0  0
  4  5  1  0  0  0  0
  4 17  2  0  0  0  0
  5  6  1  0  0  0  0
  6  7  2  0  0  0  0
  6  8  1  0  0  0  0
  8  9  1  0  0  0  0
  8 23  1  0  0  0  0
  9 10  1  0  0  0  0
  9 24  1  0  0  0  0
  9 25  1  0  0  0  0
 10 11  1  0  0  0  0
 10 26  1  0  0  0  0
 10 27  1  0  0  0  0
 11 16  1  0  0  0  0
 11 12  1  0  0  0  0
 12 13  1  0  0  0  0
 12 28  1  0  0  0  0
 12 29  1  0  0  0  0
 13 14  1  0  0  0  0
 13 30  1  0  0  0  0
 13 31  1  0  0  0  0
 14 15  1  0  0  0  0
 15 16  1  0  0  0  0
 15 32  1  0  0  0  0
 15 33  1  0  0  0  0
 16 34  1  0  0  0  0
 16 35  1  0  0  0  0
 17 18  1  0  0  0  0
M  CHG  1   5  -1
M  END
> <s_m_source_file>
AV-unprocessed.smi

> <i_m_source_file_index>
1593

> <i_lp_mmshare_version>
43012

> <i_f3d_flags>
0

> <s_epik_input>
W0NIM11jMVtjSF1jKG5vMSlbTkhdQyg9TylbTkhdW0NIMl1bQ0gyXU4yW0NIMl1bQ0gyXU9bQ0gyXVtDSDJdMg==

> <s_epik_cmdline>
J2VwaWtfcHl0aG9uJywgJy1waCcsICc3LjAnLCAnLXRuJywgJzgnLCAnLW1hJywgJzIwMCcsICctbWV0YWxfYmluZGluZycsICctaW1hZScsICc8aW5maWxlLm1hZT4nLCAnLW9tYWUnLCAnPG91dGZpbGUubWFlPic=

> <r_epik_Ionization_Penalty>
6.88366

> <r_epik_Ionization_Penalty_Charging>
6.57198

> <r_epik_Ionization_Penalty_Neutral>
0.311678

> <r_epik_State_Penalty>
6.77619

> <r_epik_Charging_Adjusted_Penalty>
13.3482

> <i_epik_Tot_Q>
-1

> <i_epik_Tot_abs_Q>
1

> <r_epik_Metal_State_Penalty>
2.70533

> <b_epik_Metal_Only>
1

> <s_lp_Force_Field>
OPLS_2005

> <r_lp_Energy>
18.6523

> <b_lp_Chiralities_Consistent>
1

> <s_lp_Variant>
AV-unprocessed.smi:1593-3

> <Gold.Version>
5.8.1

> <Gold.Id.Protein>
6NUR|6NUR_protein|mol2

> <Gold.PLP.Fitness>
37.2181

> <Gold.PLP.PLP>
-33.4921

> <Gold.PLP.part.hbond>
-2.0000

> <Gold.PLP.part.metal>
0.0000

> <Gold.PLP.part.buried>
-3.8373

> <Gold.PLP.part.nonpolar>
-27.3649

> <Gold.PLP.part.repulsive>
0.4005

> <Gold.PLP.ligand.clash>
0.0000

> <Gold.PLP.ligand.torsion>
1.0316

> <Gold.PLP.Chemscore.Hbond>
1.9200

> <Gold.PLP.Chemscore.CHOScore>
0.0000

> <Gold.PLP.Chemscore.Metal>
0.0000

> <Gold.Chemscore.Hbonds>
donor molecule, donor type, donor heavy atom, donor atom, acceptor molecule, acceptor atom, score
      P1  H  7997  8009       L1     5  1.37

> <Gold.PLP.Chemscore.Internal.Correction>
0.0292

> <Gold.Rescore>
     Score         DG    S(hbond)    S(metal)    S(lipo)     H(rot)  DE(clash)    DE(int)     intcor
      8.49     -12.14       0.83        0.00      67.56       1.57       0.19       3.46       ----

> <Gold.Chemscore.Fitness>
8.4899

> <Gold.Chemscore.DG>
-12.1401

> <Gold.Chemscore.ZeroCoef>
-5.4800

> <Gold.Chemscore.Hbond>
0.8330

> <Gold.Chemscore.Metal>
0.0000

> <Gold.Chemscore.Lipo>
67.5634

> <Gold.Chemscore.Internal_Hbond>
0.0000

> <Gold.Chemscore.DEClash>
0.1883

> <Gold.Chemscore.DEInternal>
3.4619

> <Gold.Chemscore.Rot>
1.5731

> <Gold.Chemscore.Internal.Correction>
   9.000000E+99

> <Gold.Chemscore.Hbonds>
donor molecule, donor type, donor heavy atom, donor atom, acceptor molecule, acceptor atom, score
      P1  H  7997  8009       L1     5  0.30

> <Gold.Chemscore.Hbond.Weighted>
-2.7823

> <Gold.Chemscore.Metal.Weighted>
-0.0000

> <Gold.Chemscore.Lipo.Weighted>
-7.9049

> <Gold.Chemscore.Internal_Hbond.Weighted>
0.0000

> <Gold.Chemscore.DEClash.Weighted>
0.1883

> <Gold.Chemscore.DEInternal.Weighted>
3.4619

> <Gold.Chemscore.Rot.Weighted>
4.0271

> <Gold.Chemscore.Internal.Correction.Weighted>
   9.000000E+99

> <Gold.Protein.RotatedTorsions>
[ 6907 6896 6895 6894 ] final -130.95 input  -60.11 | X-H torsion
[ 7974 7965 7964 7962 ] final -142.86 input  175.53 | X-H torsion
[ 8008 7997 7996 7995 ] final  148.37 input   59.86 | X-H torsion
[ 10167 10162 10161 10158 ] final  163.06 input  -65.29 | X-H torsion
[ 10718 10713 10712 10709 ] final  166.85 input   66.30 | X-H torsion
[ 10763 10752 10751 10750 ] final -154.08 input  -60.55 | X-H torsion
[ 11005 11000 10999 10996 ] final  -81.71 input  -57.11 | X-H torsion

> <Gold.Protein.ActiveResidues>
 VAL166  LYS551  ARG553  GLY616  TRP617  ASP618  TYR619  PRO620  LYS621  CYS622 
 ASP623  PHE694  ASN695  SER759  ASP760  ASP761  ALA762  ILE779  LEU786  VAL792 
 PHE793  MET794  SER795  GLU796  ALA797  LYS798  CYS799  TRP800  GLU811  SER814 

> <Gold.Protein.RotatedAtoms>
  150.9454  133.6609  159.2782 H   0  0  0  0  0  0  0  0  0  0  0  0  # atno 6907 bound_to 6896
  151.3983  135.0966  159.9557 H   0  0  0  0  0  0  0  0  0  0  0  0  # atno 6908 bound_to 6896
  152.5087  133.8954  159.7469 H   0  0  0  0  0  0  0  0  0  0  0  0  # atno 6909 bound_to 6896
  144.8412  140.5906  143.5451 H   0  0  0  0  0  0  0  0  0  0  0  0  # atno 7974 bound_to 7965
  156.2793  140.2130  156.5688 H   0  0  0  0  0  0  0  0  0  0  0  0  # atno 8008 bound_to 7997
  154.7153  140.0508  157.0611 H   0  0  0  0  0  0  0  0  0  0  0  0  # atno 8009 bound_to 7997
  155.0551  140.3160  155.4682 H   0  0  0  0  0  0  0  0  0  0  0  0  # atno 8010 bound_to 7997
  139.4869  144.4375  151.8994 H   0  0  0  0  0  0  0  0  0  0  0  0  # atno 10167 bound_to 10162
  157.0599  131.0337  151.2650 H   0  0  0  0  0  0  0  0  0  0  0  0  # atno 10718 bound_to 10713
  154.7884  135.3198  154.7834 H   0  0  0  0  0  0  0  0  0  0  0  0  # atno 10763 bound_to 10752
  153.8529  135.6860  153.4795 H   0  0  0  0  0  0  0  0  0  0  0  0  # atno 10764 bound_to 10752
  153.1544  135.4686  154.9622 H   0  0  0  0  0  0  0  0  0  0  0  0  # atno 10765 bound_to 10752
  141.1665  133.7209  156.8463 H   0  0  0  0  0  0  0  0  0  0  0  0  # atno 11005 bound_to 11000
  145.4690  139.1505  143.3825 LP  0  0  0  0  0  0  0  0  0  0  0  0  # atno 17320 bound_to 7965
  146.2704  140.4822  142.8817 LP  0  0  0  0  0  0  0  0  0  0  0  0  # atno 17321 bound_to 7965
  140.3825  144.2718  150.5907 LP  0  0  0  0  0  0  0  0  0  0  0  0  # atno 17342 bound_to 10162
  140.5220  143.2263  151.8373 LP  0  0  0  0  0  0  0  0  0  0  0  0  # atno 17343 bound_to 10162
  157.4963  130.7852  149.7558 LP  0  0  0  0  0  0  0  0  0  0  0  0  # atno 17370 bound_to 10713
  155.9981  130.3896  150.2713 LP  0  0  0  0  0  0  0  0  0  0  0  0  # atno 17371 bound_to 10713
  140.1947  134.8940  157.3101 LP  0  0  0  0  0  0  0  0  0  0  0  0  # atno 17394 bound_to 11000
  140.2251  134.3976  155.7547 LP  0  0  0  0  0  0  0  0  0  0  0  0  # atno 17395 bound_to 11000

$$$$
