#       Name:                AV-unprocessed.smi:2156
#       Creating user name   scv26
#       Creation time:       Fri Mar 27 11:56:11 2020


#       File generated by GOLD software.
#

@<TRIPOS>MOLECULE
AV-unprocessed.smi:2156
    40    40     1
SMALL
NO_CHARGES


@<TRIPOS>ATOM
      1 ****        -3.2491  -2.6066   2.0625 C.3            1 S1                 0.0000
      2 ****        -2.0678  -1.6869   1.7354 C.3            1 S1                 0.0000
      3 ****        -0.7090  -2.3436   2.0353 C.3            1 S1                 0.0000
      4 ****         0.5026  -1.4201   1.7968 C.3            1 S1                 0.0000
      5 ****         1.8147  -2.0878   2.2307 C.3            1 S1                 0.0000
      6 ****         0.6025  -1.0460   0.3869 N.am           1 S1                 0.0000
      7 ****         0.3293   0.1621  -0.1309 C.2            1 S1                 0.0000
      8 ****        -0.0696   1.1133   0.5424 O.2            1 S1                 0.0000
      9 ****         0.5104   0.2983  -1.6493 C.3            1 S1                 0.0000
     10 ****         0.7052   1.6899  -2.0814 N.am           1 S1                 0.0000
     11 ****        -0.3653   2.4303  -2.5628 C.2            1 S1                 0.0000
     12 ****        -0.2601   3.7195  -2.9636 C.2            1 S1                 0.0000
     13 ****         1.0244   4.4089  -2.9043 C.2            1 S1                 0.0000
     14 ****         1.2210   5.5731  -3.2455 O.2            1 S1                 0.0000
     15 ****         2.0761   3.6314  -2.4120 N.am           1 S1                 0.0000
     16 ****         1.9741   2.3031  -1.9956 C.2            1 S1                 0.0000
     17 ****         2.9657   1.7100  -1.5721 O.2            1 S1                 0.0000
     18 ****         2.9846   4.0672  -2.3495 H              1 S1                 0.0000
     19 ****        -4.1965  -2.1160   1.8385 H              1 S1                 0.0000
     20 ****        -3.2568  -2.8781   3.1185 H              1 S1                 0.0000
     21 ****        -3.2046  -3.5266   1.4792 H              1 S1                 0.0000
     22 ****        -2.1234  -1.4042   0.6840 H              1 S1                 0.0000
     23 ****        -2.1621  -0.7638   2.3085 H              1 S1                 0.0000
     24 ****        -0.7022  -2.6687   3.0765 H              1 S1                 0.0000
     25 ****        -0.6033  -3.2491   1.4361 H              1 S1                 0.0000
     26 ****         0.3767  -0.5284   2.4136 H              1 S1                 0.0000
     27 ****         1.7896  -2.3516   3.2883 H              1 S1                 0.0000
     28 ****         2.6636  -1.4202   2.0797 H              1 S1                 0.0000
     29 ****         2.0035  -3.0005   1.6645 H              1 S1                 0.0000
     30 ****         0.9143  -1.7665  -0.2481 H              1 S1                 0.0000
     31 ****         1.3485  -0.3189  -1.9796 H              1 S1                 0.0000
     32 ****        -0.3689  -0.1282  -2.1344 H              1 S1                 0.0000
     33 ****        -1.3376   1.9617  -2.6194 H              1 S1                 0.0000
     34 ****        -1.1315   4.2439  -3.3283 H              1 S1                 0.0000
     35 ****        -0.2052   1.0067   1.5274 LP             1 S1                 0.0000
     36 ****        -0.2578   1.9921   0.1040 LP             1 S1                 0.0000
     37 ****         0.4653   6.1254  -3.5974 LP             1 S1                 0.0000
     38 ****         2.1367   5.9680  -3.1713 LP             1 S1                 0.0000
     39 ****         2.8896   0.7587  -1.2733 LP             1 S1                 0.0000
     40 ****         3.8476   2.1793  -1.5268 LP             1 S1                 0.0000
@<TRIPOS>BOND
    1    1    2 1     
    2    1   19 1     
    3    1   20 1     
    4    1   21 1     
    5    2    3 1     
    6    2   22 1     
    7    2   23 1     
    8    3    4 1     
    9    3   24 1     
   10    3   25 1     
   11    4    5 1     
   12    4    6 1     
   13    4   26 1     
   14    5   27 1     
   15    5   28 1     
   16    5   29 1     
   17    6    7 am    
   18    6   30 1     
   19    7    8 2     
   20    7    9 1     
   21    9   10 1     
   22    9   31 1     
   23    9   32 1     
   24   10   16 1     
   25   10   11 1     
   26   11   12 2     
   27   11   33 1     
   28   12   13 1     
   29   12   34 1     
   30   13   14 2     
   31   13   15 1     
   32   15   18 1     
   33   15   16 1     
   34   16   17 2     
   35    8   35 1     
   36    8   36 1     
   37   14   37 1     
   38   14   38 1     
   39   17   39 1     
   40   17   40 1     
@<TRIPOS>SUBSTRUCTURE
      1 S1             1
@<TRIPOS>SET
LONE_PAIRS      STATIC     ATOMS    <user>   **** ""
6 35 36 37 38 39 40
DONOR_HYDROGENS      STATIC     ATOMS    <user>   **** ""
2 30 18
ATOM$BLUE        STATIC     ATOMS    COLORGROUP SYSTEM
6 35 36 37 38 39 40
ATOM$RED        STATIC     ATOMS    COLORGROUP SYSTEM
2 30 18
