#       Name:                AV-unprocessed.smi:1840
#       Creating user name   scv26
#       Creation time:       Fri Mar 27 09:19:04 2020


#       File generated by GOLD software.
#

@<TRIPOS>MOLECULE
AV-unprocessed.smi:1840
    46    47     1
SMALL
NO_CHARGES


@<TRIPOS>ATOM
      1 ****        -3.7536  -1.3207   1.5882 C.3            1 S1                 0.0000
      2 ****        -3.0823  -0.5691   0.4308 C.3            1 S1                 0.0000
      3 ****        -3.3901  -1.2358  -0.9273 C.3            1 S1                 0.0000
      4 ****        -2.8967  -0.4656  -2.0555 N.pl3          1 S1                 0.0000
      5 ****        -1.7626  -0.6807  -2.8106 C.2            1 S1                 0.0000
      6 ****        -1.7020   0.3137  -3.7440 C.2            1 S1                 0.0000
      7 ****        -2.8608   1.0962  -3.4794 C.2            1 S1                 0.0000
      8 ****        -3.5759   0.6251  -2.4708 N.2            1 S1                 0.0000
      9 ****        -1.6400  -0.5225   0.6676 N.am           1 S1                 0.0000
     10 ****        -0.8467   0.5355   0.4458 C.2            1 S1                 0.0000
     11 ****        -1.2474   1.6343   0.0618 O.2            1 S1                 0.0000
     12 ****         0.4406   0.2387   0.6669 N.am           1 S1                 0.0000
     13 ****         1.5730   1.1407   0.4530 C.3            1 S1                 0.0000
     14 ****         1.9781   1.8203   1.7769 C.3            1 S1                 0.0000
     15 ****         2.6256   0.8315   2.7617 C.3            1 S1                 0.0000
     16 ****         3.8202   0.1105   2.1194 C.3            1 S1                 0.0000
     17 ****         3.4145  -0.5916   0.8135 C.3            1 S1                 0.0000
     18 ****         2.7698   0.3926  -0.1847 C.3            1 S1                 0.0000
     19 ****         2.4008  -0.3018  -1.5076 C.3            1 S1                 0.0000
     20 ****        -4.8363  -1.3473   1.4612 H              1 S1                 0.0000
     21 ****        -3.5469  -0.8365   2.5432 H              1 S1                 0.0000
     22 ****        -3.4009  -2.3507   1.6522 H              1 S1                 0.0000
     23 ****        -3.4910   0.4432   0.4248 H              1 S1                 0.0000
     24 ****        -2.9561  -2.2357  -0.9709 H              1 S1                 0.0000
     25 ****        -4.4672  -1.3601  -1.0486 H              1 S1                 0.0000
     26 ****        -1.0960  -1.5081  -2.6163 H              1 S1                 0.0000
     27 ****        -0.9442   0.4617  -4.4989 H              1 S1                 0.0000
     28 ****        -3.2012   1.9868  -3.9869 H              1 S1                 0.0000
     29 ****        -1.2076  -1.3766   0.9874 H              1 S1                 0.0000
     30 ****         0.6629  -0.6934   0.9837 H              1 S1                 0.0000
     31 ****         1.2713   1.9238  -0.2452 H              1 S1                 0.0000
     32 ****         2.6852   2.6230   1.5637 H              1 S1                 0.0000
     33 ****         1.1122   2.2961   2.2390 H              1 S1                 0.0000
     34 ****         2.9500   1.3606   3.6582 H              1 S1                 0.0000
     35 ****         1.8875   0.0983   3.0888 H              1 S1                 0.0000
     36 ****         4.6138   0.8303   1.9154 H              1 S1                 0.0000
     37 ****         4.2349  -0.6161   2.8187 H              1 S1                 0.0000
     38 ****         4.2932  -1.0546   0.3631 H              1 S1                 0.0000
     39 ****         2.7218  -1.4041   1.0366 H              1 S1                 0.0000
     40 ****         3.5230   1.1444  -0.4260 H              1 S1                 0.0000
     41 ****         1.6890  -1.1134  -1.3551 H              1 S1                 0.0000
     42 ****         3.2844  -0.7260  -1.9848 H              1 S1                 0.0000
     43 ****         1.9547   0.4035  -2.2093 H              1 S1                 0.0000
     44 ****        -4.4280   0.9939  -2.0994 LP             1 S1                 0.0000
     45 ****        -2.2225   1.7806  -0.1050 LP             1 S1                 0.0000
     46 ****        -0.5978   2.3806  -0.0834 LP             1 S1                 0.0000
@<TRIPOS>BOND
    1    1    2 1     
    2    1   20 1     
    3    1   21 1     
    4    1   22 1     
    5    2    3 1     
    6    2    9 1     
    7    2   23 1     
    8    3    4 1     
    9    3   24 1     
   10    3   25 1     
   11    4    8 1     
   12    4    5 1     
   13    5    6 2     
   14    5   26 1     
   15    6    7 1     
   16    6   27 1     
   17    7    8 2     
   18    7   28 1     
   19    9   10 am    
   20    9   29 1     
   21   10   11 2     
   22   10   12 am    
   23   12   13 1     
   24   12   30 1     
   25   13   18 1     
   26   13   14 1     
   27   13   31 1     
   28   14   15 1     
   29   14   32 1     
   30   14   33 1     
   31   15   16 1     
   32   15   34 1     
   33   15   35 1     
   34   16   17 1     
   35   16   36 1     
   36   16   37 1     
   37   17   18 1     
   38   17   38 1     
   39   17   39 1     
   40   18   19 1     
   41   18   40 1     
   42   19   41 1     
   43   19   42 1     
   44   19   43 1     
   45    8   44 1     
   46   11   45 1     
   47   11   46 1     
@<TRIPOS>SUBSTRUCTURE
      1 S1             1
@<TRIPOS>SET
LONE_PAIRS      STATIC     ATOMS    <user>   **** ""
3 44 45 46
DONOR_HYDROGENS      STATIC     ATOMS    <user>   **** ""
2 29 30
ATOM$BLUE        STATIC     ATOMS    COLORGROUP SYSTEM
3 44 45 46
ATOM$RED        STATIC     ATOMS    COLORGROUP SYSTEM
2 29 30
