#       Name:                AV-unprocessed.smi:2510
#       Creating user name   scv26
#       Creation time:       Fri Mar 27 13:51:37 2020


#       File generated by GOLD software.
#

@<TRIPOS>MOLECULE
AV-unprocessed.smi:2510
    53    54     1
SMALL
NO_CHARGES


@<TRIPOS>ATOM
      1 ****         0.3035  -1.9117   2.6801 C.3            1 S1                 0.0000
      2 ****        -0.7640  -2.1019   1.5865 C.3            1 S1                 0.0000
      3 ****        -1.5377  -0.8303   1.1301 C.3            1 S1                 0.0000
      4 ****        -2.0984  -0.0919   2.3610 C.3            1 S1                 0.0000
      5 ****        -3.1268  -0.8919   3.1761 C.3            1 S1                 0.0000
      6 ****        -0.8620   0.0866   0.0708 C.3            1 S1                 0.0000
      7 ****         0.5948   0.0359   0.0270 N.am           1 S1                 0.0000
      8 ****         1.4040   0.9563   0.5722 C.2            1 S1                 0.0000
      9 ****         0.9954   1.9398   1.1892 O.2            1 S1                 0.0000
     10 ****         2.9060   0.7302   0.4017 C.3            1 S1                 0.0000
     11 ****         3.4291   1.4962  -0.7701 C.2            1 S1                 0.0000
     12 ****         3.9338   2.7628  -0.8669 C.2            1 S1                 0.0000
     13 ****         4.2590   2.9094  -2.2472 C.2            1 S1                 0.0000
     14 ****         4.8482   4.1044  -2.9375 C.3            1 S1                 0.0000
     15 ****         3.9802   1.8220  -2.9505 N.2            1 S1                 0.0000
     16 ****         3.4780   0.9671  -2.0404 N.pl3          1 S1                 0.0000
     17 ****        -1.5072  -0.7409  -1.0461 C.3            1 S1                 0.0000
     18 ****        -1.8967  -0.0420  -2.3423 C.3            1 S1                 0.0000
     19 ****        -2.5792  -1.0722   0.0033 C.3            1 S1                 0.0000
     20 ****        -3.0610  -2.4080  -0.0265 O.3            1 S1                 0.0000
     21 ****        -4.0211  -2.6357  -1.0427 C.3            1 S1                 0.0000
     22 ****         3.1744   0.0388  -2.2979 H              1 S1                 0.0000
     23 ****         0.8441  -2.8438   2.8449 H              1 S1                 0.0000
     24 ****        -0.1388  -1.6312   3.6353 H              1 S1                 0.0000
     25 ****         1.0398  -1.1558   2.4177 H              1 S1                 0.0000
     26 ****        -0.2759  -2.5676   0.7306 H              1 S1                 0.0000
     27 ****        -1.4665  -2.8571   1.9397 H              1 S1                 0.0000
     28 ****        -1.2932   0.2459   3.0126 H              1 S1                 0.0000
     29 ****        -2.5868   0.8278   2.0371 H              1 S1                 0.0000
     30 ****        -3.5379  -0.2800   3.9791 H              1 S1                 0.0000
     31 ****        -2.6829  -1.7739   3.6368 H              1 S1                 0.0000
     32 ****        -3.9588  -1.2202   2.5528 H              1 S1                 0.0000
     33 ****        -1.2659   1.1024   0.0830 H              1 S1                 0.0000
     34 ****         1.0127  -0.7452  -0.4571 H              1 S1                 0.0000
     35 ****         3.4183   1.0466   1.3109 H              1 S1                 0.0000
     36 ****         3.1135  -0.3345   0.2844 H              1 S1                 0.0000
     37 ****         4.0510   3.4807  -0.0686 H              1 S1                 0.0000
     38 ****         5.2244   4.8297  -2.2159 H              1 S1                 0.0000
     39 ****         4.1033   4.6067  -3.5548 H              1 S1                 0.0000
     40 ****         5.6794   3.8189  -3.5829 H              1 S1                 0.0000
     41 ****        -0.9098  -1.6305  -1.2541 H              1 S1                 0.0000
     42 ****        -2.5589   0.8037  -2.1556 H              1 S1                 0.0000
     43 ****        -2.4099  -0.7197  -3.0240 H              1 S1                 0.0000
     44 ****        -1.0168   0.3385  -2.8613 H              1 S1                 0.0000
     45 ****        -3.3853  -0.3343   0.0260 H              1 S1                 0.0000
     46 ****        -4.3876  -3.6597  -0.9729 H              1 S1                 0.0000
     47 ****        -3.5893  -2.5042  -2.0344 H              1 S1                 0.0000
     48 ****        -4.8749  -1.9652  -0.9378 H              1 S1                 0.0000
     49 ****         0.0128   2.0846   1.3050 LP             1 S1                 0.0000
     50 ****         1.6461   2.5940   1.5747 LP             1 S1                 0.0000
     51 ****         4.1122   1.6713  -3.9303 LP             1 S1                 0.0000
     52 ****        -3.4801  -2.6139   0.8578 LP             1 S1                 0.0000
     53 ****        -2.2861  -3.0214  -0.1790 LP             1 S1                 0.0000
@<TRIPOS>BOND
    1    1    2 1     
    2    1   23 1     
    3    1   24 1     
    4    1   25 1     
    5    2    3 1     
    6    2   26 1     
    7    2   27 1     
    8    3   19 1     
    9    3    4 1     
   10    3    6 1     
   11    4    5 1     
   12    4   28 1     
   13    4   29 1     
   14    5   30 1     
   15    5   31 1     
   16    5   32 1     
   17    6    7 1     
   18    6   17 1     
   19    6   33 1     
   20    7    8 am    
   21    7   34 1     
   22    8    9 2     
   23    8   10 1     
   24   10   35 1     
   25   10   36 1     
   26   10   11 1     
   27   11   16 1     
   28   11   12 2     
   29   12   13 1     
   30   12   37 1     
   31   13   14 1     
   32   13   15 2     
   33   14   38 1     
   34   14   39 1     
   35   14   40 1     
   36   15   16 1     
   37   16   22 1     
   38   17   18 1     
   39   17   19 1     
   40   17   41 1     
   41   18   42 1     
   42   18   43 1     
   43   18   44 1     
   44   19   20 1     
   45   19   45 1     
   46   20   21 1     
   47   21   46 1     
   48   21   47 1     
   49   21   48 1     
   50    9   49 1     
   51    9   50 1     
   52   15   51 1     
   53   20   52 1     
   54   20   53 1     
@<TRIPOS>SUBSTRUCTURE
      1 S1             1
@<TRIPOS>SET
LONE_PAIRS      STATIC     ATOMS    <user>   **** ""
5 49 50 51 52 53
DONOR_HYDROGENS      STATIC     ATOMS    <user>   **** ""
2 34 22
ATOM$BLUE        STATIC     ATOMS    COLORGROUP SYSTEM
5 49 50 51 52 53
ATOM$RED        STATIC     ATOMS    COLORGROUP SYSTEM
2 34 22
