AV-unprocessed.smi:2514|AV-procd|sdf|9893|dock2
  -GOLD-   2272013533D 1   1.00000     0.00000
 Structure written by MMmdl.
 25 26  0  0  0  0  0  0  0  0  2 V2000
  144.0549  132.6929  148.3955 C   0  0  0  0  0  0  0  0  0  0  0  0
  144.0352  132.4699  149.9124 C   0  0  2  0  0  0  0  0  0  0  0  0
  142.7072  132.2343  150.3360 O   0  0  0  0  0  0  0  0  0  0  0  0
  144.5431  133.6629  150.6744 C   0  0  0  0  0  0  0  0  0  0  0  0
  144.0922  134.9545  150.6974 C   0  0  0  0  0  0  0  0  0  0  0  0
  144.9739  135.5866  151.5479 N   0  0  0  0  0  0  0  0  0  0  0  0
  144.9331  136.9457  151.9983 C   0  0  0  0  0  0  0  0  0  0  0  0
  146.1975  137.8024  152.0056 C   0  0  0  0  0  0  0  0  0  0  0  0
  145.6699  138.4647  153.1921 N   0  3  0  0  0  0  0  0  0  0  0  0
  144.8560  137.2917  153.4857 C   0  0  0  0  0  0  0  0  0  0  0  0
  145.8852  134.7233  152.0533 N   0  0  0  0  0  0  0  0  0  0  0  0
  145.6530  133.5679  151.5148 N   0  0  0  0  0  0  0  0  0  0  0  0
  145.0692  132.8776  148.0408 H   0  0  0  0  0  0  0  0  0  0  0  0
  143.4423  133.5494  148.1119 H   0  0  0  0  0  0  0  0  0  0  0  0
  143.6736  131.8192  147.8659 H   0  0  0  0  0  0  0  0  0  0  0  0
  144.6273  131.5867  150.1552 H   0  0  0  0  0  0  0  0  0  0  0  0
  142.1675  132.9503  150.0376 H   0  0  0  0  0  0  0  0  0  0  0  0
  143.2677  135.4488  150.2049 H   0  0  0  0  0  0  0  0  0  0  0  0
  144.1316  137.4347  151.4401 H   0  0  0  0  0  0  0  0  0  0  0  0
  147.1069  137.2374  152.2196 H   0  0  0  0  0  0  0  0  0  0  0  0
  146.3136  138.4598  151.1434 H   0  0  0  0  0  0  0  0  0  0  0  0
  146.3668  138.6688  153.8943 H   0  0  0  0  0  0  0  0  0  0  0  0
  143.8565  137.5245  153.8538 H   0  0  0  0  0  0  0  0  0  0  0  0
  145.3781  136.5818  154.1304 H   0  0  0  0  0  0  0  0  0  0  0  0
  145.0976  139.2604  152.9475 H   0  0  0  0  0  0  0  0  0  0  0  0
  1  2  1  0  0  0  0
  1 13  1  0  0  0  0
  1 14  1  0  0  0  0
  1 15  1  0  0  0  0
  2  3  1  0  0  0  0
  2  4  1  0  0  0  0
  2 16  1  0  0  0  0
  3 17  1  0  0  0  0
  4 12  1  0  0  0  0
  4  5  2  0  0  0  0
  5  6  1  0  0  0  0
  5 18  1  0  0  0  0
  6  7  1  0  0  0  0
  6 11  1  0  0  0  0
  7 10  1  0  0  0  0
  7  8  1  0  0  0  0
  7 19  1  0  0  0  0
  8  9  1  0  0  0  0
  8 20  1  0  0  0  0
  8 21  1  0  0  0  0
  9 10  1  0  0  0  0
  9 22  1  0  0  0  0
  9 25  1  0  0  0  0
 10 23  1  0  0  0  0
 10 24  1  0  0  0  0
 11 12  2  0  0  0  0
M  CHG  1   9   1
M  END
> <s_m_source_file>
AV-unprocessed.smi

> <i_m_source_file_index>
2514

> <i_lp_mmshare_version>
43012

> <i_f3d_flags>
0

> <s_epik_input>
W0NIM11bQ0BIXShbT0hdKWMxW2NIXW4obm4xKVtDSF0yW0NIMl1bTkhdW0NIMl0y

> <s_epik_cmdline>
J2VwaWtfcHl0aG9uJywgJy1waCcsICc3LjAnLCAnLXRuJywgJzgnLCAnLW1hJywgJzIwMCcsICctbWV0YWxfYmluZGluZycsICctaW1hZScsICc8aW5maWxlLm1hZT4nLCAnLW9tYWUnLCAnPG91dGZpbGUubWFlPic=

> <r_lp_tautomer_probability>
1

> <r_epik_Ionization_Penalty>
0.215039

> <r_epik_Ionization_Penalty_Charging>
0.215038

> <r_epik_Ionization_Penalty_Neutral>
9.39085e-07

> <r_epik_State_Penalty>
0.20523

> <r_epik_Charging_Adjusted_Penalty>
0.420268

> <i_epik_Tot_Q>
1

> <i_epik_Tot_abs_Q>
1

> <r_epik_Metal_State_Penalty>
0.205259

> <b_epik_Metal_Only>
0

> <s_lp_Force_Field>
OPLS_2005

> <r_lp_Energy>
12.5086

> <b_lp_Chiralities_Consistent>
1

> <s_lp_Variant>
AV-unprocessed.smi:2514-1

> <Gold.Version>
5.8.1

> <Gold.Id.Protein>
6NUR|6NUR_protein|mol2

> <Gold.PLP.Fitness>
33.1052

> <Gold.PLP.PLP>
-22.0739

> <Gold.PLP.part.hbond>
-3.0000

> <Gold.PLP.part.metal>
0.0000

> <Gold.PLP.part.buried>
0.2563

> <Gold.PLP.part.nonpolar>
-19.7271

> <Gold.PLP.part.repulsive>
0.2522

> <Gold.PLP.ligand.clash>
0.0000

> <Gold.PLP.ligand.torsion>
0.1551

> <Gold.PLP.Chemscore.Hbond>
3.0000

> <Gold.PLP.Chemscore.CHOScore>
0.6879

> <Gold.PLP.Chemscore.Metal>
0.0000

> <Gold.Chemscore.Hbonds>
donor molecule, donor type, donor heavy atom, donor atom, acceptor molecule, acceptor atom, score
      L1  H     3    17       P1 10186  1.00
      L1  H     9    25       P1 10175  2.00
      L1  C     5    18       P1 10186  0.67

> <Gold.PLP.Chemscore.Internal.Correction>
0.2779

> <Gold.Rescore>
     Score         DG    S(hbond)    S(metal)    S(lipo)     H(rot)  DE(clash)    DE(int)     intcor
     13.31     -13.62       2.00        0.00      52.62       1.83       0.17       0.15       ----

> <Gold.Chemscore.Fitness>
13.3059

> <Gold.Chemscore.DG>
-13.6173

> <Gold.Chemscore.ZeroCoef>
-5.4800

> <Gold.Chemscore.Hbond>
1.9965

> <Gold.Chemscore.Metal>
0.0000

> <Gold.Chemscore.Lipo>
52.6244

> <Gold.Chemscore.Internal_Hbond>
0.0000

> <Gold.Chemscore.DEClash>
0.1657

> <Gold.Chemscore.DEInternal>
0.1457

> <Gold.Chemscore.Rot>
1.8312

> <Gold.Chemscore.Internal.Correction>
   9.000000E+99

> <Gold.Chemscore.Hbonds>
donor molecule, donor type, donor heavy atom, donor atom, acceptor molecule, acceptor atom, score
      L1  H     3    17       P1 10186  0.99
      L1  H     9    25       P1 10175  1.00

> <Gold.Chemscore.Hbond.Weighted>
-6.6682

> <Gold.Chemscore.Metal.Weighted>
-0.0000

> <Gold.Chemscore.Lipo.Weighted>
-6.1571

> <Gold.Chemscore.Internal_Hbond.Weighted>
0.0000

> <Gold.Chemscore.DEClash.Weighted>
0.1657

> <Gold.Chemscore.DEInternal.Weighted>
0.1457

> <Gold.Chemscore.Rot.Weighted>
4.6879

> <Gold.Chemscore.Internal.Correction.Weighted>
   9.000000E+99

> <Gold.Protein.RotatedTorsions>
[ 6907 6896 6895 6894 ] final  163.14 input  -60.11 | X-H torsion
[ 7974 7965 7964 7962 ] final -151.59 input  175.53 | X-H torsion
[ 8008 7997 7996 7995 ] final   86.17 input   59.86 | X-H torsion
[ 10167 10162 10161 10158 ] final    6.82 input  -65.29 | X-H torsion
[ 10718 10713 10712 10709 ] final  -70.58 input   66.30 | X-H torsion
[ 10763 10752 10751 10750 ] final   33.63 input  -60.55 | X-H torsion
[ 11005 11000 10999 10996 ] final  -66.05 input  -57.11 | X-H torsion

> <Gold.Protein.ActiveResidues>
 VAL166  LYS551  ARG553  GLY616  TRP617  ASP618  TYR619  PRO620  LYS621  CYS622 
 ASP623  PHE694  ASN695  SER759  ASP760  ASP761  ALA762  ILE779  LEU786  VAL792 
 PHE793  MET794  SER795  GLU796  ALA797  LYS798  CYS799  TRP800  GLU811  SER814 

> <Gold.Protein.RotatedAtoms>
  151.9297  133.3608  159.3926 H   0  0  0  0  0  0  0  0  0  0  0  0  # atno 6907 bound_to 6896
  150.7019  134.4550  159.5363 H   0  0  0  0  0  0  0  0  0  0  0  0  # atno 6908 bound_to 6896
  152.2188  134.8432  160.0539 H   0  0  0  0  0  0  0  0  0  0  0  0  # atno 6909 bound_to 6896
  144.7841  140.4777  143.5818 H   0  0  0  0  0  0  0  0  0  0  0  0  # atno 7974 bound_to 7965
  155.9594  140.3394  155.6477 H   0  0  0  0  0  0  0  0  0  0  0  0  # atno 8008 bound_to 7997
  155.6817  140.0738  157.2500 H   0  0  0  0  0  0  0  0  0  0  0  0  # atno 8009 bound_to 7997
  154.4140  140.1673  156.1977 H   0  0  0  0  0  0  0  0  0  0  0  0  # atno 8010 bound_to 7997
  140.6406  143.7782  150.7423 H   0  0  0  0  0  0  0  0  0  0  0  0  # atno 10167 bound_to 10162
  156.0401  130.4334  150.2316 H   0  0  0  0  0  0  0  0  0  0  0  0  # atno 10718 bound_to 10713
  153.0202  135.6382  154.1542 H   0  0  0  0  0  0  0  0  0  0  0  0  # atno 10763 bound_to 10752
  154.1277  135.2842  155.3194 H   0  0  0  0  0  0  0  0  0  0  0  0  # atno 10764 bound_to 10752
  154.6217  135.5522  153.7644 H   0  0  0  0  0  0  0  0  0  0  0  0  # atno 10765 bound_to 10752
  141.1471  133.6692  156.6080 H   0  0  0  0  0  0  0  0  0  0  0  0  # atno 11005 bound_to 11000
  145.5969  139.1500  143.3151 LP  0  0  0  0  0  0  0  0  0  0  0  0  # atno 17320 bound_to 7965
  146.2065  140.6092  142.9079 LP  0  0  0  0  0  0  0  0  0  0  0  0  # atno 17321 bound_to 7965
  140.1413  143.4438  152.2192 LP  0  0  0  0  0  0  0  0  0  0  0  0  # atno 17342 bound_to 10162
  139.5615  144.7409  151.4140 LP  0  0  0  0  0  0  0  0  0  0  0  0  # atno 17343 bound_to 10162
  157.0412  131.0035  151.3283 LP  0  0  0  0  0  0  0  0  0  0  0  0  # atno 17370 bound_to 10713
  157.5208  130.7997  149.7807 LP  0  0  0  0  0  0  0  0  0  0  0  0  # atno 17371 bound_to 10713
  140.3637  134.7666  157.4551 LP  0  0  0  0  0  0  0  0  0  0  0  0  # atno 17394 bound_to 11000
  140.0765  134.5790  155.8586 LP  0  0  0  0  0  0  0  0  0  0  0  0  # atno 17395 bound_to 11000

$$$$
