AV-unprocessed.smi:1508|AV-procd|sdf|6088|dock5
  -GOLD-   22720 6213D 1   1.00000     0.00000
 Structure written by MMmdl.
 37 38  0  0  0  0  0  0  0  0  3 V2000
  152.0420  138.1713  155.4401 C   0  0  0  0  0  0  0  0  0  0  0  0
  151.7025  139.4200  156.2690 C   0  0  0  0  0  0  0  0  0  0  0  0
  151.0805  139.1290  157.6621 C   0  0  2  0  0  0  0  0  0  0  0  0
  149.8221  138.2231  157.5690 C   0  0  0  0  0  0  0  0  0  0  0  0
  149.0863  138.1492  158.8271 N   0  0  0  0  0  0  0  0  0  0  0  0
  148.7726  137.0219  159.4811 C   0  0  0  0  0  0  0  0  0  0  0  0
  149.1318  135.9312  159.0316 O   0  0  0  0  0  0  0  0  0  0  0  0
  148.0556  137.2281  160.6079 N   0  5  0  0  0  0  0  0  0  0  0  0
  147.6826  136.1828  161.3647 C   0  0  0  0  0  0  0  0  0  0  0  0
  147.5615  136.2677  162.6992 N   0  0  0  0  0  0  0  0  0  0  0  0
  147.1643  135.0749  163.2880 N   0  0  0  0  0  0  0  0  0  0  0  0
  146.9863  134.1188  162.3767 C   0  0  0  0  0  0  0  0  0  0  0  0
  147.2860  134.5889  160.7169 S   0  0  0  0  0  0  0  0  0  0  0  0
  150.7892  140.3806  158.4204 N   0  3  0  0  0  0  0  0  0  0  0  0
  151.9448  140.9602  159.1522 C   0  0  0  0  0  0  0  0  0  0  0  0
  151.8254  142.4877  159.0606 C   0  0  0  0  0  0  0  0  0  0  0  0
  150.4452  142.7384  158.4648 C   0  0  0  0  0  0  0  0  0  0  0  0
  150.1952  141.4847  157.6353 C   0  0  0  0  0  0  0  0  0  0  0  0
  152.4361  138.4561  154.4645 H   0  0  0  0  0  0  0  0  0  0  0  0
  151.1635  137.5491  155.2702 H   0  0  0  0  0  0  0  0  0  0  0  0
  152.8000  137.5592  155.9281 H   0  0  0  0  0  0  0  0  0  0  0  0
  152.6109  140.0102  156.3920 H   0  0  0  0  0  0  0  0  0  0  0  0
  151.0412  140.0629  155.6885 H   0  0  0  0  0  0  0  0  0  0  0  0
  151.8367  138.5924  158.2373 H   0  0  0  0  0  0  0  0  0  0  0  0
  149.1352  138.5688  156.7961 H   0  0  0  0  0  0  0  0  0  0  0  0
  150.1037  137.2101  157.2820 H   0  0  0  0  0  0  0  0  0  0  0  0
  148.7783  139.0216  159.2318 H   0  0  0  0  0  0  0  0  0  0  0  0
  146.6739  133.1317  162.6830 H   0  0  0  0  0  0  0  0  0  0  0  0
  151.9226  140.6199  160.1878 H   0  0  0  0  0  0  0  0  0  0  0  0
  152.8952  140.6452  158.7184 H   0  0  0  0  0  0  0  0  0  0  0  0
  151.9558  142.9770  160.0261 H   0  0  0  0  0  0  0  0  0  0  0  0
  152.5916  142.8751  158.3877 H   0  0  0  0  0  0  0  0  0  0  0  0
  149.7038  142.8094  159.2618 H   0  0  0  0  0  0  0  0  0  0  0  0
  150.3969  143.6546  157.8754 H   0  0  0  0  0  0  0  0  0  0  0  0
  150.7060  141.5710  156.6745 H   0  0  0  0  0  0  0  0  0  0  0  0
  149.1328  141.3292  157.4457 H   0  0  0  0  0  0  0  0  0  0  0  0
  150.1038  140.1446  159.1238 H   0  0  0  0  0  0  0  0  0  0  0  0
  1  2  1  0  0  0  0
  1 19  1  0  0  0  0
  1 20  1  0  0  0  0
  1 21  1  0  0  0  0
  2  3  1  0  0  0  0
  2 22  1  0  0  0  0
  2 23  1  0  0  0  0
  3  4  1  0  0  0  0
  3 14  1  0  0  0  0
  3 24  1  0  0  0  0
  4  5  1  0  0  0  0
  4 25  1  0  0  0  0
  4 26  1  0  0  0  0
  5  6  1  0  0  0  0
  5 27  1  0  0  0  0
  6  7  2  0  0  0  0
  6  8  1  0  0  0  0
  8  9  1  0  0  0  0
  9 13  1  0  0  0  0
  9 10  2  0  0  0  0
 10 11  1  0  0  0  0
 11 12  2  0  0  0  0
 12 13  1  0  0  0  0
 12 28  1  0  0  0  0
 14 18  1  0  0  0  0
 14 15  1  0  0  0  0
 14 37  1  0  0  0  0
 15 16  1  0  0  0  0
 15 29  1  0  0  0  0
 15 30  1  0  0  0  0
 16 17  1  0  0  0  0
 16 31  1  0  0  0  0
 16 32  1  0  0  0  0
 17 18  1  0  0  0  0
 17 33  1  0  0  0  0
 17 34  1  0  0  0  0
 18 35  1  0  0  0  0
 18 36  1  0  0  0  0
M  CHG  1   8  -1
M  CHG  1  14   1
M  END
> <s_m_source_file>
AV-unprocessed.smi

> <i_m_source_file_index>
1508

> <i_lp_mmshare_version>
43012

> <i_f3d_flags>
0

> <s_epik_input>
W0NIMl0xW0NIMl1bQ0gyXVtDSDJdTjFbQ0BIXShbQ0gyXVtDSDNdKVtDSDJdW05IXUMoPU8pW05IXWMybm5bY0hdczI=

> <s_epik_cmdline>
J2VwaWtfcHl0aG9uJywgJy1waCcsICc3LjAnLCAnLXRuJywgJzgnLCAnLW1hJywgJzIwMCcsICctbWV0YWxfYmluZGluZycsICctaW1hZScsICc8aW5maWxlLm1hZT4nLCAnLW9tYWUnLCAnPG91dGZpbGUubWFlPic=

> <r_lp_tautomer_probability>
1

> <r_epik_Ionization_Penalty>
3.98086

> <r_epik_Ionization_Penalty_Charging>
3.94833

> <r_epik_Ionization_Penalty_Neutral>
0.032525

> <r_epik_State_Penalty>
3.94643

> <r_epik_Charging_Adjusted_Penalty>
7.89477

> <i_epik_Tot_Q>
0

> <i_epik_Tot_abs_Q>
2

> <r_epik_Metal_State_Penalty>
0.605555

> <b_epik_Metal_Only>
1

> <s_lp_Force_Field>
OPLS_2005

> <r_lp_Energy>
24.3568

> <b_lp_Chiralities_Consistent>
1

> <s_lp_Variant>
AV-unprocessed.smi:1508-3

> <Gold.Version>
5.8.1

> <Gold.Id.Protein>
6NUR|6NUR_protein|mol2

> <Gold.PLP.Fitness>
39.7339

> <Gold.PLP.PLP>
-29.9420

> <Gold.PLP.part.hbond>
-3.7444

> <Gold.PLP.part.metal>
0.0000

> <Gold.PLP.part.buried>
-5.7621

> <Gold.PLP.part.nonpolar>
-21.5312

> <Gold.PLP.part.repulsive>
0.4034

> <Gold.PLP.ligand.clash>
0.0000

> <Gold.PLP.ligand.torsion>
0.8561

> <Gold.PLP.Chemscore.Hbond>
3.7997

> <Gold.PLP.Chemscore.CHOScore>
0.0000

> <Gold.PLP.Chemscore.Metal>
0.0000

> <Gold.Chemscore.Hbonds>
donor molecule, donor type, donor heavy atom, donor atom, acceptor molecule, acceptor atom, score
      P1  H  6896  6909       L1     7  0.71
      P1  H  6931  6943       L1     8  1.57
      P1  H  6934  6947       L1     8  1.44

> <Gold.PLP.Chemscore.Internal.Correction>
0.1051

> <Gold.Rescore>
     Score         DG    S(hbond)    S(metal)    S(lipo)     H(rot)  DE(clash)    DE(int)     intcor
     12.20     -14.25       1.87        0.00      62.19       1.86       0.01       2.05       ----

> <Gold.Chemscore.Fitness>
12.1998

> <Gold.Chemscore.DG>
-14.2532

> <Gold.Chemscore.ZeroCoef>
-5.4800

> <Gold.Chemscore.Hbond>
1.8717

> <Gold.Chemscore.Metal>
0.0000

> <Gold.Chemscore.Lipo>
62.1947

> <Gold.Chemscore.Internal_Hbond>
0.0000

> <Gold.Chemscore.DEClash>
0.0067

> <Gold.Chemscore.DEInternal>
2.0467

> <Gold.Chemscore.Rot>
1.8575

> <Gold.Chemscore.Internal.Correction>
   9.000000E+99

> <Gold.Chemscore.Hbonds>
donor molecule, donor type, donor heavy atom, donor atom, acceptor molecule, acceptor atom, score
      P1  H  6896  6909       L1     7  0.70
      P1  H  6931  6943       L1     8  0.18
      P1  H  6934  6947       L1     8  0.64

> <Gold.Chemscore.Hbond.Weighted>
-6.2515

> <Gold.Chemscore.Metal.Weighted>
-0.0000

> <Gold.Chemscore.Lipo.Weighted>
-7.2768

> <Gold.Chemscore.Internal_Hbond.Weighted>
0.0000

> <Gold.Chemscore.DEClash.Weighted>
0.0067

> <Gold.Chemscore.DEInternal.Weighted>
2.0467

> <Gold.Chemscore.Rot.Weighted>
4.7551

> <Gold.Chemscore.Internal.Correction.Weighted>
   9.000000E+99

> <Gold.Protein.RotatedTorsions>
[ 6907 6896 6895 6894 ] final   42.73 input  -60.11 | X-H torsion
[ 7974 7965 7964 7962 ] final  147.08 input  175.53 | X-H torsion
[ 8008 7997 7996 7995 ] final  -76.10 input   59.86 | X-H torsion
[ 10167 10162 10161 10158 ] final   49.96 input  -65.29 | X-H torsion
[ 10718 10713 10712 10709 ] final  178.99 input   66.30 | X-H torsion
[ 10763 10752 10751 10750 ] final  176.23 input  -60.55 | X-H torsion
[ 11005 11000 10999 10996 ] final  141.47 input  -57.11 | X-H torsion

> <Gold.Protein.ActiveResidues>
 VAL166  LYS551  ARG553  GLY616  TRP617  ASP618  TYR619  PRO620  LYS621  CYS622 
 ASP623  PHE694  ASN695  SER759  ASP760  ASP761  ALA762  ILE779  LEU786  VAL792 
 PHE793  MET794  SER795  GLU796  ALA797  LYS798  CYS799  TRP800  GLU811  SER814 

> <Gold.Protein.RotatedAtoms>
  152.2115  134.8497  160.0496 H   0  0  0  0  0  0  0  0  0  0  0  0  # atno 6907 bound_to 6896
  151.9314  133.3607  159.3940 H   0  0  0  0  0  0  0  0  0  0  0  0  # atno 6908 bound_to 6896
  150.6977  134.4459  159.5357 H   0  0  0  0  0  0  0  0  0  0  0  0  # atno 6909 bound_to 6896
  144.8620  139.5984  143.5926 H   0  0  0  0  0  0  0  0  0  0  0  0  # atno 7974 bound_to 7965
  154.5475  140.0733  156.8613 H   0  0  0  0  0  0  0  0  0  0  0  0  # atno 8008 bound_to 7997
  155.3058  140.3387  155.4227 H   0  0  0  0  0  0  0  0  0  0  0  0  # atno 8009 bound_to 7997
  156.1931  140.1693  156.8038 H   0  0  0  0  0  0  0  0  0  0  0  0  # atno 8010 bound_to 7997
  140.2775  144.3195  150.6273 H   0  0  0  0  0  0  0  0  0  0  0  0  # atno 10167 bound_to 10162
  156.8824  130.9820  151.3060 H   0  0  0  0  0  0  0  0  0  0  0  0  # atno 10718 bound_to 10713
  154.4783  135.2774  155.1590 H   0  0  0  0  0  0  0  0  0  0  0  0  # atno 10763 bound_to 10752
  154.3310  135.6190  153.5555 H   0  0  0  0  0  0  0  0  0  0  0  0  # atno 10764 bound_to 10752
  152.9872  135.5765  154.5179 H   0  0  0  0  0  0  0  0  0  0  0  0  # atno 10765 bound_to 10752
  140.0404  134.9308  157.0832 H   0  0  0  0  0  0  0  0  0  0  0  0  # atno 11005 bound_to 11000
  146.2867  139.7025  142.9190 LP  0  0  0  0  0  0  0  0  0  0  0  0  # atno 17320 bound_to 7965
  145.4294  141.0414  143.2919 LP  0  0  0  0  0  0  0  0  0  0  0  0  # atno 17321 bound_to 7965
  140.5839  143.2171  151.7377 LP  0  0  0  0  0  0  0  0  0  0  0  0  # atno 17342 bound_to 10162
  139.4972  144.4039  152.0152 LP  0  0  0  0  0  0  0  0  0  0  0  0  # atno 17343 bound_to 10162
  157.6132  130.8599  149.8986 LP  0  0  0  0  0  0  0  0  0  0  0  0  # atno 17370 bound_to 10713
  156.0670  130.3690  150.0856 LP  0  0  0  0  0  0  0  0  0  0  0  0  # atno 17371 bound_to 10713
  140.4079  134.2013  155.7163 LP  0  0  0  0  0  0  0  0  0  0  0  0  # atno 17394 bound_to 11000
  141.1880  133.8270  157.1012 LP  0  0  0  0  0  0  0  0  0  0  0  0  # atno 17395 bound_to 11000

$$$$
