AV-unprocessed.smi:2563|AV-procd|sdf|10061|dock4
  -GOLD-   2272014103D 1   1.00000     0.00000
 Structure written by MMmdl.
 34 35  0  0  0  0  0  0  0  0  1 V2000
  151.4351  139.4814  157.5247 C   0  0  0  0  0  0  0  0  0  0  0  0
  151.5832  140.9251  157.0261 C   0  0  0  0  0  0  0  0  0  0  0  0
  150.5074  141.7922  157.5094 N   0  0  0  0  0  0  0  0  0  0  0  0
  149.1310  141.4682  157.1359 C   0  0  0  0  0  0  0  0  0  0  0  0
  148.8362  141.7634  155.6542 C   0  0  1  0  0  0  0  0  0  0  0  0
  149.4324  140.6775  154.7352 C   0  0  0  0  0  0  0  0  0  0  0  0
  149.0882  140.9412  153.3389 N   0  0  0  0  0  0  0  0  0  0  0  0
  147.6428  141.0664  153.1624 C   0  0  0  0  0  0  0  0  0  0  0  0
  147.0799  142.1287  154.1214 C   0  0  0  0  0  0  0  0  0  0  0  0
  147.4245  141.7847  155.4585 O   0  0  0  0  0  0  0  0  0  0  0  0
  150.7942  142.8642  158.3906 C   0  0  0  0  0  0  0  0  0  0  0  0
  151.9679  143.6484  158.2662 C   0  0  0  0  0  0  0  0  0  0  0  0
  152.1709  144.6919  159.1851 C   0  0  0  0  0  0  0  0  0  0  0  0
  151.1886  144.8870  160.1698 C   0  0  0  0  0  0  0  0  0  0  0  0
  150.0841  144.1157  160.2532 N   0  0  0  0  0  0  0  0  0  0  0  0
  149.8958  143.1234  159.3771 N   0  0  0  0  0  0  0  0  0  0  0  0
  152.2463  138.8589  157.1471 H   0  0  0  0  0  0  0  0  0  0  0  0
  150.4959  139.0399  157.1909 H   0  0  0  0  0  0  0  0  0  0  0  0
  151.4601  139.4323  158.6135 H   0  0  0  0  0  0  0  0  0  0  0  0
  152.5595  141.3249  157.3011 H   0  0  0  0  0  0  0  0  0  0  0  0
  151.5683  140.9252  155.9360 H   0  0  0  0  0  0  0  0  0  0  0  0
  148.9934  140.4002  157.3076 H   0  0  0  0  0  0  0  0  0  0  0  0
  148.4042  141.9507  157.7879 H   0  0  0  0  0  0  0  0  0  0  0  0
  149.2594  142.7340  155.3881 H   0  0  0  0  0  0  0  0  0  0  0  0
  150.5161  140.6437  154.8491 H   0  0  0  0  0  0  0  0  0  0  0  0
  149.0560  139.6971  155.0301 H   0  0  0  0  0  0  0  0  0  0  0  0
  149.4384  140.1892  152.7539 H   0  0  0  0  0  0  0  0  0  0  0  0
  147.4122  141.3316  152.1305 H   0  0  0  0  0  0  0  0  0  0  0  0
  147.1607  140.1072  153.3557 H   0  0  0  0  0  0  0  0  0  0  0  0
  147.4592  143.1218  153.8752 H   0  0  0  0  0  0  0  0  0  0  0  0
  145.9940  142.1730  154.0371 H   0  0  0  0  0  0  0  0  0  0  0  0
  152.7116  143.4718  157.5053 H   0  0  0  0  0  0  0  0  0  0  0  0
  153.0489  145.3188  159.1375 H   0  0  0  0  0  0  0  0  0  0  0  0
  151.2894  145.6725  160.9040 H   0  0  0  0  0  0  0  0  0  0  0  0
  1  2  1  0  0  0  0
  1 17  1  0  0  0  0
  1 18  1  0  0  0  0
  1 19  1  0  0  0  0
  2  3  1  0  0  0  0
  2 20  1  0  0  0  0
  2 21  1  0  0  0  0
  3  4  1  0  0  0  0
  3 11  1  0  0  0  0
  4  5  1  0  0  0  0
  4 22  1  0  0  0  0
  4 23  1  0  0  0  0
  5 10  1  0  0  0  0
  5  6  1  0  0  0  0
  5 24  1  0  0  0  0
  6  7  1  0  0  0  0
  6 25  1  0  0  0  0
  6 26  1  0  0  0  0
  7  8  1  0  0  0  0
  7 27  1  0  0  0  0
  8  9  1  0  0  0  0
  8 28  1  0  0  0  0
  8 29  1  0  0  0  0
  9 10  1  0  0  0  0
  9 30  1  0  0  0  0
  9 31  1  0  0  0  0
 11 16  1  0  0  0  0
 11 12  2  0  0  0  0
 12 13  1  0  0  0  0
 12 32  1  0  0  0  0
 13 14  2  0  0  0  0
 13 33  1  0  0  0  0
 14 15  1  0  0  0  0
 14 34  1  0  0  0  0
 15 16  2  0  0  0  0
M  END
> <s_m_source_file>
AV-unprocessed.smi

> <i_m_source_file_index>
2563

> <i_lp_mmshare_version>
43012

> <i_f3d_flags>
0

> <s_epik_input>
bjFuW2NIXVtjSF1bY0hdYzFOKFtDSDJdW0NIM10pW0NIMl1bQ0BASF0yW0NIMl1bTkhdW0NIMl1bQ0gyXU8y

> <s_epik_cmdline>
J2VwaWtfcHl0aG9uJywgJy1waCcsICc3LjAnLCAnLXRuJywgJzgnLCAnLW1hJywgJzIwMCcsICctbWV0YWxfYmluZGluZycsICctaW1hZScsICc8aW5maWxlLm1hZT4nLCAnLW9tYWUnLCAnPG91dGZpbGUubWFlPic=

> <r_lp_tautomer_probability>
1

> <r_epik_Ionization_Penalty>
2.34719

> <r_epik_Ionization_Penalty_Charging>
0

> <r_epik_Ionization_Penalty_Neutral>
2.34719

> <r_epik_State_Penalty>
2.60452

> <r_epik_Charging_Adjusted_Penalty>
2.60452

> <i_epik_Tot_Q>
0

> <i_epik_Tot_abs_Q>
0

> <r_epik_Metal_State_Penalty>
2.56937

> <b_epik_Metal_Only>
0

> <s_lp_Force_Field>
OPLS_2005

> <r_lp_Energy>
25.3459

> <b_lp_Chiralities_Consistent>
1

> <s_lp_Variant>
AV-unprocessed.smi:2563-6

> <Gold.Version>
5.8.1

> <Gold.Id.Protein>
6NUR|6NUR_protein|mol2

> <Gold.PLP.Fitness>
37.4882

> <Gold.PLP.PLP>
-34.3982

> <Gold.PLP.part.hbond>
-4.0732

> <Gold.PLP.part.metal>
0.0000

> <Gold.PLP.part.buried>
-2.8989

> <Gold.PLP.part.nonpolar>
-27.8974

> <Gold.PLP.part.repulsive>
0.3554

> <Gold.PLP.ligand.clash>
0.0000

> <Gold.PLP.ligand.torsion>
0.7499

> <Gold.PLP.Chemscore.Hbond>
1.5220

> <Gold.PLP.Chemscore.CHOScore>
0.0000

> <Gold.PLP.Chemscore.Metal>
0.0000

> <Gold.Chemscore.Hbonds>
donor molecule, donor type, donor heavy atom, donor atom, acceptor molecule, acceptor atom, score
      L1  H     7    27       P1  7957  0.64
      P1  H  8011  8017       L1     7  0.90

> <Gold.PLP.Chemscore.Internal.Correction>
0.0237

> <Gold.Rescore>
     Score         DG    S(hbond)    S(metal)    S(lipo)     H(rot)  DE(clash)    DE(int)     intcor
     13.37     -14.03       0.84        0.00      79.04       1.36       0.15       0.52       ----

> <Gold.Chemscore.Fitness>
13.3656

> <Gold.Chemscore.DG>
-14.0313

> <Gold.Chemscore.ZeroCoef>
-5.4800

> <Gold.Chemscore.Hbond>
0.8354

> <Gold.Chemscore.Metal>
0.0000

> <Gold.Chemscore.Lipo>
79.0360

> <Gold.Chemscore.Internal_Hbond>
0.0000

> <Gold.Chemscore.DEClash>
0.1465

> <Gold.Chemscore.DEInternal>
0.5192

> <Gold.Chemscore.Rot>
1.3618

> <Gold.Chemscore.Internal.Correction>
   9.000000E+99

> <Gold.Chemscore.Hbonds>
donor molecule, donor type, donor heavy atom, donor atom, acceptor molecule, acceptor atom, score
      L1  H     7    27       P1  7957  0.63
      P1  H  8011  8017       L1     7  0.07

> <Gold.Chemscore.Hbond.Weighted>
-2.7902

> <Gold.Chemscore.Metal.Weighted>
-0.0000

> <Gold.Chemscore.Lipo.Weighted>
-9.2472

> <Gold.Chemscore.Internal_Hbond.Weighted>
0.0000

> <Gold.Chemscore.DEClash.Weighted>
0.1465

> <Gold.Chemscore.DEInternal.Weighted>
0.5192

> <Gold.Chemscore.Rot.Weighted>
3.4861

> <Gold.Chemscore.Internal.Correction.Weighted>
   9.000000E+99

> <Gold.Protein.RotatedTorsions>
[ 6907 6896 6895 6894 ] final  125.76 input  -60.11 | X-H torsion
[ 7974 7965 7964 7962 ] final -141.42 input  175.53 | X-H torsion
[ 8008 7997 7996 7995 ] final  144.16 input   59.86 | X-H torsion
[ 10167 10162 10161 10158 ] final  153.47 input  -65.29 | X-H torsion
[ 10718 10713 10712 10709 ] final  -62.97 input   66.30 | X-H torsion
[ 10763 10752 10751 10750 ] final  125.79 input  -60.55 | X-H torsion
[ 11005 11000 10999 10996 ] final  127.61 input  -57.11 | X-H torsion

> <Gold.Protein.ActiveResidues>
 VAL166  LYS551  ARG553  GLY616  TRP617  ASP618  TYR619  PRO620  LYS621  CYS622 
 ASP623  PHE694  ASN695  SER759  ASP760  ASP761  ALA762  ILE779  LEU786  VAL792 
 PHE793  MET794  SER795  GLU796  ALA797  LYS798  CYS799  TRP800  GLU811  SER814 

> <Gold.Protein.RotatedAtoms>
  152.3964  133.6753  159.6279 H   0  0  0  0  0  0  0  0  0  0  0  0  # atno 6907 bound_to 6896
  150.7862  133.8867  159.3310 H   0  0  0  0  0  0  0  0  0  0  0  0  # atno 6908 bound_to 6896
  151.6643  135.0986  160.0237 H   0  0  0  0  0  0  0  0  0  0  0  0  # atno 6909 bound_to 6896
  144.8521  140.6082  143.5383 H   0  0  0  0  0  0  0  0  0  0  0  0  # atno 7974 bound_to 7965
  156.2914  140.2243  156.5007 H   0  0  0  0  0  0  0  0  0  0  0  0  # atno 8008 bound_to 7997
  154.7692  140.0468  157.1058 H   0  0  0  0  0  0  0  0  0  0  0  0  # atno 8009 bound_to 7997
  154.9895  140.3088  155.4915 H   0  0  0  0  0  0  0  0  0  0  0  0  # atno 8010 bound_to 7997
  139.4827  144.5270  151.7785 H   0  0  0  0  0  0  0  0  0  0  0  0  # atno 10167 bound_to 10162
  156.0820  130.4215  150.1211 H   0  0  0  0  0  0  0  0  0  0  0  0  # atno 10718 bound_to 10713
  153.6829  135.3311  155.3183 H   0  0  0  0  0  0  0  0  0  0  0  0  # atno 10763 bound_to 10752
  154.8461  135.4413  154.1588 H   0  0  0  0  0  0  0  0  0  0  0  0  # atno 10764 bound_to 10752
  153.2609  135.6991  153.7657 H   0  0  0  0  0  0  0  0  0  0  0  0  # atno 10765 bound_to 10752
  139.9517  134.9621  156.8880 H   0  0  0  0  0  0  0  0  0  0  0  0  # atno 11005 bound_to 11000
  145.4479  139.1527  143.3934 LP  0  0  0  0  0  0  0  0  0  0  0  0  # atno 17320 bound_to 7965
  146.2793  140.4604  142.8783 LP  0  0  0  0  0  0  0  0  0  0  0  0  # atno 17321 bound_to 7965
  140.4791  144.1476  150.5929 LP  0  0  0  0  0  0  0  0  0  0  0  0  # atno 17342 bound_to 10162
  140.4298  143.2573  151.9610 LP  0  0  0  0  0  0  0  0  0  0  0  0  # atno 17343 bound_to 10162
  156.9240  130.9692  151.3544 LP  0  0  0  0  0  0  0  0  0  0  0  0  # atno 17370 bound_to 10713
  157.5941  130.8465  149.8703 LP  0  0  0  0  0  0  0  0  0  0  0  0  # atno 17371 bound_to 10713
  140.5704  134.0448  155.7428 LP  0  0  0  0  0  0  0  0  0  0  0  0  # atno 17394 bound_to 11000
  141.1181  133.9507  157.2784 LP  0  0  0  0  0  0  0  0  0  0  0  0  # atno 17395 bound_to 11000

$$$$
