AV-unprocessed.smi:2346|AV-procd|sdf|9366|dock8
  -GOLD-   2272012593D 1   1.00000     0.00000
 Structure written by MMmdl.
 44 46  0  0  0  0  0  0  0  0  1 V2000
  147.6160  136.5509  162.7742 C   0  0  0  0  0  0  0  0  0  0  0  0
  147.8914  137.1334  161.5094 O   0  0  0  0  0  0  0  0  0  0  0  0
  148.0926  136.2972  160.4302 C   0  0  0  0  0  0  0  0  0  0  0  0
  147.8870  134.8948  160.4714 C   0  0  0  0  0  0  0  0  0  0  0  0
  148.1160  134.1048  159.3276 C   0  0  0  0  0  0  0  0  0  0  0  0
  147.9026  132.6681  159.3792 C   0  0  0  0  0  0  0  0  0  0  0  0
  147.7329  131.5244  159.4203 N   0  0  0  0  0  0  0  0  0  0  0  0
  148.5521  134.7096  158.1340 C   0  0  0  0  0  0  0  0  0  0  0  0
  148.7602  136.0999  158.0841 C   0  0  0  0  0  0  0  0  0  0  0  0
  148.5332  136.9009  159.2305 C   0  0  0  0  0  0  0  0  0  0  0  0
  148.7135  138.2662  159.2562 O   0  0  0  0  0  0  0  0  0  0  0  0
  148.9683  138.9497  158.0372 C   0  0  0  0  0  0  0  0  0  0  0  0
  150.4609  139.3063  157.9807 C   0  0  0  0  0  0  0  0  0  0  0  0
  150.6795  140.6482  157.4573 N   0  0  0  0  0  0  0  0  0  0  0  0
  150.2864  141.1650  156.2647 C   0  0  0  0  0  0  0  0  0  0  0  0
  149.5025  140.3663  155.2599 C   0  0  1  0  0  0  0  0  0  0  0  0
  148.1850  141.0565  154.8827 C   0  0  0  0  0  0  0  0  0  0  0  0
  150.2363  140.1299  154.0753 O   0  0  0  0  0  0  0  0  0  0  0  0
  150.6139  142.4424  156.0539 N   0  0  0  0  0  0  0  0  0  0  0  0
  151.3080  142.7746  157.2002 C   0  0  0  0  0  0  0  0  0  0  0  0
  151.9309  143.9855  157.5785 C   0  0  0  0  0  0  0  0  0  0  0  0
  152.5990  144.0883  158.8162 C   0  0  0  0  0  0  0  0  0  0  0  0
  152.6510  142.9853  159.6929 C   0  0  0  0  0  0  0  0  0  0  0  0
  152.0317  141.7721  159.3377 C   0  0  0  0  0  0  0  0  0  0  0  0
  151.3684  141.6735  158.0995 C   0  0  0  0  0  0  0  0  0  0  0  0
  147.4964  137.3424  163.5140 H   0  0  0  0  0  0  0  0  0  0  0  0
  148.4350  135.9112  163.1057 H   0  0  0  0  0  0  0  0  0  0  0  0
  146.6902  135.9745  162.7546 H   0  0  0  0  0  0  0  0  0  0  0  0
  147.5532  134.4064  161.3751 H   0  0  0  0  0  0  0  0  0  0  0  0
  148.7290  134.1128  157.2504 H   0  0  0  0  0  0  0  0  0  0  0  0
  149.0914  136.5307  157.1516 H   0  0  0  0  0  0  0  0  0  0  0  0
  148.7078  138.3185  157.1861 H   0  0  0  0  0  0  0  0  0  0  0  0
  148.3693  139.8594  157.9812 H   0  0  0  0  0  0  0  0  0  0  0  0
  150.9194  139.2168  158.9652 H   0  0  0  0  0  0  0  0  0  0  0  0
  150.9859  138.5976  157.3392 H   0  0  0  0  0  0  0  0  0  0  0  0
  149.2828  139.3828  155.6732 H   0  0  0  0  0  0  0  0  0  0  0  0
  147.5594  141.2112  155.7623 H   0  0  0  0  0  0  0  0  0  0  0  0
  147.6139  140.4556  154.1744 H   0  0  0  0  0  0  0  0  0  0  0  0
  148.3632  142.0313  154.4272 H   0  0  0  0  0  0  0  0  0  0  0  0
  149.6332  140.1347  153.3475 H   0  0  0  0  0  0  0  0  0  0  0  0
  151.8978  144.8354  156.9131 H   0  0  0  0  0  0  0  0  0  0  0  0
  153.0747  145.0174  159.0939 H   0  0  0  0  0  0  0  0  0  0  0  0
  153.1669  143.0708  160.6380 H   0  0  0  0  0  0  0  0  0  0  0  0
  152.0737  140.9242  160.0052 H   0  0  0  0  0  0  0  0  0  0  0  0
  1  2  1  0  0  0  0
  1 26  1  0  0  0  0
  1 27  1  0  0  0  0
  1 28  1  0  0  0  0
  2  3  1  0  0  0  0
  3 10  1  0  0  0  0
  3  4  2  0  0  0  0
  4  5  1  0  0  0  0
  4 29  1  0  0  0  0
  5  6  1  0  0  0  0
  5  8  2  0  0  0  0
  6  7  3  0  0  0  0
  8  9  1  0  0  0  0
  8 30  1  0  0  0  0
  9 10  2  0  0  0  0
  9 31  1  0  0  0  0
 10 11  1  0  0  0  0
 11 12  1  0  0  0  0
 12 13  1  0  0  0  0
 12 32  1  0  0  0  0
 12 33  1  0  0  0  0
 13 14  1  0  0  0  0
 13 34  1  0  0  0  0
 13 35  1  0  0  0  0
 14 25  1  0  0  0  0
 14 15  1  0  0  0  0
 15 16  1  0  0  0  0
 15 19  2  0  0  0  0
 16 17  1  0  0  0  0
 16 18  1  0  0  0  0
 16 36  1  0  0  0  0
 17 37  1  0  0  0  0
 17 38  1  0  0  0  0
 17 39  1  0  0  0  0
 18 40  1  0  0  0  0
 19 20  1  0  0  0  0
 20 25  2  0  0  0  0
 20 21  1  0  0  0  0
 21 22  2  0  0  0  0
 21 41  1  0  0  0  0
 22 23  1  0  0  0  0
 22 42  1  0  0  0  0
 23 24  2  0  0  0  0
 23 43  1  0  0  0  0
 24 25  1  0  0  0  0
 24 44  1  0  0  0  0
M  END
> <s_m_source_file>
AV-unprocessed.smi

> <i_m_source_file_index>
2346

> <i_lp_mmshare_version>
43012

> <i_f3d_flags>
0

> <s_epik_input>
W0NIM11PYzFbY0hdYyhDI04pW2NIXVtjSF1jMU9bQ0gyXVtDSDJdbihjKG4yKVtDQEhdKFtDSDNdKVtPSF0pYyhjMjMpW2NIXVtjSF1bY0hdW2NIXTM=

> <s_epik_cmdline>
J2VwaWtfcHl0aG9uJywgJy1waCcsICc3LjAnLCAnLXRuJywgJzgnLCAnLW1hJywgJzIwMCcsICctbWV0YWxfYmluZGluZycsICctaW1hZScsICc8aW5maWxlLm1hZT4nLCAnLW9tYWUnLCAnPG91dGZpbGUubWFlPic=

> <r_epik_Ionization_Penalty>
0.0419826

> <r_epik_Ionization_Penalty_Charging>
0

> <r_epik_Ionization_Penalty_Neutral>
0.0419826

> <r_epik_State_Penalty>
0.0354317

> <r_epik_Charging_Adjusted_Penalty>
0.0354317

> <i_epik_Tot_Q>
0

> <i_epik_Tot_abs_Q>
0

> <r_epik_Metal_State_Penalty>
3.65115e-05

> <b_epik_Metal_Only>
0

> <s_lp_Force_Field>
OPLS_2005

> <r_lp_Energy>
17.2355

> <b_lp_Chiralities_Consistent>
1

> <s_lp_Variant>
AV-unprocessed.smi:2346-2

> <Gold.Version>
5.8.1

> <Gold.Id.Protein>
6NUR|6NUR_protein|mol2

> <Gold.PLP.Fitness>
54.4551

> <Gold.PLP.PLP>
-45.6817

> <Gold.PLP.part.hbond>
-5.9125

> <Gold.PLP.part.metal>
0.0000

> <Gold.PLP.part.buried>
-4.1159

> <Gold.PLP.part.nonpolar>
-36.4554

> <Gold.PLP.part.repulsive>
1.4399

> <Gold.PLP.ligand.clash>
0.0000

> <Gold.PLP.ligand.torsion>
0.8165

> <Gold.PLP.Chemscore.Hbond>
3.4343

> <Gold.PLP.Chemscore.CHOScore>
0.0000

> <Gold.PLP.Chemscore.Metal>
0.0000

> <Gold.Chemscore.Hbonds>
donor molecule, donor type, donor heavy atom, donor atom, acceptor molecule, acceptor atom, score
      L1  H    18    40       P1  7957  0.49
      P1  H  6931  6943       L1     2  1.00
      P1  H  6934  6947       L1     2  0.59
      P1  H  7989  7998       L1    18  0.98

> <Gold.PLP.Chemscore.Internal.Correction>
0.1036

> <Gold.Rescore>
     Score         DG    S(hbond)    S(metal)    S(lipo)     H(rot)  DE(clash)    DE(int)     intcor
     18.59     -19.94       2.43        0.00     110.31       2.57       0.51       0.84       ----

> <Gold.Chemscore.Fitness>
18.5853

> <Gold.Chemscore.DG>
-19.9386

> <Gold.Chemscore.ZeroCoef>
-5.4800

> <Gold.Chemscore.Hbond>
2.4331

> <Gold.Chemscore.Metal>
0.0000

> <Gold.Chemscore.Lipo>
110.3112

> <Gold.Chemscore.Internal_Hbond>
0.0000

> <Gold.Chemscore.DEClash>
0.5112

> <Gold.Chemscore.DEInternal>
0.8421

> <Gold.Chemscore.Rot>
2.5681

> <Gold.Chemscore.Internal.Correction>
   9.000000E+99

> <Gold.Chemscore.Hbonds>
donor molecule, donor type, donor heavy atom, donor atom, acceptor molecule, acceptor atom, score
      L1  H    18    40       P1  7957  0.49
      P1  H  6931  6943       L1     2  0.29
      P1  H  6934  6947       L1     2  0.49
      P1  H  7989  7998       L1    18  0.42

> <Gold.Chemscore.Hbond.Weighted>
-8.1265

> <Gold.Chemscore.Metal.Weighted>
-0.0000

> <Gold.Chemscore.Lipo.Weighted>
-12.9064

> <Gold.Chemscore.Internal_Hbond.Weighted>
0.0000

> <Gold.Chemscore.DEClash.Weighted>
0.5112

> <Gold.Chemscore.DEInternal.Weighted>
0.8421

> <Gold.Chemscore.Rot.Weighted>
6.5743

> <Gold.Chemscore.Internal.Correction.Weighted>
   9.000000E+99

> <Gold.Protein.RotatedTorsions>
[ 6907 6896 6895 6894 ] final  145.25 input  -60.11 | X-H torsion
[ 7974 7965 7964 7962 ] final  144.81 input  175.53 | X-H torsion
[ 8008 7997 7996 7995 ] final -158.43 input   59.86 | X-H torsion
[ 10167 10162 10161 10158 ] final    8.90 input  -65.29 | X-H torsion
[ 10718 10713 10712 10709 ] final  -28.83 input   66.30 | X-H torsion
[ 10763 10752 10751 10750 ] final -126.35 input  -60.55 | X-H torsion
[ 11005 11000 10999 10996 ] final   -8.96 input  -57.11 | X-H torsion

> <Gold.Protein.ActiveResidues>
 VAL166  LYS551  ARG553  GLY616  TRP617  ASP618  TYR619  PRO620  LYS621  CYS622 
 ASP623  PHE694  ASN695  SER759  ASP760  ASP761  ALA762  ILE779  LEU786  VAL792 
 PHE793  MET794  SER795  GLU796  ALA797  LYS798  CYS799  TRP800  GLU811  SER814 

> <Gold.Protein.RotatedAtoms>
  152.1832  133.4722  159.4968 H   0  0  0  0  0  0  0  0  0  0  0  0  # atno 6907 bound_to 6896
  150.6938  134.1806  159.4256 H   0  0  0  0  0  0  0  0  0  0  0  0  # atno 6908 bound_to 6896
  151.9718  135.0072  160.0604 H   0  0  0  0  0  0  0  0  0  0  0  0  # atno 6909 bound_to 6896
  144.8804  139.5707  143.5845 H   0  0  0  0  0  0  0  0  0  0  0  0  # atno 7974 bound_to 7965
  155.7475  140.0822  157.2217 H   0  0  0  0  0  0  0  0  0  0  0  0  # atno 8008 bound_to 7997
  154.4015  140.1566  156.2741 H   0  0  0  0  0  0  0  0  0  0  0  0  # atno 8009 bound_to 7997
  155.8962  140.3412  155.5995 H   0  0  0  0  0  0  0  0  0  0  0  0  # atno 8010 bound_to 7997
  140.6287  143.8043  150.7266 H   0  0  0  0  0  0  0  0  0  0  0  0  # atno 10167 bound_to 10162
  156.4202  130.4425  149.7189 H   0  0  0  0  0  0  0  0  0  0  0  0  # atno 10718 bound_to 10713
  154.8745  135.3998  154.3416 H   0  0  0  0  0  0  0  0  0  0  0  0  # atno 10763 bound_to 10752
  153.4215  135.7023  153.6296 H   0  0  0  0  0  0  0  0  0  0  0  0  # atno 10764 bound_to 10752
  153.4957  135.3738  155.2484 H   0  0  0  0  0  0  0  0  0  0  0  0  # atno 10765 bound_to 10752
  140.7291  133.8764  155.8879 H   0  0  0  0  0  0  0  0  0  0  0  0  # atno 11005 bound_to 11000
  146.2991  139.7369  142.9105 LP  0  0  0  0  0  0  0  0  0  0  0  0  # atno 17320 bound_to 7965
  145.3964  141.0379  143.3095 LP  0  0  0  0  0  0  0  0  0  0  0  0  # atno 17321 bound_to 7965
  140.1650  143.4243  152.2041 LP  0  0  0  0  0  0  0  0  0  0  0  0  # atno 17342 bound_to 10162
  139.5504  144.7332  151.4454 LP  0  0  0  0  0  0  0  0  0  0  0  0  # atno 17343 bound_to 10162
  156.4133  130.7732  151.2747 LP  0  0  0  0  0  0  0  0  0  0  0  0  # atno 17370 bound_to 10713
  157.7508  131.0205  150.3710 LP  0  0  0  0  0  0  0  0  0  0  0  0  # atno 17371 bound_to 10713
  140.9937  134.1244  157.4384 LP  0  0  0  0  0  0  0  0  0  0  0  0  # atno 17394 bound_to 11000
  139.8830  135.0048  156.6272 LP  0  0  0  0  0  0  0  0  0  0  0  0  # atno 17395 bound_to 11000

$$$$
