#       Name:                AV-unprocessed.smi:1142
#       Creating user name   scv26
#       Creation time:       Fri Mar 27 03:44:48 2020


#       File generated by GOLD software.
#

@<TRIPOS>MOLECULE
AV-unprocessed.smi:1142
    39    40     1
SMALL
NO_CHARGES


@<TRIPOS>ATOM
      1 ****        -3.7042   2.3388  -0.6511 C.1            1 S1                 0.0000
      2 ****        -3.3806   1.2197  -1.0177 C.1            1 S1                 0.0000
      3 ****        -2.9852  -0.1314  -1.4440 C.3            1 S1                 0.0000
      4 ****        -1.5321  -0.2509  -1.4504 N.pl3          1 S1                -1.0000
      5 ****        -0.8627  -1.4376  -1.4376 C.2            1 S1                 0.0000
      6 ****        -1.2966  -2.5920  -1.5180 O.2            1 S1                 0.0000
      7 ****         0.6320  -1.2535  -1.3816 C.ar           1 S1                 0.0000
      8 ****         1.4237  -1.8534  -2.3857 C.ar           1 S1                 0.0000
      9 ****         2.8224  -1.7089  -2.3474 C.ar           1 S1                 0.0000
     10 ****         3.3856  -0.9727  -1.2907 C.ar           1 S1                 0.0000
     11 ****         2.6524  -0.4107  -0.3088 N.ar           1 S1                 0.0000
     12 ****         1.3029  -0.5478  -0.3386 C.ar           1 S1                 0.0000
     13 ****         0.5969   0.0238   0.7347 N.3            1 S1                 0.0000
     14 ****         0.5115   1.4764   0.6731 C.3            1 S1                 0.0000
     15 ****        -0.4493   1.9858   1.7608 C.3            1 S1                 0.0000
     16 ****        -0.0203   1.5162   3.0368 O.3            1 S1                 0.0000
     17 ****        -0.0073   0.0924   3.1064 C.3            1 S1                 0.0000
     18 ****         0.9665  -0.4675   2.0551 C.3            1 S1                 0.0000
     19 ****        -3.9820   3.3167  -0.3292 H              1 S1                 0.0000
     20 ****        -3.4653  -0.8343  -0.7618 H              1 S1                 0.0000
     21 ****        -3.4189  -0.3021  -2.4296 H              1 S1                 0.0000
     22 ****         0.9644  -2.4141  -3.1872 H              1 S1                 0.0000
     23 ****         3.4463  -2.1508  -3.1098 H              1 S1                 0.0000
     24 ****         4.4552  -0.8376  -1.2272 H              1 S1                 0.0000
     25 ****         1.5030   1.9080   0.8161 H              1 S1                 0.0000
     26 ****         0.1616   1.7884  -0.3117 H              1 S1                 0.0000
     27 ****        -0.4661   3.0756   1.7677 H              1 S1                 0.0000
     28 ****        -1.4694   1.6519   1.5644 H              1 S1                 0.0000
     29 ****         0.3013  -0.2129   4.1060 H              1 S1                 0.0000
     30 ****        -1.0142  -0.2983   2.9495 H              1 S1                 0.0000
     31 ****         0.9442  -1.5578   2.0634 H              1 S1                 0.0000
     32 ****         1.9857  -0.1603   2.2933 H              1 S1                 0.0000
     33 ****        -0.9929   0.5911  -1.4651 LP             1 S1                 0.0000
     34 ****        -2.2797  -2.7515  -1.6081 LP             1 S1                 0.0000
     35 ****        -0.6647  -3.3665  -1.4929 LP             1 S1                 0.0000
     36 ****         3.0956   0.0986   0.4289 LP             1 S1                 0.0000
     37 ****        -0.3343  -0.3148   0.5999 LP             1 S1                 0.0000
     38 ****        -0.6429   1.8678   3.7360 LP             1 S1                 0.0000
     39 ****         0.9036   1.8563   3.2118 LP             1 S1                 0.0000
@<TRIPOS>BOND
    1    1    2 3     
    2    1   19 1     
    3    2    3 1     
    4    3    4 1     
    5    3   20 1     
    6    3   21 1     
    7    4    5 1     
    8    5    6 2     
    9    5    7 1     
   10    7   12 ar    
   11    7    8 ar    
   12    8    9 ar    
   13    8   22 1     
   14    9   10 ar    
   15    9   23 1     
   16   10   11 ar    
   17   10   24 1     
   18   11   12 ar    
   19   12   13 1     
   20   13   18 1     
   21   13   14 1     
   22   14   15 1     
   23   14   25 1     
   24   14   26 1     
   25   15   16 1     
   26   15   27 1     
   27   15   28 1     
   28   16   17 1     
   29   17   18 1     
   30   17   29 1     
   31   17   30 1     
   32   18   31 1     
   33   18   32 1     
   34    4   33 1     
   35    6   34 1     
   36    6   35 1     
   37   11   36 1     
   38   13   37 1     
   39   16   38 1     
   40   16   39 1     
@<TRIPOS>SUBSTRUCTURE
      1 S1             1
@<TRIPOS>SET
LONE_PAIRS      STATIC     ATOMS    <user>   **** ""
7 33 34 35 36 37 38 39
ATOM$BLUE        STATIC     ATOMS    COLORGROUP SYSTEM
7 33 34 35 36 37 38 39
