AV-unprocessed.smi:758|AV-procd|sdf|3617|dock4
  -GOLD-   22720 1 13D 1   1.00000     0.00000
 Structure written by MMmdl.
 47 48  0  0  0  0  0  0  0  0  1 V2000
  150.4389  144.9350  159.1643 C   0  0  0  0  0  0  0  0  0  0  0  0
  151.6581  143.9914  159.2537 C   0  0  0  0  0  0  0  0  0  0  0  0
  152.7620  144.5313  158.3168 C   0  0  0  0  0  0  0  0  0  0  0  0
  152.2233  144.0574  160.6904 C   0  0  0  0  0  0  0  0  0  0  0  0
  151.2960  142.5124  158.8752 C   0  0  2  0  0  0  0  0  0  0  0  0
  152.4349  141.4934  159.1281 C   0  0  0  0  0  0  0  0  0  0  0  0
  151.9909  140.0461  158.8525 C   0  0  0  0  0  0  0  0  0  0  0  0
  151.4345  139.8401  157.4273 C   0  0  1  0  0  0  0  0  0  0  0  0
  152.5095  140.0174  156.5214 O   0  0  0  0  0  0  0  0  0  0  0  0
  150.9339  138.3822  157.2709 C   0  0  0  0  0  0  0  0  0  0  0  0
  149.6046  138.1678  157.8370 N   0  0  0  0  0  0  0  0  0  0  0  0
  149.3325  137.3898  158.8956 C   0  0  0  0  0  0  0  0  0  0  0  0
  150.1955  136.8014  159.5469 O   0  0  0  0  0  0  0  0  0  0  0  0
  147.8568  137.2337  159.2653 C   0  0  0  0  0  0  0  0  0  0  0  0
  147.7078  136.5475  160.5369 N   0  0  0  0  0  0  0  0  0  0  0  0
  147.7800  135.2492  160.8405 C   0  0  0  0  0  0  0  0  0  0  0  0
  147.5753  134.9865  162.1238 N   0  0  0  0  0  0  0  0  0  0  0  0
  147.3645  136.2552  162.5851 C   0  0  0  0  0  0  0  0  0  0  0  0
  147.4263  137.2265  161.6741 N   0  0  0  0  0  0  0  0  0  0  0  0
  150.3358  140.8886  157.1345 C   0  0  0  0  0  0  0  0  0  0  0  0
  150.7848  142.3322  157.4240 C   0  0  0  0  0  0  0  0  0  0  0  0
  150.7159  145.9555  159.4310 H   0  0  0  0  0  0  0  0  0  0  0  0
  149.6397  144.6367  159.8422 H   0  0  0  0  0  0  0  0  0  0  0  0
  150.0242  144.9728  158.1574 H   0  0  0  0  0  0  0  0  0  0  0  0
  152.4071  144.6666  157.2956 H   0  0  0  0  0  0  0  0  0  0  0  0
  153.6223  143.8618  158.2865 H   0  0  0  0  0  0  0  0  0  0  0  0
  153.1217  145.5065  158.6474 H   0  0  0  0  0  0  0  0  0  0  0  0
  152.6027  145.0535  160.9226 H   0  0  0  0  0  0  0  0  0  0  0  0
  153.0481  143.3570  160.8274 H   0  0  0  0  0  0  0  0  0  0  0  0
  151.4671  143.8351  161.4427 H   0  0  0  0  0  0  0  0  0  0  0  0
  150.4723  142.2222  159.5298 H   0  0  0  0  0  0  0  0  0  0  0  0
  153.2989  141.7277  158.5063 H   0  0  0  0  0  0  0  0  0  0  0  0
  152.7788  141.5406  160.1599 H   0  0  0  0  0  0  0  0  0  0  0  0
  152.8259  139.3674  159.0330 H   0  0  0  0  0  0  0  0  0  0  0  0
  151.2248  139.7769  159.5809 H   0  0  0  0  0  0  0  0  0  0  0  0
  152.2578  140.6613  155.8771 H   0  0  0  0  0  0  0  0  0  0  0  0
  150.9755  138.0653  156.2269 H   0  0  0  0  0  0  0  0  0  0  0  0
  151.6057  137.7124  157.8087 H   0  0  0  0  0  0  0  0  0  0  0  0
  148.8318  138.6142  157.3650 H   0  0  0  0  0  0  0  0  0  0  0  0
  147.3917  138.2191  159.3233 H   0  0  0  0  0  0  0  0  0  0  0  0
  147.3219  136.6686  158.5003 H   0  0  0  0  0  0  0  0  0  0  0  0
  147.9882  134.4820  160.1094 H   0  0  0  0  0  0  0  0  0  0  0  0
  147.1547  136.4690  163.6227 H   0  0  0  0  0  0  0  0  0  0  0  0
  150.0087  140.8230  156.0964 H   0  0  0  0  0  0  0  0  0  0  0  0
  149.4584  140.6663  157.7431 H   0  0  0  0  0  0  0  0  0  0  0  0
  149.9377  142.9866  157.2254 H   0  0  0  0  0  0  0  0  0  0  0  0
  151.5614  142.6117  156.7120 H   0  0  0  0  0  0  0  0  0  0  0  0
  1  2  1  0  0  0  0
  1 22  1  0  0  0  0
  1 23  1  0  0  0  0
  1 24  1  0  0  0  0
  2  3  1  0  0  0  0
  2  4  1  0  0  0  0
  2  5  1  0  0  0  0
  3 25  1  0  0  0  0
  3 26  1  0  0  0  0
  3 27  1  0  0  0  0
  4 28  1  0  0  0  0
  4 29  1  0  0  0  0
  4 30  1  0  0  0  0
  5 21  1  0  0  0  0
  5  6  1  0  0  0  0
  5 31  1  0  0  0  0
  6  7  1  0  0  0  0
  6 32  1  0  0  0  0
  6 33  1  0  0  0  0
  7  8  1  0  0  0  0
  7 34  1  0  0  0  0
  7 35  1  0  0  0  0
  8  9  1  0  0  0  0
  8 10  1  0  0  0  0
  8 20  1  0  0  0  0
  9 36  1  0  0  0  0
 10 11  1  0  0  0  0
 10 37  1  0  0  0  0
 10 38  1  0  0  0  0
 11 12  1  0  0  0  0
 11 39  1  0  0  0  0
 12 13  2  0  0  0  0
 12 14  1  0  0  0  0
 14 15  1  0  0  0  0
 14 40  1  0  0  0  0
 14 41  1  0  0  0  0
 15 19  1  0  0  0  0
 15 16  1  0  0  0  0
 16 17  2  0  0  0  0
 16 42  1  0  0  0  0
 17 18  1  0  0  0  0
 18 19  2  0  0  0  0
 18 43  1  0  0  0  0
 20 21  1  0  0  0  0
 20 44  1  0  0  0  0
 20 45  1  0  0  0  0
 21 46  1  0  0  0  0
 21 47  1  0  0  0  0
M  END
> <s_m_source_file>
AV-unprocessed.smi

> <i_m_source_file_index>
758

> <i_lp_mmshare_version>
43012

> <i_f3d_flags>
0

> <s_epik_input>
W0NIM11DKFtDSDNdKShbQ0gzXSlbQ0BASF0oW0NIMl1bQ0gyXTEpW0NIMl1bQ0gyXVtDQEBdMShbT0hdKVtDSDJdW05IXUMoPU8pW0NIMl1uMltjSF1uW2NIXW4y

> <s_epik_cmdline>
J2VwaWtfcHl0aG9uJywgJy1waCcsICc3LjAnLCAnLXRuJywgJzgnLCAnLW1hJywgJzIwMCcsICctbWV0YWxfYmluZGluZycsICctaW1hZScsICc8aW5maWxlLm1hZT4nLCAnLW9tYWUnLCAnPG91dGZpbGUubWFlPic=

> <r_lp_tautomer_probability>
1

> <r_epik_Ionization_Penalty>
1.04836e-05

> <r_epik_Ionization_Penalty_Charging>
0

> <r_epik_Ionization_Penalty_Neutral>
1.04836e-05

> <r_epik_State_Penalty>
-0

> <r_epik_Charging_Adjusted_Penalty>
0

> <i_epik_Tot_Q>
0

> <i_epik_Tot_abs_Q>
0

> <r_epik_Metal_State_Penalty>
-0

> <b_epik_Metal_Only>
0

> <s_lp_Force_Field>
OPLS_2005

> <r_lp_Energy>
23.8221

> <b_lp_Chiralities_Consistent>
1

> <s_lp_Variant>
AV-unprocessed.smi:758-1

> <Gold.Version>
5.8.1

> <Gold.Id.Protein>
6NUR|6NUR_protein|mol2

> <Gold.PLP.Fitness>
53.0347

> <Gold.PLP.PLP>
-43.0279

> <Gold.PLP.part.hbond>
-4.0000

> <Gold.PLP.part.metal>
0.0000

> <Gold.PLP.part.buried>
-5.4506

> <Gold.PLP.part.nonpolar>
-33.2659

> <Gold.PLP.part.repulsive>
0.0793

> <Gold.PLP.ligand.clash>
0.0000

> <Gold.PLP.ligand.torsion>
0.6501

> <Gold.PLP.Chemscore.Hbond>
3.7440

> <Gold.PLP.Chemscore.CHOScore>
0.0000

> <Gold.PLP.Chemscore.Metal>
0.0000

> <Gold.Chemscore.Hbonds>
donor molecule, donor type, donor heavy atom, donor atom, acceptor molecule, acceptor atom, score
      P1  H  6896  6908       L1    13  0.99
      P1  H  6931  6943       L1    19  0.91
      P1  H  6934  6947       L1    19  0.82
      P1  H  7997  8010       L1     9  1.00

> <Gold.PLP.Chemscore.Internal.Correction>
0.0750

> <Gold.Rescore>
     Score         DG    S(hbond)    S(metal)    S(lipo)     H(rot)  DE(clash)    DE(int)     intcor
     17.07     -17.98       2.80        0.00      96.31       3.17       0.23       0.68       ----

> <Gold.Chemscore.Fitness>
17.0715

> <Gold.Chemscore.DG>
-17.9791

> <Gold.Chemscore.ZeroCoef>
-5.4800

> <Gold.Chemscore.Hbond>
2.7954

> <Gold.Chemscore.Metal>
0.0000

> <Gold.Chemscore.Lipo>
96.3074

> <Gold.Chemscore.Internal_Hbond>
0.0000

> <Gold.Chemscore.DEClash>
0.2271

> <Gold.Chemscore.DEInternal>
0.6805

> <Gold.Chemscore.Rot>
3.1663

> <Gold.Chemscore.Internal.Correction>
   9.000000E+99

> <Gold.Chemscore.Hbonds>
donor molecule, donor type, donor heavy atom, donor atom, acceptor molecule, acceptor atom, score
      P1  H  6896  6908       L1    13  0.91
      P1  H  6931  6943       L1    19  0.23
      P1  H  6934  6947       L1    19  0.21
      P1  H  7997  8010       L1     9  0.35

> <Gold.Chemscore.Hbond.Weighted>
-9.3368

> <Gold.Chemscore.Metal.Weighted>
-0.0000

> <Gold.Chemscore.Lipo.Weighted>
-11.2680

> <Gold.Chemscore.Internal_Hbond.Weighted>
0.0000

> <Gold.Chemscore.DEClash.Weighted>
0.2271

> <Gold.Chemscore.DEInternal.Weighted>
0.6805

> <Gold.Chemscore.Rot.Weighted>
8.1056

> <Gold.Chemscore.Internal.Correction.Weighted>
   9.000000E+99

> <Gold.Protein.RotatedTorsions>
[ 6907 6896 6895 6894 ] final -169.55 input  -60.11 | X-H torsion
[ 7974 7965 7964 7962 ] final   50.78 input  175.53 | X-H torsion
[ 8008 7997 7996 7995 ] final   70.26 input   59.86 | X-H torsion
[ 10167 10162 10161 10158 ] final -107.04 input  -65.29 | X-H torsion
[ 10718 10713 10712 10709 ] final  -74.61 input   66.30 | X-H torsion
[ 10763 10752 10751 10750 ] final  165.95 input  -60.55 | X-H torsion
[ 11005 11000 10999 10996 ] final  147.42 input  -57.11 | X-H torsion

> <Gold.Protein.ActiveResidues>
 VAL166  LYS551  ARG553  GLY616  TRP617  ASP618  TYR619  PRO620  LYS621  CYS622 
 ASP623  PHE694  ASN695  SER759  ASP760  ASP761  ALA762  ILE779  LEU786  VAL792 
 PHE793  MET794  SER795  GLU796  ALA797  LYS798  CYS799  TRP800  GLU811  SER814 

> <Gold.Protein.RotatedAtoms>
  151.4935  133.3520  159.2856 H   0  0  0  0  0  0  0  0  0  0  0  0  # atno 6907 bound_to 6896
  150.8819  134.8214  159.7242 H   0  0  0  0  0  0  0  0  0  0  0  0  # atno 6908 bound_to 6896
  152.4768  134.4833  159.9724 H   0  0  0  0  0  0  0  0  0  0  0  0  # atno 6909 bound_to 6896
  145.9979  139.4407  143.0033 H   0  0  0  0  0  0  0  0  0  0  0  0  # atno 7974 bound_to 7965
  155.7361  140.3491  155.5082 H   0  0  0  0  0  0  0  0  0  0  0  0  # atno 8008 bound_to 7997
  155.9138  140.1055  157.1281 H   0  0  0  0  0  0  0  0  0  0  0  0  # atno 8009 bound_to 7997
  154.4059  140.1263  156.4578 H   0  0  0  0  0  0  0  0  0  0  0  0  # atno 8010 bound_to 7997
  140.1813  143.3964  152.1279 H   0  0  0  0  0  0  0  0  0  0  0  0  # atno 10167 bound_to 10162
  156.0236  130.4421  150.2918 H   0  0  0  0  0  0  0  0  0  0  0  0  # atno 10718 bound_to 10713
  154.3318  135.2754  155.2468 H   0  0  0  0  0  0  0  0  0  0  0  0  # atno 10763 bound_to 10752
  154.4777  135.5866  153.6370 H   0  0  0  0  0  0  0  0  0  0  0  0  # atno 10764 bound_to 10752
  152.9866  135.6103  154.3511 H   0  0  0  0  0  0  0  0  0  0  0  0  # atno 10765 bound_to 10752
  140.0874  134.9061  157.1597 H   0  0  0  0  0  0  0  0  0  0  0  0  # atno 11005 bound_to 11000
  145.7532  140.9964  143.1239 LP  0  0  0  0  0  0  0  0  0  0  0  0  # atno 17320 bound_to 7965
  144.6909  139.9240  143.7469 LP  0  0  0  0  0  0  0  0  0  0  0  0  # atno 17321 bound_to 7965
  139.5295  144.7142  151.5108 LP  0  0  0  0  0  0  0  0  0  0  0  0  # atno 17342 bound_to 10162
  140.6518  143.8682  150.6793 LP  0  0  0  0  0  0  0  0  0  0  0  0  # atno 17343 bound_to 10162
  157.1021  131.0198  151.3081 LP  0  0  0  0  0  0  0  0  0  0  0  0  # atno 17370 bound_to 10713
  157.4771  130.7743  149.7378 LP  0  0  0  0  0  0  0  0  0  0  0  0  # atno 17371 bound_to 10713
  140.3401  134.2714  155.7213 LP  0  0  0  0  0  0  0  0  0  0  0  0  # atno 17394 bound_to 11000
  141.2067  133.7826  157.0162 LP  0  0  0  0  0  0  0  0  0  0  0  0  # atno 17395 bound_to 11000

$$$$
