#       Name:                AV-unprocessed.smi:2439
#       Creating user name   scv26
#       Creation time:       Fri Mar 27 13:24:45 2020


#       File generated by GOLD software.
#

@<TRIPOS>MOLECULE
AV-unprocessed.smi:2439
    45    47     1
SMALL
NO_CHARGES


@<TRIPOS>ATOM
      1 ****        -2.0655  -5.3318   1.0776 N.1            1 S1                 0.0000
      2 ****        -2.6165  -4.3150   1.1083 C.1            1 S1                 0.0000
      3 ****        -3.3110  -3.0336   1.1472 C.ar           1 S1                 0.0000
      4 ****        -4.7207  -3.0198   1.1006 C.ar           1 S1                 0.0000
      5 ****        -5.3967  -1.7866   1.1389 C.ar           1 S1                 0.0000
      6 ****        -4.6306  -0.6098   1.2231 C.ar           1 S1                 0.0000
      7 ****        -3.2821  -0.6082   1.2684 N.ar           1 S1                 0.0000
      8 ****        -2.6234  -1.7927   1.2297 C.ar           1 S1                 0.0000
      9 ****        -1.2185  -1.7576   1.2774 N.pl3          1 S1                 0.0000
     10 ****        -0.4942  -0.4968   1.1976 C.3            1 S1                 0.0000
     11 ****         1.0264  -0.7253   1.1073 C.3            1 S1                 0.0000
     12 ****         1.8351   0.5844   1.1756 C.3            1 S1                 0.0000
     13 ****         1.7140   1.3866  -0.0361 N.3            1 S1                 0.0000
     14 ****         2.5132   2.6074   0.0594 C.3            1 S1                 0.0000
     15 ****         2.3790   3.4966  -1.1865 C.3            1 S1                 0.0000
     16 ****         2.7654   2.7086  -2.4459 C.3            1 S1                 0.0000
     17 ****         1.9639   1.3998  -2.5150 C.3            1 S1                 0.0000
     18 ****         2.1020   0.5937  -1.2062 C.3            1 S1                 0.0000
     19 ****         1.2812  -0.7085  -1.2882 C.3            1 S1                 0.0000
     20 ****         1.3913  -1.4448  -0.0724 O.3            1 S1                 0.0000
     21 ****        -5.2826  -3.9408   1.0363 H              1 S1                 0.0000
     22 ****        -6.4752  -1.7441   1.1053 H              1 S1                 0.0000
     23 ****        -5.1125   0.3561   1.2553 H              1 S1                 0.0000
     24 ****        -0.6949  -2.6184   1.2057 H              1 S1                 0.0000
     25 ****        -0.8524   0.0858   0.3490 H              1 S1                 0.0000
     26 ****        -0.7195   0.0838   2.0927 H              1 S1                 0.0000
     27 ****         1.3205  -1.3407   1.9586 H              1 S1                 0.0000
     28 ****         1.5157   1.1668   2.0409 H              1 S1                 0.0000
     29 ****         2.8850   0.3385   1.3427 H              1 S1                 0.0000
     30 ****         2.2072   3.1774   0.9375 H              1 S1                 0.0000
     31 ****         3.5634   2.3515   0.2089 H              1 S1                 0.0000
     32 ****         1.3516   3.8528  -1.2737 H              1 S1                 0.0000
     33 ****         3.0092   4.3807  -1.0876 H              1 S1                 0.0000
     34 ****         2.5893   3.3095  -3.3384 H              1 S1                 0.0000
     35 ****         3.8324   2.4837  -2.4239 H              1 S1                 0.0000
     36 ****         0.9127   1.6277  -2.6985 H              1 S1                 0.0000
     37 ****         2.3046   0.8043  -3.3627 H              1 S1                 0.0000
     38 ****         3.1511   0.3126  -1.0986 H              1 S1                 0.0000
     39 ****         0.2339  -0.4984  -1.5073 H              1 S1                 0.0000
     40 ****         1.6477  -1.3341  -2.1023 H              1 S1                 0.0000
     41 ****        -1.5892  -6.2107   1.0510 LP             1 S1                 0.0000
     42 ****        -2.7767   0.2525   1.3295 LP             1 S1                 0.0000
     43 ****         0.7580   1.6605  -0.1408 LP             1 S1                 0.0000
     44 ****         0.7987  -2.2474  -0.1415 LP             1 S1                 0.0000
     45 ****         2.3417  -1.7398   0.0261 LP             1 S1                 0.0000
@<TRIPOS>BOND
    1    1    2 3     
    2    2    3 1     
    3    3    8 ar    
    4    3    4 ar    
    5    4    5 ar    
    6    4   21 1     
    7    5    6 ar    
    8    5   22 1     
    9    6    7 ar    
   10    6   23 1     
   11    7    8 ar    
   12    8    9 1     
   13    9   10 1     
   14    9   24 1     
   15   10   11 1     
   16   10   25 1     
   17   10   26 1     
   18   11   20 1     
   19   11   12 1     
   20   11   27 1     
   21   12   13 1     
   22   12   28 1     
   23   12   29 1     
   24   13   18 1     
   25   13   14 1     
   26   14   15 1     
   27   14   30 1     
   28   14   31 1     
   29   15   16 1     
   30   15   32 1     
   31   15   33 1     
   32   16   17 1     
   33   16   34 1     
   34   16   35 1     
   35   17   18 1     
   36   17   36 1     
   37   17   37 1     
   38   18   19 1     
   39   18   38 1     
   40   19   20 1     
   41   19   39 1     
   42   19   40 1     
   43    1   41 1     
   44    7   42 1     
   45   13   43 1     
   46   20   44 1     
   47   20   45 1     
@<TRIPOS>SUBSTRUCTURE
      1 S1             1
@<TRIPOS>SET
LONE_PAIRS      STATIC     ATOMS    <user>   **** ""
5 41 42 43 44 45
DONOR_HYDROGENS      STATIC     ATOMS    <user>   **** ""
1 24
ATOM$BLUE        STATIC     ATOMS    COLORGROUP SYSTEM
5 41 42 43 44 45
ATOM$RED        STATIC     ATOMS    COLORGROUP SYSTEM
1 24
