AV-unprocessed.smi:1656|AV-procd|sdf|6646|dock8
  -GOLD-   22720 7353D 1   1.00000     0.00000
 Structure written by MMmdl.
 49 52  0  0  0  0  0  0  0  0  1 V2000
  146.9769  139.5903  155.2189 C   0  0  0  0  0  0  0  0  0  0  0  0
  148.2617  138.8265  155.3946 C   0  0  0  0  0  0  0  0  0  0  0  0
  148.1672  137.6366  155.8902 N   0  0  0  0  0  0  0  0  0  0  0  0
  149.2846  136.8480  156.0857 N   0  0  0  0  0  0  0  0  0  0  0  0
  148.9906  135.5100  156.6202 C   0  0  0  0  0  0  0  0  0  0  0  0
  148.7644  135.5083  158.1389 C   0  0  0  0  0  0  0  0  0  0  0  0
  149.7241  135.5218  158.9106 O   0  0  0  0  0  0  0  0  0  0  0  0
  147.4817  135.4760  158.5398 N   0  0  0  0  0  0  0  0  0  0  0  0
  146.9584  135.4887  159.9100 C   0  0  0  0  0  0  0  0  0  0  0  0
  147.4654  136.7227  160.7058 C   0  0  0  0  0  0  0  0  0  0  0  0
  146.9407  136.6626  162.1569 C   0  0  1  0  0  0  0  0  0  0  0  0
  145.3964  136.6550  162.1480 C   0  0  0  0  0  0  0  0  0  0  0  0
  144.8930  135.4139  161.3791 C   0  0  2  0  0  0  0  0  0  0  0  0
  145.4119  134.1335  162.0659 C   0  0  0  0  0  0  0  0  0  0  0  0
  146.9545  134.1490  162.0684 C   0  0  2  0  0  0  0  0  0  0  0  0
  147.4606  135.3827  162.8440 C   0  0  0  0  0  0  0  0  0  0  0  0
  147.4715  134.2071  160.6154 C   0  0  0  0  0  0  0  0  0  0  0  0
  145.4049  135.4665  159.9234 C   0  0  0  0  0  0  0  0  0  0  0  0
  150.5641  137.2309  155.8064 C   0  0  0  0  0  0  0  0  0  0  0  0
  151.5339  136.4983  156.0086 O   0  0  0  0  0  0  0  0  0  0  0  0
  150.6635  138.5798  155.2450 C   0  0  0  0  0  0  0  0  0  0  0  0
  151.9849  139.0152  154.9260 C   0  0  0  0  0  0  0  0  0  0  0  0
  153.0488  139.3832  154.6559 N   0  0  0  0  0  0  0  0  0  0  0  0
  149.5727  139.3597  155.0387 C   0  0  0  0  0  0  0  0  0  0  0  0
  149.6221  140.7652  154.4554 C   0  0  0  0  0  0  0  0  0  0  0  0
  146.9702  140.4839  155.8432 H   0  0  0  0  0  0  0  0  0  0  0  0
  146.1067  138.9912  155.4911 H   0  0  0  0  0  0  0  0  0  0  0  0
  146.8491  139.9002  154.1816 H   0  0  0  0  0  0  0  0  0  0  0  0
  148.1179  135.0922  156.1141 H   0  0  0  0  0  0  0  0  0  0  0  0
  149.8114  134.8250  156.4013 H   0  0  0  0  0  0  0  0  0  0  0  0
  146.7832  135.4613  157.8110 H   0  0  0  0  0  0  0  0  0  0  0  0
  148.5559  136.7545  160.7037 H   0  0  0  0  0  0  0  0  0  0  0  0
  147.1323  137.6528  160.2451 H   0  0  0  0  0  0  0  0  0  0  0  0
  147.2948  137.5361  162.7049 H   0  0  0  0  0  0  0  0  0  0  0  0
  145.0127  136.6475  163.1690 H   0  0  0  0  0  0  0  0  0  0  0  0
  145.0173  137.5660  161.6832 H   0  0  0  0  0  0  0  0  0  0  0  0
  143.8026  135.4063  161.3776 H   0  0  0  0  0  0  0  0  0  0  0  0
  145.0324  134.0711  163.0866 H   0  0  0  0  0  0  0  0  0  0  0  0
  145.0431  133.2489  161.5451 H   0  0  0  0  0  0  0  0  0  0  0  0
  147.3245  133.2426  162.5487 H   0  0  0  0  0  0  0  0  0  0  0  0
  148.5508  135.3872  162.8776 H   0  0  0  0  0  0  0  0  0  0  0  0
  147.1202  135.3442  163.8795 H   0  0  0  0  0  0  0  0  0  0  0  0
  147.1448  133.3189  160.0724 H   0  0  0  0  0  0  0  0  0  0  0  0
  148.5624  134.1831  160.6113 H   0  0  0  0  0  0  0  0  0  0  0  0
  144.9946  136.3491  159.4325 H   0  0  0  0  0  0  0  0  0  0  0  0
  145.0327  134.6064  159.3650 H   0  0  0  0  0  0  0  0  0  0  0  0
  150.6424  141.1013  154.2731 H   0  0  0  0  0  0  0  0  0  0  0  0
  149.1604  141.4814  155.1358 H   0  0  0  0  0  0  0  0  0  0  0  0
  149.0894  140.8010  153.5047 H   0  0  0  0  0  0  0  0  0  0  0  0
  1  2  1  0  0  0  0
  1 26  1  0  0  0  0
  1 27  1  0  0  0  0
  1 28  1  0  0  0  0
  2 24  1  0  0  0  0
  2  3  2  0  0  0  0
  3  4  1  0  0  0  0
  4  5  1  0  0  0  0
  4 19  1  0  0  0  0
  5  6  1  0  0  0  0
  5 29  1  0  0  0  0
  5 30  1  0  0  0  0
  6  7  2  0  0  0  0
  6  8  1  0  0  0  0
  8  9  1  0  0  0  0
  8 31  1  0  0  0  0
  9 17  1  0  0  0  0
  9 18  1  0  0  0  0
  9 10  1  0  0  0  0
 10 11  1  0  0  0  0
 10 32  1  0  0  0  0
 10 33  1  0  0  0  0
 11 16  1  0  0  0  0
 11 12  1  0  0  0  0
 11 34  1  0  0  0  0
 12 13  1  0  0  0  0
 12 35  1  0  0  0  0
 12 36  1  0  0  0  0
 13 14  1  0  0  0  0
 13 18  1  0  0  0  0
 13 37  1  0  0  0  0
 14 15  1  0  0  0  0
 14 38  1  0  0  0  0
 14 39  1  0  0  0  0
 15 16  1  0  0  0  0
 15 17  1  0  0  0  0
 15 40  1  0  0  0  0
 16 41  1  0  0  0  0
 16 42  1  0  0  0  0
 17 43  1  0  0  0  0
 17 44  1  0  0  0  0
 18 45  1  0  0  0  0
 18 46  1  0  0  0  0
 19 20  2  0  0  0  0
 19 21  1  0  0  0  0
 21 22  1  0  0  0  0
 21 24  2  0  0  0  0
 22 23  3  0  0  0  0
 24 25  1  0  0  0  0
 25 47  1  0  0  0  0
 25 48  1  0  0  0  0
 25 49  1  0  0  0  0
M  END
> <s_m_source_file>
AV-unprocessed.smi

> <i_m_source_file_index>
1656

> <i_lp_mmshare_version>
43012

> <i_f3d_flags>
0

> <s_epik_input>
TiNDYyhjMVtDSDNdKWMoPU8pbihuYzFbQ0gzXSlbQ0gyXUMoPU8pW05IXUMyM1tDSDJdW0NASF00W0NIMl1bQ0BASF0oW0NIMl0zKVtDSDJdW0NASF0oW0NIMl00KVtDSDJdMg==

> <s_epik_cmdline>
J2VwaWtfcHl0aG9uJywgJy1waCcsICc3LjAnLCAnLXRuJywgJzgnLCAnLW1hJywgJzIwMCcsICctbWV0YWxfYmluZGluZycsICctaW1hZScsICc8aW5maWxlLm1hZT4nLCAnLW9tYWUnLCAnPG91dGZpbGUubWFlPic=

> <r_lp_tautomer_probability>
1

> <r_epik_Ionization_Penalty>
2.33831e-08

> <r_epik_Ionization_Penalty_Charging>
2.51001e-11

> <r_epik_Ionization_Penalty_Neutral>
2.3358e-08

> <r_epik_State_Penalty>
-0

> <r_epik_Charging_Adjusted_Penalty>
2.51001e-11

> <i_epik_Tot_Q>
0

> <i_epik_Tot_abs_Q>
0

> <r_epik_Metal_State_Penalty>
-0

> <b_epik_Metal_Only>
0

> <s_lp_Force_Field>
OPLS_2005

> <r_lp_Energy>
45.1543

> <b_lp_Chiralities_Consistent>
1

> <s_lp_Variant>
AV-unprocessed.smi:1656-1

> <Gold.Version>
5.8.1

> <Gold.Id.Protein>
6NUR|6NUR_protein|mol2

> <Gold.PLP.Fitness>
42.4668

> <Gold.PLP.PLP>
-34.8042

> <Gold.PLP.part.hbond>
-3.6632

> <Gold.PLP.part.metal>
0.0000

> <Gold.PLP.part.buried>
-2.6250

> <Gold.PLP.part.nonpolar>
-29.4687

> <Gold.PLP.part.repulsive>
0.1130

> <Gold.PLP.ligand.clash>
0.0000

> <Gold.PLP.ligand.torsion>
0.5733

> <Gold.PLP.Chemscore.Hbond>
2.9348

> <Gold.PLP.Chemscore.CHOScore>
0.0000

> <Gold.PLP.Chemscore.Metal>
0.0000

> <Gold.Chemscore.Hbonds>
donor molecule, donor type, donor heavy atom, donor atom, acceptor molecule, acceptor atom, score
      P1  H  6896  6909       L1     7  0.99
      P1  H  7997  8009       L1    23  0.99
      P1  H 10752 10765       L1    20  0.80

> <Gold.PLP.Chemscore.Internal.Correction>
0.0050

> <Gold.Rescore>
     Score         DG    S(hbond)    S(metal)    S(lipo)     H(rot)  DE(clash)    DE(int)     intcor
     19.60     -21.07       2.83        0.00      84.18       1.44       0.87       0.60       ----

> <Gold.Chemscore.Fitness>
19.6049

> <Gold.Chemscore.DG>
-21.0708

> <Gold.Chemscore.ZeroCoef>
-5.4800

> <Gold.Chemscore.Hbond>
2.8261

> <Gold.Chemscore.Metal>
0.0000

> <Gold.Chemscore.Lipo>
84.1762

> <Gold.Chemscore.Internal_Hbond>
0.0000

> <Gold.Chemscore.DEClash>
0.8656

> <Gold.Chemscore.DEInternal>
0.6003

> <Gold.Chemscore.Rot>
1.4442

> <Gold.Chemscore.Internal.Correction>
   9.000000E+99

> <Gold.Chemscore.Hbonds>
donor molecule, donor type, donor heavy atom, donor atom, acceptor molecule, acceptor atom, score
      P1  H  6896  6909       L1     7  0.89
      P1  H  7997  8009       L1    23  0.92
      P1  H 10752 10765       L1    20  0.79

> <Gold.Chemscore.Hbond.Weighted>
-9.4393

> <Gold.Chemscore.Metal.Weighted>
-0.0000

> <Gold.Chemscore.Lipo.Weighted>
-9.8486

> <Gold.Chemscore.Internal_Hbond.Weighted>
0.0000

> <Gold.Chemscore.DEClash.Weighted>
0.8656

> <Gold.Chemscore.DEInternal.Weighted>
0.6003

> <Gold.Chemscore.Rot.Weighted>
3.6971

> <Gold.Chemscore.Internal.Correction.Weighted>
   9.000000E+99

> <Gold.Protein.RotatedTorsions>
[ 6907 6896 6895 6894 ] final   37.28 input  -60.11 | X-H torsion
[ 7974 7965 7964 7962 ] final  148.14 input  175.53 | X-H torsion
[ 8008 7997 7996 7995 ] final -122.86 input   59.86 | X-H torsion
[ 10167 10162 10161 10158 ] final  -91.96 input  -65.29 | X-H torsion
[ 10718 10713 10712 10709 ] final  125.65 input   66.30 | X-H torsion
[ 10763 10752 10751 10750 ] final -160.20 input  -60.55 | X-H torsion
[ 11005 11000 10999 10996 ] final  -42.71 input  -57.11 | X-H torsion

> <Gold.Protein.ActiveResidues>
 VAL166  LYS551  ARG553  GLY616  TRP617  ASP618  TYR619  PRO620  LYS621  CYS622 
 ASP623  PHE694  ASN695  SER759  ASP760  ASP761  ALA762  ILE779  LEU786  VAL792 
 PHE793  MET794  SER795  GLU796  ALA797  LYS798  CYS799  TRP800  GLU811  SER814 

> <Gold.Protein.RotatedAtoms>
  152.1410  134.9062  160.0553 H   0  0  0  0  0  0  0  0  0  0  0  0  # atno 6907 bound_to 6896
  152.0130  133.3864  159.4235 H   0  0  0  0  0  0  0  0  0  0  0  0  # atno 6908 bound_to 6896
  150.6865  134.3631  159.5003 H   0  0  0  0  0  0  0  0  0  0  0  0  # atno 6909 bound_to 6896
  144.8536  139.6117  143.5962 H   0  0  0  0  0  0  0  0  0  0  0  0  # atno 7974 bound_to 7965
  155.1711  140.0408  157.2863 H   0  0  0  0  0  0  0  0  0  0  0  0  # atno 8008 bound_to 7997
  154.6269  140.2514  155.7454 H   0  0  0  0  0  0  0  0  0  0  0  0  # atno 8009 bound_to 7997
  156.2464  140.2883  156.0603 H   0  0  0  0  0  0  0  0  0  0  0  0  # atno 8010 bound_to 7997
  140.3396  143.2949  151.9850 H   0  0  0  0  0  0  0  0  0  0  0  0  # atno 10167 bound_to 10162
  157.5485  131.1095  150.8741 H   0  0  0  0  0  0  0  0  0  0  0  0  # atno 10718 bound_to 10713
  154.7410  135.3068  154.8728 H   0  0  0  0  0  0  0  0  0  0  0  0  # atno 10763 bound_to 10752
  153.9542  135.6760  153.4748 H   0  0  0  0  0  0  0  0  0  0  0  0  # atno 10764 bound_to 10752
  153.1009  135.4912  154.8790 H   0  0  0  0  0  0  0  0  0  0  0  0  # atno 10765 bound_to 10752
  141.0334  133.6810  156.2632 H   0  0  0  0  0  0  0  0  0  0  0  0  # atno 11005 bound_to 11000
  146.2805  139.6865  142.9232 LP  0  0  0  0  0  0  0  0  0  0  0  0  # atno 17320 bound_to 7965
  145.4450  141.0425  143.2836 LP  0  0  0  0  0  0  0  0  0  0  0  0  # atno 17321 bound_to 7965
  139.4842  144.6168  151.7332 LP  0  0  0  0  0  0  0  0  0  0  0  0  # atno 17342 bound_to 10162
  140.5321  144.0713  150.6057 LP  0  0  0  0  0  0  0  0  0  0  0  0  # atno 17343 bound_to 10162
  156.9272  130.5336  149.5279 LP  0  0  0  0  0  0  0  0  0  0  0  0  # atno 17370 bound_to 10713
  156.0556  130.5618  150.9085 LP  0  0  0  0  0  0  0  0  0  0  0  0  # atno 17371 bound_to 10713
  140.6365  134.5210  157.5565 LP  0  0  0  0  0  0  0  0  0  0  0  0  # atno 17394 bound_to 11000
  139.9224  134.8123  156.1171 LP  0  0  0  0  0  0  0  0  0  0  0  0  # atno 17395 bound_to 11000

$$$$
