AV-unprocessed.smi:990|AV-procd|sdf|4327|dock3
  -GOLD-   22720 2233D 1   1.00000     0.00000
 Structure written by MMmdl.
 45 46  0  0  0  0  0  0  0  0  2 V2000
  148.8841  126.5747  150.7740 C   0  0  0  0  0  0  0  0  0  0  0  0
  147.6662  126.8310  151.2743 C   0  0  0  0  0  0  0  0  0  0  0  0
  147.4030  127.6930  152.4939 C   0  0  0  0  0  0  0  0  0  0  0  0
  147.9476  129.0357  152.3295 N   0  0  0  0  0  0  0  0  0  0  0  0
  148.0981  129.9323  153.3152 C   0  0  0  0  0  0  0  0  0  0  0  0
  147.7760  129.7164  154.4834 O   0  0  0  0  0  0  0  0  0  0  0  0
  148.6236  131.0813  152.8551 N   0  0  0  0  0  0  0  0  0  0  0  0
  148.9496  132.2570  153.5842 C   0  0  0  0  0  0  0  0  0  0  0  0
  149.3625  132.2594  154.9404 C   0  0  0  0  0  0  0  0  0  0  0  0
  149.6744  133.4819  155.5693 C   0  0  0  0  0  0  0  0  0  0  0  0
  149.5790  134.6864  154.8353 C   0  0  0  0  0  0  0  0  0  0  0  0
  149.8596  135.9473  155.3787 N   0  0  0  0  0  0  0  0  0  0  0  0
  150.8869  136.6725  154.6423 C   0  0  0  0  0  0  0  0  0  0  0  0
  151.0381  138.1056  155.1818 C   0  0  0  0  0  0  0  0  0  0  0  0
  151.2857  138.1006  156.6376 N   0  0  0  0  0  0  0  0  0  0  0  0
  151.8529  139.5709  157.3605 S   0  0  0  0  0  0  0  0  0  0  0  0
  151.6561  140.8067  156.0109 C   0  0  0  0  0  0  0  0  0  0  0  0
  150.9169  139.9314  158.4363 O   0  0  0  0  0  0  0  0  0  0  0  0
  153.2835  139.4013  157.6568 O   0  0  0  0  0  0  0  0  0  0  0  0
  150.2929  137.3076  157.3897 C   0  0  0  0  0  0  0  0  0  0  0  0
  150.1569  135.8915  156.8041 C   0  0  0  0  0  0  0  0  0  0  0  0
  149.1978  134.6391  153.5402 N   0  3  0  0  0  0  0  0  0  0  0  0
  148.8915  133.4895  152.9001 C   0  0  0  0  0  0  0  0  0  0  0  0
  149.7758  126.9788  151.2305 H   0  0  0  0  0  0  0  0  0  0  0  0
  149.0040  125.9549  149.8978 H   0  0  0  0  0  0  0  0  0  0  0  0
  146.7987  126.4116  150.7852 H   0  0  0  0  0  0  0  0  0  0  0  0
  146.3301  127.7696  152.6727 H   0  0  0  0  0  0  0  0  0  0  0  0
  147.8355  127.2122  153.3728 H   0  0  0  0  0  0  0  0  0  0  0  0
  148.2328  129.2977  151.3970 H   0  0  0  0  0  0  0  0  0  0  0  0
  148.7568  131.1387  151.8561 H   0  0  0  0  0  0  0  0  0  0  0  0
  149.4582  131.3478  155.5094 H   0  0  0  0  0  0  0  0  0  0  0  0
  149.9845  133.4873  156.6040 H   0  0  0  0  0  0  0  0  0  0  0  0
  151.8404  136.1486  154.7235 H   0  0  0  0  0  0  0  0  0  0  0  0
  150.6285  136.7018  153.5830 H   0  0  0  0  0  0  0  0  0  0  0  0
  151.8619  138.5981  154.6658 H   0  0  0  0  0  0  0  0  0  0  0  0
  150.1392  138.6888  154.9769 H   0  0  0  0  0  0  0  0  0  0  0  0
  151.9109  141.7958  156.3909 H   0  0  0  0  0  0  0  0  0  0  0  0
  150.6220  140.8097  155.6670 H   0  0  0  0  0  0  0  0  0  0  0  0
  152.3179  140.5659  155.1804 H   0  0  0  0  0  0  0  0  0  0  0  0
  150.5848  137.2415  158.4368 H   0  0  0  0  0  0  0  0  0  0  0  0
  149.3320  137.8235  157.3612 H   0  0  0  0  0  0  0  0  0  0  0  0
  149.3639  135.3518  157.3237 H   0  0  0  0  0  0  0  0  0  0  0  0
  151.0814  135.3356  156.9674 H   0  0  0  0  0  0  0  0  0  0  0  0
  148.6020  133.5934  151.8641 H   0  0  0  0  0  0  0  0  0  0  0  0
  149.1375  135.5147  153.0194 H   0  0  0  0  0  0  0  0  0  0  0  0
  1  2  2  0  0  0  0
  1 24  1  0  0  0  0
  1 25  1  0  0  0  0
  2  3  1  0  0  0  0
  2 26  1  0  0  0  0
  3  4  1  0  0  0  0
  3 27  1  0  0  0  0
  3 28  1  0  0  0  0
  4  5  1  0  0  0  0
  4 29  1  0  0  0  0
  5  6  2  0  0  0  0
  5  7  1  0  0  0  0
  7  8  1  0  0  0  0
  7 30  1  0  0  0  0
  8 23  1  0  0  0  0
  8  9  2  0  0  0  0
  9 10  1  0  0  0  0
  9 31  1  0  0  0  0
 10 11  2  0  0  0  0
 10 32  1  0  0  0  0
 11 12  1  0  0  0  0
 11 22  1  0  0  0  0
 12 21  1  0  0  0  0
 12 13  1  0  0  0  0
 13 14  1  0  0  0  0
 13 33  1  0  0  0  0
 13 34  1  0  0  0  0
 14 15  1  0  0  0  0
 14 35  1  0  0  0  0
 14 36  1  0  0  0  0
 15 16  1  0  0  0  0
 15 20  1  0  0  0  0
 16 17  1  0  0  0  0
 16 18  2  0  0  0  0
 16 19  2  0  0  0  0
 17 37  1  0  0  0  0
 17 38  1  0  0  0  0
 17 39  1  0  0  0  0
 20 21  1  0  0  0  0
 20 40  1  0  0  0  0
 20 41  1  0  0  0  0
 21 42  1  0  0  0  0
 21 43  1  0  0  0  0
 22 23  2  0  0  0  0
 22 45  1  0  0  0  0
 23 44  1  0  0  0  0
M  CHG  1  22   1
M  END
> <s_m_source_file>
AV-unprocessed.smi

> <i_m_source_file_index>
990

> <i_lp_mmshare_version>
43012

> <i_f3d_flags>
0

> <s_epik_input>
W0NIMl09W0NIXVtDSDJdW05IXUMoPU8pW05IXWMxW2NIXVtjSF1jKG5bY0hdMSlOMltDSDJdW0NIMl1OKFMoPU8pKD1PKVtDSDNdKVtDSDJdW0NIMl0y

> <s_epik_cmdline>
J2VwaWtfcHl0aG9uJywgJy1waCcsICc3LjAnLCAnLXRuJywgJzgnLCAnLW1hJywgJzIwMCcsICctbWV0YWxfYmluZGluZycsICctaW1hZScsICc8aW5maWxlLm1hZT4nLCAnLW9tYWUnLCAnPG91dGZpbGUubWFlPic=

> <r_lp_tautomer_probability>
0.999994

> <r_epik_Ionization_Penalty>
0.881759

> <r_epik_Ionization_Penalty_Charging>
0.881739

> <r_epik_Ionization_Penalty_Neutral>
2.00436e-05

> <r_epik_State_Penalty>
0.920006

> <r_epik_Charging_Adjusted_Penalty>
1.80175

> <i_epik_Tot_Q>
1

> <i_epik_Tot_abs_Q>
1

> <r_epik_Metal_State_Penalty>
1.04263

> <b_epik_Metal_Only>
0

> <s_lp_Force_Field>
OPLS_2005

> <r_lp_Energy>
28.5026

> <b_lp_Chiralities_Consistent>
1

> <s_lp_Variant>
AV-unprocessed.smi:990-2

> <Gold.Version>
5.8.1

> <Gold.Id.Protein>
6NUR|6NUR_protein|mol2

> <Gold.PLP.Fitness>
47.2609

> <Gold.PLP.PLP>
-34.5854

> <Gold.PLP.part.hbond>
-4.0000

> <Gold.PLP.part.metal>
0.0000

> <Gold.PLP.part.buried>
-1.6194

> <Gold.PLP.part.nonpolar>
-28.3904

> <Gold.PLP.part.repulsive>
0.2031

> <Gold.PLP.ligand.clash>
0.0000

> <Gold.PLP.ligand.torsion>
0.6205

> <Gold.PLP.Chemscore.Hbond>
4.4000

> <Gold.PLP.Chemscore.CHOScore>
0.0000

> <Gold.PLP.Chemscore.Metal>
0.0000

> <Gold.Chemscore.Hbonds>
donor molecule, donor type, donor heavy atom, donor atom, acceptor molecule, acceptor atom, score
      L1  H     4    29       P1 10747  0.90
      L1  H     7    30       P1 10747  1.00
      L1  H    22    45       P1  7948  1.04
      P1  H  7997  8009       L1    19  1.00

> <Gold.PLP.Chemscore.Internal.Correction>
0.7165

> <Gold.Rescore>
     Score         DG    S(hbond)    S(metal)    S(lipo)     H(rot)  DE(clash)    DE(int)     intcor
     19.07     -20.05       3.15        0.00      73.25       1.77       0.22       0.75       ----

> <Gold.Chemscore.Fitness>
19.0736

> <Gold.Chemscore.DG>
-20.0474

> <Gold.Chemscore.ZeroCoef>
-5.4800

> <Gold.Chemscore.Hbond>
3.1540

> <Gold.Chemscore.Metal>
0.0000

> <Gold.Chemscore.Lipo>
73.2507

> <Gold.Chemscore.Internal_Hbond>
0.0000

> <Gold.Chemscore.DEClash>
0.2195

> <Gold.Chemscore.DEInternal>
0.7543

> <Gold.Chemscore.Rot>
1.7723

> <Gold.Chemscore.Internal.Correction>
   9.000000E+99

> <Gold.Chemscore.Hbonds>
donor molecule, donor type, donor heavy atom, donor atom, acceptor molecule, acceptor atom, score
      L1  H     4    29       P1 10747  0.25
      L1  H     7    30       P1 10747  0.89
      L1  H    22    45       P1  7948  0.15
      P1  H  7997  8009       L1    19  0.97

> <Gold.Chemscore.Hbond.Weighted>
-10.5342

> <Gold.Chemscore.Metal.Weighted>
-0.0000

> <Gold.Chemscore.Lipo.Weighted>
-8.5703

> <Gold.Chemscore.Internal_Hbond.Weighted>
0.0000

> <Gold.Chemscore.DEClash.Weighted>
0.2195

> <Gold.Chemscore.DEInternal.Weighted>
0.7543

> <Gold.Chemscore.Rot.Weighted>
4.5371

> <Gold.Chemscore.Internal.Correction.Weighted>
   9.000000E+99

> <Gold.Protein.RotatedTorsions>
[ 6907 6896 6895 6894 ] final  178.18 input  -60.11 | X-H torsion
[ 7974 7965 7964 7962 ] final  132.10 input  175.53 | X-H torsion
[ 8008 7997 7996 7995 ] final  164.08 input   59.86 | X-H torsion
[ 10167 10162 10161 10158 ] final   96.46 input  -65.29 | X-H torsion
[ 10718 10713 10712 10709 ] final  134.99 input   66.30 | X-H torsion
[ 10763 10752 10751 10750 ] final  145.59 input  -60.55 | X-H torsion
[ 11005 11000 10999 10996 ] final   92.53 input  -57.11 | X-H torsion

> <Gold.Protein.ActiveResidues>
 VAL166  LYS551  ARG553  GLY616  TRP617  ASP618  TYR619  PRO620  LYS621  CYS622 
 ASP623  PHE694  ASN695  SER759  ASP760  ASP761  ALA762  ILE779  LEU786  VAL792 
 PHE793  MET794  SER795  GLU796  ALA797  LYS798  CYS799  TRP800  GLU811  SER814 

> <Gold.Protein.RotatedAtoms>
  151.6921  133.3311  159.3245 H   0  0  0  0  0  0  0  0  0  0  0  0  # atno 6907 bound_to 6896
  150.7774  134.6689  159.6390 H   0  0  0  0  0  0  0  0  0  0  0  0  # atno 6908 bound_to 6896
  152.3821  134.6577  160.0191 H   0  0  0  0  0  0  0  0  0  0  0  0  # atno 6909 bound_to 6896
  145.0004  139.4318  143.5295 H   0  0  0  0  0  0  0  0  0  0  0  0  # atno 7974 bound_to 7965
  156.1908  140.1706  156.8096 H   0  0  0  0  0  0  0  0  0  0  0  0  # atno 8008 bound_to 7997
  154.5469  140.0725  156.8635 H   0  0  0  0  0  0  0  0  0  0  0  0  # atno 8009 bound_to 7997
  155.3105  140.3367  155.4246 H   0  0  0  0  0  0  0  0  0  0  0  0  # atno 8010 bound_to 7997
  139.7892  144.6858  150.9915 H   0  0  0  0  0  0  0  0  0  0  0  0  # atno 10167 bound_to 10162
  157.4617  131.1074  150.9912 H   0  0  0  0  0  0  0  0  0  0  0  0  # atno 10718 bound_to 10713
  154.0080  135.2917  155.3395 H   0  0  0  0  0  0  0  0  0  0  0  0  # atno 10763 bound_to 10752
  154.7120  135.5145  153.8684 H   0  0  0  0  0  0  0  0  0  0  0  0  # atno 10764 bound_to 10752
  153.0736  135.6656  154.0314 H   0  0  0  0  0  0  0  0  0  0  0  0  # atno 10765 bound_to 10752
  139.8822  134.8738  156.3587 H   0  0  0  0  0  0  0  0  0  0  0  0  # atno 11005 bound_to 11000
  146.3450  139.9389  142.8743 LP  0  0  0  0  0  0  0  0  0  0  0  0  # atno 17320 bound_to 7965
  145.2161  140.9916  143.4072 LP  0  0  0  0  0  0  0  0  0  0  0  0  # atno 17321 bound_to 7965
  140.7820  143.4399  151.0567 LP  0  0  0  0  0  0  0  0  0  0  0  0  # atno 17342 bound_to 10162
  139.8076  143.7996  152.3168 LP  0  0  0  0  0  0  0  0  0  0  0  0  # atno 17343 bound_to 10162
  157.0707  130.5863  149.5402 LP  0  0  0  0  0  0  0  0  0  0  0  0  # atno 17370 bound_to 10713
  156.0031  130.5114  150.7736 LP  0  0  0  0  0  0  0  0  0  0  0  0  # atno 17371 bound_to 10713
  140.9544  133.7429  156.0316 LP  0  0  0  0  0  0  0  0  0  0  0  0  # atno 17394 bound_to 11000
  140.8066  134.3448  157.5424 LP  0  0  0  0  0  0  0  0  0  0  0  0  # atno 17395 bound_to 11000

$$$$
