AV-unprocessed.smi:55|AV-procd|sdf|564|dock3
  -GOLD-   2262016463D 1   1.00000     0.00000
 Structure written by MMmdl.
 31 32  0  0  0  0  0  0  0  0  1 V2000
  150.9367  143.1240  158.3964 C   0  0  0  0  0  0  0  0  0  0  0  0
  151.1553  141.8848  157.5438 C   0  0  0  0  0  0  0  0  0  0  0  0
  150.5045  141.6854  156.3687 C   0  0  0  0  0  0  0  0  0  0  0  0
  150.6807  140.5604  155.5704 N   0  0  0  0  0  0  0  0  0  0  0  0
  149.9512  140.3613  154.2544 C   0  0  1  0  0  0  0  0  0  0  0  0
  149.0860  139.0862  154.2922 C   0  0  0  0  0  0  0  0  0  0  0  0
  147.6986  139.5915  153.9341 C   0  0  2  0  0  0  0  0  0  0  0  0
  147.4597  139.4539  152.5453 O   0  0  0  0  0  0  0  0  0  0  0  0
  147.7534  141.0610  154.3647 C   0  0  2  0  0  0  0  0  0  0  0  0
  146.7246  141.9899  153.6983 C   0  0  0  0  0  0  0  0  0  0  0  0
  145.4952  141.9209  154.3886 O   0  0  0  0  0  0  0  0  0  0  0  0
  149.0837  141.4312  154.0189 O   0  0  0  0  0  0  0  0  0  0  0  0
  151.6031  139.5717  155.9723 C   0  0  0  0  0  0  0  0  0  0  0  0
  151.8285  138.5623  155.3056 O   0  0  0  0  0  0  0  0  0  0  0  0
  152.2683  139.7744  157.1794 N   0  0  0  0  0  0  0  0  0  0  0  0
  152.1084  140.8784  158.0193 C   0  0  0  0  0  0  0  0  0  0  0  0
  152.7518  140.9439  159.0655 O   0  0  0  0  0  0  0  0  0  0  0  0
  150.7284  140.3507  153.4879 H   0  0  0  0  0  0  0  0  0  0  0  0
  146.9212  139.0455  154.4696 H   0  0  0  0  0  0  0  0  0  0  0  0
  147.6415  141.0971  155.4500 H   0  0  0  0  0  0  0  0  0  0  0  0
  152.9240  139.0643  157.4707 H   0  0  0  0  0  0  0  0  0  0  0  0
  150.2388  143.8194  157.9291 H   0  0  0  0  0  0  0  0  0  0  0  0
  151.8782  143.6515  158.5526 H   0  0  0  0  0  0  0  0  0  0  0  0
  150.5324  142.8480  159.3707 H   0  0  0  0  0  0  0  0  0  0  0  0
  149.8181  142.4562  156.0536 H   0  0  0  0  0  0  0  0  0  0  0  0
  149.4698  138.3308  153.6054 H   0  0  0  0  0  0  0  0  0  0  0  0
  149.0816  138.6671  155.2996 H   0  0  0  0  0  0  0  0  0  0  0  0
  148.2507  139.6773  152.0790 H   0  0  0  0  0  0  0  0  0  0  0  0
  147.0811  143.0197  153.6623 H   0  0  0  0  0  0  0  0  0  0  0  0
  146.5402  141.6712  152.6720 H   0  0  0  0  0  0  0  0  0  0  0  0
  144.8701  141.4657  153.8453 H   0  0  0  0  0  0  0  0  0  0  0  0
  1  2  1  0  0  0  0
  1 22  1  0  0  0  0
  1 23  1  0  0  0  0
  1 24  1  0  0  0  0
  2 16  1  0  0  0  0
  2  3  2  0  0  0  0
  3  4  1  0  0  0  0
  3 25  1  0  0  0  0
  4  5  1  0  0  0  0
  4 13  1  0  0  0  0
  5 18  1  0  0  0  0
  5 12  1  0  0  0  0
  5  6  1  0  0  0  0
  6  7  1  0  0  0  0
  6 26  1  0  0  0  0
  6 27  1  0  0  0  0
  7 19  1  0  0  0  0
  7  8  1  0  0  0  0
  7  9  1  0  0  0  0
  8 28  1  0  0  0  0
  9 20  1  0  0  0  0
  9 10  1  0  0  0  0
  9 12  1  0  0  0  0
 10 11  1  0  0  0  0
 10 29  1  0  0  0  0
 10 30  1  0  0  0  0
 11 31  1  0  0  0  0
 13 14  2  0  0  0  0
 13 15  1  0  0  0  0
 15 21  1  0  0  0  0
 15 16  1  0  0  0  0
 16 17  2  0  0  0  0
M  END
> <s_m_source_file>
AV-unprocessed.smi

> <i_m_source_file_index>
55

> <i_lp_mmshare_version>
43012

> <i_f3d_flags>
0

> <s_epik_input>
Tz1jMVtuSF1jKD1PKW4oW2NIXWMxW0NIM10pW0NAQEhdMltDSDJdW0NAQEhdKFtPSF0pW0NAQEhdKE8yKVtDSDJdW09IXQ==

> <s_epik_cmdline>
J2VwaWtfcHl0aG9uJywgJy1waCcsICc3LjAnLCAnLXRuJywgJzgnLCAnLW1hJywgJzIwMCcsICctbWV0YWxfYmluZGluZycsICctaW1hZScsICc8aW5maWxlLm1hZT4nLCAnLW9tYWUnLCAnPG91dGZpbGUubWFlPic=

> <r_lp_tautomer_probability>
0.999537

> <r_epik_Ionization_Penalty>
0.00121888

> <r_epik_Ionization_Penalty_Charging>
0.00121876

> <r_epik_Ionization_Penalty_Neutral>
1.19946e-07

> <r_epik_State_Penalty>
0.000805124

> <r_epik_Charging_Adjusted_Penalty>
0.00202389

> <i_epik_Tot_Q>
0

> <i_epik_Tot_abs_Q>
0

> <r_epik_Metal_State_Penalty>
0.662472

> <b_epik_Metal_Only>
0

> <s_epik_Chemistry_Notes>
This compound contains an acetal/aminal-like group ( X-CH(R)-Y where X, Y are N, S, or O) that may be acid/base labile, releasing an aldehyde.

> <s_lp_Force_Field>
OPLS_2005

> <r_lp_Energy>
28.0991

> <b_lp_Chiralities_Consistent>
1

> <s_lp_Variant>
AV-unprocessed.smi:55-4

> <Gold.Version>
5.8.1

> <Gold.Id.Protein>
6NUR|6NUR_protein|mol2

> <Gold.PLP.Fitness>
38.9244

> <Gold.PLP.PLP>
-28.4761

> <Gold.PLP.part.hbond>
-3.5376

> <Gold.PLP.part.metal>
0.0000

> <Gold.PLP.part.buried>
-2.2731

> <Gold.PLP.part.nonpolar>
-23.6735

> <Gold.PLP.part.repulsive>
0.3076

> <Gold.PLP.ligand.clash>
0.0000

> <Gold.PLP.ligand.torsion>
0.2291

> <Gold.PLP.Chemscore.Hbond>
2.6318

> <Gold.PLP.Chemscore.CHOScore>
1.0000

> <Gold.PLP.Chemscore.Metal>
0.0000

> <Gold.Chemscore.Hbonds>
donor molecule, donor type, donor heavy atom, donor atom, acceptor molecule, acceptor atom, score
      L1  H     8    28       P1  7957  1.00
      L1  H    11    31       P1 10175  0.98
      P1  H  8011  8017       L1    12  0.64
      L1  C     3    25       P1  8028  1.00

> <Gold.PLP.Chemscore.Internal.Correction>
0.0111

> <Gold.Rescore>
     Score         DG    S(hbond)    S(metal)    S(lipo)     H(rot)  DE(clash)    DE(int)     intcor
      9.46     -12.13       2.37        0.00      48.80       2.73       1.31       1.36       ----

> <Gold.Chemscore.Fitness>
9.4560

> <Gold.Chemscore.DG>
-12.1267

> <Gold.Chemscore.ZeroCoef>
-5.4800

> <Gold.Chemscore.Hbond>
2.3695

> <Gold.Chemscore.Metal>
0.0000

> <Gold.Chemscore.Lipo>
48.7976

> <Gold.Chemscore.Internal_Hbond>
0.0000

> <Gold.Chemscore.DEClash>
1.3132

> <Gold.Chemscore.DEInternal>
1.3575

> <Gold.Chemscore.Rot>
2.7253

> <Gold.Chemscore.Internal.Correction>
   9.000000E+99

> <Gold.Chemscore.Hbonds>
donor molecule, donor type, donor heavy atom, donor atom, acceptor molecule, acceptor atom, score
      L1  H     8    28       P1  7957  1.00
      L1  H    11    31       P1 10175  0.23
      P1  H  8011  8017       L1    12  0.37

> <Gold.Chemscore.Hbond.Weighted>
-7.9142

> <Gold.Chemscore.Metal.Weighted>
-0.0000

> <Gold.Chemscore.Lipo.Weighted>
-5.7093

> <Gold.Chemscore.Internal_Hbond.Weighted>
0.0000

> <Gold.Chemscore.DEClash.Weighted>
1.3132

> <Gold.Chemscore.DEInternal.Weighted>
1.3575

> <Gold.Chemscore.Rot.Weighted>
6.9769

> <Gold.Chemscore.Internal.Correction.Weighted>
   9.000000E+99

> <Gold.Protein.RotatedTorsions>
[ 6907 6896 6895 6894 ] final   13.06 input  -60.11 | X-H torsion
[ 7974 7965 7964 7962 ] final   86.38 input  175.53 | X-H torsion
[ 8008 7997 7996 7995 ] final  143.35 input   59.86 | X-H torsion
[ 10167 10162 10161 10158 ] final -159.59 input  -65.29 | X-H torsion
[ 10718 10713 10712 10709 ] final  -54.51 input   66.30 | X-H torsion
[ 10763 10752 10751 10750 ] final   81.92 input  -60.55 | X-H torsion
[ 11005 11000 10999 10996 ] final  147.37 input  -57.11 | X-H torsion

> <Gold.Protein.ActiveResidues>
 VAL166  LYS551  ARG553  GLY616  TRP617  ASP618  TYR619  PRO620  LYS621  CYS622 
 ASP623  PHE694  ASN695  SER759  ASP760  ASP761  ALA762  ILE779  LEU786  VAL792 
 PHE793  MET794  SER795  GLU796  ALA797  LYS798  CYS799  TRP800  GLU811  SER814 

> <Gold.Protein.RotatedAtoms>
  151.7803  135.0763  160.0372 H   0  0  0  0  0  0  0  0  0  0  0  0  # atno 6907 bound_to 6896
  152.3227  133.5867  159.5764 H   0  0  0  0  0  0  0  0  0  0  0  0  # atno 6908 bound_to 6896
  150.7379  133.9902  159.3646 H   0  0  0  0  0  0  0  0  0  0  0  0  # atno 6909 bound_to 6896
  145.5730  139.2316  143.2395 H   0  0  0  0  0  0  0  0  0  0  0  0  # atno 7974 bound_to 7965
  156.2932  140.2264  156.4877 H   0  0  0  0  0  0  0  0  0  0  0  0  # atno 8008 bound_to 7997
  154.7798  140.0461  157.1139 H   0  0  0  0  0  0  0  0  0  0  0  0  # atno 8009 bound_to 7997
  154.9772  140.3074  155.4965 H   0  0  0  0  0  0  0  0  0  0  0  0  # atno 8010 bound_to 7997
  139.6604  143.9923  152.2221 H   0  0  0  0  0  0  0  0  0  0  0  0  # atno 10167 bound_to 10162
  156.1445  130.4153  150.0048 H   0  0  0  0  0  0  0  0  0  0  0  0  # atno 10718 bound_to 10713
  153.1158  135.4747  154.9113 H   0  0  0  0  0  0  0  0  0  0  0  0  # atno 10763 bound_to 10752
  154.7527  135.3110  154.8530 H   0  0  0  0  0  0  0  0  0  0  0  0  # atno 10764 bound_to 10752
  153.9107  135.6865  153.4805 H   0  0  0  0  0  0  0  0  0  0  0  0  # atno 10765 bound_to 10752
  140.0870  134.9063  157.1591 H   0  0  0  0  0  0  0  0  0  0  0  0  # atno 11005 bound_to 11000
  146.1771  140.6556  142.9206 LP  0  0  0  0  0  0  0  0  0  0  0  0  # atno 17320 bound_to 7965
  144.7429  140.4990  143.6856 LP  0  0  0  0  0  0  0  0  0  0  0  0  # atno 17321 bound_to 7965
  139.9661  144.6525  150.8033 LP  0  0  0  0  0  0  0  0  0  0  0  0  # atno 17342 bound_to 10162
  140.7577  143.3092  151.2886 LP  0  0  0  0  0  0  0  0  0  0  0  0  # atno 17343 bound_to 10162
  156.7923  130.9260  151.3646 LP  0  0  0  0  0  0  0  0  0  0  0  0  # atno 17370 bound_to 10713
  157.6604  130.8961  149.9818 LP  0  0  0  0  0  0  0  0  0  0  0  0  # atno 17371 bound_to 10713
  140.3406  134.2708  155.7213 LP  0  0  0  0  0  0  0  0  0  0  0  0  # atno 17394 bound_to 11000
  141.2066  133.7829  157.0169 LP  0  0  0  0  0  0  0  0  0  0  0  0  # atno 17395 bound_to 11000

$$$$
