#       Name:                AV-unprocessed.smi:1208
#       Creating user name   scv26
#       Creation time:       Fri Mar 27 04:10:55 2020


#       File generated by GOLD software.
#

@<TRIPOS>MOLECULE
AV-unprocessed.smi:1208
    45    46     1
SMALL
NO_CHARGES


@<TRIPOS>ATOM
      1 ****        -1.2450  -1.9463  -2.1244 C.3            1 S1                 0.0000
      2 ****        -1.3219  -0.6130  -1.3629 C.3            1 S1                 0.0000
      3 ****         0.0074  -0.0192  -1.2652 N.am           1 S1                 0.0000
      4 ****         0.6019   0.7524  -2.1907 C.2            1 S1                 0.0000
      5 ****         0.0770   1.0259  -3.2692 O.2            1 S1                 0.0000
      6 ****         1.9971   1.3178  -1.8709 C.3            1 S1                 0.0000
      7 ****         2.5563   0.8843  -0.5797 N.am           1 S1                 0.0000
      8 ****         2.2802   1.7444   0.4726 N.2            1 S1                 0.0000
      9 ****         2.6928   1.4621   1.6618 C.2            1 S1                 0.0000
     10 ****         2.3928   2.3386   2.6754 O.3            1 S1                 0.0000
     11 ****         3.4497   0.2580   1.9250 C.2            1 S1                 0.0000
     12 ****         3.7143  -0.5733   0.8935 C.2            1 S1                 0.0000
     13 ****         3.2543  -0.2874  -0.4666 C.2            1 S1                 0.0000
     14 ****         3.4634  -1.0366  -1.4199 O.2            1 S1                 0.0000
     15 ****        -1.9072  -0.7915   0.0512 C.3            1 S1                 0.0000
     16 ****        -1.9568   0.4880   0.8891 C.3            1 S1                 0.0000
     17 ****        -3.0365   0.1517   1.8914 C.3            1 S1                 0.0000
     18 ****        -4.0258  -0.6370   1.0375 C.3            1 S1                 0.0000
     19 ****        -3.2637  -1.2242  -0.0151 O.3            1 S1                 0.0000
     20 ****         2.7766   1.9654   3.4538 H              1 S1                 0.0000
     21 ****        -2.2310  -2.4010  -2.2216 H              1 S1                 0.0000
     22 ****        -0.5989  -2.6596  -1.6118 H              1 S1                 0.0000
     23 ****        -0.8511  -1.8044  -3.1312 H              1 S1                 0.0000
     24 ****        -1.9732   0.0674  -1.9146 H              1 S1                 0.0000
     25 ****         0.5150  -0.1930  -0.4099 H              1 S1                 0.0000
     26 ****         2.6737   1.0595  -2.6871 H              1 S1                 0.0000
     27 ****         1.9283   2.4068  -1.8909 H              1 S1                 0.0000
     28 ****         3.7925   0.0369   2.9251 H              1 S1                 0.0000
     29 ****         4.2791  -1.4756   1.0751 H              1 S1                 0.0000
     30 ****        -1.3423  -1.5480   0.5989 H              1 S1                 0.0000
     31 ****        -1.0019   0.7307   1.3567 H              1 S1                 0.0000
     32 ****        -2.2654   1.3373   0.2779 H              1 S1                 0.0000
     33 ****        -2.6289  -0.4838   2.6786 H              1 S1                 0.0000
     34 ****        -3.4809   1.0314   2.3573 H              1 S1                 0.0000
     35 ****        -4.5546  -1.3956   1.6148 H              1 S1                 0.0000
     36 ****        -4.7673   0.0298   0.5956 H              1 S1                 0.0000
     37 ****        -0.8313   0.6694  -3.4879 LP             1 S1                 0.0000
     38 ****         0.5587   1.6048  -3.9272 LP             1 S1                 0.0000
     39 ****         1.7612   2.5835   0.3095 LP             1 S1                 0.0000
     40 ****         1.4021   2.4249   2.7811 LP             1 S1                 0.0000
     41 ****         2.7875   3.2381   2.4879 LP             1 S1                 0.0000
     42 ****         3.1174  -0.7993  -2.3276 LP             1 S1                 0.0000
     43 ****         3.9794  -1.8828  -1.2870 LP             1 S1                 0.0000
     44 ****        -3.2963  -2.2200   0.0706 LP             1 S1                 0.0000
     45 ****        -3.6534  -0.9524  -0.8950 LP             1 S1                 0.0000
@<TRIPOS>BOND
    1    1    2 1     
    2    1   21 1     
    3    1   22 1     
    4    1   23 1     
    5    2    3 1     
    6    2   15 1     
    7    2   24 1     
    8    3    4 am    
    9    3   25 1     
   10    4    5 2     
   11    4    6 1     
   12    6   26 1     
   13    6   27 1     
   14    6    7 1     
   15    7    8 1     
   16    7   13 am    
   17    8    9 2     
   18    9   10 1     
   19    9   11 1     
   20   10   20 1     
   21   11   28 1     
   22   11   12 2     
   23   12   29 1     
   24   12   13 1     
   25   13   14 2     
   26   15   19 1     
   27   15   16 1     
   28   15   30 1     
   29   16   17 1     
   30   16   31 1     
   31   16   32 1     
   32   17   18 1     
   33   17   33 1     
   34   17   34 1     
   35   18   19 1     
   36   18   35 1     
   37   18   36 1     
   38    5   37 1     
   39    5   38 1     
   40    8   39 1     
   41   10   40 1     
   42   10   41 1     
   43   14   42 1     
   44   14   43 1     
   45   19   44 1     
   46   19   45 1     
@<TRIPOS>SUBSTRUCTURE
      1 S1             1
@<TRIPOS>SET
LONE_PAIRS      STATIC     ATOMS    <user>   **** ""
9 37 38 39 40 41 42 43 44 45
DONOR_HYDROGENS      STATIC     ATOMS    <user>   **** ""
2 25 20
ATOM$BLUE        STATIC     ATOMS    COLORGROUP SYSTEM
9 37 38 39 40 41 42 43 44 45
ATOM$RED        STATIC     ATOMS    COLORGROUP SYSTEM
2 25 20
