AV-unprocessed.smi:626|AV-procd|sdf|3111|dock6
  -GOLD-   22720 0 33D 1   1.00000     0.00000
 Structure written by MMmdl.
 34 36  0  0  0  0  0  0  0  0  1 V2000
  149.9823  135.2068  154.8100 C   0  0  0  0  0  0  0  0  0  0  0  0
  150.4255  136.5406  154.4345 N   0  0  0  0  0  0  0  0  0  0  0  0
  151.4586  137.1803  155.0021 C   0  0  0  0  0  0  0  0  0  0  0  0
  152.1359  136.6972  155.9098 O   0  0  0  0  0  0  0  0  0  0  0  0
  151.7773  138.5785  154.4673 C   0  0  0  0  0  0  0  0  0  0  0  0
  151.7803  139.5823  155.5754 C   0  0  0  0  0  0  0  0  0  0  0  0
  152.5690  139.4412  156.6342 N   0  0  0  0  0  0  0  0  0  0  0  0
  152.2857  140.5795  157.4021 O   0  0  0  0  0  0  0  0  0  0  0  0
  151.3275  141.2594  156.7264 C   0  0  0  0  0  0  0  0  0  0  0  0
  150.8926  142.5923  157.2626 C   0  0  2  0  0  0  0  0  0  0  0  0
  151.7530  143.7972  156.8181 C   0  0  0  0  0  0  0  0  0  0  0  0
  152.0779  144.4884  158.1567 C   0  0  2  0  0  0  0  0  0  0  0  0
  153.1048  143.6404  158.9319 C   0  0  0  0  0  0  0  0  0  0  0  0
  152.2642  142.4433  159.4154 C   0  0  0  0  0  0  0  0  0  0  0  0
  150.8786  142.7335  158.8033 C   0  0  1  0  0  0  0  0  0  0  0  0
  150.8040  144.2496  158.9600 C   0  0  0  0  0  0  0  0  0  0  0  0
  151.0082  140.7033  155.5580 N   0  0  0  0  0  0  0  0  0  0  0  0
  149.0711  134.9517  154.2686 H   0  0  0  0  0  0  0  0  0  0  0  0
  149.7702  135.1502  155.8786 H   0  0  0  0  0  0  0  0  0  0  0  0
  150.7435  134.4647  154.5659 H   0  0  0  0  0  0  0  0  0  0  0  0
  149.9196  137.0043  153.6936 H   0  0  0  0  0  0  0  0  0  0  0  0
  152.7441  138.5873  153.9614 H   0  0  0  0  0  0  0  0  0  0  0  0
  151.0297  138.8566  153.7235 H   0  0  0  0  0  0  0  0  0  0  0  0
  149.8761  142.7590  156.9017 H   0  0  0  0  0  0  0  0  0  0  0  0
  152.6608  143.5168  156.2829 H   0  0  0  0  0  0  0  0  0  0  0  0
  151.1796  144.4555  156.1642 H   0  0  0  0  0  0  0  0  0  0  0  0
  152.3674  145.5341  158.0490 H   0  0  0  0  0  0  0  0  0  0  0  0
  153.9427  143.3328  158.3051 H   0  0  0  0  0  0  0  0  0  0  0  0
  153.5074  144.1937  159.7812 H   0  0  0  0  0  0  0  0  0  0  0  0
  152.6808  141.4825  159.1161 H   0  0  0  0  0  0  0  0  0  0  0  0
  152.2041  142.4415  160.5046 H   0  0  0  0  0  0  0  0  0  0  0  0
  150.0703  142.1811  159.2836 H   0  0  0  0  0  0  0  0  0  0  0  0
  150.8764  144.5837  159.9967 H   0  0  0  0  0  0  0  0  0  0  0  0
  149.9160  144.6911  158.5041 H   0  0  0  0  0  0  0  0  0  0  0  0
  1  2  1  0  0  0  0
  1 18  1  0  0  0  0
  1 19  1  0  0  0  0
  1 20  1  0  0  0  0
  2  3  1  0  0  0  0
  2 21  1  0  0  0  0
  3  4  2  0  0  0  0
  3  5  1  0  0  0  0
  5  6  1  0  0  0  0
  5 22  1  0  0  0  0
  5 23  1  0  0  0  0
  6 17  1  0  0  0  0
  6  7  2  0  0  0  0
  7  8  1  0  0  0  0
  8  9  1  0  0  0  0
  9 10  1  0  0  0  0
  9 17  2  0  0  0  0
 10 15  1  0  0  0  0
 10 11  1  0  0  0  0
 10 24  1  0  0  0  0
 11 12  1  0  0  0  0
 11 25  1  0  0  0  0
 11 26  1  0  0  0  0
 12 16  1  0  0  0  0
 12 13  1  0  0  0  0
 12 27  1  0  0  0  0
 13 14  1  0  0  0  0
 13 28  1  0  0  0  0
 13 29  1  0  0  0  0
 14 15  1  0  0  0  0
 14 30  1  0  0  0  0
 14 31  1  0  0  0  0
 15 16  1  0  0  0  0
 15 32  1  0  0  0  0
 16 33  1  0  0  0  0
 16 34  1  0  0  0  0
M  END
> <s_m_source_file>
AV-unprocessed.smi

> <i_m_source_file_index>
626

> <i_lp_mmshare_version>
43012

> <i_f3d_flags>
0

> <s_epik_input>
W0NIM11bTkhdQyg9TylbQ0gyXWMxbm9jKG4xKVtDQEhdKFtDSDJdW0NAQEhdMjMpW0NAQEhdKFtDSDJdMylbQ0gyXVtDSDJdMg==

> <s_epik_cmdline>
J2VwaWtfcHl0aG9uJywgJy1waCcsICc3LjAnLCAnLXRuJywgJzgnLCAnLW1hJywgJzIwMCcsICctbWV0YWxfYmluZGluZycsICctaW1hZScsICc8aW5maWxlLm1hZT4nLCAnLW9tYWUnLCAnPG91dGZpbGUubWFlPic=

> <r_lp_tautomer_probability>
1

> <r_epik_Ionization_Penalty>
1.02916e-07

> <r_epik_Ionization_Penalty_Charging>
0

> <r_epik_Ionization_Penalty_Neutral>
1.02916e-07

> <r_epik_State_Penalty>
-0

> <r_epik_Charging_Adjusted_Penalty>
0

> <i_epik_Tot_Q>
0

> <i_epik_Tot_abs_Q>
0

> <r_epik_Metal_State_Penalty>
-0

> <b_epik_Metal_Only>
0

> <s_lp_Force_Field>
OPLS_2005

> <r_lp_Energy>
49.4755

> <b_lp_Chiralities_Consistent>
1

> <s_lp_Variant>
AV-unprocessed.smi:626-3

> <Gold.Version>
5.8.1

> <Gold.Id.Protein>
6NUR|6NUR_protein|mol2

> <Gold.PLP.Fitness>
41.8402

> <Gold.PLP.PLP>
-36.8323

> <Gold.PLP.part.hbond>
-5.5487

> <Gold.PLP.part.metal>
0.0000

> <Gold.PLP.part.buried>
-2.6005

> <Gold.PLP.part.nonpolar>
-29.6701

> <Gold.PLP.part.repulsive>
0.1287

> <Gold.PLP.ligand.clash>
0.2303

> <Gold.PLP.ligand.torsion>
0.7489

> <Gold.PLP.Chemscore.Hbond>
2.2172

> <Gold.PLP.Chemscore.CHOScore>
0.0000

> <Gold.PLP.Chemscore.Metal>
0.0000

> <Gold.Chemscore.Hbonds>
donor molecule, donor type, donor heavy atom, donor atom, acceptor molecule, acceptor atom, score
      L1  H     2    21       P1  7948  0.41
      P1  H  7989  7998       L1    17  0.15
      P1  H  7997  8009       L1     7  0.55
      P1  H 10752 10763       L1     4  0.95

> <Gold.PLP.Chemscore.Internal.Correction>
0.0841

> <Gold.Rescore>
     Score         DG    S(hbond)    S(metal)    S(lipo)     H(rot)  DE(clash)    DE(int)     intcor
     11.45     -16.31       1.19        0.00      93.92       1.61       1.45       3.41       ----

> <Gold.Chemscore.Fitness>
11.4523

> <Gold.Chemscore.DG>
-16.3062

> <Gold.Chemscore.ZeroCoef>
-5.4800

> <Gold.Chemscore.Hbond>
1.1867

> <Gold.Chemscore.Metal>
0.0000

> <Gold.Chemscore.Lipo>
93.9234

> <Gold.Chemscore.Internal_Hbond>
0.0000

> <Gold.Chemscore.DEClash>
1.4469

> <Gold.Chemscore.DEInternal>
3.4070

> <Gold.Chemscore.Rot>
1.6119

> <Gold.Chemscore.Internal.Correction>
   9.000000E+99

> <Gold.Chemscore.Hbonds>
donor molecule, donor type, donor heavy atom, donor atom, acceptor molecule, acceptor atom, score
      L1  H     2    21       P1  7948  0.18
      P1  H  7997  8009       L1     7  0.02
      P1  H 10752 10763       L1     4  0.21

> <Gold.Chemscore.Hbond.Weighted>
-3.9637

> <Gold.Chemscore.Metal.Weighted>
-0.0000

> <Gold.Chemscore.Lipo.Weighted>
-10.9890

> <Gold.Chemscore.Internal_Hbond.Weighted>
0.0000

> <Gold.Chemscore.DEClash.Weighted>
1.4469

> <Gold.Chemscore.DEInternal.Weighted>
3.4070

> <Gold.Chemscore.Rot.Weighted>
4.1266

> <Gold.Chemscore.Internal.Correction.Weighted>
   9.000000E+99

> <Gold.Protein.RotatedTorsions>
[ 6907 6896 6895 6894 ] final  129.19 input  -60.11 | X-H torsion
[ 7974 7965 7964 7962 ] final  105.54 input  175.53 | X-H torsion
[ 8008 7997 7996 7995 ] final -150.16 input   59.86 | X-H torsion
[ 10167 10162 10161 10158 ] final  171.25 input  -65.29 | X-H torsion
[ 10718 10713 10712 10709 ] final  162.43 input   66.30 | X-H torsion
[ 10763 10752 10751 10750 ] final   82.67 input  -60.55 | X-H torsion
[ 11005 11000 10999 10996 ] final   85.12 input  -57.11 | X-H torsion

> <Gold.Protein.ActiveResidues>
 VAL166  LYS551  ARG553  GLY616  TRP617  ASP618  TYR619  PRO620  LYS621  CYS622 
 ASP623  PHE694  ASN695  SER759  ASP760  ASP761  ALA762  ILE779  LEU786  VAL792 
 PHE793  MET794  SER795  GLU796  ALA797  LYS798  CYS799  TRP800  GLU811  SER814 

> <Gold.Protein.RotatedAtoms>
  152.3648  133.6342  159.6041 H   0  0  0  0  0  0  0  0  0  0  0  0  # atno 6907 bound_to 6896
  150.7626  133.9366  159.3452 H   0  0  0  0  0  0  0  0  0  0  0  0  # atno 6908 bound_to 6896
  151.7198  135.0897  160.0333 H   0  0  0  0  0  0  0  0  0  0  0  0  # atno 6909 bound_to 6896
  145.3184  139.2520  143.3725 H   0  0  0  0  0  0  0  0  0  0  0  0  # atno 7974 bound_to 7965
  155.6192  140.0679  157.2683 H   0  0  0  0  0  0  0  0  0  0  0  0  # atno 8008 bound_to 7997
  154.4233  140.1787  156.1402 H   0  0  0  0  0  0  0  0  0  0  0  0  # atno 8009 bound_to 7997
  156.0023  140.3335  155.6861 H   0  0  0  0  0  0  0  0  0  0  0  0  # atno 8010 bound_to 7997
  139.5041  144.3507  151.9926 H   0  0  0  0  0  0  0  0  0  0  0  0  # atno 10167 bound_to 10162
  157.1227  131.0496  151.2408 H   0  0  0  0  0  0  0  0  0  0  0  0  # atno 10718 bound_to 10713
  153.1223  135.4719  154.9216 H   0  0  0  0  0  0  0  0  0  0  0  0  # atno 10763 bound_to 10752
  154.7587  135.3125  154.8422 H   0  0  0  0  0  0  0  0  0  0  0  0  # atno 10764 bound_to 10752
  153.8984  135.6877  153.4810 H   0  0  0  0  0  0  0  0  0  0  0  0  # atno 10765 bound_to 10752
  139.8980  134.8264  156.2539 H   0  0  0  0  0  0  0  0  0  0  0  0  # atno 11005 bound_to 11000
  146.3092  140.3736  142.8676 LP  0  0  0  0  0  0  0  0  0  0  0  0  # atno 17320 bound_to 7965
  144.8959  140.7582  143.5897 LP  0  0  0  0  0  0  0  0  0  0  0  0  # atno 17321 bound_to 7965
  140.2944  144.3718  150.6079 LP  0  0  0  0  0  0  0  0  0  0  0  0  # atno 17342 bound_to 10162
  140.5922  143.2168  151.7231 LP  0  0  0  0  0  0  0  0  0  0  0  0  # atno 17343 bound_to 10162
  157.4462  130.7572  149.7112 LP  0  0  0  0  0  0  0  0  0  0  0  0  # atno 17370 bound_to 10713
  155.9825  130.4009  150.3413 LP  0  0  0  0  0  0  0  0  0  0  0  0  # atno 17371 bound_to 10713
  141.0206  133.7043  156.1262 LP  0  0  0  0  0  0  0  0  0  0  0  0  # atno 17394 bound_to 11000
  140.7239  134.4328  157.5572 LP  0  0  0  0  0  0  0  0  0  0  0  0  # atno 17395 bound_to 11000

$$$$
