#       Name:                AV-unprocessed.smi:2087
#       Creating user name   scv26
#       Creation time:       Fri Mar 27 11:23:37 2020


#       File generated by GOLD software.
#

@<TRIPOS>MOLECULE
AV-unprocessed.smi:2087
    59    60     1
SMALL
NO_CHARGES


@<TRIPOS>ATOM
      1 ****        -3.7619  -3.1462   4.3298 C.3            1 S1                 0.0000
      2 ****        -3.1859  -2.5707   3.0276 C.3            1 S1                 0.0000
      3 ****        -3.3504  -3.5790   1.8775 C.3            1 S1                 0.0000
      4 ****        -1.7118  -2.1546   3.2245 C.3            1 S1                 0.0000
      5 ****        -1.1298  -1.4869   2.0321 N.4            1 S1                 1.0000
      6 ****        -1.5867  -0.0871   1.8467 C.3            1 S1                 0.0000
      7 ****        -0.9707   0.5136   0.5724 C.3            1 S1                 0.0000
      8 ****         0.4451   0.4193   0.6432 O.3            1 S1                 0.0000
      9 ****         0.8970  -0.9298   0.7118 C.3            1 S1                 0.0000
     10 ****         2.4356  -0.9464   0.6554 C.3            1 S1                 0.0000
     11 ****         2.9076  -0.5105  -0.6535 N.am           1 S1                 0.0000
     12 ****         3.1389   0.7638  -1.0018 C.2            1 S1                 0.0000
     13 ****         3.0987   1.7025  -0.2060 O.2            1 S1                 0.0000
     14 ****         3.4445   1.0169  -2.4829 C.3            1 S1                 0.0000
     15 ****         2.6980   2.1664  -3.0116 N.am           1 S1                 0.0000
     16 ****         3.3603   3.3492  -3.2850 C.2            1 S1                 0.0000
     17 ****         2.7466   4.4527  -3.7657 C.2            1 S1                 0.0000
     18 ****         1.3117   4.4601  -4.0240 C.2            1 S1                 0.0000
     19 ****         0.7167   5.4383  -4.4771 O.2            1 S1                 0.0000
     20 ****         0.6554   3.2429  -3.7218 N.am           1 S1                 0.0000
     21 ****        -0.7716   3.1474  -3.9509 C.3            1 S1                 0.0000
     22 ****         1.3060   2.0855  -3.2402 C.2            1 S1                 0.0000
     23 ****         0.6925   1.0364  -3.0245 O.2            1 S1                 0.0000
     24 ****         0.3510  -1.5551   2.0091 C.3            1 S1                 0.0000
     25 ****        -3.2313  -4.0489   4.6346 H              1 S1                 0.0000
     26 ****        -4.8153  -3.4030   4.2139 H              1 S1                 0.0000
     27 ****        -3.6890  -2.4260   5.1452 H              1 S1                 0.0000
     28 ****        -3.7781  -1.6882   2.7872 H              1 S1                 0.0000
     29 ****        -2.7749  -4.4869   2.0603 H              1 S1                 0.0000
     30 ****        -3.0200  -3.1606   0.9265 H              1 S1                 0.0000
     31 ****        -4.3950  -3.8678   1.7573 H              1 S1                 0.0000
     32 ****        -1.6093  -1.4972   4.0893 H              1 S1                 0.0000
     33 ****        -1.1329  -3.0505   3.4548 H              1 S1                 0.0000
     34 ****        -2.6726  -0.0430   1.7732 H              1 S1                 0.0000
     35 ****        -1.2998   0.5098   2.7141 H              1 S1                 0.0000
     36 ****        -1.3385   0.0044  -0.3198 H              1 S1                 0.0000
     37 ****        -1.2497   1.5631   0.4769 H              1 S1                 0.0000
     38 ****         0.5109  -1.4849  -0.1457 H              1 S1                 0.0000
     39 ****         2.8625  -0.3355   1.4528 H              1 S1                 0.0000
     40 ****         2.7998  -1.9616   0.8148 H              1 S1                 0.0000
     41 ****         2.9810  -1.2174  -1.3709 H              1 S1                 0.0000
     42 ****         4.5184   1.1766  -2.5875 H              1 S1                 0.0000
     43 ****         3.2154   0.1296  -3.0762 H              1 S1                 0.0000
     44 ****         4.4248   3.3982  -3.1068 H              1 S1                 0.0000
     45 ****         3.3255   5.3434  -3.9611 H              1 S1                 0.0000
     46 ****        -1.2211   2.6143  -3.1109 H              1 S1                 0.0000
     47 ****        -0.9065   2.6051  -4.8879 H              1 S1                 0.0000
     48 ****        -1.2198   4.1397  -4.0030 H              1 S1                 0.0000
     49 ****         0.7560  -1.0378   2.8807 H              1 S1                 0.0000
     50 ****         0.6708  -2.5958   2.0755 H              1 S1                 0.0000
     51 ****        -1.4473  -2.0103   1.2286 H              1 S1                 0.0000
     52 ****         0.7588   0.9050   1.4591 LP             1 S1                 0.0000
     53 ****         0.8366   0.8481  -0.1710 LP             1 S1                 0.0000
     54 ****         2.8847   1.5336   0.7561 LP             1 S1                 0.0000
     55 ****         3.2800   2.6339  -0.5218 LP             1 S1                 0.0000
     56 ****         1.2196   6.2773  -4.6852 LP             1 S1                 0.0000
     57 ****        -0.2694   5.3938  -4.6370 LP             1 S1                 0.0000
     58 ****         1.1806   0.2326  -2.6845 LP             1 S1                 0.0000
     59 ****        -0.2927   0.9903  -3.1898 LP             1 S1                 0.0000
@<TRIPOS>BOND
    1    1    2 1     
    2    1   25 1     
    3    1   26 1     
    4    1   27 1     
    5    2    3 1     
    6    2    4 1     
    7    2   28 1     
    8    3   29 1     
    9    3   30 1     
   10    3   31 1     
   11    4    5 1     
   12    4   32 1     
   13    4   33 1     
   14    5   24 1     
   15    5    6 1     
   16    5   51 1     
   17    6    7 1     
   18    6   34 1     
   19    6   35 1     
   20    7    8 1     
   21    7   36 1     
   22    7   37 1     
   23    8    9 1     
   24    9   10 1     
   25    9   24 1     
   26    9   38 1     
   27   10   11 1     
   28   10   39 1     
   29   10   40 1     
   30   11   12 am    
   31   11   41 1     
   32   12   13 2     
   33   12   14 1     
   34   14   15 1     
   35   14   42 1     
   36   14   43 1     
   37   15   22 am    
   38   15   16 1     
   39   16   17 2     
   40   16   44 1     
   41   17   18 1     
   42   17   45 1     
   43   18   19 2     
   44   18   20 am    
   45   20   21 1     
   46   20   22 am    
   47   21   46 1     
   48   21   47 1     
   49   21   48 1     
   50   22   23 2     
   51   24   49 1     
   52   24   50 1     
   53    8   52 1     
   54    8   53 1     
   55   13   54 1     
   56   13   55 1     
   57   19   56 1     
   58   19   57 1     
   59   23   58 1     
   60   23   59 1     
@<TRIPOS>SUBSTRUCTURE
      1 S1             1
@<TRIPOS>SET
LONE_PAIRS      STATIC     ATOMS    <user>   **** ""
8 52 53 54 55 56 57 58 59
DONOR_HYDROGENS      STATIC     ATOMS    <user>   **** ""
2 51 41
ATOM$BLUE        STATIC     ATOMS    COLORGROUP SYSTEM
8 52 53 54 55 56 57 58 59
ATOM$RED        STATIC     ATOMS    COLORGROUP SYSTEM
2 51 41
