#       Name:                AV-unprocessed.smi:1643
#       Creating user name   scv26
#       Creation time:       Fri Mar 27 07:26:52 2020


#       File generated by GOLD software.
#

@<TRIPOS>MOLECULE
AV-unprocessed.smi:1643
    59    61     1
SMALL
NO_CHARGES


@<TRIPOS>ATOM
      1 ****        -2.6293  -5.6599   2.1091 C.3            1 S1                 0.0000
      2 ****        -3.4836  -4.7363   1.2364 C.2            1 S1                 0.0000
      3 ****        -4.1580  -5.2466   0.3418 O.2            1 S1                 0.0000
      4 ****        -3.4795  -3.4028   1.4813 N.am           1 S1                 0.0000
      5 ****        -4.3667  -2.4916   0.7421 C.3            1 S1                 0.0000
      6 ****        -3.6307  -1.7629  -0.4032 C.3            1 S1                 0.0000
      7 ****        -2.0907  -1.7363  -0.2924 C.3            1 S1                 0.0000
      8 ****        -1.5646  -1.0105   0.8964 N.4            1 S1                 1.0000
      9 ****        -0.0813  -1.0780   0.9920 C.3            1 S1                 0.0000
     10 ****         0.5465   0.3260   0.9411 C.3            1 S1                 0.0000
     11 ****         0.2177   1.0355   2.1199 O.3            1 S1                 0.0000
     12 ****         2.0808   0.2693   0.8032 C.3            1 S1                 0.0000
     13 ****         2.6890   1.6008   0.6806 N.pl3          1 S1                 0.0000
     14 ****         3.2813   2.3858   1.6218 C.2            1 S1                 0.0000
     15 ****         3.6851   3.5313   1.0056 N.pl3          1 S1                 1.0000
     16 ****         3.3478   3.4764  -0.3484 C.ar           1 S1                 0.0000
     17 ****         3.5487   4.3909  -1.3755 C.ar           1 S1                 0.0000
     18 ****         3.0826   4.0305  -2.6602 C.ar           1 S1                 0.0000
     19 ****         3.2892   5.0059  -3.8063 C.3            1 S1                 0.0000
     20 ****         2.4367   2.7862  -2.8804 C.ar           1 S1                 0.0000
     21 ****         1.9398   2.4092  -4.2657 C.3            1 S1                 0.0000
     22 ****         2.2420   1.8697  -1.8224 C.ar           1 S1                 0.0000
     23 ****         2.7086   2.2402  -0.5636 C.ar           1 S1                 0.0000
     24 ****        -2.2458  -1.2787   2.1971 C.3            1 S1                 0.0000
     25 ****        -2.5880  -2.7676   2.4726 C.3            1 S1                 0.0000
     26 ****        -2.7932  -5.4616   3.1686 H              1 S1                 0.0000
     27 ****        -1.5704  -5.5334   1.8838 H              1 S1                 0.0000
     28 ****        -2.8861  -6.7037   1.9255 H              1 S1                 0.0000
     29 ****        -5.2400  -3.0077   0.3397 H              1 S1                 0.0000
     30 ****        -4.8007  -1.7729   1.4365 H              1 S1                 0.0000
     31 ****        -3.8826  -2.2632  -1.3391 H              1 S1                 0.0000
     32 ****        -4.0185  -0.7482  -0.4999 H              1 S1                 0.0000
     33 ****        -1.6968  -2.7538  -0.3121 H              1 S1                 0.0000
     34 ****        -1.6878  -1.2504  -1.1819 H              1 S1                 0.0000
     35 ****         0.2370  -1.6158   1.8868 H              1 S1                 0.0000
     36 ****         0.3138  -1.6571   0.1557 H              1 S1                 0.0000
     37 ****         0.1316   0.8690   0.0908 H              1 S1                 0.0000
     38 ****         0.6210   0.6027   2.8573 H              1 S1                 0.0000
     39 ****         2.5250  -0.2169   1.6730 H              1 S1                 0.0000
     40 ****         2.3756  -0.3226  -0.0642 H              1 S1                 0.0000
     41 ****         3.4061   2.1460   2.6679 H              1 S1                 0.0000
     42 ****         4.0409   5.3366  -1.2004 H              1 S1                 0.0000
     43 ****         3.8855   4.5482  -4.5960 H              1 S1                 0.0000
     44 ****         3.8092   5.9056  -3.4760 H              1 S1                 0.0000
     45 ****         2.3308   5.3105  -4.2274 H              1 S1                 0.0000
     46 ****         1.4492   1.4354  -4.2627 H              1 S1                 0.0000
     47 ****         2.7705   2.3618  -4.9701 H              1 S1                 0.0000
     48 ****         1.2190   3.1427  -4.6281 H              1 S1                 0.0000
     49 ****         1.7519   0.9223  -1.9906 H              1 S1                 0.0000
     50 ****        -1.6285  -0.9002   3.0126 H              1 S1                 0.0000
     51 ****        -3.1401  -0.6589   2.2458 H              1 S1                 0.0000
     52 ****        -3.0573  -2.8529   3.4534 H              1 S1                 0.0000
     53 ****        -1.6414  -3.3040   2.5379 H              1 S1                 0.0000
     54 ****        -1.7594  -0.0365   0.7121 H              1 S1                 0.0000
     55 ****         4.1571   4.2929   1.4766 H              1 S1                 0.0000
     56 ****        -4.1370  -6.2367   0.2027 LP             1 S1                 0.0000
     57 ****        -4.7268  -4.6711  -0.2457 LP             1 S1                 0.0000
     58 ****        -0.7751   1.0481   2.2391 LP             1 S1                 0.0000
     59 ****         0.5574   1.9737   2.0536 LP             1 S1                 0.0000
@<TRIPOS>BOND
    1    1    2 1     
    2    1   26 1     
    3    1   27 1     
    4    1   28 1     
    5    2    3 2     
    6    2    4 am    
    7    4   25 1     
    8    4    5 1     
    9    5    6 1     
   10    5   29 1     
   11    5   30 1     
   12    6    7 1     
   13    6   31 1     
   14    6   32 1     
   15    7    8 1     
   16    7   33 1     
   17    7   34 1     
   18    8    9 1     
   19    8   24 1     
   20    8   54 1     
   21    9   10 1     
   22    9   35 1     
   23    9   36 1     
   24   10   11 1     
   25   10   12 1     
   26   10   37 1     
   27   11   38 1     
   28   12   13 1     
   29   12   39 1     
   30   12   40 1     
   31   13   23 1     
   32   13   14 1     
   33   14   15 2     
   34   14   41 1     
   35   15   16 1     
   36   15   55 1     
   37   16   23 ar    
   38   16   17 ar    
   39   17   18 ar    
   40   17   42 1     
   41   18   19 1     
   42   18   20 ar    
   43   19   43 1     
   44   19   44 1     
   45   19   45 1     
   46   20   21 1     
   47   20   22 ar    
   48   21   46 1     
   49   21   47 1     
   50   21   48 1     
   51   22   23 ar    
   52   22   49 1     
   53   24   25 1     
   54   24   50 1     
   55   24   51 1     
   56   25   52 1     
   57   25   53 1     
   58    3   56 1     
   59    3   57 1     
   60   11   58 1     
   61   11   59 1     
@<TRIPOS>SUBSTRUCTURE
      1 S1             1
@<TRIPOS>SET
LONE_PAIRS      STATIC     ATOMS    <user>   **** ""
4 56 57 58 59
DONOR_HYDROGENS      STATIC     ATOMS    <user>   **** ""
3 54 38 55
ATOM$BLUE        STATIC     ATOMS    COLORGROUP SYSTEM
4 56 57 58 59
ATOM$RED        STATIC     ATOMS    COLORGROUP SYSTEM
3 54 38 55
