AV-unprocessed.smi:1452|AV-procd|sdf|5909|dock4
  -GOLD-   22720 5593D 1   1.00000     0.00000
 Structure written by MMmdl.
 40 42  0  0  0  0  0  0  0  0  2 V2000
  144.8054  136.7344  152.7295 O   0  0  0  0  0  0  0  0  0  0  0  0
  145.9829  136.5944  152.4042 C   0  0  0  0  0  0  0  0  0  0  0  0
  146.3987  135.4965  151.7381 N   0  0  0  0  0  0  0  0  0  0  0  0
  145.6842  134.3478  151.2865 C   0  0  0  0  0  0  0  0  0  0  0  0
  146.5004  133.3031  150.7970 C   0  0  0  0  0  0  0  0  0  0  0  0
  145.9042  132.1244  150.3086 C   0  0  0  0  0  0  0  0  0  0  0  0
  144.5021  132.0205  150.3174 C   0  0  0  0  0  0  0  0  0  0  0  0
  143.7606  133.1066  150.8161 C   0  0  0  0  0  0  0  0  0  0  0  0
  144.3305  134.2372  151.2848 N   0  0  0  0  0  0  0  0  0  0  0  0
  146.9280  137.5076  152.6828 N   0  0  0  0  0  0  0  0  0  0  0  0
  146.7294  138.7440  153.4352 C   0  0  2  0  0  0  0  0  0  0  0  0
  146.5659  139.9762  152.5239 C   0  0  0  0  0  0  0  0  0  0  0  0
  147.4018  141.0709  153.1944 C   0  0  0  0  0  0  0  0  0  0  0  0
  148.4997  140.3161  153.8091 N   0  3  1  0  0  0  0  0  0  0  0  0
  149.3876  141.0127  154.7617 C   0  0  0  0  0  0  0  0  0  0  0  0
  150.5540  140.0680  155.1225 C   0  0  0  0  0  0  0  0  0  0  0  0
  150.0595  138.6857  155.6064 C   0  0  0  0  0  0  0  0  0  0  0  0
  149.0365  138.0691  154.6285 C   0  0  0  0  0  0  0  0  0  0  0  0
  147.9113  139.0884  154.3711 C   0  0  2  0  0  0  0  0  0  0  0  0
  147.3639  135.5273  151.4429 H   0  0  0  0  0  0  0  0  0  0  0  0
  147.5766  133.3991  150.7940 H   0  0  0  0  0  0  0  0  0  0  0  0
  146.5130  131.3156  149.9325 H   0  0  0  0  0  0  0  0  0  0  0  0
  144.0081  131.1330  149.9502 H   0  0  0  0  0  0  0  0  0  0  0  0
  142.6816  133.0685  150.8385 H   0  0  0  0  0  0  0  0  0  0  0  0
  147.8686  137.3092  152.3716 H   0  0  0  0  0  0  0  0  0  0  0  0
  145.8261  138.6544  154.0419 H   0  0  0  0  0  0  0  0  0  0  0  0
  146.9731  139.7712  151.5323 H   0  0  0  0  0  0  0  0  0  0  0  0
  145.5232  140.2690  152.3960 H   0  0  0  0  0  0  0  0  0  0  0  0
  147.7640  141.8173  152.4870 H   0  0  0  0  0  0  0  0  0  0  0  0
  146.8230  141.5766  153.9690 H   0  0  0  0  0  0  0  0  0  0  0  0
  149.7704  141.9273  154.3075 H   0  0  0  0  0  0  0  0  0  0  0  0
  148.8297  141.3020  155.6538 H   0  0  0  0  0  0  0  0  0  0  0  0
  151.1856  139.9303  154.2438 H   0  0  0  0  0  0  0  0  0  0  0  0
  151.1857  140.5271  155.8835 H   0  0  0  0  0  0  0  0  0  0  0  0
  150.9052  138.0101  155.7388 H   0  0  0  0  0  0  0  0  0  0  0  0
  149.5974  138.7938  156.5886 H   0  0  0  0  0  0  0  0  0  0  0  0
  149.5299  137.8008  153.6931 H   0  0  0  0  0  0  0  0  0  0  0  0
  148.6311  137.1489  155.0502 H   0  0  0  0  0  0  0  0  0  0  0  0
  147.4703  139.3494  155.3359 H   0  0  0  0  0  0  0  0  0  0  0  0
  149.0825  140.0170  153.0402 H   0  0  0  0  0  0  0  0  0  0  0  0
  1  2  2  0  0  0  0
  2  3  1  0  0  0  0
  2 10  1  0  0  0  0
  3  4  1  0  0  0  0
  3 20  1  0  0  0  0
  4  9  1  0  0  0  0
  4  5  2  0  0  0  0
  5  6  1  0  0  0  0
  5 21  1  0  0  0  0
  6  7  2  0  0  0  0
  6 22  1  0  0  0  0
  7  8  1  0  0  0  0
  7 23  1  0  0  0  0
  8  9  2  0  0  0  0
  8 24  1  0  0  0  0
 10 11  1  0  0  0  0
 10 25  1  0  0  0  0
 11 19  1  0  0  0  0
 11 12  1  0  0  0  0
 11 26  1  0  0  0  0
 12 13  1  0  0  0  0
 12 27  1  0  0  0  0
 12 28  1  0  0  0  0
 13 14  1  0  0  0  0
 13 29  1  0  0  0  0
 13 30  1  0  0  0  0
 14 19  1  0  0  0  0
 14 15  1  0  0  0  0
 14 40  1  0  0  0  0
 15 16  1  0  0  0  0
 15 31  1  0  0  0  0
 15 32  1  0  0  0  0
 16 17  1  0  0  0  0
 16 33  1  0  0  0  0
 16 34  1  0  0  0  0
 17 18  1  0  0  0  0
 17 35  1  0  0  0  0
 17 36  1  0  0  0  0
 18 19  1  0  0  0  0
 18 37  1  0  0  0  0
 18 38  1  0  0  0  0
 19 39  1  0  0  0  0
M  CHG  1  14   1
M  END
> <s_m_source_file>
AV-unprocessed.smi

> <i_m_source_file_index>
1452

> <i_lp_mmshare_version>
43012

> <i_f3d_flags>
0

> <s_epik_input>
W0NIMl0xW0NIMl1bQ0gyXVtDSDJdW0NASF0oTjEyKVtDQEBIXShbQ0gyXVtDSDJdMilbTkhdQyg9TylbTkhdYzNbY0hdW2NIXVtjSF1bY0hdbjM=

> <s_epik_cmdline>
J2VwaWtfcHl0aG9uJywgJy1waCcsICc3LjAnLCAnLXRuJywgJzgnLCAnLW1hJywgJzIwMCcsICctbWV0YWxfYmluZGluZycsICctaW1hZScsICc8aW5maWxlLm1hZT4nLCAnLW9tYWUnLCAnPG91dGZpbGUubWFlPic=

> <r_epik_Ionization_Penalty>
0.00100813

> <r_epik_Ionization_Penalty_Charging>
0.000974069

> <r_epik_Ionization_Penalty_Neutral>
3.40643e-05

> <r_epik_State_Penalty>
0.000633842

> <r_epik_Charging_Adjusted_Penalty>
0.00160791

> <i_epik_Tot_Q>
1

> <i_epik_Tot_abs_Q>
1

> <r_epik_Metal_State_Penalty>
-0

> <b_epik_Metal_Only>
0

> <s_lp_Force_Field>
OPLS_2005

> <r_lp_Energy>
45.6992

> <b_lp_Chiralities_Consistent>
1

> <s_lp_Variant>
AV-unprocessed.smi:1452-7

> <Gold.Version>
5.8.1

> <Gold.Id.Protein>
6NUR|6NUR_protein|mol2

> <Gold.PLP.Fitness>
41.4178

> <Gold.PLP.PLP>
-30.3972

> <Gold.PLP.part.hbond>
-2.9707

> <Gold.PLP.part.metal>
0.0000

> <Gold.PLP.part.buried>
-0.8638

> <Gold.PLP.part.nonpolar>
-27.8218

> <Gold.PLP.part.repulsive>
0.5570

> <Gold.PLP.ligand.clash>
0.0000

> <Gold.PLP.ligand.torsion>
0.3220

> <Gold.PLP.Chemscore.Hbond>
2.8880

> <Gold.PLP.Chemscore.CHOScore>
1.0000

> <Gold.PLP.Chemscore.Metal>
0.0000

> <Gold.Chemscore.Hbonds>
donor molecule, donor type, donor heavy atom, donor atom, acceptor molecule, acceptor atom, score
      L1  H     3    20       P1  7948  0.90
      L1  H    10    25       P1  7948  0.99
      L1  H    14    40       P1  7957  1.00
      L1  C     8    24       P1 10186  1.00

> <Gold.PLP.Chemscore.Internal.Correction>
0.0006

> <Gold.Rescore>
     Score         DG    S(hbond)    S(metal)    S(lipo)     H(rot)  DE(clash)    DE(int)     intcor
     19.78     -21.70       2.73        0.00      82.54       1.00       0.40       1.52       ----

> <Gold.Chemscore.Fitness>
19.7750

> <Gold.Chemscore.DG>
-21.6976

> <Gold.Chemscore.ZeroCoef>
-5.4800

> <Gold.Chemscore.Hbond>
2.7308

> <Gold.Chemscore.Metal>
0.0000

> <Gold.Chemscore.Lipo>
82.5370

> <Gold.Chemscore.Internal_Hbond>
0.0000

> <Gold.Chemscore.DEClash>
0.4028

> <Gold.Chemscore.DEInternal>
1.5198

> <Gold.Chemscore.Rot>
1.0000

> <Gold.Chemscore.Internal.Correction>
   9.000000E+99

> <Gold.Chemscore.Hbonds>
donor molecule, donor type, donor heavy atom, donor atom, acceptor molecule, acceptor atom, score
      L1  H     3    20       P1  7948  0.83
      L1  H    10    25       P1  7948  0.93
      L1  H    14    40       P1  7957  0.95

> <Gold.Chemscore.Hbond.Weighted>
-9.1207

> <Gold.Chemscore.Metal.Weighted>
-0.0000

> <Gold.Chemscore.Lipo.Weighted>
-9.6568

> <Gold.Chemscore.Internal_Hbond.Weighted>
0.0000

> <Gold.Chemscore.DEClash.Weighted>
0.4028

> <Gold.Chemscore.DEInternal.Weighted>
1.5198

> <Gold.Chemscore.Rot.Weighted>
2.5600

> <Gold.Chemscore.Internal.Correction.Weighted>
   9.000000E+99

> <Gold.Protein.RotatedTorsions>
[ 6907 6896 6895 6894 ] final -139.14 input  -60.11 | X-H torsion
[ 7974 7965 7964 7962 ] final  -90.01 input  175.53 | X-H torsion
[ 8008 7997 7996 7995 ] final  143.19 input   59.86 | X-H torsion
[ 10167 10162 10161 10158 ] final -126.93 input  -65.29 | X-H torsion
[ 10718 10713 10712 10709 ] final  125.13 input   66.30 | X-H torsion
[ 10763 10752 10751 10750 ] final -160.96 input  -60.55 | X-H torsion
[ 11005 11000 10999 10996 ] final  101.19 input  -57.11 | X-H torsion

> <Gold.Protein.ActiveResidues>
 VAL166  LYS551  ARG553  GLY616  TRP617  ASP618  TYR619  PRO620  LYS621  CYS622 
 ASP623  PHE694  ASN695  SER759  ASP760  ASP761  ALA762  ILE779  LEU786  VAL792 
 PHE793  MET794  SER795  GLU796  ALA797  LYS798  CYS799  TRP800  GLU811  SER814 

> <Gold.Protein.RotatedAtoms>
  151.0439  133.5682  159.2648 H   0  0  0  0  0  0  0  0  0  0  0  0  # atno 6907 bound_to 6896
  151.2718  135.0686  159.9146 H   0  0  0  0  0  0  0  0  0  0  0  0  # atno 6908 bound_to 6896
  152.5369  134.0168  159.8017 H   0  0  0  0  0  0  0  0  0  0  0  0  # atno 6909 bound_to 6896
  145.4321  140.9556  143.2122 H   0  0  0  0  0  0  0  0  0  0  0  0  # atno 7974 bound_to 7965
  156.2935  140.2269  156.4850 H   0  0  0  0  0  0  0  0  0  0  0  0  # atno 8008 bound_to 7997
  154.7820  140.0459  157.1156 H   0  0  0  0  0  0  0  0  0  0  0  0  # atno 8009 bound_to 7997
  154.9747  140.3071  155.4976 H   0  0  0  0  0  0  0  0  0  0  0  0  # atno 8010 bound_to 7997
  139.9663  143.5895  152.2428 H   0  0  0  0  0  0  0  0  0  0  0  0  # atno 10167 bound_to 10162
  157.5528  131.1093  150.8672 H   0  0  0  0  0  0  0  0  0  0  0  0  # atno 10718 bound_to 10713
  154.7345  135.3054  154.8834 H   0  0  0  0  0  0  0  0  0  0  0  0  # atno 10763 bound_to 10752
  153.9667  135.6746  153.4750 H   0  0  0  0  0  0  0  0  0  0  0  0  # atno 10764 bound_to 10752
  153.0949  135.4940  154.8683 H   0  0  0  0  0  0  0  0  0  0  0  0  # atno 10765 bound_to 10752
  139.8772  134.9172  156.4869 H   0  0  0  0  0  0  0  0  0  0  0  0  # atno 11005 bound_to 11000
  144.8176  139.5849  143.7001 LP  0  0  0  0  0  0  0  0  0  0  0  0  # atno 17320 bound_to 7965
  146.2601  139.6391  142.9368 LP  0  0  0  0  0  0  0  0  0  0  0  0  # atno 17321 bound_to 7965
  139.6515  144.7661  151.2138 LP  0  0  0  0  0  0  0  0  0  0  0  0  # atno 17342 bound_to 10162
  140.7537  143.6153  150.8566 LP  0  0  0  0  0  0  0  0  0  0  0  0  # atno 17343 bound_to 10162
  156.9192  130.5309  149.5279 LP  0  0  0  0  0  0  0  0  0  0  0  0  # atno 17370 bound_to 10713
  156.0592  130.5648  150.9157 LP  0  0  0  0  0  0  0  0  0  0  0  0  # atno 17371 bound_to 10713
  140.8687  133.8005  155.9341 LP  0  0  0  0  0  0  0  0  0  0  0  0  # atno 17394 bound_to 11000
  140.8975  134.2419  157.5060 LP  0  0  0  0  0  0  0  0  0  0  0  0  # atno 17395 bound_to 11000

$$$$
