AV-unprocessed.smi:2710|AV-procd|sdf|10470|dock8
  -GOLD-   2272014513D 1   1.00000     0.00000
 Structure written by MMmdl.
 53 54  0  0  0  0  0  0  0  0  2 V2000
  136.8246  142.9390  150.4117 C   0  0  0  0  0  0  0  0  0  0  0  0
  137.4859  141.5750  150.6606 C   0  0  0  0  0  0  0  0  0  0  0  0
  137.3092  141.0892  152.0608 N   0  3  2  0  0  0  0  0  0  0  0  0
  138.2574  141.6956  153.0379 C   0  0  0  0  0  0  0  0  0  0  0  0
  139.6860  141.1370  152.8822 C   0  0  0  0  0  0  0  0  0  0  0  0
  139.7036  139.6005  152.9756 C   0  0  2  0  0  0  0  0  0  0  0  0
  141.0390  139.0959  152.6662 N   0  0  0  0  0  0  0  0  0  0  0  0
  141.3564  137.8158  152.4231 C   0  0  0  0  0  0  0  0  0  0  0  0
  140.5388  136.8962  152.4313 O   0  0  0  0  0  0  0  0  0  0  0  0
  142.6734  137.6781  152.1951 N   0  0  0  0  0  0  0  0  0  0  0  0
  143.3882  136.4893  151.8910 C   0  0  0  0  0  0  0  0  0  0  0  0
  142.6807  135.2796  151.7415 C   0  0  0  0  0  0  0  0  0  0  0  0
  143.3050  134.1162  151.4624 N   0  0  0  0  0  0  0  0  0  0  0  0
  144.6380  134.1434  151.3349 C   0  0  0  0  0  0  0  0  0  0  0  0
  145.3250  132.7968  151.0437 C   0  0  0  0  0  0  0  0  0  0  0  0
  144.9943  131.7287  152.1153 C   0  0  0  0  0  0  0  0  0  0  0  0
  146.8577  132.9772  151.0488 C   0  0  0  0  0  0  0  0  0  0  0  0
  144.8508  132.2546  149.6806 C   0  0  0  0  0  0  0  0  0  0  0  0
  145.4077  135.2291  151.4879 N   0  0  0  0  0  0  0  0  0  0  0  0
  144.7945  136.4005  151.7606 C   0  0  0  0  0  0  0  0  0  0  0  0
  138.6752  138.9871  152.0083 C   0  0  0  0  0  0  0  0  0  0  0  0
  137.2772  139.6036  152.2215 C   0  0  2  0  0  0  0  0  0  0  0  0
  136.1907  138.9135  151.3774 C   0  0  0  0  0  0  0  0  0  0  0  0
  136.8603  143.1907  149.3517 H   0  0  0  0  0  0  0  0  0  0  0  0
  137.3253  143.7458  150.9457 H   0  0  0  0  0  0  0  0  0  0  0  0
  135.7763  142.9301  150.7112 H   0  0  0  0  0  0  0  0  0  0  0  0
  137.0209  140.8797  149.9649 H   0  0  0  0  0  0  0  0  0  0  0  0
  138.5405  141.6131  150.3895 H   0  0  0  0  0  0  0  0  0  0  0  0
  138.2634  142.7818  152.9636 H   0  0  0  0  0  0  0  0  0  0  0  0
  137.8970  141.4776  154.0441 H   0  0  0  0  0  0  0  0  0  0  0  0
  140.1095  141.4600  151.9307 H   0  0  0  0  0  0  0  0  0  0  0  0
  140.3288  141.5598  153.6555 H   0  0  0  0  0  0  0  0  0  0  0  0
  139.4150  139.3203  153.9904 H   0  0  0  0  0  0  0  0  0  0  0  0
  141.7843  139.7764  152.6394 H   0  0  0  0  0  0  0  0  0  0  0  0
  143.2376  138.5078  152.3071 H   0  0  0  0  0  0  0  0  0  0  0  0
  141.6056  135.2422  151.8413 H   0  0  0  0  0  0  0  0  0  0  0  0
  145.4992  130.7854  151.9040 H   0  0  0  0  0  0  0  0  0  0  0  0
  143.9254  131.5146  152.1565 H   0  0  0  0  0  0  0  0  0  0  0  0
  145.3088  132.0461  153.1105 H   0  0  0  0  0  0  0  0  0  0  0  0
  147.2063  133.3676  152.0058 H   0  0  0  0  0  0  0  0  0  0  0  0
  147.1872  133.6682  150.2723 H   0  0  0  0  0  0  0  0  0  0  0  0
  147.3701  132.0308  150.8731 H   0  0  0  0  0  0  0  0  0  0  0  0
  145.3098  131.2917  149.4543 H   0  0  0  0  0  0  0  0  0  0  0  0
  145.1079  132.9337  148.8669 H   0  0  0  0  0  0  0  0  0  0  0  0
  143.7691  132.1166  149.6643 H   0  0  0  0  0  0  0  0  0  0  0  0
  145.4462  137.2501  151.8924 H   0  0  0  0  0  0  0  0  0  0  0  0
  138.9944  139.1313  150.9751 H   0  0  0  0  0  0  0  0  0  0  0  0
  138.6301  137.9084  152.1652 H   0  0  0  0  0  0  0  0  0  0  0  0
  136.9979  139.4223  153.2609 H   0  0  0  0  0  0  0  0  0  0  0  0
  136.0602  137.8788  151.6963 H   0  0  0  0  0  0  0  0  0  0  0  0
  136.4445  138.8860  150.3179 H   0  0  0  0  0  0  0  0  0  0  0  0
  135.2273  139.4120  151.4865 H   0  0  0  0  0  0  0  0  0  0  0  0
  136.3905  141.4077  152.3341 H   0  0  0  0  0  0  0  0  0  0  0  0
  1  2  1  0  0  0  0
  1 24  1  0  0  0  0
  1 25  1  0  0  0  0
  1 26  1  0  0  0  0
  2  3  1  0  0  0  0
  2 27  1  0  0  0  0
  2 28  1  0  0  0  0
  3 22  1  0  0  0  0
  3  4  1  0  0  0  0
  3 53  1  0  0  0  0
  4  5  1  0  0  0  0
  4 29  1  0  0  0  0
  4 30  1  0  0  0  0
  5  6  1  0  0  0  0
  5 31  1  0  0  0  0
  5 32  1  0  0  0  0
  6  7  1  0  0  0  0
  6 21  1  0  0  0  0
  6 33  1  0  0  0  0
  7  8  1  0  0  0  0
  7 34  1  0  0  0  0
  8  9  2  0  0  0  0
  8 10  1  0  0  0  0
 10 11  1  0  0  0  0
 10 35  1  0  0  0  0
 11 20  1  0  0  0  0
 11 12  2  0  0  0  0
 12 13  1  0  0  0  0
 12 36  1  0  0  0  0
 13 14  2  0  0  0  0
 14 15  1  0  0  0  0
 14 19  1  0  0  0  0
 15 16  1  0  0  0  0
 15 17  1  0  0  0  0
 15 18  1  0  0  0  0
 16 37  1  0  0  0  0
 16 38  1  0  0  0  0
 16 39  1  0  0  0  0
 17 40  1  0  0  0  0
 17 41  1  0  0  0  0
 17 42  1  0  0  0  0
 18 43  1  0  0  0  0
 18 44  1  0  0  0  0
 18 45  1  0  0  0  0
 19 20  2  0  0  0  0
 20 46  1  0  0  0  0
 21 22  1  0  0  0  0
 21 47  1  0  0  0  0
 21 48  1  0  0  0  0
 22 23  1  0  0  0  0
 22 49  1  0  0  0  0
 23 50  1  0  0  0  0
 23 51  1  0  0  0  0
 23 52  1  0  0  0  0
M  CHG  1   3   1
M  END
> <s_m_source_file>
AV-unprocessed.smi

> <i_m_source_file_index>
2710

> <i_lp_mmshare_version>
43012

> <i_f3d_flags>
0

> <s_epik_input>
W0NIM11bQ0gyXU4xW0NIMl1bQ0gyXVtDQEhdKFtDSDJdW0NASF0xW0NIM10pW05IXUMoPU8pW05IXWMyW2NIXW5jKEMoW0NIM10pKFtDSDNdKVtDSDNdKW5bY0hdMg==

> <s_epik_cmdline>
J2VwaWtfcHl0aG9uJywgJy1waCcsICc3LjAnLCAnLXRuJywgJzgnLCAnLW1hJywgJzIwMCcsICctbWV0YWxfYmluZGluZycsICctaW1hZScsICc8aW5maWxlLm1hZT4nLCAnLW9tYWUnLCAnPG91dGZpbGUubWFlPic=

> <r_lp_tautomer_probability>
1

> <r_epik_Ionization_Penalty>
0.00396003

> <r_epik_Ionization_Penalty_Charging>
0.0039379

> <r_epik_Ionization_Penalty_Neutral>
2.21316e-05

> <r_epik_State_Penalty>
0.00281651

> <r_epik_Charging_Adjusted_Penalty>
0.00675441

> <i_epik_Tot_Q>
1

> <i_epik_Tot_abs_Q>
1

> <r_epik_Metal_State_Penalty>
-0

> <b_epik_Metal_Only>
0

> <s_lp_Force_Field>
OPLS_2005

> <r_lp_Energy>
21.9784

> <b_lp_Chiralities_Consistent>
1

> <s_lp_Variant>
AV-unprocessed.smi:2710-7

> <Gold.Version>
5.8.1

> <Gold.Id.Protein>
6NUR|6NUR_protein|mol2

> <Gold.PLP.Fitness>
42.1602

> <Gold.PLP.PLP>
-35.7167

> <Gold.PLP.part.hbond>
-2.5298

> <Gold.PLP.part.metal>
0.0000

> <Gold.PLP.part.buried>
-5.0341

> <Gold.PLP.part.nonpolar>
-28.3662

> <Gold.PLP.part.repulsive>
0.4868

> <Gold.PLP.ligand.clash>
0.0000

> <Gold.PLP.ligand.torsion>
0.4715

> <Gold.PLP.Chemscore.Hbond>
2.0000

> <Gold.PLP.Chemscore.CHOScore>
0.4479

> <Gold.PLP.Chemscore.Metal>
0.0000

> <Gold.Chemscore.Hbonds>
donor molecule, donor type, donor heavy atom, donor atom, acceptor molecule, acceptor atom, score
      L1  H     7    34       P1 10175  0.85
      L1  H    10    35       P1 10175  1.00

> <Gold.PLP.Chemscore.Internal.Correction>
0.0429

> <Gold.Rescore>
     Score         DG    S(hbond)    S(metal)    S(lipo)     H(rot)  DE(clash)    DE(int)     intcor
     15.06     -19.68       1.89        0.00      95.95       1.31       0.79       3.82       ----

> <Gold.Chemscore.Fitness>
15.0621

> <Gold.Chemscore.DG>
-19.6795

> <Gold.Chemscore.ZeroCoef>
-5.4800

> <Gold.Chemscore.Hbond>
1.8929

> <Gold.Chemscore.Metal>
0.0000

> <Gold.Chemscore.Lipo>
95.9477

> <Gold.Chemscore.Internal_Hbond>
0.0000

> <Gold.Chemscore.DEClash>
0.7941

> <Gold.Chemscore.DEInternal>
3.8232

> <Gold.Chemscore.Rot>
1.3081

> <Gold.Chemscore.Internal.Correction>
   9.000000E+99

> <Gold.Chemscore.Hbonds>
donor molecule, donor type, donor heavy atom, donor atom, acceptor molecule, acceptor atom, score
      L1  H     7    34       P1 10175  0.15
      L1  H    10    35       P1 10175  0.97

> <Gold.Chemscore.Hbond.Weighted>
-6.3224

> <Gold.Chemscore.Metal.Weighted>
-0.0000

> <Gold.Chemscore.Lipo.Weighted>
-11.2259

> <Gold.Chemscore.Internal_Hbond.Weighted>
0.0000

> <Gold.Chemscore.DEClash.Weighted>
0.7941

> <Gold.Chemscore.DEInternal.Weighted>
3.8232

> <Gold.Chemscore.Rot.Weighted>
3.3488

> <Gold.Chemscore.Internal.Correction.Weighted>
   9.000000E+99

> <Gold.Protein.RotatedTorsions>
[ 6907 6896 6895 6894 ] final  168.19 input  -60.11 | X-H torsion
[ 7974 7965 7964 7962 ] final  -59.84 input  175.53 | X-H torsion
[ 8008 7997 7996 7995 ] final -112.73 input   59.86 | X-H torsion
[ 10167 10162 10161 10158 ] final -129.89 input  -65.29 | X-H torsion
[ 10718 10713 10712 10709 ] final  -36.82 input   66.30 | X-H torsion
[ 10763 10752 10751 10750 ] final  -47.85 input  -60.55 | X-H torsion
[ 11005 11000 10999 10996 ] final  -71.21 input  -57.11 | X-H torsion

> <Gold.Protein.ActiveResidues>
 VAL166  LYS551  ARG553  GLY616  TRP617  ASP618  TYR619  PRO620  LYS621  CYS622 
 ASP623  PHE694  ASN695  SER759  ASP760  ASP761  ALA762  ILE779  LEU786  VAL792 
 PHE793  MET794  SER795  GLU796  ALA797  LYS798  CYS799  TRP800  GLU811  SER814 

> <Gold.Protein.RotatedAtoms>
  151.8516  133.3441  159.3674 H   0  0  0  0  0  0  0  0  0  0  0  0  # atno 6907 bound_to 6896
  150.7205  134.5294  159.5702 H   0  0  0  0  0  0  0  0  0  0  0  0  # atno 6908 bound_to 6896
  152.2788  134.7852  160.0451 H   0  0  0  0  0  0  0  0  0  0  0  0  # atno 6909 bound_to 6896
  145.8226  140.8530  143.0125 H   0  0  0  0  0  0  0  0  0  0  0  0  # atno 7974 bound_to 7965
  155.0098  140.0393  157.2394 H   0  0  0  0  0  0  0  0  0  0  0  0  # atno 8008 bound_to 7997
  154.7470  140.2760  155.6301 H   0  0  0  0  0  0  0  0  0  0  0  0  # atno 8009 bound_to 7997
  156.2877  140.2654  156.2214 H   0  0  0  0  0  0  0  0  0  0  0  0  # atno 8010 bound_to 7997
  139.9351  143.6228  152.2519 H   0  0  0  0  0  0  0  0  0  0  0  0  # atno 10167 bound_to 10162
  156.3224  130.4267  149.7947 H   0  0  0  0  0  0  0  0  0  0  0  0  # atno 10718 bound_to 10713
  154.0682  135.6608  153.4820 H   0  0  0  0  0  0  0  0  0  0  0  0  # atno 10763 bound_to 10752
  153.0401  135.5151  154.7593 H   0  0  0  0  0  0  0  0  0  0  0  0  # atno 10764 bound_to 10752
  154.6650  135.3021  154.9784 H   0  0  0  0  0  0  0  0  0  0  0  0  # atno 10765 bound_to 10752
  141.1588  133.6811  156.6871 H   0  0  0  0  0  0  0  0  0  0  0  0  # atno 11005 bound_to 11000
  144.6746  140.0556  143.7477 LP  0  0  0  0  0  0  0  0  0  0  0  0  # atno 17320 bound_to 7965
  145.9658  139.2833  143.1128 LP  0  0  0  0  0  0  0  0  0  0  0  0  # atno 17321 bound_to 7965
  139.6750  144.7659  151.1712 LP  0  0  0  0  0  0  0  0  0  0  0  0  # atno 17342 bound_to 10162
  140.7627  143.5808  150.8897 LP  0  0  0  0  0  0  0  0  0  0  0  0  # atno 17343 bound_to 10162
  156.5250  130.8232  151.3217 LP  0  0  0  0  0  0  0  0  0  0  0  0  # atno 17370 bound_to 10713
  157.7414  130.9870  150.2446 LP  0  0  0  0  0  0  0  0  0  0  0  0  # atno 17371 bound_to 10713
  140.3058  134.8126  157.4136 LP  0  0  0  0  0  0  0  0  0  0  0  0  # atno 17394 bound_to 11000
  140.1221  134.5205  155.8175 LP  0  0  0  0  0  0  0  0  0  0  0  0  # atno 17395 bound_to 11000

$$$$
