AV-unprocessed.smi:285|AV-procd|sdf|2169|dock10
  -GOLD-   2262021533D 1   1.00000     0.00000
 Structure written by MMmdl.
 31 33  0  0  0  0  0  0  0  0  1 V2000
  154.0601  136.5337  162.5101 N   0  0  0  0  0  0  0  0  0  0  0  0
  154.0535  137.6649  161.7919 C   0  0  0  0  0  0  0  0  0  0  0  0
  154.9219  138.6467  162.1300 N   0  0  0  0  0  0  0  0  0  0  0  0
  154.9365  139.7847  161.4281 C   0  0  0  0  0  0  0  0  0  0  0  0
  154.1839  140.1299  160.3801 N   0  0  0  0  0  0  0  0  0  0  0  0
  153.3065  139.1394  160.0408 C   0  0  0  0  0  0  0  0  0  0  0  0
  153.1809  137.8791  160.6955 C   0  0  0  0  0  0  0  0  0  0  0  0
  152.1933  137.1165  160.0843 N   0  0  0  0  0  0  0  0  0  0  0  0
  151.7756  137.8998  159.1293 C   0  0  0  0  0  0  0  0  0  0  0  0
  150.4007  137.3254  157.9432 Br  0  0  0  0  0  0  0  0  0  0  0  0
  152.3772  139.1330  159.0195 N   0  0  0  0  0  0  0  0  0  0  0  0
  152.1107  140.2291  158.0402 C   0  0  2  0  0  0  0  0  0  0  0  0
  150.6675  140.6994  158.1167 C   0  0  0  0  0  0  0  0  0  0  0  0
  150.4782  141.2790  156.7263 C   0  0  1  0  0  0  0  0  0  0  0  0
  150.7664  142.6641  156.7325 O   0  0  0  0  0  0  0  0  0  0  0  0
  151.5015  140.5199  155.8501 C   0  0  2  0  0  0  0  0  0  0  0  0
  150.8375  139.5693  154.8402 C   0  0  0  0  0  0  0  0  0  0  0  0
  150.0006  140.2962  153.9662 O   0  0  0  0  0  0  0  0  0  0  0  0
  152.2727  139.7308  156.7566 O   0  0  0  0  0  0  0  0  0  0  0  0
  153.4225  135.7859  162.2772 H   0  0  0  0  0  0  0  0  0  0  0  0
  154.7017  136.4311  163.2829 H   0  0  0  0  0  0  0  0  0  0  0  0
  155.6534  140.5245  161.7520 H   0  0  0  0  0  0  0  0  0  0  0  0
  152.8397  141.0141  158.2411 H   0  0  0  0  0  0  0  0  0  0  0  0
  150.0084  139.8420  158.2587 H   0  0  0  0  0  0  0  0  0  0  0  0
  150.5168  141.4057  158.9343 H   0  0  0  0  0  0  0  0  0  0  0  0
  149.4509  141.1466  156.3853 H   0  0  0  0  0  0  0  0  0  0  0  0
  150.0998  143.1141  156.2361 H   0  0  0  0  0  0  0  0  0  0  0  0
  152.1548  141.2261  155.3336 H   0  0  0  0  0  0  0  0  0  0  0  0
  151.5820  139.0065  154.2757 H   0  0  0  0  0  0  0  0  0  0  0  0
  150.2081  138.8452  155.3584 H   0  0  0  0  0  0  0  0  0  0  0  0
  150.0990  139.9446  153.0946 H   0  0  0  0  0  0  0  0  0  0  0  0
  1  2  1  0  0  0  0
  1 20  1  0  0  0  0
  1 21  1  0  0  0  0
  2  7  1  0  0  0  0
  2  3  2  0  0  0  0
  3  4  1  0  0  0  0
  4  5  2  0  0  0  0
  4 22  1  0  0  0  0
  5  6  1  0  0  0  0
  6 11  1  0  0  0  0
  6  7  2  0  0  0  0
  7  8  1  0  0  0  0
  8  9  2  0  0  0  0
  9 10  1  0  0  0  0
  9 11  1  0  0  0  0
 11 12  1  0  0  0  0
 12 19  1  0  0  0  0
 12 13  1  0  0  0  0
 12 23  1  0  0  0  0
 13 14  1  0  0  0  0
 13 24  1  0  0  0  0
 13 25  1  0  0  0  0
 14 15  1  0  0  0  0
 14 16  1  0  0  0  0
 14 26  1  0  0  0  0
 15 27  1  0  0  0  0
 16 17  1  0  0  0  0
 16 19  1  0  0  0  0
 16 28  1  0  0  0  0
 17 18  1  0  0  0  0
 17 29  1  0  0  0  0
 17 30  1  0  0  0  0
 18 31  1  0  0  0  0
M  END
> <s_m_source_file>
AV-unprocessed.smi

> <i_m_source_file_index>
285

> <i_lp_mmshare_version>
43012

> <i_f3d_flags>
0

> <s_epik_input>
bjFbY0hdbmMoW05IMl0pYyhjMTIpbmMoQnIpbjJbQ0BASF0zW0NIMl1bQ0BASF0oW09IXSlbQ0BIXShPMylbQ0gyXVtPSF0=

> <s_epik_cmdline>
J2VwaWtfcHl0aG9uJywgJy1waCcsICc3LjAnLCAnLXRuJywgJzgnLCAnLW1hJywgJzIwMCcsICctbWV0YWxfYmluZGluZycsICctaW1hZScsICc8aW5maWxlLm1hZT4nLCAnLW9tYWUnLCAnPG91dGZpbGUubWFlPic=

> <r_lp_tautomer_probability>
1

> <r_epik_Ionization_Penalty>
0.000103242

> <r_epik_Ionization_Penalty_Charging>
0

> <r_epik_Ionization_Penalty_Neutral>
0.000103242

> <r_epik_State_Penalty>
-0

> <r_epik_Charging_Adjusted_Penalty>
0

> <i_epik_Tot_Q>
0

> <i_epik_Tot_abs_Q>
0

> <r_epik_Metal_State_Penalty>
-0

> <b_epik_Metal_Only>
0

> <s_epik_Chemistry_Notes>
This compound contains an acetal/aminal-like group ( X-CH(R)-Y where X, Y are N, S, or O) that may be acid/base labile, releasing an aldehyde.

> <s_lp_Force_Field>
OPLS_2005

> <r_lp_Energy>
31.1056

> <b_lp_Chiralities_Consistent>
1

> <s_lp_Variant>
AV-unprocessed.smi:285-5

> <Gold.Version>
5.8.1

> <Gold.Id.Protein>
6NUR|6NUR_protein|mol2

> <Gold.PLP.Fitness>
41.0708

> <Gold.PLP.PLP>
-29.6189

> <Gold.PLP.part.hbond>
-4.9562

> <Gold.PLP.part.metal>
0.0000

> <Gold.PLP.part.buried>
-4.1572

> <Gold.PLP.part.nonpolar>
-20.1882

> <Gold.PLP.part.repulsive>
0.0316

> <Gold.PLP.ligand.clash>
0.0000

> <Gold.PLP.ligand.torsion>
0.0141

> <Gold.PLP.Chemscore.Hbond>
3.8200

> <Gold.PLP.Chemscore.CHOScore>
0.0000

> <Gold.PLP.Chemscore.Metal>
0.0000

> <Gold.Chemscore.Hbonds>
donor molecule, donor type, donor heavy atom, donor atom, acceptor molecule, acceptor atom, score
      L1  H    15    27       P1  8028  0.84
      L1  H    18    31       P1  7957  0.98
      P1  H  6896  6908       L1     8  1.00
      P1  H  7997  8008       L1    19  0.78

> <Gold.PLP.Chemscore.Internal.Correction>
0.0201

> <Gold.Rescore>
     Score         DG    S(hbond)    S(metal)    S(lipo)     H(rot)  DE(clash)    DE(int)     intcor
     11.22     -12.00       3.10        0.00      34.12       3.06       0.70       0.08       ----

> <Gold.Chemscore.Fitness>
11.2231

> <Gold.Chemscore.DG>
-12.0020

> <Gold.Chemscore.ZeroCoef>
-5.4800

> <Gold.Chemscore.Hbond>
3.1036

> <Gold.Chemscore.Metal>
0.0000

> <Gold.Chemscore.Lipo>
34.1152

> <Gold.Chemscore.Internal_Hbond>
0.0000

> <Gold.Chemscore.DEClash>
0.6969

> <Gold.Chemscore.DEInternal>
0.0820

> <Gold.Chemscore.Rot>
3.0607

> <Gold.Chemscore.Internal.Correction>
   9.000000E+99

> <Gold.Chemscore.Hbonds>
donor molecule, donor type, donor heavy atom, donor atom, acceptor molecule, acceptor atom, score
      L1  H    15    27       P1  8028  0.81
      L1  H    18    31       P1  7957  0.90
      P1  H  6896  6908       L1     8  0.93
      P1  H  7997  8008       L1    19  0.15

> <Gold.Chemscore.Hbond.Weighted>
-10.3659

> <Gold.Chemscore.Metal.Weighted>
-0.0000

> <Gold.Chemscore.Lipo.Weighted>
-3.9915

> <Gold.Chemscore.Internal_Hbond.Weighted>
0.0000

> <Gold.Chemscore.DEClash.Weighted>
0.6969

> <Gold.Chemscore.DEInternal.Weighted>
0.0820

> <Gold.Chemscore.Rot.Weighted>
7.8354

> <Gold.Chemscore.Internal.Correction.Weighted>
   9.000000E+99

> <Gold.Protein.RotatedTorsions>
[ 6907 6896 6895 6894 ] final -104.24 input  -60.11 | X-H torsion
[ 7974 7965 7964 7962 ] final  175.28 input  175.53 | X-H torsion
[ 8008 7997 7996 7995 ] final  -51.08 input   59.86 | X-H torsion
[ 10167 10162 10161 10158 ] final  -51.90 input  -65.29 | X-H torsion
[ 10718 10713 10712 10709 ] final  114.92 input   66.30 | X-H torsion
[ 10763 10752 10751 10750 ] final  176.15 input  -60.55 | X-H torsion
[ 11005 11000 10999 10996 ] final  148.58 input  -57.11 | X-H torsion

> <Gold.Protein.ActiveResidues>
 VAL166  LYS551  ARG553  GLY616  TRP617  ASP618  TYR619  PRO620  LYS621  CYS622 
 ASP623  PHE694  ASN695  SER759  ASP760  ASP761  ALA762  ILE779  LEU786  VAL792 
 PHE793  MET794  SER795  GLU796  ALA797  LYS798  CYS799  TRP800  GLU811  SER814 

> <Gold.Protein.RotatedAtoms>
  150.7278  134.0307  159.3732 H   0  0  0  0  0  0  0  0  0  0  0  0  # atno 6907 bound_to 6896
  151.8276  135.0629  160.0442 H   0  0  0  0  0  0  0  0  0  0  0  0  # atno 6908 bound_to 6896
  152.2957  133.5569  159.5622 H   0  0  0  0  0  0  0  0  0  0  0  0  # atno 6909 bound_to 6896
  144.7205  139.9922  143.6440 H   0  0  0  0  0  0  0  0  0  0  0  0  # atno 7974 bound_to 7965
  154.4075  140.1256  156.4771 H   0  0  0  0  0  0  0  0  0  0  0  0  # atno 8008 bound_to 7997
  155.7122  140.3493  155.4959 H   0  0  0  0  0  0  0  0  0  0  0  0  # atno 8009 bound_to 7997
  155.9290  140.1066  157.1137 H   0  0  0  0  0  0  0  0  0  0  0  0  # atno 8010 bound_to 7997
  140.6565  143.2603  151.4570 H   0  0  0  0  0  0  0  0  0  0  0  0  # atno 10167 bound_to 10162
  157.6253  131.1005  150.7255 H   0  0  0  0  0  0  0  0  0  0  0  0  # atno 10718 bound_to 10713
  154.4772  135.2773  155.1598 H   0  0  0  0  0  0  0  0  0  0  0  0  # atno 10763 bound_to 10752
  154.3323  135.6187  153.5560 H   0  0  0  0  0  0  0  0  0  0  0  0  # atno 10764 bound_to 10752
  152.9871  135.5768  154.5166 H   0  0  0  0  0  0  0  0  0  0  0  0  # atno 10765 bound_to 10752
  140.0972  134.9005  157.1740 H   0  0  0  0  0  0  0  0  0  0  0  0  # atno 11005 bound_to 11000
  146.0402  139.3415  143.0702 LP  0  0  0  0  0  0  0  0  0  0  0  0  # atno 17320 bound_to 7965
  145.8344  140.9614  143.0832 LP  0  0  0  0  0  0  0  0  0  0  0  0  # atno 17321 bound_to 7965
  139.5789  144.1756  152.1941 LP  0  0  0  0  0  0  0  0  0  0  0  0  # atno 17342 bound_to 10162
  140.1075  144.5486  150.6947 LP  0  0  0  0  0  0  0  0  0  0  0  0  # atno 17343 bound_to 10162
  156.7604  130.4797  149.5438 LP  0  0  0  0  0  0  0  0  0  0  0  0  # atno 17370 bound_to 10713
  156.1421  130.6252  151.0481 LP  0  0  0  0  0  0  0  0  0  0  0  0  # atno 17371 bound_to 10713
  140.3270  134.2852  155.7235 LP  0  0  0  0  0  0  0  0  0  0  0  0  # atno 17394 bound_to 11000
  141.2095  133.7746  156.9991 LP  0  0  0  0  0  0  0  0  0  0  0  0  # atno 17395 bound_to 11000

$$$$
