AV-unprocessed.smi:1977|AV-procd|sdf|7991|dock6
  -GOLD-   2272010173D 1   1.00000     0.00000
 Structure written by MMmdl.
 45 46  0  0  0  0  0  0  0  0  1 V2000
  145.1181  135.7684  150.7595 C   0  0  0  0  0  0  0  0  0  0  0  0
  145.3975  134.3209  151.1999 C   0  0  0  0  0  0  0  0  0  0  0  0
  144.1849  133.4236  150.9132 C   0  0  0  0  0  0  0  0  0  0  0  0
  145.8065  134.2268  152.6854 C   0  0  0  0  0  0  0  0  0  0  0  0
  146.8403  135.1915  153.0465 N   0  0  0  0  0  0  0  0  0  0  0  0
  146.8615  135.9083  154.1787 C   0  0  0  0  0  0  0  0  0  0  0  0
  146.0018  135.8362  155.0568 O   0  0  0  0  0  0  0  0  0  0  0  0
  147.9297  136.7168  154.2333 N   0  0  0  0  0  0  0  0  0  0  0  0
  148.2539  137.6266  155.3294 C   0  0  0  0  0  0  0  0  0  0  0  0
  148.4418  139.0844  154.9016 C   0  0  0  0  0  0  0  0  0  0  0  0
  147.4048  139.7674  154.2241 C   0  0  0  0  0  0  0  0  0  0  0  0
  147.5787  141.1164  153.8681 C   0  0  0  0  0  0  0  0  0  0  0  0
  148.7885  141.7441  154.2101 C   0  0  0  0  0  0  0  0  0  0  0  0
  149.7855  141.1140  154.8629 N   0  0  0  0  0  0  0  0  0  0  0  0
  149.6242  139.8132  155.2091 C   0  0  0  0  0  0  0  0  0  0  0  0
  150.6984  139.1914  155.8705 N   0  0  0  0  0  0  0  0  0  0  0  0
  151.0847  139.7545  157.1604 C   0  0  0  0  0  0  0  0  0  0  0  0
  152.1407  138.8564  157.8271 C   0  0  0  0  0  0  0  0  0  0  0  0
  153.2538  138.6985  156.9512 O   0  0  0  0  0  0  0  0  0  0  0  0
  152.8832  138.0860  155.7188 C   0  0  0  0  0  0  0  0  0  0  0  0
  151.8428  138.9607  154.9979 C   0  0  0  0  0  0  0  0  0  0  0  0
  144.3104  136.2102  151.3438 H   0  0  0  0  0  0  0  0  0  0  0  0
  144.8278  135.8088  149.7093 H   0  0  0  0  0  0  0  0  0  0  0  0
  145.9985  136.4007  150.8750 H   0  0  0  0  0  0  0  0  0  0  0  0
  146.2247  133.9459  150.5955 H   0  0  0  0  0  0  0  0  0  0  0  0
  143.3121  133.7419  151.4842 H   0  0  0  0  0  0  0  0  0  0  0  0
  144.3932  132.3857  151.1745 H   0  0  0  0  0  0  0  0  0  0  0  0
  143.9185  133.4482  149.8561 H   0  0  0  0  0  0  0  0  0  0  0  0
  144.9397  134.4098  153.3212 H   0  0  0  0  0  0  0  0  0  0  0  0
  146.1504  133.2183  152.9222 H   0  0  0  0  0  0  0  0  0  0  0  0
  147.5920  135.3210  152.3852 H   0  0  0  0  0  0  0  0  0  0  0  0
  148.5739  136.7004  153.4563 H   0  0  0  0  0  0  0  0  0  0  0  0
  147.4868  137.5947  156.1046 H   0  0  0  0  0  0  0  0  0  0  0  0
  149.1568  137.2329  155.7925 H   0  0  0  0  0  0  0  0  0  0  0  0
  146.4756  139.2746  153.9811 H   0  0  0  0  0  0  0  0  0  0  0  0
  146.8008  141.6577  153.3501 H   0  0  0  0  0  0  0  0  0  0  0  0
  148.9601  142.7794  153.9554 H   0  0  0  0  0  0  0  0  0  0  0  0
  151.4936  140.7564  157.0214 H   0  0  0  0  0  0  0  0  0  0  0  0
  150.2078  139.8461  157.8021 H   0  0  0  0  0  0  0  0  0  0  0  0
  152.4828  139.3059  158.7593 H   0  0  0  0  0  0  0  0  0  0  0  0
  151.7208  137.8809  158.0777 H   0  0  0  0  0  0  0  0  0  0  0  0
  153.7714  137.9688  155.0980 H   0  0  0  0  0  0  0  0  0  0  0  0
  152.4877  137.0858  155.9030 H   0  0  0  0  0  0  0  0  0  0  0  0
  151.5274  138.4797  154.0716 H   0  0  0  0  0  0  0  0  0  0  0  0
  152.2855  139.9196  154.7242 H   0  0  0  0  0  0  0  0  0  0  0  0
  1  2  1  0  0  0  0
  1 22  1  0  0  0  0
  1 23  1  0  0  0  0
  1 24  1  0  0  0  0
  2  3  1  0  0  0  0
  2  4  1  0  0  0  0
  2 25  1  0  0  0  0
  3 26  1  0  0  0  0
  3 27  1  0  0  0  0
  3 28  1  0  0  0  0
  4  5  1  0  0  0  0
  4 29  1  0  0  0  0
  4 30  1  0  0  0  0
  5  6  1  0  0  0  0
  5 31  1  0  0  0  0
  6  7  2  0  0  0  0
  6  8  1  0  0  0  0
  8  9  1  0  0  0  0
  8 32  1  0  0  0  0
  9 10  1  0  0  0  0
  9 33  1  0  0  0  0
  9 34  1  0  0  0  0
 10 15  1  0  0  0  0
 10 11  2  0  0  0  0
 11 12  1  0  0  0  0
 11 35  1  0  0  0  0
 12 13  2  0  0  0  0
 12 36  1  0  0  0  0
 13 14  1  0  0  0  0
 13 37  1  0  0  0  0
 14 15  2  0  0  0  0
 15 16  1  0  0  0  0
 16 21  1  0  0  0  0
 16 17  1  0  0  0  0
 17 18  1  0  0  0  0
 17 38  1  0  0  0  0
 17 39  1  0  0  0  0
 18 19  1  0  0  0  0
 18 40  1  0  0  0  0
 18 41  1  0  0  0  0
 19 20  1  0  0  0  0
 20 21  1  0  0  0  0
 20 42  1  0  0  0  0
 20 43  1  0  0  0  0
 21 44  1  0  0  0  0
 21 45  1  0  0  0  0
M  END
> <s_m_source_file>
AV-unprocessed.smi

> <i_m_source_file_index>
1977

> <i_lp_mmshare_version>
43012

> <i_f3d_flags>
0

> <s_epik_input>
W0NIM11bQ0hdKFtDSDNdKVtDSDJdW05IXUMoPU8pW05IXVtDSDJdYzFbY0hdW2NIXVtjSF1uYzFOMltDSDJdW0NIMl1PW0NIMl1bQ0gyXTI=

> <s_epik_cmdline>
J2VwaWtfcHl0aG9uJywgJy1waCcsICc3LjAnLCAnLXRuJywgJzgnLCAnLW1hJywgJzIwMCcsICctbWV0YWxfYmluZGluZycsICctaW1hZScsICc8aW5maWxlLm1hZT4nLCAnLW9tYWUnLCAnPG91dGZpbGUubWFlPic=

> <r_lp_tautomer_probability>
1

> <r_epik_Ionization_Penalty>
0.00617532

> <r_epik_Ionization_Penalty_Charging>
0

> <r_epik_Ionization_Penalty_Neutral>
0.00617532

> <r_epik_State_Penalty>
0.00451205

> <r_epik_Charging_Adjusted_Penalty>
0.00451205

> <i_epik_Tot_Q>
0

> <i_epik_Tot_abs_Q>
0

> <r_epik_Metal_State_Penalty>
-0

> <b_epik_Metal_Only>
0

> <s_lp_Force_Field>
OPLS_2005

> <r_lp_Energy>
18.8779

> <b_lp_Chiralities_Consistent>
1

> <s_lp_Variant>
AV-unprocessed.smi:1977-1

> <Gold.Version>
5.8.1

> <Gold.Id.Protein>
6NUR|6NUR_protein|mol2

> <Gold.PLP.Fitness>
41.6339

> <Gold.PLP.PLP>
-29.9938

> <Gold.PLP.part.hbond>
-3.9627

> <Gold.PLP.part.metal>
0.0000

> <Gold.PLP.part.buried>
-2.4958

> <Gold.PLP.part.nonpolar>
-24.8199

> <Gold.PLP.part.repulsive>
0.1596

> <Gold.PLP.ligand.clash>
0.0000

> <Gold.PLP.ligand.torsion>
0.3251

> <Gold.PLP.Chemscore.Hbond>
3.1971

> <Gold.PLP.Chemscore.CHOScore>
0.8385

> <Gold.PLP.Chemscore.Metal>
0.0000

> <Gold.Chemscore.Hbonds>
donor molecule, donor type, donor heavy atom, donor atom, acceptor molecule, acceptor atom, score
      L1  H     5    31       P1  7948  1.00
      L1  H     8    32       P1  7948  1.00
      P1  H  7989  7998       L1    14  0.20
      P1  H  7997  8008       L1    19  1.00
      L1  C    13    37       P1  8028  0.85

> <Gold.PLP.Chemscore.Internal.Correction>
0.1837

> <Gold.Rescore>
     Score         DG    S(hbond)    S(metal)    S(lipo)     H(rot)  DE(clash)    DE(int)     intcor
     18.09     -18.68       2.84        0.00      70.36       1.77       0.34       0.25       ----

> <Gold.Chemscore.Fitness>
18.0863

> <Gold.Chemscore.DG>
-18.6788

> <Gold.Chemscore.ZeroCoef>
-5.4800

> <Gold.Chemscore.Hbond>
2.8406

> <Gold.Chemscore.Metal>
0.0000

> <Gold.Chemscore.Lipo>
70.3630

> <Gold.Chemscore.Internal_Hbond>
0.0000

> <Gold.Chemscore.DEClash>
0.3419

> <Gold.Chemscore.DEInternal>
0.2507

> <Gold.Chemscore.Rot>
1.7662

> <Gold.Chemscore.Internal.Correction>
   9.000000E+99

> <Gold.Chemscore.Hbonds>
donor molecule, donor type, donor heavy atom, donor atom, acceptor molecule, acceptor atom, score
      L1  H     5    31       P1  7948  0.95
      L1  H     8    32       P1  7948  0.95
      P1  H  7989  7998       L1    14  0.03
      P1  H  7997  8008       L1    19  0.47

> <Gold.Chemscore.Hbond.Weighted>
-9.4878

> <Gold.Chemscore.Metal.Weighted>
-0.0000

> <Gold.Chemscore.Lipo.Weighted>
-8.2325

> <Gold.Chemscore.Internal_Hbond.Weighted>
0.0000

> <Gold.Chemscore.DEClash.Weighted>
0.3419

> <Gold.Chemscore.DEInternal.Weighted>
0.2507

> <Gold.Chemscore.Rot.Weighted>
4.5214

> <Gold.Chemscore.Internal.Correction.Weighted>
   9.000000E+99

> <Gold.Protein.RotatedTorsions>
[ 6907 6896 6895 6894 ] final   31.30 input  -60.11 | X-H torsion
[ 7974 7965 7964 7962 ] final   77.55 input  175.53 | X-H torsion
[ 8008 7997 7996 7995 ] final  -50.75 input   59.86 | X-H torsion
[ 10167 10162 10161 10158 ] final  -56.33 input  -65.29 | X-H torsion
[ 10718 10713 10712 10709 ] final -179.04 input   66.30 | X-H torsion
[ 10763 10752 10751 10750 ] final  103.03 input  -60.55 | X-H torsion
[ 11005 11000 10999 10996 ] final  -26.36 input  -57.11 | X-H torsion

> <Gold.Protein.ActiveResidues>
 VAL166  LYS551  ARG553  GLY616  TRP617  ASP618  TYR619  PRO620  LYS621  CYS622 
 ASP623  PHE694  ASN695  SER759  ASP760  ASP761  ALA762  ILE779  LEU786  VAL792 
 PHE793  MET794  SER795  GLU796  ALA797  LYS798  CYS799  TRP800  GLU811  SER814 

> <Gold.Protein.RotatedAtoms>
  152.0583  134.9610  160.0574 H   0  0  0  0  0  0  0  0  0  0  0  0  # atno 6907 bound_to 6896
  152.0984  133.4232  159.4584 H   0  0  0  0  0  0  0  0  0  0  0  0  # atno 6908 bound_to 6896
  150.6838  134.2709  159.4631 H   0  0  0  0  0  0  0  0  0  0  0  0  # atno 6909 bound_to 6896
  145.6886  139.2545  143.1773 H   0  0  0  0  0  0  0  0  0  0  0  0  # atno 7974 bound_to 7965
  154.4068  140.1265  156.4716 H   0  0  0  0  0  0  0  0  0  0  0  0  # atno 8008 bound_to 7997
  155.7173  140.3493  155.4980 H   0  0  0  0  0  0  0  0  0  0  0  0  # atno 8009 bound_to 7997
  155.9246  140.1059  157.1170 H   0  0  0  0  0  0  0  0  0  0  0  0  # atno 8010 bound_to 7997
  140.6323  143.2465  151.5208 H   0  0  0  0  0  0  0  0  0  0  0  0  # atno 10167 bound_to 10162
  156.8532  130.9726  151.3090 H   0  0  0  0  0  0  0  0  0  0  0  0  # atno 10718 bound_to 10713
  153.3473  135.3990  155.1619 H   0  0  0  0  0  0  0  0  0  0  0  0  # atno 10763 bound_to 10752
  154.8655  135.3648  154.5268 H   0  0  0  0  0  0  0  0  0  0  0  0  # atno 10764 bound_to 10752
  153.5717  135.7079  153.5562 H   0  0  0  0  0  0  0  0  0  0  0  0  # atno 10765 bound_to 10752
  140.9022  133.7516  156.0559 H   0  0  0  0  0  0  0  0  0  0  0  0  # atno 11005 bound_to 11000
  146.0902  140.7665  142.9599 LP  0  0  0  0  0  0  0  0  0  0  0  0  # atno 17320 bound_to 7965
  144.7003  140.3625  143.7161 LP  0  0  0  0  0  0  0  0  0  0  0  0  # atno 17321 bound_to 7965
  139.5536  144.2332  152.1574 LP  0  0  0  0  0  0  0  0  0  0  0  0  # atno 17342 bound_to 10162
  140.1579  144.5053  150.6649 LP  0  0  0  0  0  0  0  0  0  0  0  0  # atno 17343 bound_to 10162
  157.6291  130.8715  149.9242 LP  0  0  0  0  0  0  0  0  0  0  0  0  # atno 17370 bound_to 10713
  156.0816  130.3672  150.0568 LP  0  0  0  0  0  0  0  0  0  0  0  0  # atno 17371 bound_to 10713
  140.8216  134.3283  157.5380 LP  0  0  0  0  0  0  0  0  0  0  0  0  # atno 17394 bound_to 11000
  139.8744  134.9312  156.3522 LP  0  0  0  0  0  0  0  0  0  0  0  0  # atno 17395 bound_to 11000

$$$$
