AV-unprocessed.smi:160|AV-procd|sdf|1371|dock8
  -GOLD-   2262019 93D 1   1.00000     0.00000
 Structure written by MMmdl.
 28 29  0  0  0  0  0  0  0  0  2 V2000
  153.1836  139.1016  157.1688 N   0  5  0  0  0  0  0  0  0  0  0  0
  152.9010  138.2063  156.1975 C   0  0  0  0  0  0  0  0  0  0  0  0
  153.5782  137.2248  155.8935 O   0  0  0  0  0  0  0  0  0  0  0  0
  151.6211  138.4808  155.4442 C   0  0  0  0  0  0  0  0  0  0  0  0
  151.4784  138.0809  154.1439 N   0  0  0  0  0  0  0  0  0  0  0  0
  150.2480  138.5220  153.9200 C   0  0  0  0  0  0  0  0  0  0  0  0
  149.6821  139.1239  154.9697 N   0  0  0  0  0  0  0  0  0  0  0  0
  148.3325  139.7564  155.1014 C   0  0  2  0  0  0  0  0  0  0  0  0
  147.3855  138.7307  155.0999 O   0  0  0  0  0  0  0  0  0  0  0  0
  146.3289  139.0299  154.1908 C   0  0  2  0  0  0  0  0  0  0  0  0
  145.6565  137.7414  153.6846 C   0  0  0  0  0  0  0  0  0  0  0  0
  144.8003  138.0326  152.6001 O   0  0  0  0  0  0  0  0  0  0  0  0
  146.9951  139.8980  153.1139 C   0  0  2  0  0  0  0  0  0  0  0  0
  147.6201  139.0977  152.1253 O   0  0  0  0  0  0  0  0  0  0  0  0
  147.9907  140.7072  153.9360 C   0  0  2  0  0  0  0  0  0  0  0  0
  149.0896  141.1907  153.1811 O   0  0  0  0  0  0  0  0  0  0  0  0
  150.5782  139.1164  155.9867 N   0  0  0  0  0  0  0  0  0  0  0  0
  148.3616  140.2608  156.0681 H   0  0  0  0  0  0  0  0  0  0  0  0
  145.6002  139.6514  154.7150 H   0  0  0  0  0  0  0  0  0  0  0  0
  146.2733  140.5442  152.6135 H   0  0  0  0  0  0  0  0  0  0  0  0
  147.4712  141.5626  154.3696 H   0  0  0  0  0  0  0  0  0  0  0  0
  152.4793  139.2698  157.8973 H   0  0  0  0  0  0  0  0  0  0  0  0
  149.7480  138.4025  152.9702 H   0  0  0  0  0  0  0  0  0  0  0  0
  146.4098  137.0408  153.3236 H   0  0  0  0  0  0  0  0  0  0  0  0
  145.1033  137.2431  154.4815 H   0  0  0  0  0  0  0  0  0  0  0  0
  144.3465  138.8402  152.7865 H   0  0  0  0  0  0  0  0  0  0  0  0
  148.4753  139.4586  151.9461 H   0  0  0  0  0  0  0  0  0  0  0  0
  149.3240  140.5394  152.5381 H   0  0  0  0  0  0  0  0  0  0  0  0
  1  2  1  0  0  0  0
  1 22  1  0  0  0  0
  2  3  2  0  0  0  0
  2  4  1  0  0  0  0
  4 17  2  0  0  0  0
  4  5  1  0  0  0  0
  5  6  2  0  0  0  0
  6  7  1  0  0  0  0
  6 23  1  0  0  0  0
  7  8  1  0  0  0  0
  7 17  1  0  0  0  0
  8 18  1  0  0  0  0
  8 15  1  0  0  0  0
  8  9  1  0  0  0  0
  9 10  1  0  0  0  0
 10 19  1  0  0  0  0
 10 11  1  0  0  0  0
 10 13  1  0  0  0  0
 11 12  1  0  0  0  0
 11 24  1  0  0  0  0
 11 25  1  0  0  0  0
 12 26  1  0  0  0  0
 13 20  1  0  0  0  0
 13 14  1  0  0  0  0
 13 15  1  0  0  0  0
 14 27  1  0  0  0  0
 15 21  1  0  0  0  0
 15 16  1  0  0  0  0
 16 28  1  0  0  0  0
M  CHG  1   1  -1
M  END
> <s_m_source_file>
AV-unprocessed.smi

> <i_m_source_file_index>
160

> <i_lp_mmshare_version>
43012

> <i_f3d_flags>
0

> <s_epik_input>
W05IMl1DKD1PKWMxbltjSF1uKG4xKVtDQEBIXTJPW0NASF0oW0NIMl1bT0hdKVtDQEBIXShbT0hdKVtDQEhdMltPSF0=

> <s_epik_cmdline>
J2VwaWtfcHl0aG9uJywgJy1waCcsICc3LjAnLCAnLXRuJywgJzgnLCAnLW1hJywgJzIwMCcsICctbWV0YWxfYmluZGluZycsICctaW1hZScsICc8aW5maWxlLm1hZT4nLCAnLW9tYWUnLCAnPG91dGZpbGUubWFlPic=

> <r_lp_tautomer_probability>
1

> <r_epik_Ionization_Penalty>
6.6993

> <r_epik_Ionization_Penalty_Charging>
6.6993

> <r_epik_Ionization_Penalty_Neutral>
6.01698e-06

> <r_epik_State_Penalty>
6.69929

> <r_epik_Charging_Adjusted_Penalty>
13.3986

> <i_epik_Tot_Q>
-1

> <i_epik_Tot_abs_Q>
1

> <r_epik_Metal_State_Penalty>
2.62798

> <b_epik_Metal_Only>
1

> <s_epik_Chemistry_Notes>
This compound contains an acetal/aminal-like group ( X-CH(R)-Y where X, Y are N, S, or O) that may be acid/base labile, releasing an aldehyde.

> <s_lp_Force_Field>
OPLS_2005

> <r_lp_Energy>
51.4861

> <b_lp_Chiralities_Consistent>
1

> <s_lp_Variant>
AV-unprocessed.smi:160-29

> <Gold.Version>
5.8.1

> <Gold.Id.Protein>
6NUR|6NUR_protein|mol2

> <Gold.PLP.Fitness>
46.3556

> <Gold.PLP.PLP>
-23.5384

> <Gold.PLP.part.hbond>
-7.8875

> <Gold.PLP.part.metal>
0.0000

> <Gold.PLP.part.buried>
-5.5791

> <Gold.PLP.part.nonpolar>
-11.7556

> <Gold.PLP.part.repulsive>
0.2150

> <Gold.PLP.ligand.clash>
0.0000

> <Gold.PLP.ligand.torsion>
0.6167

> <Gold.PLP.Chemscore.Hbond>
6.2950

> <Gold.PLP.Chemscore.CHOScore>
1.7195

> <Gold.PLP.Chemscore.Metal>
0.0000

> <Gold.Chemscore.Hbonds>
donor molecule, donor type, donor heavy atom, donor atom, acceptor molecule, acceptor atom, score
      L1  H    12    26       P1 10175  1.00
      L1  H    14    27       P1  7957  0.86
      L1  H    16    28       P1  7957  0.89
      P1  H  7997  8010       L1     1  1.73
      P1  H  8011  8017       L1    16  0.65
      P1  H 10752 10765       L1     3  0.37
      L1  C     6    23       P1  7948  0.97
      L1  C     6    23       P1  7957  0.96

> <Gold.PLP.Chemscore.Internal.Correction>
0.0072

> <Gold.Rescore>
     Score         DG    S(hbond)    S(metal)    S(lipo)     H(rot)  DE(clash)    DE(int)     intcor
     13.38     -13.89       4.93        0.00      19.57       4.04       0.04       0.47       ----

> <Gold.Chemscore.Fitness>
13.3838

> <Gold.Chemscore.DG>
-13.8943

> <Gold.Chemscore.ZeroCoef>
-5.4800

> <Gold.Chemscore.Hbond>
4.9305

> <Gold.Chemscore.Metal>
0.0000

> <Gold.Chemscore.Lipo>
19.5685

> <Gold.Chemscore.Internal_Hbond>
0.0000

> <Gold.Chemscore.DEClash>
0.0424

> <Gold.Chemscore.DEInternal>
0.4681

> <Gold.Chemscore.Rot>
4.0403

> <Gold.Chemscore.Internal.Correction>
   9.000000E+99

> <Gold.Chemscore.Hbonds>
donor molecule, donor type, donor heavy atom, donor atom, acceptor molecule, acceptor atom, score
      L1  H    12    26       P1 10175  0.99
      L1  H    14    27       P1  7957  0.83
      L1  H    16    28       P1  7957  0.85
      P1  H  7997  8010       L1     1  0.82
      P1  H  8011  8017       L1    16  0.06
      P1  H 10752 10765       L1     3  0.36

> <Gold.Chemscore.Hbond.Weighted>
-16.4679

> <Gold.Chemscore.Metal.Weighted>
-0.0000

> <Gold.Chemscore.Lipo.Weighted>
-2.2895

> <Gold.Chemscore.Internal_Hbond.Weighted>
0.0000

> <Gold.Chemscore.DEClash.Weighted>
0.0424

> <Gold.Chemscore.DEInternal.Weighted>
0.4681

> <Gold.Chemscore.Rot.Weighted>
10.3431

> <Gold.Chemscore.Internal.Correction.Weighted>
   9.000000E+99

> <Gold.Protein.RotatedTorsions>
[ 6907 6896 6895 6894 ] final   88.23 input  -60.11 | X-H torsion
[ 7974 7965 7964 7962 ] final   85.22 input  175.53 | X-H torsion
[ 8008 7997 7996 7995 ] final   27.89 input   59.86 | X-H torsion
[ 10167 10162 10161 10158 ] final   78.75 input  -65.29 | X-H torsion
[ 10718 10713 10712 10709 ] final -171.47 input   66.30 | X-H torsion
[ 10763 10752 10751 10750 ] final -129.19 input  -60.55 | X-H torsion
[ 11005 11000 10999 10996 ] final  -54.92 input  -57.11 | X-H torsion

> <Gold.Protein.ActiveResidues>
 VAL166  LYS551  ARG553  GLY616  TRP617  ASP618  TYR619  PRO620  LYS621  CYS622 
 ASP623  PHE694  ASN695  SER759  ASP760  ASP761  ALA762  ILE779  LEU786  VAL792 
 PHE793  MET794  SER795  GLU796  ALA797  LYS798  CYS799  TRP800  GLU811  SER814 

> <Gold.Protein.RotatedAtoms>
  152.5422  134.2154  159.8766 H   0  0  0  0  0  0  0  0  0  0  0  0  # atno 6907 bound_to 6896
  151.2134  133.4536  159.2606 H   0  0  0  0  0  0  0  0  0  0  0  0  # atno 6908 bound_to 6896
  151.0874  134.9908  159.8442 H   0  0  0  0  0  0  0  0  0  0  0  0  # atno 6909 bound_to 6896
  145.5884  139.2334  143.2313 H   0  0  0  0  0  0  0  0  0  0  0  0  # atno 7974 bound_to 7965
  155.0501  140.3179  155.4695 H   0  0  0  0  0  0  0  0  0  0  0  0  # atno 8008 bound_to 7997
  156.2836  140.2147  156.5570 H   0  0  0  0  0  0  0  0  0  0  0  0  # atno 8009 bound_to 7997
  154.7218  140.0489  157.0634 H   0  0  0  0  0  0  0  0  0  0  0  0  # atno 8010 bound_to 7997
  139.9676  144.5917  150.8015 H   0  0  0  0  0  0  0  0  0  0  0  0  # atno 10167 bound_to 10162
  156.7414  130.9343  151.3110 H   0  0  0  0  0  0  0  0  0  0  0  0  # atno 10718 bound_to 10713
  154.8757  135.3903  154.3879 H   0  0  0  0  0  0  0  0  0  0  0  0  # atno 10763 bound_to 10752
  153.4618  135.7029  153.6051 H   0  0  0  0  0  0  0  0  0  0  0  0  # atno 10764 bound_to 10752
  153.4546  135.3826  155.2272 H   0  0  0  0  0  0  0  0  0  0  0  0  # atno 10765 bound_to 10752
  141.1049  133.6614  156.4393 H   0  0  0  0  0  0  0  0  0  0  0  0  # atno 11005 bound_to 11000
  146.1665  140.6710  142.9253 LP  0  0  0  0  0  0  0  0  0  0  0  0  # atno 17320 bound_to 7965
  144.7362  140.4815  143.6902 LP  0  0  0  0  0  0  0  0  0  0  0  0  # atno 17321 bound_to 7965
  140.7533  143.3005  151.3092 LP  0  0  0  0  0  0  0  0  0  0  0  0  # atno 17342 bound_to 10162
  139.6506  144.0370  152.2623 LP  0  0  0  0  0  0  0  0  0  0  0  0  # atno 17343 bound_to 10162
  157.6817  130.9146  150.0283 LP  0  0  0  0  0  0  0  0  0  0  0  0  # atno 17370 bound_to 10713
  156.1462  130.3642  149.9507 LP  0  0  0  0  0  0  0  0  0  0  0  0  # atno 17371 bound_to 10713
  140.4927  134.6560  157.5217 LP  0  0  0  0  0  0  0  0  0  0  0  0  # atno 17394 bound_to 11000
  139.9915  134.6977  155.9681 LP  0  0  0  0  0  0  0  0  0  0  0  0  # atno 17395 bound_to 11000

$$$$
