AV-unprocessed.smi:837|AV-procd|sdf|3905|dock9
  -GOLD-   22720 1363D 1   1.00000     0.00000
 Structure written by MMmdl.
 49 51  0  0  0  0  0  0  0  0  3 V2000
  148.7742  139.7103  154.3732 C   0  0  0  0  0  0  0  0  0  0  0  0
  149.7092  140.5536  155.2680 C   0  0  1  0  0  0  0  0  0  0  0  0
  148.9045  141.1748  156.4313 C   0  0  0  0  0  0  0  0  0  0  0  0
  149.7736  142.0886  157.3070 C   0  0  0  0  0  0  0  0  0  0  0  0
  150.9929  141.3368  157.8544 C   0  0  0  0  0  0  0  0  0  0  0  0
  151.8169  140.7169  156.7129 C   0  0  0  0  0  0  0  0  0  0  0  0
  150.9859  139.8013  155.7736 C   0  0  2  0  0  0  0  0  0  0  0  0
  151.8222  139.4153  154.6498 N   0  5  0  0  0  0  0  0  0  0  0  0
  151.9853  138.0727  154.6595 C   0  0  0  0  0  0  0  0  0  0  0  0
  152.6507  137.4089  153.8645 O   0  0  0  0  0  0  0  0  0  0  0  0
  151.3255  137.5116  155.6903 N   0  0  0  0  0  0  0  0  0  0  0  0
  151.3439  136.0803  156.0145 C   0  0  0  0  0  0  0  0  0  0  0  0
  149.9859  135.4395  155.7167 C   0  0  0  0  0  0  0  0  0  0  0  0
  148.9616  135.8850  156.2335 O   0  0  0  0  0  0  0  0  0  0  0  0
  150.0013  134.3823  154.8920 N   0  0  0  0  0  0  0  0  0  0  0  0
  148.8483  133.5568  154.5458 C   0  0  0  0  0  0  0  0  0  0  0  0
  148.7122  133.2939  153.0287 C   0  0  0  0  0  0  0  0  0  0  0  0
  147.2830  133.0789  152.5513 C   0  0  0  0  0  0  0  0  0  0  0  0
  146.9663  133.1623  151.1765 C   0  0  0  0  0  0  0  0  0  0  0  0
  145.6330  132.9726  150.7593 C   0  0  0  0  0  0  0  0  0  0  0  0
  144.6411  132.7168  151.7267 C   0  0  0  0  0  0  0  0  0  0  0  0
  144.9793  132.6437  153.0323 N   0  3  0  0  0  0  0  0  0  0  0  0
  146.2467  132.8077  153.4715 C   0  0  0  0  0  0  0  0  0  0  0  0
  150.7023  138.4450  156.4176 C   0  0  0  0  0  0  0  0  0  0  0  0
  150.0253  138.2680  157.4310 O   0  0  0  0  0  0  0  0  0  0  0  0
  148.3350  138.8740  154.9176 H   0  0  0  0  0  0  0  0  0  0  0  0
  149.3006  139.3063  153.5083 H   0  0  0  0  0  0  0  0  0  0  0  0
  147.9524  140.3167  153.9923 H   0  0  0  0  0  0  0  0  0  0  0  0
  150.0542  141.3848  154.6503 H   0  0  0  0  0  0  0  0  0  0  0  0
  148.0695  141.7527  156.0340 H   0  0  0  0  0  0  0  0  0  0  0  0
  148.4616  140.3913  157.0465 H   0  0  0  0  0  0  0  0  0  0  0  0
  150.1057  142.9472  156.7222 H   0  0  0  0  0  0  0  0  0  0  0  0
  149.1815  142.4857  158.1319 H   0  0  0  0  0  0  0  0  0  0  0  0
  151.6186  142.0196  158.4295 H   0  0  0  0  0  0  0  0  0  0  0  0
  150.6687  140.5644  158.5516 H   0  0  0  0  0  0  0  0  0  0  0  0
  152.2638  141.5247  156.1308 H   0  0  0  0  0  0  0  0  0  0  0  0
  152.6529  140.1633  157.1430 H   0  0  0  0  0  0  0  0  0  0  0  0
  152.1123  135.5651  155.4357 H   0  0  0  0  0  0  0  0  0  0  0  0
  151.6134  135.9312  157.0617 H   0  0  0  0  0  0  0  0  0  0  0  0
  150.8942  134.0967  154.5162 H   0  0  0  0  0  0  0  0  0  0  0  0
  148.8753  132.6166  155.0981 H   0  0  0  0  0  0  0  0  0  0  0  0
  147.9654  134.0923  154.8954 H   0  0  0  0  0  0  0  0  0  0  0  0
  149.1414  134.1344  152.4822 H   0  0  0  0  0  0  0  0  0  0  0  0
  149.3089  132.4243  152.7520 H   0  0  0  0  0  0  0  0  0  0  0  0
  147.7321  133.3791  150.4460 H   0  0  0  0  0  0  0  0  0  0  0  0
  145.3704  133.0443  149.7141 H   0  0  0  0  0  0  0  0  0  0  0  0
  143.5946  132.5787  151.4977 H   0  0  0  0  0  0  0  0  0  0  0  0
  146.3887  132.7321  154.5395 H   0  0  0  0  0  0  0  0  0  0  0  0
  144.2441  132.4639  153.7161 H   0  0  0  0  0  0  0  0  0  0  0  0
  1  2  1  0  0  0  0
  1 26  1  0  0  0  0
  1 27  1  0  0  0  0
  1 28  1  0  0  0  0
  2  7  1  0  0  0  0
  2  3  1  0  0  0  0
  2 29  1  0  0  0  0
  3  4  1  0  0  0  0
  3 30  1  0  0  0  0
  3 31  1  0  0  0  0
  4  5  1  0  0  0  0
  4 32  1  0  0  0  0
  4 33  1  0  0  0  0
  5  6  1  0  0  0  0
  5 34  1  0  0  0  0
  5 35  1  0  0  0  0
  6  7  1  0  0  0  0
  6 36  1  0  0  0  0
  6 37  1  0  0  0  0
  7 24  1  0  0  0  0
  7  8  1  0  0  0  0
  8  9  1  0  0  0  0
  9 10  2  0  0  0  0
  9 11  1  0  0  0  0
 11 12  1  0  0  0  0
 11 24  1  0  0  0  0
 12 13  1  0  0  0  0
 12 38  1  0  0  0  0
 12 39  1  0  0  0  0
 13 14  2  0  0  0  0
 13 15  1  0  0  0  0
 15 16  1  0  0  0  0
 15 40  1  0  0  0  0
 16 17  1  0  0  0  0
 16 41  1  0  0  0  0
 16 42  1  0  0  0  0
 17 18  1  0  0  0  0
 17 43  1  0  0  0  0
 17 44  1  0  0  0  0
 18 23  1  0  0  0  0
 18 19  2  0  0  0  0
 19 20  1  0  0  0  0
 19 45  1  0  0  0  0
 20 21  2  0  0  0  0
 20 46  1  0  0  0  0
 21 22  1  0  0  0  0
 21 47  1  0  0  0  0
 22 23  2  0  0  0  0
 22 49  1  0  0  0  0
 23 48  1  0  0  0  0
 24 25  2  0  0  0  0
M  CHG  1   8  -1
M  CHG  1  22   1
M  END
> <s_m_source_file>
AV-unprocessed.smi

> <i_m_source_file_index>
837

> <i_lp_mmshare_version>
43012

> <i_f3d_flags>
0

> <s_epik_input>
W0NIMl0xW0NIMl1bQ0gyXVtDSDJdW0NAQEhdKFtDSDNdKVtDQEBdMTJbTkhdQyg9TylOKEMyPU8pW0NIMl1DKD1PKVtOSF1bQ0gyXVtDSDJdYzNbY0hdW2NIXVtjSF1uW2NIXTM=

> <s_epik_cmdline>
J2VwaWtfcHl0aG9uJywgJy1waCcsICc3LjAnLCAnLXRuJywgJzgnLCAnLW1hJywgJzIwMCcsICctbWV0YWxfYmluZGluZycsICctaW1hZScsICc8aW5maWxlLm1hZT4nLCAnLW9tYWUnLCAnPG91dGZpbGUubWFlPic=

> <r_lp_tautomer_probability>
1

> <r_epik_Ionization_Penalty>
8.27169

> <r_epik_Ionization_Penalty_Charging>
8.27169

> <r_epik_Ionization_Penalty_Neutral>
1.56557e-07

> <r_epik_State_Penalty>
8.42098

> <r_epik_Charging_Adjusted_Penalty>
16.6927

> <i_epik_Tot_Q>
0

> <i_epik_Tot_abs_Q>
2

> <r_epik_Metal_State_Penalty>
4.38565

> <b_epik_Metal_Only>
1

> <s_lp_Force_Field>
OPLS_2005

> <r_lp_Energy>
12.2851

> <b_lp_Chiralities_Consistent>
1

> <s_lp_Variant>
AV-unprocessed.smi:837-14

> <Gold.Version>
5.8.1

> <Gold.Id.Protein>
6NUR|6NUR_protein|mol2

> <Gold.PLP.Fitness>
46.0724

> <Gold.PLP.PLP>
-36.2630

> <Gold.PLP.part.hbond>
-2.8157

> <Gold.PLP.part.metal>
0.0000

> <Gold.PLP.part.buried>
-4.0277

> <Gold.PLP.part.nonpolar>
-30.0385

> <Gold.PLP.part.repulsive>
0.2766

> <Gold.PLP.ligand.clash>
0.0000

> <Gold.PLP.ligand.torsion>
0.5928

> <Gold.PLP.Chemscore.Hbond>
3.6560

> <Gold.PLP.Chemscore.CHOScore>
0.0000

> <Gold.PLP.Chemscore.Metal>
0.0000

> <Gold.Chemscore.Hbonds>
donor molecule, donor type, donor heavy atom, donor atom, acceptor molecule, acceptor atom, score
      L1  H    22    49       P1 10957  2.00
      P1  H  7989  7998       L1     8  1.00
      P1  H 10752 10763       L1    10  0.67

> <Gold.PLP.Chemscore.Internal.Correction>
0.0270

> <Gold.Rescore>
     Score         DG    S(hbond)    S(metal)    S(lipo)     H(rot)  DE(clash)    DE(int)     intcor
     14.99     -17.57       2.39        0.00      77.18       1.92       0.14       2.44       ----

> <Gold.Chemscore.Fitness>
14.9871

> <Gold.Chemscore.DG>
-17.5683

> <Gold.Chemscore.ZeroCoef>
-5.4800

> <Gold.Chemscore.Hbond>
2.3853

> <Gold.Chemscore.Metal>
0.0000

> <Gold.Chemscore.Lipo>
77.1821

> <Gold.Chemscore.Internal_Hbond>
0.0000

> <Gold.Chemscore.DEClash>
0.1441

> <Gold.Chemscore.DEInternal>
2.4371

> <Gold.Chemscore.Rot>
1.9175

> <Gold.Chemscore.Internal.Correction>
   9.000000E+99

> <Gold.Chemscore.Hbonds>
donor molecule, donor type, donor heavy atom, donor atom, acceptor molecule, acceptor atom, score
      L1  H    22    49       P1 10957  0.33
      P1  H  7989  7998       L1     8  0.38
      P1  H 10752 10763       L1    10  0.68

> <Gold.Chemscore.Hbond.Weighted>
-7.9667

> <Gold.Chemscore.Metal.Weighted>
-0.0000

> <Gold.Chemscore.Lipo.Weighted>
-9.0303

> <Gold.Chemscore.Internal_Hbond.Weighted>
0.0000

> <Gold.Chemscore.DEClash.Weighted>
0.1441

> <Gold.Chemscore.DEInternal.Weighted>
2.4371

> <Gold.Chemscore.Rot.Weighted>
4.9087

> <Gold.Chemscore.Internal.Correction.Weighted>
   9.000000E+99

> <Gold.Protein.RotatedTorsions>
[ 6907 6896 6895 6894 ] final   -6.84 input  -60.11 | X-H torsion
[ 7974 7965 7964 7962 ] final   44.87 input  175.53 | X-H torsion
[ 8008 7997 7996 7995 ] final   74.08 input   59.86 | X-H torsion
[ 10167 10162 10161 10158 ] final  175.38 input  -65.29 | X-H torsion
[ 10718 10713 10712 10709 ] final   45.64 input   66.30 | X-H torsion
[ 10763 10752 10751 10750 ] final   23.74 input  -60.55 | X-H torsion
[ 11005 11000 10999 10996 ] final -150.19 input  -57.11 | X-H torsion

> <Gold.Protein.ActiveResidues>
 VAL166  LYS551  ARG553  GLY616  TRP617  ASP618  TYR619  PRO620  LYS621  CYS622 
 ASP623  PHE694  ASN695  SER759  ASP760  ASP761  ALA762  ILE779  LEU786  VAL792 
 PHE793  MET794  SER795  GLU796  ALA797  LYS798  CYS799  TRP800  GLU811  SER814 

> <Gold.Protein.RotatedAtoms>
  151.4591  135.1037  159.9719 H   0  0  0  0  0  0  0  0  0  0  0  0  # atno 6907 bound_to 6896
  152.4860  133.8369  159.7143 H   0  0  0  0  0  0  0  0  0  0  0  0  # atno 6908 bound_to 6896
  150.8969  133.7108  159.2916 H   0  0  0  0  0  0  0  0  0  0  0  0  # atno 6909 bound_to 6896
  146.0530  139.5026  142.9706 H   0  0  0  0  0  0  0  0  0  0  0  0  # atno 7974 bound_to 7965
  155.7931  140.3478  155.5360 H   0  0  0  0  0  0  0  0  0  0  0  0  # atno 8008 bound_to 7997
  155.8613  140.0972  157.1632 H   0  0  0  0  0  0  0  0  0  0  0  0  # atno 8009 bound_to 7997
  154.4012  140.1358  156.3952 H   0  0  0  0  0  0  0  0  0  0  0  0  # atno 8010 bound_to 7997
  139.5175  144.3039  152.0354 H   0  0  0  0  0  0  0  0  0  0  0  0  # atno 10167 bound_to 10162
  157.4397  130.8074  149.7682 H   0  0  0  0  0  0  0  0  0  0  0  0  # atno 10718 bound_to 10713
  153.0816  135.6620  154.0034 H   0  0  0  0  0  0  0  0  0  0  0  0  # atno 10763 bound_to 10752
  153.9654  135.2970  155.3432 H   0  0  0  0  0  0  0  0  0  0  0  0  # atno 10764 bound_to 10752
  154.7216  135.5162  153.8893 H   0  0  0  0  0  0  0  0  0  0  0  0  # atno 10765 bound_to 10752
  140.7428  134.3494  157.5143 H   0  0  0  0  0  0  0  0  0  0  0  0  # atno 11005 bound_to 11000
  145.6692  141.0221  143.1667 LP  0  0  0  0  0  0  0  0  0  0  0  0  # atno 17320 bound_to 7965
  144.7133  139.8291  143.7407 LP  0  0  0  0  0  0  0  0  0  0  0  0  # atno 17321 bound_to 7965
  140.2485  144.4194  150.6231 LP  0  0  0  0  0  0  0  0  0  0  0  0  # atno 17342 bound_to 10162
  140.6241  143.2179  151.6633 LP  0  0  0  0  0  0  0  0  0  0  0  0  # atno 17343 bound_to 10162
  155.9944  130.3918  150.2861 LP  0  0  0  0  0  0  0  0  0  0  0  0  # atno 17370 bound_to 10713
  157.1025  131.0199  151.3080 LP  0  0  0  0  0  0  0  0  0  0  0  0  # atno 17371 bound_to 10713
  139.8802  134.9092  156.2985 LP  0  0  0  0  0  0  0  0  0  0  0  0  # atno 17394 bound_to 11000
  140.9821  133.7261  156.0687 LP  0  0  0  0  0  0  0  0  0  0  0  0  # atno 17395 bound_to 11000

$$$$
