AV-unprocessed.smi:249|AV-procd|sdf|1920|dock5
  -GOLD-   2262021 23D 1   1.00000     0.00000
 Structure written by MMmdl.
 64 67  0  0  0  0  0  0  0  0  2 V2000
  146.1054  129.6633  151.5164 C   0  0  0  0  0  0  0  0  0  0  0  0
  146.0730  131.0452  152.1873 C   0  0  0  0  0  0  0  0  0  0  0  0
  146.8987  132.0627  151.4720 N   0  3  2  0  0  0  0  0  0  0  0  0
  147.5232  133.0774  152.3677 C   0  0  0  0  0  0  0  0  0  0  0  0
  146.4910  134.0895  152.9017 C   0  0  0  0  0  0  0  0  0  0  0  0
  145.7400  134.7713  151.7410 C   0  0  2  0  0  0  0  0  0  0  0  0
  144.7460  135.7435  152.2094 N   0  0  0  0  0  0  0  0  0  0  0  0
  143.3191  135.4568  152.0652 C   0  0  0  0  0  0  0  0  0  0  0  0
  145.1125  136.4695  153.2969 C   0  0  0  0  0  0  0  0  0  0  0  0
  144.6913  136.0895  154.5328 N   0  0  0  0  0  0  0  0  0  0  0  0
  145.0591  136.7831  155.6140 C   0  0  0  0  0  0  0  0  0  0  0  0
  145.8272  137.8717  155.6850 N   0  0  0  0  0  0  0  0  0  0  0  0
  146.2432  138.2653  154.4478 C   0  0  0  0  0  0  0  0  0  0  0  0
  145.9391  137.6256  153.2131 C   0  0  0  0  0  0  0  0  0  0  0  0
  146.5395  138.3123  152.1639 N   0  0  0  0  0  0  0  0  0  0  0  0
  147.1680  139.2973  152.7456 C   0  0  0  0  0  0  0  0  0  0  0  0
  147.0272  139.3560  154.1140 N   0  0  0  0  0  0  0  0  0  0  0  0
  147.6168  140.3396  155.0051 C   0  0  0  0  0  0  0  0  0  0  0  0
  148.7055  139.7802  155.9589 C   0  0  1  0  0  0  0  0  0  0  0  0
  149.7631  139.0141  155.1308 C   0  0  0  0  0  0  0  0  0  0  0  0
  150.3307  139.8300  154.1256 O   0  0  0  0  0  0  0  0  0  0  0  0
  149.3414  140.8418  156.9039 C   0  0  2  0  0  0  0  0  0  0  0  0
  150.0419  141.9877  156.1899 C   0  0  0  0  0  0  0  0  0  0  0  0
  150.9204  142.5641  157.2904 C   0  0  0  0  0  0  0  0  0  0  0  0
  151.3773  141.4282  158.0076 O   0  0  0  0  0  0  0  0  0  0  0  0
  150.4802  140.3397  157.8071 C   0  0  0  0  0  0  0  0  0  0  0  0
  145.1370  133.7147  150.7946 C   0  0  0  0  0  0  0  0  0  0  0  0
  146.2251  132.7311  150.3161 C   0  0  2  0  0  0  0  0  0  0  0  0
  145.7075  131.7484  149.2501 C   0  0  0  0  0  0  0  0  0  0  0  0
  145.3767  128.9982  151.9804 H   0  0  0  0  0  0  0  0  0  0  0  0
  147.0778  129.1809  151.6099 H   0  0  0  0  0  0  0  0  0  0  0  0
  145.8588  129.7323  150.4565 H   0  0  0  0  0  0  0  0  0  0  0  0
  145.0303  131.3556  152.1959 H   0  0  0  0  0  0  0  0  0  0  0  0
  146.3723  130.9620  153.2318 H   0  0  0  0  0  0  0  0  0  0  0  0
  148.0571  132.6071  153.1916 H   0  0  0  0  0  0  0  0  0  0  0  0
  148.2856  133.6116  151.7990 H   0  0  0  0  0  0  0  0  0  0  0  0
  145.7923  133.5878  153.5710 H   0  0  0  0  0  0  0  0  0  0  0  0
  147.0010  134.8413  153.5050 H   0  0  0  0  0  0  0  0  0  0  0  0
  146.4934  135.3019  151.1594 H   0  0  0  0  0  0  0  0  0  0  0  0
  142.7231  136.3422  152.2910 H   0  0  0  0  0  0  0  0  0  0  0  0
  143.0097  134.6575  152.7389 H   0  0  0  0  0  0  0  0  0  0  0  0
  143.0754  135.1584  151.0467 H   0  0  0  0  0  0  0  0  0  0  0  0
  144.6843  136.4128  156.5569 H   0  0  0  0  0  0  0  0  0  0  0  0
  147.7433  140.0215  152.1873 H   0  0  0  0  0  0  0  0  0  0  0  0
  148.0390  141.1264  154.3789 H   0  0  0  0  0  0  0  0  0  0  0  0
  146.8169  140.8058  155.5818 H   0  0  0  0  0  0  0  0  0  0  0  0
  148.2322  139.0302  156.5929 H   0  0  0  0  0  0  0  0  0  0  0  0
  150.5612  138.6323  155.7673 H   0  0  0  0  0  0  0  0  0  0  0  0
  149.3132  138.1414  154.6564 H   0  0  0  0  0  0  0  0  0  0  0  0
  149.8891  139.6514  153.3092 H   0  0  0  0  0  0  0  0  0  0  0  0
  148.5633  141.2693  157.5384 H   0  0  0  0  0  0  0  0  0  0  0  0
  150.6635  141.6104  155.3765 H   0  0  0  0  0  0  0  0  0  0  0  0
  149.3521  142.7267  155.7813 H   0  0  0  0  0  0  0  0  0  0  0  0
  151.7504  143.1558  156.9037 H   0  0  0  0  0  0  0  0  0  0  0  0
  150.3328  143.1936  157.9599 H   0  0  0  0  0  0  0  0  0  0  0  0
  150.1120  139.9802  158.7671 H   0  0  0  0  0  0  0  0  0  0  0  0
  151.0368  139.5309  157.3326 H   0  0  0  0  0  0  0  0  0  0  0  0
  144.3345  133.1622  151.2823 H   0  0  0  0  0  0  0  0  0  0  0  0
  144.6882  134.2145  149.9350 H   0  0  0  0  0  0  0  0  0  0  0  0
  146.9985  133.3197  149.8196 H   0  0  0  0  0  0  0  0  0  0  0  0
  145.4273  132.2834  148.3422 H   0  0  0  0  0  0  0  0  0  0  0  0
  144.8222  131.2063  149.5819 H   0  0  0  0  0  0  0  0  0  0  0  0
  146.4723  131.0209  148.9769 H   0  0  0  0  0  0  0  0  0  0  0  0
  147.6650  131.5409  151.0708 H   0  0  0  0  0  0  0  0  0  0  0  0
  1  2  1  0  0  0  0
  1 30  1  0  0  0  0
  1 31  1  0  0  0  0
  1 32  1  0  0  0  0
  2  3  1  0  0  0  0
  2 33  1  0  0  0  0
  2 34  1  0  0  0  0
  3 28  1  0  0  0  0
  3  4  1  0  0  0  0
  3 64  1  0  0  0  0
  4  5  1  0  0  0  0
  4 35  1  0  0  0  0
  4 36  1  0  0  0  0
  5  6  1  0  0  0  0
  5 37  1  0  0  0  0
  5 38  1  0  0  0  0
  6  7  1  0  0  0  0
  6 27  1  0  0  0  0
  6 39  1  0  0  0  0
  7  8  1  0  0  0  0
  7  9  1  0  0  0  0
  8 40  1  0  0  0  0
  8 41  1  0  0  0  0
  8 42  1  0  0  0  0
  9 14  1  0  0  0  0
  9 10  2  0  0  0  0
 10 11  1  0  0  0  0
 11 12  2  0  0  0  0
 11 43  1  0  0  0  0
 12 13  1  0  0  0  0
 13 17  1  0  0  0  0
 13 14  2  0  0  0  0
 14 15  1  0  0  0  0
 15 16  2  0  0  0  0
 16 17  1  0  0  0  0
 16 44  1  0  0  0  0
 17 18  1  0  0  0  0
 18 19  1  0  0  0  0
 18 45  1  0  0  0  0
 18 46  1  0  0  0  0
 19 20  1  0  0  0  0
 19 22  1  0  0  0  0
 19 47  1  0  0  0  0
 20 21  1  0  0  0  0
 20 48  1  0  0  0  0
 20 49  1  0  0  0  0
 21 50  1  0  0  0  0
 22 26  1  0  0  0  0
 22 23  1  0  0  0  0
 22 51  1  0  0  0  0
 23 24  1  0  0  0  0
 23 52  1  0  0  0  0
 23 53  1  0  0  0  0
 24 25  1  0  0  0  0
 24 54  1  0  0  0  0
 24 55  1  0  0  0  0
 25 26  1  0  0  0  0
 26 56  1  0  0  0  0
 26 57  1  0  0  0  0
 27 28  1  0  0  0  0
 27 58  1  0  0  0  0
 27 59  1  0  0  0  0
 28 29  1  0  0  0  0
 28 60  1  0  0  0  0
 29 61  1  0  0  0  0
 29 62  1  0  0  0  0
 29 63  1  0  0  0  0
M  CHG  1   3   1
M  END
> <s_m_source_file>
AV-unprocessed.smi

> <i_m_source_file_index>
249

> <i_lp_mmshare_version>
43012

> <i_f3d_flags>
0

> <s_epik_input>
W0NIM11bQ0gyXU4xW0NIMl1bQ0gyXVtDQEhdKFtDSDJdW0NASF0xW0NIM10pTihbQ0gzXSljKG5bY0hdbjIpYyhjMjMpbltjSF1uM1tDSDJdW0NASF0oW0NIMl1bT0hdKVtDQEBIXTRbQ0gyXVtDSDJdT1tDSDJdNA==

> <s_epik_cmdline>
J2VwaWtfcHl0aG9uJywgJy1waCcsICc3LjAnLCAnLXRuJywgJzgnLCAnLW1hJywgJzIwMCcsICctbWV0YWxfYmluZGluZycsICctaW1hZScsICc8aW5maWxlLm1hZT4nLCAnLW9tYWUnLCAnPG91dGZpbGUubWFlPic=

> <r_lp_tautomer_probability>
1

> <r_epik_Ionization_Penalty>
0.00294688

> <r_epik_Ionization_Penalty_Charging>
0.00169971

> <r_epik_Ionization_Penalty_Neutral>
0.00124717

> <r_epik_State_Penalty>
-0

> <r_epik_Charging_Adjusted_Penalty>
0.00169971

> <i_epik_Tot_Q>
1

> <i_epik_Tot_abs_Q>
1

> <r_epik_Metal_State_Penalty>
-0

> <b_epik_Metal_Only>
0

> <s_lp_Force_Field>
OPLS_2005

> <r_lp_Energy>
55.0731

> <b_lp_Chiralities_Consistent>
1

> <s_lp_Variant>
AV-unprocessed.smi:249-23

> <Gold.Version>
5.8.1

> <Gold.Id.Protein>
6NUR|6NUR_protein|mol2

> <Gold.PLP.Fitness>
49.0830

> <Gold.PLP.PLP>
-39.9915

> <Gold.PLP.part.hbond>
-3.0000

> <Gold.PLP.part.metal>
0.0000

> <Gold.PLP.part.buried>
-4.3324

> <Gold.PLP.part.nonpolar>
-33.5951

> <Gold.PLP.part.repulsive>
0.3891

> <Gold.PLP.ligand.clash>
0.0000

> <Gold.PLP.ligand.torsion>
2.0771

> <Gold.PLP.Chemscore.Hbond>
2.9920

> <Gold.PLP.Chemscore.CHOScore>
1.0000

> <Gold.PLP.Chemscore.Metal>
0.0000

> <Gold.Chemscore.Hbonds>
donor molecule, donor type, donor heavy atom, donor atom, acceptor molecule, acceptor atom, score
      L1  H     3    64       P1 10747  1.00
      L1  H    21    50       P1  7957  0.59
      P1  H  7989  7998       L1    21  0.85
      L1  C    16    44       P1  7957  1.00

> <Gold.PLP.Chemscore.Internal.Correction>
1.2698

> <Gold.Rescore>
     Score         DG    S(hbond)    S(metal)    S(lipo)     H(rot)  DE(clash)    DE(int)     intcor
     17.16     -19.80       2.59        0.00     106.48       2.65       0.44       2.20       ----

> <Gold.Chemscore.Fitness>
17.1560

> <Gold.Chemscore.DG>
-19.7987

> <Gold.Chemscore.ZeroCoef>
-5.4800

> <Gold.Chemscore.Hbond>
2.5894

> <Gold.Chemscore.Metal>
0.0000

> <Gold.Chemscore.Lipo>
106.4804

> <Gold.Chemscore.Internal_Hbond>
0.0000

> <Gold.Chemscore.DEClash>
0.4413

> <Gold.Chemscore.DEInternal>
2.2014

> <Gold.Chemscore.Rot>
2.6515

> <Gold.Chemscore.Internal.Correction>
   9.000000E+99

> <Gold.Chemscore.Hbonds>
donor molecule, donor type, donor heavy atom, donor atom, acceptor molecule, acceptor atom, score
      L1  H     3    64       P1 10747  1.00
      L1  H    21    50       P1  7957  0.55
      P1  H  7989  7998       L1    21  0.14

> <Gold.Chemscore.Hbond.Weighted>
-8.6484

> <Gold.Chemscore.Metal.Weighted>
-0.0000

> <Gold.Chemscore.Lipo.Weighted>
-12.4582

> <Gold.Chemscore.Internal_Hbond.Weighted>
0.0000

> <Gold.Chemscore.DEClash.Weighted>
0.4413

> <Gold.Chemscore.DEInternal.Weighted>
2.2014

> <Gold.Chemscore.Rot.Weighted>
6.7880

> <Gold.Chemscore.Internal.Correction.Weighted>
   9.000000E+99

> <Gold.Protein.RotatedTorsions>
[ 6907 6896 6895 6894 ] final -147.92 input  -60.11 | X-H torsion
[ 7974 7965 7964 7962 ] final -162.42 input  175.53 | X-H torsion
[ 8008 7997 7996 7995 ] final   21.50 input   59.86 | X-H torsion
[ 10167 10162 10161 10158 ] final  145.63 input  -65.29 | X-H torsion
[ 10718 10713 10712 10709 ] final -146.92 input   66.30 | X-H torsion
[ 10763 10752 10751 10750 ] final -124.16 input  -60.55 | X-H torsion
[ 11005 11000 10999 10996 ] final  -99.85 input  -57.11 | X-H torsion

> <Gold.Protein.ActiveResidues>
 VAL166  LYS551  ARG553  GLY616  TRP617  ASP618  TYR619  PRO620  LYS621  CYS622 
 ASP623  PHE694  ASN695  SER759  ASP760  ASP761  ALA762  ILE779  LEU786  VAL792 
 PHE793  MET794  SER795  GLU796  ALA797  LYS798  CYS799  TRP800  GLU811  SER814 

> <Gold.Protein.RotatedAtoms>
  151.1625  133.4836  159.2593 H   0  0  0  0  0  0  0  0  0  0  0  0  # atno 6907 bound_to 6896
  151.1439  135.0193  159.8648 H   0  0  0  0  0  0  0  0  0  0  0  0  # atno 6908 bound_to 6896
  152.5463  134.1516  159.8574 H   0  0  0  0  0  0  0  0  0  0  0  0  # atno 6909 bound_to 6896
  144.7358  140.3255  143.6163 H   0  0  0  0  0  0  0  0  0  0  0  0  # atno 7974 bound_to 7965
  154.9516  140.3066  155.5072 H   0  0  0  0  0  0  0  0  0  0  0  0  # atno 8008 bound_to 7997
  156.2986  140.2318  156.4531 H   0  0  0  0  0  0  0  0  0  0  0  0  # atno 8009 bound_to 7997
  154.8050  140.0432  157.1289 H   0  0  0  0  0  0  0  0  0  0  0  0  # atno 8010 bound_to 7997
  139.4922  144.5887  151.6724 H   0  0  0  0  0  0  0  0  0  0  0  0  # atno 10167 bound_to 10162
  156.4010  130.7934  151.2144 H   0  0  0  0  0  0  0  0  0  0  0  0  # atno 10718 bound_to 10713
  154.8719  135.4073  154.3060 H   0  0  0  0  0  0  0  0  0  0  0  0  # atno 10763 bound_to 10752
  153.3912  135.7015  153.6499 H   0  0  0  0  0  0  0  0  0  0  0  0  # atno 10764 bound_to 10752
  153.5281  135.3673  155.2634 H   0  0  0  0  0  0  0  0  0  0  0  0  # atno 10765 bound_to 10752
  141.1293  133.8353  157.1025 H   0  0  0  0  0  0  0  0  0  0  0  0  # atno 11005 bound_to 11000
  145.7526  139.1798  143.2313 LP  0  0  0  0  0  0  0  0  0  0  0  0  # atno 17320 bound_to 7965
  146.1049  140.7499  142.9531 LP  0  0  0  0  0  0  0  0  0  0  0  0  # atno 17321 bound_to 7965
  140.5509  144.0426  150.6127 LP  0  0  0  0  0  0  0  0  0  0  0  0  # atno 17342 bound_to 10162
  140.3480  143.2980  152.0518 LP  0  0  0  0  0  0  0  0  0  0  0  0  # atno 17343 bound_to 10162
  157.7504  131.0287  150.4059 LP  0  0  0  0  0  0  0  0  0  0  0  0  # atno 17370 bound_to 10713
  156.4338  130.3977  149.6742 LP  0  0  0  0  0  0  0  0  0  0  0  0  # atno 17371 bound_to 10713
  140.0324  134.9894  157.0806 LP  0  0  0  0  0  0  0  0  0  0  0  0  # atno 17394 bound_to 11000
  140.4263  134.1827  155.7166 LP  0  0  0  0  0  0  0  0  0  0  0  0  # atno 17395 bound_to 11000

$$$$
