AV-unprocessed.smi:481|AV-procd|sdf|2681|dock6
  -GOLD-   2262023103D 1   1.00000     0.00000
 Structure written by MMmdl.
 43 45  0  0  0  0  0  0  0  0  1 V2000
  150.4463  132.8460  156.6193 C   0  0  0  0  0  0  0  0  0  0  0  0
  149.7529  133.8451  157.3504 O   0  0  0  0  0  0  0  0  0  0  0  0
  149.7197  135.1131  156.7104 C   0  0  0  0  0  0  0  0  0  0  0  0
  148.4404  135.8943  157.0547 C   0  0  0  0  0  0  0  0  0  0  0  0
  148.4042  136.2605  158.4660 N   0  0  0  0  0  0  0  0  0  0  0  0
  148.9642  137.3460  159.0580 C   0  0  0  0  0  0  0  0  0  0  0  0
  149.6777  138.2651  158.2758 N   0  0  0  0  0  0  0  0  0  0  0  0
  150.2554  139.3542  158.7849 N   0  0  0  0  0  0  0  0  0  0  0  0
  150.2220  140.4970  158.1785 C   0  0  0  0  0  0  0  0  0  0  0  0
  149.4728  140.8440  156.9512 C   0  0  0  0  0  0  0  0  0  0  0  0
  149.9811  140.6018  155.6524 C   0  0  0  0  0  0  0  0  0  0  0  0
  149.2293  140.9518  154.5142 C   0  0  0  0  0  0  0  0  0  0  0  0
  147.9572  141.5354  154.6616 C   0  0  0  0  0  0  0  0  0  0  0  0
  147.4353  141.7623  155.9489 C   0  0  0  0  0  0  0  0  0  0  0  0
  148.1880  141.4132  157.0873 C   0  0  0  0  0  0  0  0  0  0  0  0
  148.7647  137.4187  160.3802 N   0  0  0  0  0  0  0  0  0  0  0  0
  148.0169  136.2824  160.6489 C   0  0  0  0  0  0  0  0  0  0  0  0
  147.7848  135.5783  159.5123 C   0  0  0  0  0  0  0  0  0  0  0  0
  147.0058  134.3342  159.4993 C   0  0  0  0  0  0  0  0  0  0  0  0
  146.7732  133.6914  158.4779 O   0  0  0  0  0  0  0  0  0  0  0  0
  146.5672  133.9704  160.7292 N   0  0  0  0  0  0  0  0  0  0  0  0
  146.7687  134.6281  161.9121 C   0  0  0  0  0  0  0  0  0  0  0  0
  146.3046  134.1715  162.9567 O   0  0  0  0  0  0  0  0  0  0  0  0
  147.4936  135.7922  161.8791 N   0  0  0  0  0  0  0  0  0  0  0  0
  147.7363  136.5393  163.1146 C   0  0  0  0  0  0  0  0  0  0  0  0
  146.0279  133.1183  160.7780 H   0  0  0  0  0  0  0  0  0  0  0  0
  150.3780  131.8966  157.1503 H   0  0  0  0  0  0  0  0  0  0  0  0
  151.5035  133.0847  156.5058 H   0  0  0  0  0  0  0  0  0  0  0  0
  150.0102  132.7064  155.6294 H   0  0  0  0  0  0  0  0  0  0  0  0
  150.6131  135.6922  156.9495 H   0  0  0  0  0  0  0  0  0  0  0  0
  149.7492  134.9327  155.6355 H   0  0  0  0  0  0  0  0  0  0  0  0
  148.3698  136.7979  156.4505 H   0  0  0  0  0  0  0  0  0  0  0  0
  147.5501  135.3144  156.8150 H   0  0  0  0  0  0  0  0  0  0  0  0
  149.4232  138.2623  157.2986 H   0  0  0  0  0  0  0  0  0  0  0  0
  150.8210  141.2981  158.6118 H   0  0  0  0  0  0  0  0  0  0  0  0
  150.9494  140.1432  155.5164 H   0  0  0  0  0  0  0  0  0  0  0  0
  149.6284  140.7693  153.5273 H   0  0  0  0  0  0  0  0  0  0  0  0
  147.3804  141.8035  153.7888 H   0  0  0  0  0  0  0  0  0  0  0  0
  146.4569  142.2049  156.0641 H   0  0  0  0  0  0  0  0  0  0  0  0
  147.7737  141.5966  158.0685 H   0  0  0  0  0  0  0  0  0  0  0  0
  146.7924  136.8504  163.5643 H   0  0  0  0  0  0  0  0  0  0  0  0
  148.3312  137.4380  162.9522 H   0  0  0  0  0  0  0  0  0  0  0  0
  148.2709  135.9214  163.8372 H   0  0  0  0  0  0  0  0  0  0  0  0
  1  2  1  0  0  0  0
  1 27  1  0  0  0  0
  1 28  1  0  0  0  0
  1 29  1  0  0  0  0
  2  3  1  0  0  0  0
  3  4  1  0  0  0  0
  3 30  1  0  0  0  0
  3 31  1  0  0  0  0
  4  5  1  0  0  0  0
  4 32  1  0  0  0  0
  4 33  1  0  0  0  0
  5 18  1  0  0  0  0
  5  6  1  0  0  0  0
  6  7  1  0  0  0  0
  6 16  2  0  0  0  0
  7  8  1  0  0  0  0
  7 34  1  0  0  0  0
  8  9  2  0  0  0  0
  9 10  1  0  0  0  0
  9 35  1  0  0  0  0
 10 15  1  0  0  0  0
 10 11  2  0  0  0  0
 11 12  1  0  0  0  0
 11 36  1  0  0  0  0
 12 13  2  0  0  0  0
 12 37  1  0  0  0  0
 13 14  1  0  0  0  0
 13 38  1  0  0  0  0
 14 15  2  0  0  0  0
 14 39  1  0  0  0  0
 15 40  1  0  0  0  0
 16 17  1  0  0  0  0
 17 24  1  0  0  0  0
 17 18  2  0  0  0  0
 18 19  1  0  0  0  0
 19 20  2  0  0  0  0
 19 21  1  0  0  0  0
 21 26  1  0  0  0  0
 21 22  1  0  0  0  0
 22 23  2  0  0  0  0
 22 24  1  0  0  0  0
 24 25  1  0  0  0  0
 25 41  1  0  0  0  0
 25 42  1  0  0  0  0
 25 43  1  0  0  0  0
M  END
> <s_m_source_file>
AV-unprocessed.smi

> <i_m_source_file_index>
481

> <i_lp_mmshare_version>
43012

> <i_f3d_flags>
0

> <s_epik_input>
W0NIM11uMWMoPU8pW25IXWMoPU8pYyhjMTIpbihbQ0gyXVtDSDJdT1tDSDNdKWMobjIpW05IXS9OPVtDSF0vYzNbY0hdW2NIXVtjSF1bY0hdW2NIXTM=

> <s_epik_cmdline>
J2VwaWtfcHl0aG9uJywgJy1waCcsICc3LjAnLCAnLXRuJywgJzgnLCAnLW1hJywgJzIwMCcsICctbWV0YWxfYmluZGluZycsICctaW1hZScsICc8aW5maWxlLm1hZT4nLCAnLW9tYWUnLCAnPG91dGZpbGUubWFlPic=

> <r_epik_Ionization_Penalty>
0.000595515

> <r_epik_Ionization_Penalty_Charging>
0.000305988

> <r_epik_Ionization_Penalty_Neutral>
0.000289528

> <r_epik_State_Penalty>
0.000184189

> <r_epik_Charging_Adjusted_Penalty>
0.000490177

> <i_epik_Tot_Q>
0

> <i_epik_Tot_abs_Q>
0

> <r_epik_Metal_State_Penalty>
0.173754

> <b_epik_Metal_Only>
0

> <s_epik_Chemistry_Notes>
This compound has an imine and may undergo hydrolysis.

> <s_lp_Force_Field>
OPLS_2005

> <r_lp_Energy>
46.456

> <b_lp_Chiralities_Consistent>
1

> <s_lp_Variant>
AV-unprocessed.smi:481-2

> <Gold.Version>
5.8.1

> <Gold.Id.Protein>
6NUR|6NUR_protein|mol2

> <Gold.PLP.Fitness>
39.2187

> <Gold.PLP.PLP>
-36.9127

> <Gold.PLP.part.hbond>
-3.5883

> <Gold.PLP.part.metal>
0.0000

> <Gold.PLP.part.buried>
-3.7749

> <Gold.PLP.part.nonpolar>
-29.7424

> <Gold.PLP.part.repulsive>
0.1468

> <Gold.PLP.ligand.clash>
0.0000

> <Gold.PLP.ligand.torsion>
1.4616

> <Gold.PLP.Chemscore.Hbond>
1.5582

> <Gold.PLP.Chemscore.CHOScore>
0.0000

> <Gold.PLP.Chemscore.Metal>
0.0000

> <Gold.Chemscore.Hbonds>
donor molecule, donor type, donor heavy atom, donor atom, acceptor molecule, acceptor atom, score
      P1  H  6896  6908       L1     2  0.65
      P1  H  6931  6943       L1    16  0.53
      P1  H  6934  6947       L1    16  0.12

> <Gold.PLP.Chemscore.Internal.Correction>
0.5544

> <Gold.Rescore>
     Score         DG    S(hbond)    S(metal)    S(lipo)     H(rot)  DE(clash)    DE(int)     intcor
     11.21     -12.85       1.43        0.00      55.92       1.54       0.06       1.58       ----

> <Gold.Chemscore.Fitness>
11.2060

> <Gold.Chemscore.DG>
-12.8462

> <Gold.Chemscore.ZeroCoef>
-5.4800

> <Gold.Chemscore.Hbond>
1.4275

> <Gold.Chemscore.Metal>
0.0000

> <Gold.Chemscore.Lipo>
55.9170

> <Gold.Chemscore.Internal_Hbond>
0.0000

> <Gold.Chemscore.DEClash>
0.0575

> <Gold.Chemscore.DEInternal>
1.5826

> <Gold.Chemscore.Rot>
1.5406

> <Gold.Chemscore.Internal.Correction>
   9.000000E+99

> <Gold.Chemscore.Hbonds>
donor molecule, donor type, donor heavy atom, donor atom, acceptor molecule, acceptor atom, score
      P1  H  6896  6908       L1     2  0.17
      P1  H  6931  6943       L1    16  0.38
      P1  H  6934  6947       L1    16  0.02

> <Gold.Chemscore.Hbond.Weighted>
-4.7678

> <Gold.Chemscore.Metal.Weighted>
-0.0000

> <Gold.Chemscore.Lipo.Weighted>
-6.5423

> <Gold.Chemscore.Internal_Hbond.Weighted>
0.0000

> <Gold.Chemscore.DEClash.Weighted>
0.0575

> <Gold.Chemscore.DEInternal.Weighted>
1.5826

> <Gold.Chemscore.Rot.Weighted>
3.9440

> <Gold.Chemscore.Internal.Correction.Weighted>
   9.000000E+99

> <Gold.Protein.RotatedTorsions>
[ 6907 6896 6895 6894 ] final  118.87 input  -60.11 | X-H torsion
[ 7974 7965 7964 7962 ] final   -6.86 input  175.53 | X-H torsion
[ 8008 7997 7996 7995 ] final  -18.84 input   59.86 | X-H torsion
[ 10167 10162 10161 10158 ] final -155.41 input  -65.29 | X-H torsion
[ 10718 10713 10712 10709 ] final   68.53 input   66.30 | X-H torsion
[ 10763 10752 10751 10750 ] final   53.64 input  -60.55 | X-H torsion
[ 11005 11000 10999 10996 ] final -155.02 input  -57.11 | X-H torsion

> <Gold.Protein.ActiveResidues>
 VAL166  LYS551  ARG553  GLY616  TRP617  ASP618  TYR619  PRO620  LYS621  CYS622 
 ASP623  PHE694  ASN695  SER759  ASP760  ASP761  ALA762  ILE779  LEU786  VAL792 
 PHE793  MET794  SER795  GLU796  ALA797  LYS798  CYS799  TRP800  GLU811  SER814 

> <Gold.Protein.RotatedAtoms>
  152.4513  133.7634  159.6758 H   0  0  0  0  0  0  0  0  0  0  0  0  # atno 6907 bound_to 6896
  150.8425  133.7903  159.3061 H   0  0  0  0  0  0  0  0  0  0  0  0  # atno 6908 bound_to 6896
  151.5523  135.1070  160.0004 H   0  0  0  0  0  0  0  0  0  0  0  0  # atno 6909 bound_to 6896
  146.2321  140.2234  142.8338 H   0  0  0  0  0  0  0  0  0  0  0  0  # atno 7974 bound_to 7965
  154.4878  140.2105  155.9617 H   0  0  0  0  0  0  0  0  0  0  0  0  # atno 8008 bound_to 7997
  156.1261  140.3205  155.8248 H   0  0  0  0  0  0  0  0  0  0  0  0  # atno 8009 bound_to 7997
  155.4381  140.0508  157.3003 H   0  0  0  0  0  0  0  0  0  0  0  0  # atno 8010 bound_to 7997
  139.6933  143.9384  152.2395 H   0  0  0  0  0  0  0  0  0  0  0  0  # atno 10167 bound_to 10162
  157.6294  130.9378  150.0390 H   0  0  0  0  0  0  0  0  0  0  0  0  # atno 10718 bound_to 10713
  152.9797  135.5772  154.4775 H   0  0  0  0  0  0  0  0  0  0  0  0  # atno 10763 bound_to 10752
  154.4328  135.2774  155.1902 H   0  0  0  0  0  0  0  0  0  0  0  0  # atno 10764 bound_to 10752
  154.3603  135.6190  153.5741 H   0  0  0  0  0  0  0  0  0  0  0  0  # atno 10765 bound_to 10752
  140.6910  134.4041  157.5219 H   0  0  0  0  0  0  0  0  0  0  0  0  # atno 11005 bound_to 11000
  144.9614  140.8279  143.5511 LP  0  0  0  0  0  0  0  0  0  0  0  0  # atno 17320 bound_to 7965
  145.2205  139.2161  143.5095 LP  0  0  0  0  0  0  0  0  0  0  0  0  # atno 17321 bound_to 7965
  139.9206  144.6802  150.8466 LP  0  0  0  0  0  0  0  0  0  0  0  0  # atno 17342 bound_to 10162
  140.7689  143.3378  151.2272 LP  0  0  0  0  0  0  0  0  0  0  0  0  # atno 17343 bound_to 10162
  156.1488  130.3642  149.9470 LP  0  0  0  0  0  0  0  0  0  0  0  0  # atno 17370 bound_to 10713
  156.7495  130.9110  151.3636 LP  0  0  0  0  0  0  0  0  0  0  0  0  # atno 17371 bound_to 10713
  139.8923  134.8757  156.2276 LP  0  0  0  0  0  0  0  0  0  0  0  0  # atno 17394 bound_to 11000
  141.0241  133.7025  156.1318 LP  0  0  0  0  0  0  0  0  0  0  0  0  # atno 17395 bound_to 11000

$$$$
