AV-unprocessed.smi:1757|AV-procd|sdf|7075|dock3
  -GOLD-   22720 8293D 1   1.00000     0.00000
 Structure written by MMmdl.
 40 41  0  0  0  0  0  0  0  0  2 V2000
  142.1225  134.5816  152.8160 C   0  0  0  0  0  0  0  0  0  0  0  0
  143.1313  133.5664  152.4443 N   0  3  2  0  0  0  0  0  0  0  0  0
  144.5169  134.0181  152.7246 C   0  0  0  0  0  0  0  0  0  0  0  0
  145.5307  132.8948  152.4497 C   0  0  0  0  0  0  0  0  0  0  0  0
  145.4053  132.3745  151.0081 C   0  0  1  0  0  0  0  0  0  0  0  0
  146.3004  131.2376  150.8091 N   0  0  0  0  0  0  0  0  0  0  0  0
  146.2792  130.0902  151.5029 C   0  0  0  0  0  0  0  0  0  0  0  0
  145.4822  129.8615  152.4125 O   0  0  0  0  0  0  0  0  0  0  0  0
  147.2479  129.2579  151.0796 N   0  0  0  0  0  0  0  0  0  0  0  0
  147.5446  127.9552  151.5125 C   0  0  0  0  0  0  0  0  0  0  0  0
  147.8485  126.9180  150.6893 C   0  0  0  0  0  0  0  0  0  0  0  0
  148.1608  125.5938  151.2028 C   0  0  0  0  0  0  0  0  0  0  0  0
  148.4805  124.4197  150.2911 C   0  0  0  0  0  0  0  0  0  0  0  0
  147.4747  124.2117  149.4420 F   0  0  0  0  0  0  0  0  0  0  0  0
  149.5759  124.6758  149.5761 F   0  0  0  0  0  0  0  0  0  0  0  0
  148.6838  123.2982  150.9825 F   0  0  0  0  0  0  0  0  0  0  0  0
  148.1439  125.4489  152.5400 C   0  0  0  0  0  0  0  0  0  0  0  0
  147.8467  126.5140  153.3933 N   0  0  0  0  0  0  0  0  0  0  0  0
  147.5478  127.7634  152.9723 C   0  0  0  0  0  0  0  0  0  0  0  0
  147.3005  128.6517  153.7874 O   0  0  0  0  0  0  0  0  0  0  0  0
  143.9521  131.9544  150.7302 C   0  0  0  0  0  0  0  0  0  0  0  0
  142.9720  133.0971  151.0451 C   0  0  0  0  0  0  0  0  0  0  0  0
  147.8603  126.3254  154.3851 H   0  0  0  0  0  0  0  0  0  0  0  0
  142.2367  135.4849  152.2153 H   0  0  0  0  0  0  0  0  0  0  0  0
  142.2204  134.8544  153.8672 H   0  0  0  0  0  0  0  0  0  0  0  0
  141.1139  134.1953  152.6661 H   0  0  0  0  0  0  0  0  0  0  0  0
  144.7484  134.8911  152.1118 H   0  0  0  0  0  0  0  0  0  0  0  0
  144.5964  134.3316  153.7662 H   0  0  0  0  0  0  0  0  0  0  0  0
  146.5428  133.2601  152.6288 H   0  0  0  0  0  0  0  0  0  0  0  0
  145.3670  132.0790  153.1557 H   0  0  0  0  0  0  0  0  0  0  0  0
  145.6628  133.1898  150.3292 H   0  0  0  0  0  0  0  0  0  0  0  0
  146.9967  131.3321  150.0839 H   0  0  0  0  0  0  0  0  0  0  0  0
  147.8800  129.6208  150.3806 H   0  0  0  0  0  0  0  0  0  0  0  0
  147.8871  127.0586  149.6215 H   0  0  0  0  0  0  0  0  0  0  0  0
  148.3532  124.5199  153.0500 H   0  0  0  0  0  0  0  0  0  0  0  0
  143.8429  131.6520  149.6878 H   0  0  0  0  0  0  0  0  0  0  0  0
  143.6957  131.0820  151.3335 H   0  0  0  0  0  0  0  0  0  0  0  0
  141.9493  132.7514  150.8895 H   0  0  0  0  0  0  0  0  0  0  0  0
  143.1336  133.9301  150.3589 H   0  0  0  0  0  0  0  0  0  0  0  0
  142.9633  132.7662  153.0376 H   0  0  0  0  0  0  0  0  0  0  0  0
  1  2  1  0  0  0  0
  1 24  1  0  0  0  0
  1 25  1  0  0  0  0
  1 26  1  0  0  0  0
  2 22  1  0  0  0  0
  2  3  1  0  0  0  0
  2 40  1  0  0  0  0
  3  4  1  0  0  0  0
  3 27  1  0  0  0  0
  3 28  1  0  0  0  0
  4  5  1  0  0  0  0
  4 29  1  0  0  0  0
  4 30  1  0  0  0  0
  5  6  1  0  0  0  0
  5 21  1  0  0  0  0
  5 31  1  0  0  0  0
  6  7  1  0  0  0  0
  6 32  1  0  0  0  0
  7  8  2  0  0  0  0
  7  9  1  0  0  0  0
  9 10  1  0  0  0  0
  9 33  1  0  0  0  0
 10 19  1  0  0  0  0
 10 11  2  0  0  0  0
 11 12  1  0  0  0  0
 11 34  1  0  0  0  0
 12 13  1  0  0  0  0
 12 17  2  0  0  0  0
 13 14  1  0  0  0  0
 13 15  1  0  0  0  0
 13 16  1  0  0  0  0
 17 18  1  0  0  0  0
 17 35  1  0  0  0  0
 18 23  1  0  0  0  0
 18 19  1  0  0  0  0
 19 20  2  0  0  0  0
 21 22  1  0  0  0  0
 21 36  1  0  0  0  0
 21 37  1  0  0  0  0
 22 38  1  0  0  0  0
 22 39  1  0  0  0  0
M  CHG  1   2   1
M  END
> <s_m_source_file>
AV-unprocessed.smi

> <i_m_source_file_index>
1757

> <i_lp_mmshare_version>
43012

> <i_f3d_flags>
0

> <s_epik_input>
W0NIM11OMVtDSDJdW0NIMl1bQ0hdKFtDSDJdW0NIMl0xKVtOSF1DKD1PKVtOSF1jMltjSF1jKEMoRikoRilGKVtjSF1bbkhdYzI9Tw==

> <s_epik_cmdline>
J2VwaWtfcHl0aG9uJywgJy1waCcsICc3LjAnLCAnLXRuJywgJzgnLCAnLW1hJywgJzIwMCcsICctbWV0YWxfYmluZGluZycsICctaW1hZScsICc8aW5maWxlLm1hZT4nLCAnLW9tYWUnLCAnPG91dGZpbGUubWFlPic=

> <r_lp_tautomer_probability>
1

> <r_epik_Ionization_Penalty>
0.00859077

> <r_epik_Ionization_Penalty_Charging>
0.00857233

> <r_epik_Ionization_Penalty_Neutral>
1.84472e-05

> <r_epik_State_Penalty>
-0

> <r_epik_Charging_Adjusted_Penalty>
0.00857233

> <i_epik_Tot_Q>
1

> <i_epik_Tot_abs_Q>
1

> <r_epik_Metal_State_Penalty>
0.377538

> <b_epik_Metal_Only>
0

> <s_lp_Force_Field>
OPLS_2005

> <r_lp_Energy>
26.9081

> <b_lp_Chiralities_Consistent>
1

> <s_lp_Variant>
AV-unprocessed.smi:1757-1

> <Gold.Version>
5.8.1

> <Gold.Id.Protein>
6NUR|6NUR_protein|mol2

> <Gold.PLP.Fitness>
45.4472

> <Gold.PLP.PLP>
-37.9049

> <Gold.PLP.part.hbond>
-2.5430

> <Gold.PLP.part.metal>
0.0000

> <Gold.PLP.part.buried>
-3.6558

> <Gold.PLP.part.nonpolar>
-32.2440

> <Gold.PLP.part.repulsive>
0.4723

> <Gold.PLP.ligand.clash>
1.4507

> <Gold.PLP.ligand.torsion>
0.3787

> <Gold.PLP.Chemscore.Hbond>
3.2480

> <Gold.PLP.Chemscore.CHOScore>
0.0000

> <Gold.PLP.Chemscore.Metal>
0.0000

> <Gold.Chemscore.Hbonds>
donor molecule, donor type, donor heavy atom, donor atom, acceptor molecule, acceptor atom, score
      L1  H     2    40       P1 10957  2.00
      L1  H     6    32       P1 10747  0.52
      L1  H     9    33       P1 10747  0.77

> <Gold.PLP.Chemscore.Internal.Correction>
0.0063

> <Gold.Rescore>
     Score         DG    S(hbond)    S(metal)    S(lipo)     H(rot)  DE(clash)    DE(int)     intcor
     13.90     -18.65       2.51        0.00      62.82       1.00       0.43       4.32       ----

> <Gold.Chemscore.Fitness>
13.8959

> <Gold.Chemscore.DG>
-18.6527

> <Gold.Chemscore.ZeroCoef>
-5.4800

> <Gold.Chemscore.Hbond>
2.5100

> <Gold.Chemscore.Metal>
0.0000

> <Gold.Chemscore.Lipo>
62.8151

> <Gold.Chemscore.Internal_Hbond>
0.0000

> <Gold.Chemscore.DEClash>
0.4340

> <Gold.Chemscore.DEInternal>
4.3228

> <Gold.Chemscore.Rot>
1.0000

> <Gold.Chemscore.Internal.Correction>
   9.000000E+99

> <Gold.Chemscore.Hbonds>
donor molecule, donor type, donor heavy atom, donor atom, acceptor molecule, acceptor atom, score
      L1  H     2    40       P1 10957  0.28
      L1  H     6    32       P1 10747  0.48
      L1  H     9    33       P1 10747  0.62

> <Gold.Chemscore.Hbond.Weighted>
-8.3833

> <Gold.Chemscore.Metal.Weighted>
-0.0000

> <Gold.Chemscore.Lipo.Weighted>
-7.3494

> <Gold.Chemscore.Internal_Hbond.Weighted>
0.0000

> <Gold.Chemscore.DEClash.Weighted>
0.4340

> <Gold.Chemscore.DEInternal.Weighted>
4.3228

> <Gold.Chemscore.Rot.Weighted>
2.5600

> <Gold.Chemscore.Internal.Correction.Weighted>
   9.000000E+99

> <Gold.Protein.RotatedTorsions>
[ 6907 6896 6895 6894 ] final  -69.45 input  -60.11 | X-H torsion
[ 7974 7965 7964 7962 ] final   30.79 input  175.53 | X-H torsion
[ 8008 7997 7996 7995 ] final -143.99 input   59.86 | X-H torsion
[ 10167 10162 10161 10158 ] final   23.17 input  -65.29 | X-H torsion
[ 10718 10713 10712 10709 ] final   10.60 input   66.30 | X-H torsion
[ 10763 10752 10751 10750 ] final  122.66 input  -60.55 | X-H torsion
[ 11005 11000 10999 10996 ] final -166.74 input  -57.11 | X-H torsion

> <Gold.Protein.ActiveResidues>
 VAL166  LYS551  ARG553  GLY616  TRP617  ASP618  TYR619  PRO620  LYS621  CYS622 
 ASP623  PHE694  ASN695  SER759  ASP760  ASP761  ALA762  ILE779  LEU786  VAL792 
 PHE793  MET794  SER795  GLU796  ALA797  LYS798  CYS799  TRP800  GLU811  SER814 

> <Gold.Protein.RotatedAtoms>
  150.7305  134.5595  159.5834 H   0  0  0  0  0  0  0  0  0  0  0  0  # atno 6907 bound_to 6896
  152.3062  134.7549  160.0356 H   0  0  0  0  0  0  0  0  0  0  0  0  # atno 6908 bound_to 6896
  151.8113  133.3346  159.3593 H   0  0  0  0  0  0  0  0  0  0  0  0  # atno 6909 bound_to 6896
  146.1590  139.6742  142.9047 H   0  0  0  0  0  0  0  0  0  0  0  0  # atno 7974 bound_to 7965
  155.5196  140.0590  157.2909 H   0  0  0  0  0  0  0  0  0  0  0  0  # atno 8008 bound_to 7997
  154.4522  140.1955  156.0430 H   0  0  0  0  0  0  0  0  0  0  0  0  # atno 8009 bound_to 7997
  156.0728  140.3257  155.7601 H   0  0  0  0  0  0  0  0  0  0  0  0  # atno 8010 bound_to 7997
  140.5291  143.9873  150.6456 H   0  0  0  0  0  0  0  0  0  0  0  0  # atno 10167 bound_to 10162
  156.9834  130.6014  149.5679 H   0  0  0  0  0  0  0  0  0  0  0  0  # atno 10718 bound_to 10713
  153.6333  135.3392  155.3048 H   0  0  0  0  0  0  0  0  0  0  0  0  # atno 10763 bound_to 10752
  154.8575  135.4301  154.2082 H   0  0  0  0  0  0  0  0  0  0  0  0  # atno 10764 bound_to 10752
  153.2983  135.7022  153.7300 H   0  0  0  0  0  0  0  0  0  0  0  0  # atno 10765 bound_to 10752
  140.5611  134.5333  157.5143 H   0  0  0  0  0  0  0  0  0  0  0  0  # atno 11005 bound_to 11000
  145.4636  141.0434  143.2738 LP  0  0  0  0  0  0  0  0  0  0  0  0  # atno 17320 bound_to 7965
  144.8001  139.6157  143.7075 LP  0  0  0  0  0  0  0  0  0  0  0  0  # atno 17321 bound_to 7965
  140.3243  143.3117  152.0752 LP  0  0  0  0  0  0  0  0  0  0  0  0  # atno 17342 bound_to 10162
  139.4948  144.6553  151.6587 LP  0  0  0  0  0  0  0  0  0  0  0  0  # atno 17343 bound_to 10162
  156.0235  130.5330  150.8343 LP  0  0  0  0  0  0  0  0  0  0  0  0  # atno 17370 bound_to 10713
  157.5510  131.0944  150.9695 LP  0  0  0  0  0  0  0  0  0  0  0  0  # atno 17371 bound_to 10713
  139.9407  134.7791  156.0685 LP  0  0  0  0  0  0  0  0  0  0  0  0  # atno 17394 bound_to 11000
  141.1114  133.6642  156.2988 LP  0  0  0  0  0  0  0  0  0  0  0  0  # atno 17395 bound_to 11000

$$$$
