AV-unprocessed.smi:828|AV-procd|sdf|3864|dock6
  -GOLD-   22720 1313D 1   1.00000     0.00000
 Structure written by MMmdl.
 34 35  0  0  0  0  0  0  0  0  3 V2000
  152.9234  138.7427  154.6920 C   0  0  0  0  0  0  0  0  0  0  0  0
  151.7586  137.8370  154.9008 C   0  0  0  0  0  0  0  0  0  0  0  0
  151.8906  136.5688  155.2973 N   0  0  0  0  0  0  0  0  0  0  0  0
  150.6655  135.9300  155.4232 N   0  0  0  0  0  0  0  0  0  0  0  0
  149.6261  136.7250  155.1322 C   0  0  0  0  0  0  0  0  0  0  0  0
  148.3539  136.2978  155.1923 N   0  5  0  0  0  0  0  0  0  0  0  0
  148.0817  134.9762  155.1128 C   0  0  0  0  0  0  0  0  0  0  0  0
  147.8437  134.2183  156.0556 O   0  0  0  0  0  0  0  0  0  0  0  0
  148.0941  134.5035  153.8599 N   0  0  0  0  0  0  0  0  0  0  0  0
  147.8723  133.1149  153.4710 C   0  0  0  0  0  0  0  0  0  0  0  0
  147.2937  133.0194  152.0433 C   0  0  2  0  0  0  0  0  0  0  0  0
  146.0999  133.9405  151.7945 C   0  0  0  0  0  0  0  0  0  0  0  0
  145.5308  133.3889  150.4949 C   0  0  0  0  0  0  0  0  0  0  0  0
  145.7183  131.8770  150.6443 C   0  0  0  0  0  0  0  0  0  0  0  0
  146.8622  131.6704  151.5697 N   0  3  2  0  0  0  0  0  0  0  0  0
  146.5608  130.6518  152.6062 C   0  0  0  0  0  0  0  0  0  0  0  0
  150.0996  138.3534  154.6489 S   0  0  0  0  0  0  0  0  0  0  0  0
  153.2280  139.1814  155.6424 H   0  0  0  0  0  0  0  0  0  0  0  0
  152.6593  139.5458  154.0039 H   0  0  0  0  0  0  0  0  0  0  0  0
  153.7644  138.1885  154.2743 H   0  0  0  0  0  0  0  0  0  0  0  0
  148.2803  135.1649  153.1203 H   0  0  0  0  0  0  0  0  0  0  0  0
  148.7872  132.5263  153.5544 H   0  0  0  0  0  0  0  0  0  0  0  0
  147.1655  132.6822  154.1801 H   0  0  0  0  0  0  0  0  0  0  0  0
  148.0782  133.3314  151.3512 H   0  0  0  0  0  0  0  0  0  0  0  0
  145.3676  133.8420  152.5974 H   0  0  0  0  0  0  0  0  0  0  0  0
  146.3837  134.9907  151.7192 H   0  0  0  0  0  0  0  0  0  0  0  0
  144.4910  133.6732  150.3315 H   0  0  0  0  0  0  0  0  0  0  0  0
  146.1164  133.7549  149.6502 H   0  0  0  0  0  0  0  0  0  0  0  0
  144.8062  131.4451  151.0601 H   0  0  0  0  0  0  0  0  0  0  0  0
  145.9007  131.3924  149.6846 H   0  0  0  0  0  0  0  0  0  0  0  0
  145.7960  131.0054  153.2989 H   0  0  0  0  0  0  0  0  0  0  0  0
  147.4469  130.3751  153.1751 H   0  0  0  0  0  0  0  0  0  0  0  0
  146.1929  129.7383  152.1375 H   0  0  0  0  0  0  0  0  0  0  0  0
  147.6301  131.3012  151.0271 H   0  0  0  0  0  0  0  0  0  0  0  0
  1  2  1  0  0  0  0
  1 18  1  0  0  0  0
  1 19  1  0  0  0  0
  1 20  1  0  0  0  0
  2 17  1  0  0  0  0
  2  3  2  0  0  0  0
  3  4  1  0  0  0  0
  4  5  2  0  0  0  0
  5  6  1  0  0  0  0
  5 17  1  0  0  0  0
  6  7  1  0  0  0  0
  7  8  2  0  0  0  0
  7  9  1  0  0  0  0
  9 10  1  0  0  0  0
  9 21  1  0  0  0  0
 10 11  1  0  0  0  0
 10 22  1  0  0  0  0
 10 23  1  0  0  0  0
 11 15  1  0  0  0  0
 11 12  1  0  0  0  0
 11 24  1  0  0  0  0
 12 13  1  0  0  0  0
 12 25  1  0  0  0  0
 12 26  1  0  0  0  0
 13 14  1  0  0  0  0
 13 27  1  0  0  0  0
 13 28  1  0  0  0  0
 14 15  1  0  0  0  0
 14 29  1  0  0  0  0
 14 30  1  0  0  0  0
 15 16  1  0  0  0  0
 15 34  1  0  0  0  0
 16 31  1  0  0  0  0
 16 32  1  0  0  0  0
 16 33  1  0  0  0  0
M  CHG  1   6  -1
M  CHG  1  15   1
M  END
> <s_m_source_file>
AV-unprocessed.smi

> <i_m_source_file_index>
828

> <i_lp_mmshare_version>
43012

> <i_f3d_flags>
0

> <s_epik_input>
W0NIM11jMW5uYyhzMSlbTkhdQyg9TylbTkhdW0NIMl1bQ0BASF0yW0NIMl1bQ0gyXVtDSDJdTjJbQ0gzXQ==

> <s_epik_cmdline>
J2VwaWtfcHl0aG9uJywgJy1waCcsICc3LjAnLCAnLXRuJywgJzgnLCAnLW1hJywgJzIwMCcsICctbWV0YWxfYmluZGluZycsICctaW1hZScsICc8aW5maWxlLm1hZT4nLCAnLW9tYWUnLCAnPG91dGZpbGUubWFlPic=

> <r_lp_tautomer_probability>
1

> <r_epik_Ionization_Penalty>
3.94379

> <r_epik_Ionization_Penalty_Charging>
3.83377

> <r_epik_Ionization_Penalty_Neutral>
0.110023

> <r_epik_State_Penalty>
3.83036

> <r_epik_Charging_Adjusted_Penalty>
7.66413

> <i_epik_Tot_Q>
0

> <i_epik_Tot_abs_Q>
2

> <r_epik_Metal_State_Penalty>
0.575095

> <b_epik_Metal_Only>
1

> <s_lp_Force_Field>
OPLS_2005

> <r_lp_Energy>
28.5427

> <b_lp_Chiralities_Consistent>
1

> <s_lp_Variant>
AV-unprocessed.smi:828-7

> <Gold.Version>
5.8.1

> <Gold.Id.Protein>
6NUR|6NUR_protein|mol2

> <Gold.PLP.Fitness>
34.5017

> <Gold.PLP.PLP>
-27.6171

> <Gold.PLP.part.hbond>
-3.0000

> <Gold.PLP.part.metal>
0.0000

> <Gold.PLP.part.buried>
-4.6662

> <Gold.PLP.part.nonpolar>
-21.3815

> <Gold.PLP.part.repulsive>
0.3110

> <Gold.PLP.ligand.clash>
0.0000

> <Gold.PLP.ligand.torsion>
1.0637

> <Gold.PLP.Chemscore.Hbond>
3.0000

> <Gold.PLP.Chemscore.CHOScore>
0.0000

> <Gold.PLP.Chemscore.Metal>
0.0000

> <Gold.Chemscore.Hbonds>
donor molecule, donor type, donor heavy atom, donor atom, acceptor molecule, acceptor atom, score
      L1  H     9    21       P1  7948  1.00
      L1  H    15    34       P1 10747  1.00
      P1  H 10752 10765       L1     3  1.00

> <Gold.PLP.Chemscore.Internal.Correction>
0.0120

> <Gold.Rescore>
     Score         DG    S(hbond)    S(metal)    S(lipo)     H(rot)  DE(clash)    DE(int)     intcor
     18.36     -19.39       2.90        0.00      64.91       1.31       0.01       1.02       ----

> <Gold.Chemscore.Fitness>
18.3588

> <Gold.Chemscore.DG>
-19.3856

> <Gold.Chemscore.ZeroCoef>
-5.4800

> <Gold.Chemscore.Hbond>
2.8973

> <Gold.Chemscore.Metal>
0.0000

> <Gold.Chemscore.Lipo>
64.9139

> <Gold.Chemscore.Internal_Hbond>
0.0000

> <Gold.Chemscore.DEClash>
0.0069

> <Gold.Chemscore.DEInternal>
1.0199

> <Gold.Chemscore.Rot>
1.3149

> <Gold.Chemscore.Internal.Correction>
   9.000000E+99

> <Gold.Chemscore.Hbonds>
donor molecule, donor type, donor heavy atom, donor atom, acceptor molecule, acceptor atom, score
      L1  H     9    21       P1  7948  0.96
      L1  H    15    34       P1 10747  0.99
      P1  H 10752 10765       L1     3  0.68

> <Gold.Chemscore.Hbond.Weighted>
-9.6769

> <Gold.Chemscore.Metal.Weighted>
-0.0000

> <Gold.Chemscore.Lipo.Weighted>
-7.5949

> <Gold.Chemscore.Internal_Hbond.Weighted>
0.0000

> <Gold.Chemscore.DEClash.Weighted>
0.0069

> <Gold.Chemscore.DEInternal.Weighted>
1.0199

> <Gold.Chemscore.Rot.Weighted>
3.3662

> <Gold.Chemscore.Internal.Correction.Weighted>
   9.000000E+99

> <Gold.Protein.RotatedTorsions>
[ 6907 6896 6895 6894 ] final  -58.09 input  -60.11 | X-H torsion
[ 7974 7965 7964 7962 ] final -105.42 input  175.53 | X-H torsion
[ 8008 7997 7996 7995 ] final -155.49 input   59.86 | X-H torsion
[ 10167 10162 10161 10158 ] final   76.35 input  -65.29 | X-H torsion
[ 10718 10713 10712 10709 ] final  100.04 input   66.30 | X-H torsion
[ 10763 10752 10751 10750 ] final  172.44 input  -60.55 | X-H torsion
[ 11005 11000 10999 10996 ] final -164.27 input  -57.11 | X-H torsion

> <Gold.Protein.ActiveResidues>
 VAL166  LYS551  ARG553  GLY616  TRP617  ASP618  TYR619  PRO620  LYS621  CYS622 
 ASP623  PHE694  ASN695  SER759  ASP760  ASP761  ALA762  ILE779  LEU786  VAL792 
 PHE793  MET794  SER795  GLU796  ALA797  LYS798  CYS799  TRP800  GLU811  SER814 

> <Gold.Protein.RotatedAtoms>
  150.8034  134.7143  159.6621 H   0  0  0  0  0  0  0  0  0  0  0  0  # atno 6907 bound_to 6896
  152.4152  134.6051  160.0020 H   0  0  0  0  0  0  0  0  0  0  0  0  # atno 6908 bound_to 6896
  151.6282  133.3297  159.3139 H   0  0  0  0  0  0  0  0  0  0  0  0  # atno 6909 bound_to 6896
  145.2307  140.9169  143.3206 H   0  0  0  0  0  0  0  0  0  0  0  0  # atno 7974 bound_to 7965
  155.7026  140.0768  157.2404 H   0  0  0  0  0  0  0  0  0  0  0  0  # atno 8008 bound_to 7997
  154.4070  140.1644  156.2261 H   0  0  0  0  0  0  0  0  0  0  0  0  # atno 8009 bound_to 7997
  155.9354  140.3388  155.6286 H   0  0  0  0  0  0  0  0  0  0  0  0  # atno 8010 bound_to 7997
  139.9932  144.5741  150.7800 H   0  0  0  0  0  0  0  0  0  0  0  0  # atno 10167 bound_to 10162
  157.6863  131.0687  150.5039 H   0  0  0  0  0  0  0  0  0  0  0  0  # atno 10718 bound_to 10713
  154.4261  135.2759  155.1943 H   0  0  0  0  0  0  0  0  0  0  0  0  # atno 10763 bound_to 10752
  154.3868  135.6075  153.5825 H   0  0  0  0  0  0  0  0  0  0  0  0  # atno 10764 bound_to 10752
  152.9834  135.5894  154.4565 H   0  0  0  0  0  0  0  0  0  0  0  0  # atno 10765 bound_to 10752
  140.5887  134.5067  157.5189 H   0  0  0  0  0  0  0  0  0  0  0  0  # atno 11005 bound_to 11000
  144.9679  139.3911  143.6323 LP  0  0  0  0  0  0  0  0  0  0  0  0  # atno 17320 bound_to 7965
  146.3353  139.8763  142.8831 LP  0  0  0  0  0  0  0  0  0  0  0  0  # atno 17321 bound_to 7965
  140.7447  143.2864  151.3451 LP  0  0  0  0  0  0  0  0  0  0  0  0  # atno 17342 bound_to 10162
  139.6325  144.0693  152.2488 LP  0  0  0  0  0  0  0  0  0  0  0  0  # atno 17343 bound_to 10162
  156.5360  130.4196  149.6178 LP  0  0  0  0  0  0  0  0  0  0  0  0  # atno 17370 bound_to 10713
  156.3027  130.7186  151.2061 LP  0  0  0  0  0  0  0  0  0  0  0  0  # atno 17371 bound_to 10713
  139.9284  134.8012  156.1002 LP  0  0  0  0  0  0  0  0  0  0  0  0  # atno 17394 bound_to 11000
  141.0949  133.6699  156.2622 LP  0  0  0  0  0  0  0  0  0  0  0  0  # atno 17395 bound_to 11000

$$$$
