AV-unprocessed.smi:499|AV-procd|sdf|2732|dock5
  -GOLD-   2262023183D 1   1.00000     0.00000
 Structure written by MMmdl.
 36 37  0  0  0  0  0  0  0  0  1 V2000
  146.1157  140.6030  155.7484 C   0  0  0  0  0  0  0  0  0  0  0  0
  146.6292  141.8813  156.4412 C   0  0  1  0  0  0  0  0  0  0  0  0
  146.3341  141.7986  157.8873 C   0  0  0  0  0  0  0  0  0  0  0  0
  146.1025  141.7343  159.0197 N   0  0  0  0  0  0  0  0  0  0  0  0
  148.0714  142.0059  156.2141 N   0  0  0  0  0  0  0  0  0  0  0  0
  149.0113  141.0636  156.3984 C   0  0  0  0  0  0  0  0  0  0  0  0
  148.7622  139.9268  156.8011 O   0  0  0  0  0  0  0  0  0  0  0  0
  150.4530  141.4914  156.0875 C   0  0  0  0  0  0  0  0  0  0  0  0
  151.2910  141.6464  157.2889 N   0  0  0  0  0  0  0  0  0  0  0  0
  151.1234  142.8270  158.0393 C   0  0  0  0  0  0  0  0  0  0  0  0
  151.8144  143.0830  159.1669 C   0  0  0  0  0  0  0  0  0  0  0  0
  151.6525  144.3891  159.9286 C   0  0  0  0  0  0  0  0  0  0  0  0
  152.3532  144.3704  161.0626 F   0  0  0  0  0  0  0  0  0  0  0  0
  152.0626  145.4284  159.2002 F   0  0  0  0  0  0  0  0  0  0  0  0
  150.3703  144.5779  160.2369 F   0  0  0  0  0  0  0  0  0  0  0  0
  152.7858  142.0850  159.5689 C   0  0  0  0  0  0  0  0  0  0  0  0
  152.9621  140.9529  158.8599 C   0  0  0  0  0  0  0  0  0  0  0  0
  152.1848  140.6772  157.6495 C   0  0  0  0  0  0  0  0  0  0  0  0
  152.3282  139.6413  156.9995 O   0  0  0  0  0  0  0  0  0  0  0  0
  145.9003  143.0817  155.8402 C   0  0  0  0  0  0  0  0  0  0  0  0
  144.5588  142.9664  155.1508 C   0  0  0  0  0  0  0  0  0  0  0  0
  145.7955  143.3050  154.3478 C   0  0  0  0  0  0  0  0  0  0  0  0
  145.0354  140.5046  155.8607 H   0  0  0  0  0  0  0  0  0  0  0  0
  146.5636  139.7025  156.1694 H   0  0  0  0  0  0  0  0  0  0  0  0
  146.3351  140.6130  154.6801 H   0  0  0  0  0  0  0  0  0  0  0  0
  148.3866  142.9070  155.8857 H   0  0  0  0  0  0  0  0  0  0  0  0
  150.9024  140.7662  155.4064 H   0  0  0  0  0  0  0  0  0  0  0  0
  150.4171  142.4251  155.5244 H   0  0  0  0  0  0  0  0  0  0  0  0
  150.3906  143.5127  157.6396 H   0  0  0  0  0  0  0  0  0  0  0  0
  153.3789  142.2456  160.4572 H   0  0  0  0  0  0  0  0  0  0  0  0
  153.6926  140.2294  159.1912 H   0  0  0  0  0  0  0  0  0  0  0  0
  146.0365  143.9888  156.4271 H   0  0  0  0  0  0  0  0  0  0  0  0
  144.1278  141.9764  155.0170 H   0  0  0  0  0  0  0  0  0  0  0  0
  143.8389  143.7637  155.3234 H   0  0  0  0  0  0  0  0  0  0  0  0
  145.8956  144.3266  153.9869 H   0  0  0  0  0  0  0  0  0  0  0  0
  146.1889  142.5392  153.6826 H   0  0  0  0  0  0  0  0  0  0  0  0
  1  2  1  0  0  0  0
  1 23  1  0  0  0  0
  1 24  1  0  0  0  0
  1 25  1  0  0  0  0
  2  3  1  0  0  0  0
  2  5  1  0  0  0  0
  2 20  1  0  0  0  0
  3  4  3  0  0  0  0
  5  6  1  0  0  0  0
  5 26  1  0  0  0  0
  6  7  2  0  0  0  0
  6  8  1  0  0  0  0
  8  9  1  0  0  0  0
  8 27  1  0  0  0  0
  8 28  1  0  0  0  0
  9 18  1  0  0  0  0
  9 10  1  0  0  0  0
 10 11  2  0  0  0  0
 10 29  1  0  0  0  0
 11 12  1  0  0  0  0
 11 16  1  0  0  0  0
 12 13  1  0  0  0  0
 12 14  1  0  0  0  0
 12 15  1  0  0  0  0
 16 17  2  0  0  0  0
 16 30  1  0  0  0  0
 17 18  1  0  0  0  0
 17 31  1  0  0  0  0
 18 19  2  0  0  0  0
 20 22  1  0  0  0  0
 20 21  1  0  0  0  0
 20 32  1  0  0  0  0
 21 22  1  0  0  0  0
 21 33  1  0  0  0  0
 21 34  1  0  0  0  0
 22 35  1  0  0  0  0
 22 36  1  0  0  0  0
M  END
> <s_m_source_file>
AV-unprocessed.smi

> <i_m_source_file_index>
499

> <i_lp_mmshare_version>
43012

> <i_f3d_flags>
0

> <s_epik_input>
W0NIMl0xW0NIMl1bQ0hdMVtDQF0oW0NIM10pKEMjTilbTkhdQyg9TylbQ0gyXW4yW2NIXWMoQyhGKShGKUYpW2NIXVtjSF1jMj1P

> <s_epik_cmdline>
J2VwaWtfcHl0aG9uJywgJy1waCcsICc3LjAnLCAnLXRuJywgJzgnLCAnLW1hJywgJzIwMCcsICctbWV0YWxfYmluZGluZycsICctaW1hZScsICc8aW5maWxlLm1hZT4nLCAnLW9tYWUnLCAnPG91dGZpbGUubWFlPic=

> <r_lp_tautomer_probability>
1

> <r_epik_Ionization_Penalty>
4.79953e-07

> <r_epik_Ionization_Penalty_Charging>
1.46911e-08

> <r_epik_Ionization_Penalty_Neutral>
4.65262e-07

> <r_epik_State_Penalty>
-0

> <r_epik_Charging_Adjusted_Penalty>
1.46911e-08

> <i_epik_Tot_Q>
0

> <i_epik_Tot_abs_Q>
0

> <r_epik_Metal_State_Penalty>
-0

> <b_epik_Metal_Only>
0

> <s_lp_Force_Field>
OPLS_2005

> <r_lp_Energy>
24.0499

> <b_lp_Chiralities_Consistent>
1

> <s_lp_Variant>
AV-unprocessed.smi:499-1

> <Gold.Version>
5.8.1

> <Gold.Id.Protein>
6NUR|6NUR_protein|mol2

> <Gold.PLP.Fitness>
52.1555

> <Gold.PLP.PLP>
-43.4579

> <Gold.PLP.part.hbond>
-3.0000

> <Gold.PLP.part.metal>
0.0000

> <Gold.PLP.part.buried>
-6.2739

> <Gold.PLP.part.nonpolar>
-33.6561

> <Gold.PLP.part.repulsive>
0.0290

> <Gold.PLP.ligand.clash>
0.0000

> <Gold.PLP.ligand.torsion>
1.5168

> <Gold.PLP.Chemscore.Hbond>
2.6739

> <Gold.PLP.Chemscore.CHOScore>
0.6922

> <Gold.PLP.Chemscore.Metal>
0.0000

> <Gold.Chemscore.Hbonds>
donor molecule, donor type, donor heavy atom, donor atom, acceptor molecule, acceptor atom, score
      L1  H     5    26       P1  8028  1.00
      P1  H  6934  6946       L1     4  0.83
      P1  H  7997  8010       L1    19  0.49
      L1  C    10    29       P1  8028  0.46

> <Gold.PLP.Chemscore.Internal.Correction>
1.6328

> <Gold.Rescore>
     Score         DG    S(hbond)    S(metal)    S(lipo)     H(rot)  DE(clash)    DE(int)     intcor
     15.68     -18.73       2.72        0.00      77.14       1.90       0.13       2.92       ----

> <Gold.Chemscore.Fitness>
15.6801

> <Gold.Chemscore.DG>
-18.7341

> <Gold.Chemscore.ZeroCoef>
-5.4800

> <Gold.Chemscore.Hbond>
2.7247

> <Gold.Chemscore.Metal>
0.0000

> <Gold.Chemscore.Lipo>
77.1393

> <Gold.Chemscore.Internal_Hbond>
0.0000

> <Gold.Chemscore.DEClash>
0.1294

> <Gold.Chemscore.DEInternal>
2.9246

> <Gold.Chemscore.Rot>
1.9030

> <Gold.Chemscore.Internal.Correction>
   9.000000E+99

> <Gold.Chemscore.Hbonds>
donor molecule, donor type, donor heavy atom, donor atom, acceptor molecule, acceptor atom, score
      L1  H     5    26       P1  8028  0.97
      P1  H  6934  6946       L1     4  0.78
      P1  H  7997  8010       L1    19  0.04

> <Gold.Chemscore.Hbond.Weighted>
-9.1006

> <Gold.Chemscore.Metal.Weighted>
-0.0000

> <Gold.Chemscore.Lipo.Weighted>
-9.0253

> <Gold.Chemscore.Internal_Hbond.Weighted>
0.0000

> <Gold.Chemscore.DEClash.Weighted>
0.1294

> <Gold.Chemscore.DEInternal.Weighted>
2.9246

> <Gold.Chemscore.Rot.Weighted>
4.8718

> <Gold.Chemscore.Internal.Correction.Weighted>
   9.000000E+99

> <Gold.Protein.RotatedTorsions>
[ 6907 6896 6895 6894 ] final -144.75 input  -60.11 | X-H torsion
[ 7974 7965 7964 7962 ] final   57.86 input  175.53 | X-H torsion
[ 8008 7997 7996 7995 ] final   69.59 input   59.86 | X-H torsion
[ 10167 10162 10161 10158 ] final -136.16 input  -65.29 | X-H torsion
[ 10718 10713 10712 10709 ] final  -33.11 input   66.30 | X-H torsion
[ 10763 10752 10751 10750 ] final  136.46 input  -60.55 | X-H torsion
[ 11005 11000 10999 10996 ] final  167.17 input  -57.11 | X-H torsion

> <Gold.Protein.ActiveResidues>
 VAL166  LYS551  ARG553  GLY616  TRP617  ASP618  TYR619  PRO620  LYS621  CYS622 
 ASP623  PHE694  ASN695  SER759  ASP760  ASP761  ALA762  ILE779  LEU786  VAL792 
 PHE793  MET794  SER795  GLU796  ALA797  LYS798  CYS799  TRP800  GLU811  SER814 

> <Gold.Protein.RotatedAtoms>
  151.1183  133.5122  159.2602 H   0  0  0  0  0  0  0  0  0  0  0  0  # atno 6907 bound_to 6896
  151.1890  135.0394  159.8834 H   0  0  0  0  0  0  0  0  0  0  0  0  # atno 6908 bound_to 6896
  152.5454  134.1026  159.8377 H   0  0  0  0  0  0  0  0  0  0  0  0  # atno 6909 bound_to 6896
  145.9244  139.3756  143.0459 H   0  0  0  0  0  0  0  0  0  0  0  0  # atno 7974 bound_to 7965
  155.7259  140.3492  155.5037 H   0  0  0  0  0  0  0  0  0  0  0  0  # atno 8008 bound_to 7997
  155.9227  140.1070  157.1216 H   0  0  0  0  0  0  0  0  0  0  0  0  # atno 8009 bound_to 7997
  154.4072  140.1246  156.4687 H   0  0  0  0  0  0  0  0  0  0  0  0  # atno 8010 bound_to 7997
  139.8706  143.6962  152.2640 H   0  0  0  0  0  0  0  0  0  0  0  0  # atno 10167 bound_to 10162
  156.3667  130.4332  149.7579 H   0  0  0  0  0  0  0  0  0  0  0  0  # atno 10718 bound_to 10713
  153.8569  135.3072  155.3435 H   0  0  0  0  0  0  0  0  0  0  0  0  # atno 10763 bound_to 10752
  154.7866  135.4806  153.9963 H   0  0  0  0  0  0  0  0  0  0  0  0  # atno 10764 bound_to 10752
  153.1485  135.6838  153.9012 H   0  0  0  0  0  0  0  0  0  0  0  0  # atno 10765 bound_to 10752
  140.2740  134.7804  157.3700 H   0  0  0  0  0  0  0  0  0  0  0  0  # atno 11005 bound_to 11000
  145.8508  140.9530  143.0751 LP  0  0  0  0  0  0  0  0  0  0  0  0  # atno 17320 bound_to 7965
  144.6757  140.0404  143.7481 LP  0  0  0  0  0  0  0  0  0  0  0  0  # atno 17321 bound_to 7965
  139.7288  144.7587  151.0836 LP  0  0  0  0  0  0  0  0  0  0  0  0  # atno 17342 bound_to 10162
  140.7761  143.5115  150.9647 LP  0  0  0  0  0  0  0  0  0  0  0  0  # atno 17343 bound_to 10162
  156.4722  130.8002  151.3019 LP  0  0  0  0  0  0  0  0  0  0  0  0  # atno 17370 bound_to 10713
  157.7479  131.0032  150.3030 LP  0  0  0  0  0  0  0  0  0  0  0  0  # atno 17371 bound_to 10713
  140.1346  134.5051  155.8079 LP  0  0  0  0  0  0  0  0  0  0  0  0  # atno 17394 bound_to 11000
  141.2173  133.6802  156.7101 LP  0  0  0  0  0  0  0  0  0  0  0  0  # atno 17395 bound_to 11000

$$$$
