AV-unprocessed.smi:224|AV-procd|sdf|1708|dock1
  -GOLD-   2262020173D 1   1.00000     0.00000
 Structure written by MMmdl.
 56 59  0  0  0  0  0  0  0  0  2 V2000
  144.8097  132.0688  149.2279 C   0  0  0  0  0  0  0  0  0  0  0  0
  144.4602  133.2394  150.1559 C   0  0  1  0  0  0  0  0  0  0  0  0
  143.9371  134.2880  149.3657 O   0  0  0  0  0  0  0  0  0  0  0  0
  143.4197  132.8472  151.2216 C   0  0  0  0  0  0  0  0  0  0  0  0
  143.6661  133.5465  152.5142 N   0  3  2  0  0  0  0  0  0  0  0  0
  143.0892  134.9205  152.4934 C   0  0  0  0  0  0  0  0  0  0  0  0
  143.2768  135.6475  153.8311 C   0  0  0  0  0  0  0  0  0  0  0  0
  144.6869  135.6727  154.1925 N   0  0  0  0  0  0  0  0  0  0  0  0
  145.4202  136.7055  153.6980 C   0  0  0  0  0  0  0  0  0  0  0  0
  145.4131  136.9623  152.3625 N   0  0  0  0  0  0  0  0  0  0  0  0
  146.1187  137.9815  151.8642 C   0  0  0  0  0  0  0  0  0  0  0  0
  146.8930  138.8536  152.5110 N   0  0  0  0  0  0  0  0  0  0  0  0
  146.9189  138.5950  153.8493 C   0  0  0  0  0  0  0  0  0  0  0  0
  146.2172  137.5530  154.5199 C   0  0  0  0  0  0  0  0  0  0  0  0
  146.4953  137.5991  155.8811 N   0  0  0  0  0  0  0  0  0  0  0  0
  147.3075  138.6127  156.0082 C   0  0  0  0  0  0  0  0  0  0  0  0
  147.6204  139.2645  154.8370 N   0  0  0  0  0  0  0  0  0  0  0  0
  148.5010  140.4136  154.6901 C   0  0  0  0  0  0  0  0  0  0  0  0
  147.7485  141.7643  154.6699 C   0  0  1  0  0  0  0  0  0  0  0  0
  148.6806  142.8067  154.4382 O   0  0  0  0  0  0  0  0  0  0  0  0
  146.6505  141.8518  153.6137 C   0  0  0  0  0  0  0  0  0  0  0  0
  145.6268  142.7712  154.2644 C   0  0  0  0  0  0  0  0  0  0  0  0
  145.6484  142.3478  155.6166 O   0  0  0  0  0  0  0  0  0  0  0  0
  146.9962  142.0673  155.9813 C   0  0  0  0  0  0  0  0  0  0  0  0
  145.2842  134.3431  154.2717 C   0  0  0  0  0  0  0  0  0  0  0  0
  145.0913  133.5170  152.9750 C   0  0  1  0  0  0  0  0  0  0  0  0
  145.5955  132.0848  153.2493 C   0  0  0  0  0  0  0  0  0  0  0  0
  145.2389  131.2393  149.7903 H   0  0  0  0  0  0  0  0  0  0  0  0
  145.5408  132.3675  148.4758 H   0  0  0  0  0  0  0  0  0  0  0  0
  143.9279  131.6954  148.7055 H   0  0  0  0  0  0  0  0  0  0  0  0
  145.3765  133.5927  150.6287 H   0  0  0  0  0  0  0  0  0  0  0  0
  143.0257  134.4095  149.5858 H   0  0  0  0  0  0  0  0  0  0  0  0
  142.4287  133.0497  150.8225 H   0  0  0  0  0  0  0  0  0  0  0  0
  143.4375  131.7684  151.3856 H   0  0  0  0  0  0  0  0  0  0  0  0
  143.5630  135.5001  151.6990 H   0  0  0  0  0  0  0  0  0  0  0  0
  142.0261  134.8774  152.2576 H   0  0  0  0  0  0  0  0  0  0  0  0
  142.8529  136.6487  153.7677 H   0  0  0  0  0  0  0  0  0  0  0  0
  142.7248  135.1308  154.6169 H   0  0  0  0  0  0  0  0  0  0  0  0
  146.0541  138.1173  150.7946 H   0  0  0  0  0  0  0  0  0  0  0  0
  147.7105  138.9112  156.9652 H   0  0  0  0  0  0  0  0  0  0  0  0
  149.2221  140.3983  155.5085 H   0  0  0  0  0  0  0  0  0  0  0  0
  149.0784  140.2887  153.7729 H   0  0  0  0  0  0  0  0  0  0  0  0
  149.5521  142.4603  154.5551 H   0  0  0  0  0  0  0  0  0  0  0  0
  146.9979  142.2082  152.6429 H   0  0  0  0  0  0  0  0  0  0  0  0
  146.1919  140.8738  153.4642 H   0  0  0  0  0  0  0  0  0  0  0  0
  145.9363  143.8154  154.1983 H   0  0  0  0  0  0  0  0  0  0  0  0
  144.6328  142.6745  153.8271 H   0  0  0  0  0  0  0  0  0  0  0  0
  147.0084  141.2235  156.6719 H   0  0  0  0  0  0  0  0  0  0  0  0
  147.4175  142.9249  156.5083 H   0  0  0  0  0  0  0  0  0  0  0  0
  146.3415  134.4134  154.5316 H   0  0  0  0  0  0  0  0  0  0  0  0
  144.8089  133.8251  155.1058 H   0  0  0  0  0  0  0  0  0  0  0  0
  145.7032  133.9556  152.1858 H   0  0  0  0  0  0  0  0  0  0  0  0
  146.5863  132.1064  153.7042 H   0  0  0  0  0  0  0  0  0  0  0  0
  145.6916  131.4820  152.3483 H   0  0  0  0  0  0  0  0  0  0  0  0
  144.9329  131.5579  153.9368 H   0  0  0  0  0  0  0  0  0  0  0  0
  143.1505  133.0307  153.2133 H   0  0  0  0  0  0  0  0  0  0  0  0
  1  2  1  0  0  0  0
  1 28  1  0  0  0  0
  1 29  1  0  0  0  0
  1 30  1  0  0  0  0
  2  3  1  0  0  0  0
  2  4  1  0  0  0  0
  2 31  1  0  0  0  0
  3 32  1  0  0  0  0
  4  5  1  0  0  0  0
  4 33  1  0  0  0  0
  4 34  1  0  0  0  0
  5 26  1  0  0  0  0
  5  6  1  0  0  0  0
  5 56  1  0  0  0  0
  6  7  1  0  0  0  0
  6 35  1  0  0  0  0
  6 36  1  0  0  0  0
  7  8  1  0  0  0  0
  7 37  1  0  0  0  0
  7 38  1  0  0  0  0
  8  9  1  0  0  0  0
  8 25  1  0  0  0  0
  9 14  1  0  0  0  0
  9 10  2  0  0  0  0
 10 11  1  0  0  0  0
 11 12  2  0  0  0  0
 11 39  1  0  0  0  0
 12 13  1  0  0  0  0
 13 17  1  0  0  0  0
 13 14  2  0  0  0  0
 14 15  1  0  0  0  0
 15 16  2  0  0  0  0
 16 17  1  0  0  0  0
 16 40  1  0  0  0  0
 17 18  1  0  0  0  0
 18 19  1  0  0  0  0
 18 41  1  0  0  0  0
 18 42  1  0  0  0  0
 19 24  1  0  0  0  0
 19 20  1  0  0  0  0
 19 21  1  0  0  0  0
 20 43  1  0  0  0  0
 21 22  1  0  0  0  0
 21 44  1  0  0  0  0
 21 45  1  0  0  0  0
 22 23  1  0  0  0  0
 22 46  1  0  0  0  0
 22 47  1  0  0  0  0
 23 24  1  0  0  0  0
 24 48  1  0  0  0  0
 24 49  1  0  0  0  0
 25 26  1  0  0  0  0
 25 50  1  0  0  0  0
 25 51  1  0  0  0  0
 26 27  1  0  0  0  0
 26 52  1  0  0  0  0
 27 53  1  0  0  0  0
 27 54  1  0  0  0  0
 27 55  1  0  0  0  0
M  CHG  1   5   1
M  END
> <s_m_source_file>
AV-unprocessed.smi

> <i_m_source_file_index>
224

> <i_lp_mmshare_version>
43012

> <i_f3d_flags>
0

> <s_epik_input>
W0NIM11bQ0BIXShbT0hdKVtDSDJdTjFbQ0gyXVtDSDJdTihbQ0gyXVtDQEhdMVtDSDNdKWMobltjSF1uMiljKGMyMyluW2NIXW4zW0NIMl1bQ0BAXTQoW09IXSlbQ0gyXVtDSDJdT1tDSDJdNA==

> <s_epik_cmdline>
J2VwaWtfcHl0aG9uJywgJy1waCcsICc3LjAnLCAnLXRuJywgJzgnLCAnLW1hJywgJzIwMCcsICctbWV0YWxfYmluZGluZycsICctaW1hZScsICc8aW5maWxlLm1hZT4nLCAnLW9tYWUnLCAnPG91dGZpbGUubWFlPic=

> <r_lp_tautomer_probability>
1

> <r_epik_Ionization_Penalty>
0.00516958

> <r_epik_Ionization_Penalty_Charging>
0.00509693

> <r_epik_Ionization_Penalty_Neutral>
7.26542e-05

> <r_epik_State_Penalty>
-0

> <r_epik_Charging_Adjusted_Penalty>
0.00509693

> <i_epik_Tot_Q>
1

> <i_epik_Tot_abs_Q>
1

> <r_epik_Metal_State_Penalty>
-0

> <b_epik_Metal_Only>
0

> <s_lp_Force_Field>
OPLS_2005

> <r_lp_Energy>
48.4109

> <b_lp_Chiralities_Consistent>
1

> <s_lp_Variant>
AV-unprocessed.smi:224-2

> <Gold.Version>
5.8.1

> <Gold.Id.Protein>
6NUR|6NUR_protein|mol2

> <Gold.PLP.Fitness>
48.2703

> <Gold.PLP.PLP>
-35.5917

> <Gold.PLP.part.hbond>
-5.2675

> <Gold.PLP.part.metal>
0.0000

> <Gold.PLP.part.buried>
-5.3507

> <Gold.PLP.part.nonpolar>
-27.9592

> <Gold.PLP.part.repulsive>
0.7191

> <Gold.PLP.ligand.clash>
0.0000

> <Gold.PLP.ligand.torsion>
1.4009

> <Gold.PLP.Chemscore.Hbond>
4.0000

> <Gold.PLP.Chemscore.CHOScore>
0.9323

> <Gold.PLP.Chemscore.Metal>
0.0000

> <Gold.Chemscore.Hbonds>
donor molecule, donor type, donor heavy atom, donor atom, acceptor molecule, acceptor atom, score
      L1  H     3    32       P1 10186  1.00
      L1  H     5    56       P1 10957  1.82
      P1  H  8022  8030       L1    20  0.78
      L1  C    11    39       P1 10171  0.78

> <Gold.PLP.Chemscore.Internal.Correction>
0.6836

> <Gold.Rescore>
     Score         DG    S(hbond)    S(metal)    S(lipo)     H(rot)  DE(clash)    DE(int)     intcor
     12.82     -14.75       2.80        0.00      72.77       3.36       0.34       1.60       ----

> <Gold.Chemscore.Fitness>
12.8162

> <Gold.Chemscore.DG>
-14.7528

> <Gold.Chemscore.ZeroCoef>
-5.4800

> <Gold.Chemscore.Hbond>
2.8035

> <Gold.Chemscore.Metal>
0.0000

> <Gold.Chemscore.Lipo>
72.7656

> <Gold.Chemscore.Internal_Hbond>
0.0000

> <Gold.Chemscore.DEClash>
0.3373

> <Gold.Chemscore.DEInternal>
1.5992

> <Gold.Chemscore.Rot>
3.3611

> <Gold.Chemscore.Internal.Correction>
   9.000000E+99

> <Gold.Chemscore.Hbonds>
donor molecule, donor type, donor heavy atom, donor atom, acceptor molecule, acceptor atom, score
      L1  H     3    32       P1 10186  0.94
      L1  H     5    56       P1 10957  0.66
      P1  H  8022  8030       L1    20  0.69

> <Gold.Chemscore.Hbond.Weighted>
-9.3637

> <Gold.Chemscore.Metal.Weighted>
-0.0000

> <Gold.Chemscore.Lipo.Weighted>
-8.5136

> <Gold.Chemscore.Internal_Hbond.Weighted>
0.0000

> <Gold.Chemscore.DEClash.Weighted>
0.3373

> <Gold.Chemscore.DEInternal.Weighted>
1.5992

> <Gold.Chemscore.Rot.Weighted>
8.6045

> <Gold.Chemscore.Internal.Correction.Weighted>
   9.000000E+99

> <Gold.Protein.RotatedTorsions>
[ 6907 6896 6895 6894 ] final -170.34 input  -60.11 | X-H torsion
[ 7974 7965 7964 7962 ] final  106.25 input  175.53 | X-H torsion
[ 8008 7997 7996 7995 ] final  -97.20 input   59.86 | X-H torsion
[ 10167 10162 10161 10158 ] final -128.84 input  -65.29 | X-H torsion
[ 10718 10713 10712 10709 ] final  120.25 input   66.30 | X-H torsion
[ 10763 10752 10751 10750 ] final   10.77 input  -60.55 | X-H torsion
[ 11005 11000 10999 10996 ] final   80.22 input  -57.11 | X-H torsion

> <Gold.Protein.ActiveResidues>
 VAL166  LYS551  ARG553  GLY616  TRP617  ASP618  TYR619  PRO620  LYS621  CYS622 
 ASP623  PHE694  ASN695  SER759  ASP760  ASP761  ALA762  ILE779  LEU786  VAL792 
 PHE793  MET794  SER795  GLU796  ALA797  LYS798  CYS799  TRP800  GLU811  SER814 

> <Gold.Protein.RotatedAtoms>
  151.5062  133.3494  159.2876 H   0  0  0  0  0  0  0  0  0  0  0  0  # atno 6907 bound_to 6896
  150.8741  134.8123  159.7188 H   0  0  0  0  0  0  0  0  0  0  0  0  # atno 6908 bound_to 6896
  152.4719  134.4950  159.9759 H   0  0  0  0  0  0  0  0  0  0  0  0  # atno 6909 bound_to 6896
  145.3090  139.2546  143.3773 H   0  0  0  0  0  0  0  0  0  0  0  0  # atno 7974 bound_to 7965
  154.7846  140.0465  157.1154 H   0  0  0  0  0  0  0  0  0  0  0  0  # atno 8008 bound_to 7997
  154.9663  140.3084  155.4988 H   0  0  0  0  0  0  0  0  0  0  0  0  # atno 8009 bound_to 7997
  156.2941  140.2261  156.4752 H   0  0  0  0  0  0  0  0  0  0  0  0  # atno 8010 bound_to 7997
  139.9461  143.6109  152.2489 H   0  0  0  0  0  0  0  0  0  0  0  0  # atno 10167 bound_to 10162
  157.5904  131.1065  150.8010 H   0  0  0  0  0  0  0  0  0  0  0  0  # atno 10718 bound_to 10713
  153.1997  135.6854  153.8247 H   0  0  0  0  0  0  0  0  0  0  0  0  # atno 10763 bound_to 10752
  153.7517  135.3223  155.3323 H   0  0  0  0  0  0  0  0  0  0  0  0  # atno 10764 bound_to 10752
  154.8164  135.4682  154.0758 H   0  0  0  0  0  0  0  0  0  0  0  0  # atno 10765 bound_to 10752
  139.9142  134.7904  156.1881 H   0  0  0  0  0  0  0  0  0  0  0  0  # atno 11005 bound_to 11000
  146.3125  140.3622  142.8666 LP  0  0  0  0  0  0  0  0  0  0  0  0  # atno 17320 bound_to 7965
  144.9031  140.7667  143.5854 LP  0  0  0  0  0  0  0  0  0  0  0  0  # atno 17321 bound_to 7965
  139.6666  144.7662  151.1862 LP  0  0  0  0  0  0  0  0  0  0  0  0  # atno 17342 bound_to 10162
  140.7597  143.5929  150.8778 LP  0  0  0  0  0  0  0  0  0  0  0  0  # atno 17343 bound_to 10162
  156.8433  130.5055  149.5319 LP  0  0  0  0  0  0  0  0  0  0  0  0  # atno 17370 bound_to 10713
  156.0958  130.5931  150.9810 LP  0  0  0  0  0  0  0  0  0  0  0  0  # atno 17371 bound_to 10713
  141.0601  133.6846  156.1935 LP  0  0  0  0  0  0  0  0  0  0  0  0  # atno 17394 bound_to 11000
  140.6675  134.4903  157.5586 LP  0  0  0  0  0  0  0  0  0  0  0  0  # atno 17395 bound_to 11000

$$$$
