AV-unprocessed.smi:1757|AV-procd|sdf|7077|dock10
  -GOLD-   22720 8293D 1   1.00000     0.00000
 Structure written by MMmdl.
 39 40  0  0  0  0  0  0  0  0  3 V2000
  144.9629  136.0668  151.4766 C   0  0  0  0  0  0  0  0  0  0  0  0
  146.0378  136.9350  152.0027 N   0  3  2  0  0  0  0  0  0  0  0  0
  145.9527  137.1106  153.4741 C   0  0  0  0  0  0  0  0  0  0  0  0
  147.1540  137.9102  154.0059 C   0  0  0  0  0  0  0  0  0  0  0  0
  147.2748  139.2695  153.2971 C   0  0  1  0  0  0  0  0  0  0  0  0
  148.4851  139.9571  153.7397 N   0  0  0  0  0  0  0  0  0  0  0  0
  148.9305  140.0319  155.0024 C   0  0  0  0  0  0  0  0  0  0  0  0
  148.3513  139.5133  155.9567 O   0  0  0  0  0  0  0  0  0  0  0  0
  150.0627  140.7557  155.0650 N   0  0  0  0  0  0  0  0  0  0  0  0
  150.8692  141.0524  156.1768 C   0  0  0  0  0  0  0  0  0  0  0  0
  150.8334  142.2237  156.8706 C   0  0  0  0  0  0  0  0  0  0  0  0
  151.6849  142.4686  158.0282 C   0  0  0  0  0  0  0  0  0  0  0  0
  151.6988  143.7618  158.8224 C   0  0  0  0  0  0  0  0  0  0  0  0
  152.1048  144.7704  158.0519 F   0  0  0  0  0  0  0  0  0  0  0  0
  150.4732  144.0462  159.2616 F   0  0  0  0  0  0  0  0  0  0  0  0
  152.5145  143.6806  159.8736 F   0  0  0  0  0  0  0  0  0  0  0  0
  152.4935  141.3893  158.3242 C   0  0  0  0  0  0  0  0  0  0  0  0
  152.5805  140.1945  157.6994 N   0  5  0  0  0  0  0  0  0  0  0  0
  151.7840  139.9774  156.6147 C   0  0  0  0  0  0  0  0  0  0  0  0
  151.8115  138.9118  155.9977 O   0  0  0  0  0  0  0  0  0  0  0  0
  147.3170  139.0612  151.7738 C   0  0  0  0  0  0  0  0  0  0  0  0
  146.1129  138.2351  151.2910 C   0  0  0  0  0  0  0  0  0  0  0  0
  143.9823  136.5176  151.6364 H   0  0  0  0  0  0  0  0  0  0  0  0
  144.9774  135.0942  151.9695 H   0  0  0  0  0  0  0  0  0  0  0  0
  145.0923  135.8988  150.4068 H   0  0  0  0  0  0  0  0  0  0  0  0
  145.0209  137.6186  153.7283 H   0  0  0  0  0  0  0  0  0  0  0  0
  145.9239  136.1336  153.9580 H   0  0  0  0  0  0  0  0  0  0  0  0
  147.0518  138.0577  155.0819 H   0  0  0  0  0  0  0  0  0  0  0  0
  148.0668  137.3311  153.8584 H   0  0  0  0  0  0  0  0  0  0  0  0
  146.3883  139.8591  153.5379 H   0  0  0  0  0  0  0  0  0  0  0  0
  149.0294  140.4199  153.0263 H   0  0  0  0  0  0  0  0  0  0  0  0
  150.3722  141.1844  154.2050 H   0  0  0  0  0  0  0  0  0  0  0  0
  150.1489  143.0076  156.5916 H   0  0  0  0  0  0  0  0  0  0  0  0
  153.1731  141.5063  159.1955 H   0  0  0  0  0  0  0  0  0  0  0  0
  147.3306  140.0258  151.2647 H   0  0  0  0  0  0  0  0  0  0  0  0
  148.2401  138.5511  151.4938 H   0  0  0  0  0  0  0  0  0  0  0  0
  146.1998  138.0598  150.2180 H   0  0  0  0  0  0  0  0  0  0  0  0
  145.1877  138.7922  151.4476 H   0  0  0  0  0  0  0  0  0  0  0  0
  146.9077  136.4555  151.8198 H   0  0  0  0  0  0  0  0  0  0  0  0
  1  2  1  0  0  0  0
  1 23  1  0  0  0  0
  1 24  1  0  0  0  0
  1 25  1  0  0  0  0
  2 22  1  0  0  0  0
  2  3  1  0  0  0  0
  2 39  1  0  0  0  0
  3  4  1  0  0  0  0
  3 26  1  0  0  0  0
  3 27  1  0  0  0  0
  4  5  1  0  0  0  0
  4 28  1  0  0  0  0
  4 29  1  0  0  0  0
  5  6  1  0  0  0  0
  5 21  1  0  0  0  0
  5 30  1  0  0  0  0
  6  7  1  0  0  0  0
  6 31  1  0  0  0  0
  7  8  2  0  0  0  0
  7  9  1  0  0  0  0
  9 10  1  0  0  0  0
  9 32  1  0  0  0  0
 10 19  1  0  0  0  0
 10 11  2  0  0  0  0
 11 12  1  0  0  0  0
 11 33  1  0  0  0  0
 12 13  1  0  0  0  0
 12 17  2  0  0  0  0
 13 14  1  0  0  0  0
 13 15  1  0  0  0  0
 13 16  1  0  0  0  0
 17 18  1  0  0  0  0
 17 34  1  0  0  0  0
 18 19  1  0  0  0  0
 19 20  2  0  0  0  0
 21 22  1  0  0  0  0
 21 35  1  0  0  0  0
 21 36  1  0  0  0  0
 22 37  1  0  0  0  0
 22 38  1  0  0  0  0
M  CHG  1   2   1
M  CHG  1  18  -1
M  END
> <s_m_source_file>
AV-unprocessed.smi

> <i_m_source_file_index>
1757

> <i_lp_mmshare_version>
43012

> <i_f3d_flags>
0

> <s_epik_input>
W0NIM11OMVtDSDJdW0NIMl1bQ0hdKFtDSDJdW0NIMl0xKVtOSF1DKD1PKVtOSF1jMltjSF1jKEMoRikoRilGKVtjSF1bbkhdYzI9Tw==

> <s_epik_cmdline>
J2VwaWtfcHl0aG9uJywgJy1waCcsICc3LjAnLCAnLXRuJywgJzgnLCAnLW1hJywgJzIwMCcsICctbWV0YWxfYmluZGluZycsICctaW1hZScsICc8aW5maWxlLm1hZT4nLCAnLW9tYWUnLCAnPG91dGZpbGUubWFlPic=

> <r_lp_tautomer_probability>
1

> <r_epik_Ionization_Penalty>
3.04759

> <r_epik_Ionization_Penalty_Charging>
0.155898

> <r_epik_Ionization_Penalty_Neutral>
2.89169

> <r_epik_State_Penalty>
2.88714

> <r_epik_Charging_Adjusted_Penalty>
3.04304

> <i_epik_Tot_Q>
0

> <i_epik_Tot_abs_Q>
2

> <r_epik_Metal_State_Penalty>
0.445786

> <b_epik_Metal_Only>
1

> <s_lp_Force_Field>
OPLS_2005

> <r_lp_Energy>
29.3736

> <b_lp_Chiralities_Consistent>
1

> <s_lp_Variant>
AV-unprocessed.smi:1757-3

> <Gold.Version>
5.8.1

> <Gold.Id.Protein>
6NUR|6NUR_protein|mol2

> <Gold.PLP.Fitness>
48.4535

> <Gold.PLP.PLP>
-36.2829

> <Gold.PLP.part.hbond>
-3.0000

> <Gold.PLP.part.metal>
0.0000

> <Gold.PLP.part.buried>
4.2244

> <Gold.PLP.part.nonpolar>
-36.9570

> <Gold.PLP.part.repulsive>
0.9150

> <Gold.PLP.ligand.clash>
0.0000

> <Gold.PLP.ligand.torsion>
0.9964

> <Gold.PLP.Chemscore.Hbond>
4.7200

> <Gold.PLP.Chemscore.CHOScore>
0.0000

> <Gold.PLP.Chemscore.Metal>
0.0000

> <Gold.Chemscore.Hbonds>
donor molecule, donor type, donor heavy atom, donor atom, acceptor molecule, acceptor atom, score
      L1  H     2    39       P1  7948  1.98
      L1  H     6    31       P1  7957  0.75
      P1  H  7997  8009       L1    18  1.85

> <Gold.PLP.Chemscore.Internal.Correction>
0.0034

> <Gold.Rescore>
     Score         DG    S(hbond)    S(metal)    S(lipo)     H(rot)  DE(clash)    DE(int)     intcor
     13.58     -19.85       2.08        0.00      85.23       1.00       3.73       2.55       ----

> <Gold.Chemscore.Fitness>
13.5753

> <Gold.Chemscore.DG>
-19.8548

> <Gold.Chemscore.ZeroCoef>
-5.4800

> <Gold.Chemscore.Hbond>
2.0848

> <Gold.Chemscore.Metal>
0.0000

> <Gold.Chemscore.Lipo>
85.2281

> <Gold.Chemscore.Internal_Hbond>
0.0000

> <Gold.Chemscore.DEClash>
3.7341

> <Gold.Chemscore.DEInternal>
2.5455

> <Gold.Chemscore.Rot>
1.0000

> <Gold.Chemscore.Internal.Correction>
   9.000000E+99

> <Gold.Chemscore.Hbonds>
donor molecule, donor type, donor heavy atom, donor atom, acceptor molecule, acceptor atom, score
      L1  H     2    39       P1  7948  0.91
      L1  H     6    31       P1  7957  0.71
      P1  H  7997  8009       L1    18  0.14

> <Gold.Chemscore.Hbond.Weighted>
-6.9632

> <Gold.Chemscore.Metal.Weighted>
-0.0000

> <Gold.Chemscore.Lipo.Weighted>
-9.9717

> <Gold.Chemscore.Internal_Hbond.Weighted>
0.0000

> <Gold.Chemscore.DEClash.Weighted>
3.7341

> <Gold.Chemscore.DEInternal.Weighted>
2.5455

> <Gold.Chemscore.Rot.Weighted>
2.5600

> <Gold.Chemscore.Internal.Correction.Weighted>
   9.000000E+99

> <Gold.Protein.RotatedTorsions>
[ 6907 6896 6895 6894 ] final  -72.95 input  -60.11 | X-H torsion
[ 7974 7965 7964 7962 ] final -145.47 input  175.53 | X-H torsion
[ 8008 7997 7996 7995 ] final  171.10 input   59.86 | X-H torsion
[ 10167 10162 10161 10158 ] final   11.74 input  -65.29 | X-H torsion
[ 10718 10713 10712 10709 ] final   88.49 input   66.30 | X-H torsion
[ 10763 10752 10751 10750 ] final   80.64 input  -60.55 | X-H torsion
[ 11005 11000 10999 10996 ] final   73.29 input  -57.11 | X-H torsion

> <Gold.Protein.ActiveResidues>
 VAL166  LYS551  ARG553  GLY616  TRP617  ASP618  TYR619  PRO620  LYS621  CYS622 
 ASP623  PHE694  ASN695  SER759  ASP760  ASP761  ALA762  ILE779  LEU786  VAL792 
 PHE793  MET794  SER795  GLU796  ALA797  LYS798  CYS799  TRP800  GLU811  SER814 

> <Gold.Protein.RotatedAtoms>
  150.7149  134.5088  159.5596 H   0  0  0  0  0  0  0  0  0  0  0  0  # atno 6907 bound_to 6896
  152.2669  134.7971  160.0430 H   0  0  0  0  0  0  0  0  0  0  0  0  # atno 6908 bound_to 6896
  151.8665  133.3432  159.3757 H   0  0  0  0  0  0  0  0  0  0  0  0  # atno 6909 bound_to 6896
  144.8225  140.5579  143.5569 H   0  0  0  0  0  0  0  0  0  0  0  0  # atno 7974 bound_to 7965
  156.1303  140.1520  156.9075 H   0  0  0  0  0  0  0  0  0  0  0  0  # atno 8008 bound_to 7997
  154.4904  140.0853  156.7620 H   0  0  0  0  0  0  0  0  0  0  0  0  # atno 8009 bound_to 7997
  155.4268  140.3425  155.4278 H   0  0  0  0  0  0  0  0  0  0  0  0  # atno 8010 bound_to 7997
  140.6112  143.8403  150.7068 H   0  0  0  0  0  0  0  0  0  0  0  0  # atno 10167 bound_to 10162
  157.6949  131.0296  150.3282 H   0  0  0  0  0  0  0  0  0  0  0  0  # atno 10718 bound_to 10713
  153.1050  135.4795  154.8934 H   0  0  0  0  0  0  0  0  0  0  0  0  # atno 10763 bound_to 10752
  154.7420  135.3084  154.8714 H   0  0  0  0  0  0  0  0  0  0  0  0  # atno 10764 bound_to 10752
  153.9319  135.6843  153.4799 H   0  0  0  0  0  0  0  0  0  0  0  0  # atno 10765 bound_to 10752
  139.9448  134.7334  156.1008 H   0  0  0  0  0  0  0  0  0  0  0  0  # atno 11005 bound_to 11000
  145.5073  139.1480  143.3624 LP  0  0  0  0  0  0  0  0  0  0  0  0  # atno 17320 bound_to 7965
  146.2530  140.5213  142.8885 LP  0  0  0  0  0  0  0  0  0  0  0  0  # atno 17321 bound_to 7965
  140.1972  143.3988  152.1819 LP  0  0  0  0  0  0  0  0  0  0  0  0  # atno 17342 bound_to 10162
  139.5363  144.7212  151.4883 LP  0  0  0  0  0  0  0  0  0  0  0  0  # atno 17343 bound_to 10162
  156.3759  130.3872  149.7139 LP  0  0  0  0  0  0  0  0  0  0  0  0  # atno 17370 bound_to 10713
  156.4538  130.7919  151.2940 LP  0  0  0  0  0  0  0  0  0  0  0  0  # atno 17371 bound_to 10713
  141.1094  133.6648  156.2942 LP  0  0  0  0  0  0  0  0  0  0  0  0  # atno 17394 bound_to 11000
  140.5863  134.5695  157.5490 LP  0  0  0  0  0  0  0  0  0  0  0  0  # atno 17395 bound_to 11000

$$$$
