AV-unprocessed.smi:2478|AV-procd|sdf|9765|dock9
  -GOLD-   2272013413D 1   1.00000     0.00000
 Structure written by MMmdl.
 42 43  0  0  0  0  0  0  0  0  1 V2000
  154.0129  140.6376  160.4919 C   0  0  0  0  0  0  0  0  0  0  0  0
  153.6574  142.1177  160.7027 C   0  0  2  0  0  0  0  0  0  0  0  0
  153.0534  142.3662  162.0996 C   0  0  0  0  0  0  0  0  0  0  0  0
  152.7300  143.8528  162.3182 C   0  0  0  0  0  0  0  0  0  0  0  0
  151.8003  144.3887  161.2192 C   0  0  0  0  0  0  0  0  0  0  0  0
  152.3914  144.1452  159.8200 C   0  0  0  0  0  0  0  0  0  0  0  0
  152.7313  142.6610  159.5904 C   0  0  2  0  0  0  0  0  0  0  0  0
  151.5139  141.9270  159.5948 O   0  0  0  0  0  0  0  0  0  0  0  0
  150.5566  142.3620  158.6388 C   0  0  0  0  0  0  0  0  0  0  0  0
  150.8222  141.6639  157.3044 C   0  0  0  0  0  0  0  0  0  0  0  0
  150.9804  142.3423  156.2898 O   0  0  0  0  0  0  0  0  0  0  0  0
  150.8782  140.3196  157.3455 N   0  0  0  0  0  0  0  0  0  0  0  0
  151.0910  139.4016  156.2834 C   0  0  0  0  0  0  0  0  0  0  0  0
  151.9611  138.3641  156.3616 N   0  0  0  0  0  0  0  0  0  0  0  0
  152.1002  137.5390  155.3041 C   0  0  0  0  0  0  0  0  0  0  0  0
  151.3793  137.6954  154.1075 C   0  0  0  0  0  0  0  0  0  0  0  0
  150.4737  138.7663  154.0141 C   0  0  0  0  0  0  0  0  0  0  0  0
  150.3268  139.6433  155.1145 C   0  0  0  0  0  0  0  0  0  0  0  0
  149.4455  140.7018  155.0913 O   0  0  0  0  0  0  0  0  0  0  0  0
  148.6088  140.8314  154.0282 C   0  0  0  0  0  0  0  0  0  0  0  0
  147.6582  139.8654  154.0534 F   0  0  0  0  0  0  0  0  0  0  0  0
  147.9795  142.0301  154.0832 F   0  0  0  0  0  0  0  0  0  0  0  0
  153.1300  140.0011  160.5603 H   0  0  0  0  0  0  0  0  0  0  0  0
  154.7256  140.2957  161.2429 H   0  0  0  0  0  0  0  0  0  0  0  0
  154.4645  140.4776  159.5125 H   0  0  0  0  0  0  0  0  0  0  0  0
  154.5921  142.6777  160.6475 H   0  0  0  0  0  0  0  0  0  0  0  0
  152.1455  141.7740  162.2219 H   0  0  0  0  0  0  0  0  0  0  0  0
  153.7460  142.0279  162.8709 H   0  0  0  0  0  0  0  0  0  0  0  0
  152.2681  143.9923  163.2960 H   0  0  0  0  0  0  0  0  0  0  0  0
  153.6550  144.4307  162.3273 H   0  0  0  0  0  0  0  0  0  0  0  0
  150.8263  143.9041  161.2974 H   0  0  0  0  0  0  0  0  0  0  0  0
  151.6256  145.4546  161.3677 H   0  0  0  0  0  0  0  0  0  0  0  0
  151.6937  144.4905  159.0563 H   0  0  0  0  0  0  0  0  0  0  0  0
  153.2954  144.7442  159.7030 H   0  0  0  0  0  0  0  0  0  0  0  0
  153.2404  142.5695  158.6287 H   0  0  0  0  0  0  0  0  0  0  0  0
  149.5480  142.1302  158.9846 H   0  0  0  0  0  0  0  0  0  0  0  0
  150.6250  143.4407  158.4912 H   0  0  0  0  0  0  0  0  0  0  0  0
  150.7207  139.9016  158.2513 H   0  0  0  0  0  0  0  0  0  0  0  0
  152.8054  136.7289  155.4164 H   0  0  0  0  0  0  0  0  0  0  0  0
  151.5155  137.0101  153.2841 H   0  0  0  0  0  0  0  0  0  0  0  0
  149.9002  138.9040  153.1095 H   0  0  0  0  0  0  0  0  0  0  0  0
  149.1485  140.7803  153.0820 H   0  0  0  0  0  0  0  0  0  0  0  0
  1  2  1  0  0  0  0
  1 23  1  0  0  0  0
  1 24  1  0  0  0  0
  1 25  1  0  0  0  0
  2  7  1  0  0  0  0
  2  3  1  0  0  0  0
  2 26  1  0  0  0  0
  3  4  1  0  0  0  0
  3 27  1  0  0  0  0
  3 28  1  0  0  0  0
  4  5  1  0  0  0  0
  4 29  1  0  0  0  0
  4 30  1  0  0  0  0
  5  6  1  0  0  0  0
  5 31  1  0  0  0  0
  5 32  1  0  0  0  0
  6  7  1  0  0  0  0
  6 33  1  0  0  0  0
  6 34  1  0  0  0  0
  7  8  1  0  0  0  0
  7 35  1  0  0  0  0
  8  9  1  0  0  0  0
  9 10  1  0  0  0  0
  9 36  1  0  0  0  0
  9 37  1  0  0  0  0
 10 11  2  0  0  0  0
 10 12  1  0  0  0  0
 12 13  1  0  0  0  0
 12 38  1  0  0  0  0
 13 18  1  0  0  0  0
 13 14  2  0  0  0  0
 14 15  1  0  0  0  0
 15 16  2  0  0  0  0
 15 39  1  0  0  0  0
 16 17  1  0  0  0  0
 16 40  1  0  0  0  0
 17 18  2  0  0  0  0
 17 41  1  0  0  0  0
 18 19  1  0  0  0  0
 19 20  1  0  0  0  0
 20 21  1  0  0  0  0
 20 22  1  0  0  0  0
 20 42  1  0  0  0  0
M  END
> <s_m_source_file>
AV-unprocessed.smi

> <i_m_source_file_index>
2478

> <i_lp_mmshare_version>
43012

> <i_f3d_flags>
0

> <s_epik_input>
W0NIM11bQ0BASF0xW0NIMl1bQ0gyXVtDSDJdW0NIMl1bQ0BIXTFPW0NIMl1DKD1PKVtOSF1jMm5bY0hdW2NIXVtjSF1jMk9bQ0hdKEYpRg==

> <s_epik_cmdline>
J2VwaWtfcHl0aG9uJywgJy1waCcsICc3LjAnLCAnLXRuJywgJzgnLCAnLW1hJywgJzIwMCcsICctbWV0YWxfYmluZGluZycsICctaW1hZScsICc8aW5maWxlLm1hZT4nLCAnLW9tYWUnLCAnPG91dGZpbGUubWFlPic=

> <r_lp_tautomer_probability>
1

> <r_epik_Ionization_Penalty>
6.06012e-05

> <r_epik_Ionization_Penalty_Charging>
0

> <r_epik_Ionization_Penalty_Neutral>
6.06012e-05

> <r_epik_State_Penalty>
-0

> <r_epik_Charging_Adjusted_Penalty>
0

> <i_epik_Tot_Q>
0

> <i_epik_Tot_abs_Q>
0

> <r_epik_Metal_State_Penalty>
-0

> <b_epik_Metal_Only>
0

> <s_lp_Force_Field>
OPLS_2005

> <r_lp_Energy>
14.1885

> <b_lp_Chiralities_Consistent>
1

> <s_lp_Variant>
AV-unprocessed.smi:2478-3

> <Gold.Version>
5.8.1

> <Gold.Id.Protein>
6NUR|6NUR_protein|mol2

> <Gold.PLP.Fitness>
45.9500

> <Gold.PLP.PLP>
-47.2415

> <Gold.PLP.part.hbond>
-0.3398

> <Gold.PLP.part.metal>
0.0000

> <Gold.PLP.part.buried>
-1.1515

> <Gold.PLP.part.nonpolar>
-43.6054

> <Gold.PLP.part.repulsive>
0.2328

> <Gold.PLP.ligand.clash>
0.0000

> <Gold.PLP.ligand.torsion>
0.6807

> <Gold.PLP.Chemscore.Hbond>
0.0000

> <Gold.PLP.Chemscore.CHOScore>
0.0000

> <Gold.PLP.Chemscore.Metal>
0.0000

> <Gold.PLP.Chemscore.Internal.Correction>
0.0699

> <Gold.Rescore>
     Score         DG    S(hbond)    S(metal)    S(lipo)     H(rot)  DE(clash)    DE(int)     intcor
     11.56     -15.13       0.00        0.00     122.94       1.85       0.11       3.46       ----

> <Gold.Chemscore.Fitness>
11.5635

> <Gold.Chemscore.DG>
-15.1331

> <Gold.Chemscore.ZeroCoef>
-5.4800

> <Gold.Chemscore.Hbond>
0.0000

> <Gold.Chemscore.Metal>
0.0000

> <Gold.Chemscore.Lipo>
122.9422

> <Gold.Chemscore.Internal_Hbond>
0.0000

> <Gold.Chemscore.DEClash>
0.1091

> <Gold.Chemscore.DEInternal>
3.4606

> <Gold.Chemscore.Rot>
1.8481

> <Gold.Chemscore.Internal.Correction>
   9.000000E+99

> <Gold.Chemscore.Hbond.Weighted>
-0.0000

> <Gold.Chemscore.Metal.Weighted>
-0.0000

> <Gold.Chemscore.Lipo.Weighted>
-14.3842

> <Gold.Chemscore.Internal_Hbond.Weighted>
0.0000

> <Gold.Chemscore.DEClash.Weighted>
0.1091

> <Gold.Chemscore.DEInternal.Weighted>
3.4606

> <Gold.Chemscore.Rot.Weighted>
4.7311

> <Gold.Chemscore.Internal.Correction.Weighted>
   9.000000E+99

> <Gold.Protein.RotatedTorsions>
[ 6907 6896 6895 6894 ] final   28.28 input  -60.11 | X-H torsion
[ 7974 7965 7964 7962 ] final  -37.78 input  175.53 | X-H torsion
[ 8008 7997 7996 7995 ] final  147.87 input   59.86 | X-H torsion
[ 10167 10162 10161 10158 ] final  -47.89 input  -65.29 | X-H torsion
[ 10718 10713 10712 10709 ] final   54.16 input   66.30 | X-H torsion
[ 10763 10752 10751 10750 ] final  178.72 input  -60.55 | X-H torsion
[ 11005 11000 10999 10996 ] final   22.73 input  -57.11 | X-H torsion

> <Gold.Protein.ActiveResidues>
 VAL166  LYS551  ARG553  GLY616  TRP617  ASP618  TYR619  PRO620  LYS621  CYS622 
 ASP623  PHE694  ASN695  SER759  ASP760  ASP761  ALA762  ILE779  LEU786  VAL792 
 PHE793  MET794  SER795  GLU796  ALA797  LYS798  CYS799  TRP800  GLU811  SER814 

> <Gold.Protein.RotatedAtoms>
  152.0146  134.9857  160.0568 H   0  0  0  0  0  0  0  0  0  0  0  0  # atno 6907 bound_to 6896
  152.1396  133.4451  159.4768 H   0  0  0  0  0  0  0  0  0  0  0  0  # atno 6908 bound_to 6896
  150.6864  134.2240  159.4451 H   0  0  0  0  0  0  0  0  0  0  0  0  # atno 6909 bound_to 6896
  146.0545  140.6435  142.9026 H   0  0  0  0  0  0  0  0  0  0  0  0  # atno 7974 bound_to 7965
  156.2810  140.2144  156.5608 H   0  0  0  0  0  0  0  0  0  0  0  0  # atno 8008 bound_to 7997
  154.7215  140.0503  157.0666 H   0  0  0  0  0  0  0  0  0  0  0  0  # atno 8009 bound_to 7997
  155.0472  140.3152  155.4707 H   0  0  0  0  0  0  0  0  0  0  0  0  # atno 8010 bound_to 7997
  140.6755  143.2764  151.3991 H   0  0  0  0  0  0  0  0  0  0  0  0  # atno 10167 bound_to 10162
  157.5232  130.8579  149.8587 H   0  0  0  0  0  0  0  0  0  0  0  0  # atno 10718 bound_to 10713
  154.5113  135.2788  155.1340 H   0  0  0  0  0  0  0  0  0  0  0  0  # atno 10763 bound_to 10752
  154.2934  135.6262  153.5398 H   0  0  0  0  0  0  0  0  0  0  0  0  # atno 10764 bound_to 10752
  152.9919  135.5679  154.5579 H   0  0  0  0  0  0  0  0  0  0  0  0  # atno 10765 bound_to 10752
  140.3773  134.1958  155.7664 H   0  0  0  0  0  0  0  0  0  0  0  0  # atno 11005 bound_to 11000
  144.7140  140.4144  143.7058 LP  0  0  0  0  0  0  0  0  0  0  0  0  # atno 17320 bound_to 7965
  145.6667  139.1591  143.2777 LP  0  0  0  0  0  0  0  0  0  0  0  0  # atno 17321 bound_to 7965
  139.6046  144.1225  152.2235 LP  0  0  0  0  0  0  0  0  0  0  0  0  # atno 17342 bound_to 10162
  140.0620  144.5849  150.7256 LP  0  0  0  0  0  0  0  0  0  0  0  0  # atno 17343 bound_to 10162
  156.0368  130.3749  150.1538 LP  0  0  0  0  0  0  0  0  0  0  0  0  # atno 17370 bound_to 10713
  156.9726  130.9839  151.3455 LP  0  0  0  0  0  0  0  0  0  0  0  0  # atno 17371 bound_to 10713
  141.1935  133.8149  157.0796 LP  0  0  0  0  0  0  0  0  0  0  0  0  # atno 17394 bound_to 11000
  140.0505  134.9808  157.1128 LP  0  0  0  0  0  0  0  0  0  0  0  0  # atno 17395 bound_to 11000

$$$$
