AV-unprocessed.smi:1974|AV-procd|sdf|7980|dock7
  -GOLD-   2272010163D 1   1.00000     0.00000
 Structure written by MMmdl.
 34 35  0  0  0  0  0  0  0  0  1 V2000
  153.4906  141.6869  161.5964 C   0  0  0  0  0  0  0  0  0  0  0  0
  153.5384  141.2739  160.1170 C   0  0  2  0  0  0  0  0  0  0  0  0
  152.3333  141.8350  159.3375 C   0  0  0  0  0  0  0  0  0  0  0  0
  152.1663  143.2652  159.5256 N   0  0  0  0  0  0  0  0  0  0  0  0
  151.7209  143.9370  160.6448 C   0  0  0  0  0  0  0  0  0  0  0  0
  151.7323  145.2701  160.3496 C   0  0  0  0  0  0  0  0  0  0  0  0
  152.2084  145.3153  159.0094 C   0  0  0  0  0  0  0  0  0  0  0  0
  152.4682  144.1139  158.5194 N   0  0  0  0  0  0  0  0  0  0  0  0
  153.5704  139.8165  160.0093 N   0  0  0  0  0  0  0  0  0  0  0  0
  154.3814  139.0026  160.7017 C   0  0  0  0  0  0  0  0  0  0  0  0
  155.2185  139.4079  161.5092 O   0  0  0  0  0  0  0  0  0  0  0  0
  154.2319  137.5032  160.4184 C   0  0  0  0  0  0  0  0  0  0  0  0
  154.2305  136.6977  161.6399 N   0  0  0  0  0  0  0  0  0  0  0  0
  154.0550  137.3569  162.9272 C   0  0  0  0  0  0  0  0  0  0  0  0
  153.6988  136.2832  163.9572 C   0  0  0  0  0  0  0  0  0  0  0  0
  154.3232  134.7070  163.3408 S   0  0  0  0  0  0  0  0  0  0  0  0
  154.4462  135.3260  161.6597 C   0  0  0  0  0  0  0  0  0  0  0  0
  154.6876  134.5905  160.7041 O   0  0  0  0  0  0  0  0  0  0  0  0
  153.4802  142.7722  161.6994 H   0  0  0  0  0  0  0  0  0  0  0  0
  154.3604  141.3163  162.1399 H   0  0  0  0  0  0  0  0  0  0  0  0
  152.5991  141.2972  162.0889 H   0  0  0  0  0  0  0  0  0  0  0  0
  154.4492  141.6884  159.6800 H   0  0  0  0  0  0  0  0  0  0  0  0
  152.4369  141.6312  158.2707 H   0  0  0  0  0  0  0  0  0  0  0  0
  151.4143  141.3428  159.6593 H   0  0  0  0  0  0  0  0  0  0  0  0
  151.4345  143.4160  161.5465 H   0  0  0  0  0  0  0  0  0  0  0  0
  151.4450  146.0889  160.9927 H   0  0  0  0  0  0  0  0  0  0  0  0
  152.3723  146.1794  158.3825 H   0  0  0  0  0  0  0  0  0  0  0  0
  152.9195  139.3949  159.3628 H   0  0  0  0  0  0  0  0  0  0  0  0
  153.3099  137.3193  159.8636 H   0  0  0  0  0  0  0  0  0  0  0  0
  155.0498  137.1901  159.7684 H   0  0  0  0  0  0  0  0  0  0  0  0
  154.9935  137.8435  163.1959 H   0  0  0  0  0  0  0  0  0  0  0  0
  153.2839  138.1269  162.8781 H   0  0  0  0  0  0  0  0  0  0  0  0
  154.1015  136.5084  164.9450 H   0  0  0  0  0  0  0  0  0  0  0  0
  152.6153  136.2016  164.0498 H   0  0  0  0  0  0  0  0  0  0  0  0
  1  2  1  0  0  0  0
  1 19  1  0  0  0  0
  1 20  1  0  0  0  0
  1 21  1  0  0  0  0
  2  3  1  0  0  0  0
  2  9  1  0  0  0  0
  2 22  1  0  0  0  0
  3  4  1  0  0  0  0
  3 23  1  0  0  0  0
  3 24  1  0  0  0  0
  4  8  1  0  0  0  0
  4  5  1  0  0  0  0
  5  6  2  0  0  0  0
  5 25  1  0  0  0  0
  6  7  1  0  0  0  0
  6 26  1  0  0  0  0
  7  8  2  0  0  0  0
  7 27  1  0  0  0  0
  9 10  1  0  0  0  0
  9 28  1  0  0  0  0
 10 11  2  0  0  0  0
 10 12  1  0  0  0  0
 12 13  1  0  0  0  0
 12 29  1  0  0  0  0
 12 30  1  0  0  0  0
 13 17  1  0  0  0  0
 13 14  1  0  0  0  0
 14 15  1  0  0  0  0
 14 31  1  0  0  0  0
 14 32  1  0  0  0  0
 15 16  1  0  0  0  0
 15 33  1  0  0  0  0
 15 34  1  0  0  0  0
 16 17  1  0  0  0  0
 17 18  2  0  0  0  0
M  END
> <s_m_source_file>
AV-unprocessed.smi

> <i_m_source_file_index>
1974

> <i_lp_mmshare_version>
43012

> <i_f3d_flags>
0

> <s_epik_input>
bjFbY0hdW2NIXVtjSF1uMVtDSDJdW0NAQEhdKFtDSDNdKVtOSF1DKD1PKVtDSDJdTjJbQ0gyXVtDSDJdU0MyPU8=

> <s_epik_cmdline>
J2VwaWtfcHl0aG9uJywgJy1waCcsICc3LjAnLCAnLXRuJywgJzgnLCAnLW1hJywgJzIwMCcsICctbWV0YWxfYmluZGluZycsICctaW1hZScsICc8aW5maWxlLm1hZT4nLCAnLW9tYWUnLCAnPG91dGZpbGUubWFlPic=

> <r_lp_tautomer_probability>
1

> <r_epik_Ionization_Penalty>
0.000283364

> <r_epik_Ionization_Penalty_Charging>
0

> <r_epik_Ionization_Penalty_Neutral>
0.000283364

> <r_epik_State_Penalty>
-0

> <r_epik_Charging_Adjusted_Penalty>
0

> <i_epik_Tot_Q>
0

> <i_epik_Tot_abs_Q>
0

> <r_epik_Metal_State_Penalty>
-0

> <b_epik_Metal_Only>
0

> <s_lp_Force_Field>
OPLS_2005

> <r_lp_Energy>
2.8686

> <b_lp_Chiralities_Consistent>
1

> <s_lp_Variant>
AV-unprocessed.smi:1974-1

> <Gold.Version>
5.8.1

> <Gold.Id.Protein>
6NUR|6NUR_protein|mol2

> <Gold.PLP.Fitness>
44.5766

> <Gold.PLP.PLP>
-44.4886

> <Gold.PLP.part.hbond>
-0.5276

> <Gold.PLP.part.metal>
0.0000

> <Gold.PLP.part.buried>
-6.0299

> <Gold.PLP.part.nonpolar>
-37.7509

> <Gold.PLP.part.repulsive>
0.0968

> <Gold.PLP.ligand.clash>
0.0000

> <Gold.PLP.ligand.torsion>
0.6604

> <Gold.PLP.Chemscore.Hbond>
0.4550

> <Gold.PLP.Chemscore.CHOScore>
0.0000

> <Gold.PLP.Chemscore.Metal>
0.0000

> <Gold.Chemscore.Hbonds>
donor molecule, donor type, donor heavy atom, donor atom, acceptor molecule, acceptor atom, score
      P1  H  6896  6909       L1    18  0.42

> <Gold.PLP.Chemscore.Internal.Correction>
0.0439

> <Gold.Rescore>
     Score         DG    S(hbond)    S(metal)    S(lipo)     H(rot)  DE(clash)    DE(int)     intcor
      7.84     -12.00       0.00        0.00     100.38       2.04       0.01       4.15       ----

> <Gold.Chemscore.Fitness>
7.8381

> <Gold.Chemscore.DG>
-12.0011

> <Gold.Chemscore.ZeroCoef>
-5.4800

> <Gold.Chemscore.Hbond>
0.0000

> <Gold.Chemscore.Metal>
0.0000

> <Gold.Chemscore.Lipo>
100.3834

> <Gold.Chemscore.Internal_Hbond>
0.0000

> <Gold.Chemscore.DEClash>
0.0096

> <Gold.Chemscore.DEInternal>
4.1534

> <Gold.Chemscore.Rot>
2.0405

> <Gold.Chemscore.Internal.Correction>
   9.000000E+99

> <Gold.Chemscore.Hbonds>
donor molecule, donor type, donor heavy atom, donor atom, acceptor molecule, acceptor atom, score
      P1  H  6896  6909       L1    18  0.08

> <Gold.Chemscore.Hbond.Weighted>
-0.0000

> <Gold.Chemscore.Metal.Weighted>
-0.0000

> <Gold.Chemscore.Lipo.Weighted>
-11.7449

> <Gold.Chemscore.Internal_Hbond.Weighted>
0.0000

> <Gold.Chemscore.DEClash.Weighted>
0.0096

> <Gold.Chemscore.DEInternal.Weighted>
4.1534

> <Gold.Chemscore.Rot.Weighted>
5.2237

> <Gold.Chemscore.Internal.Correction.Weighted>
   9.000000E+99

> <Gold.Protein.RotatedTorsions>
[ 6907 6896 6895 6894 ] final -161.84 input  -60.11 | X-H torsion
[ 7974 7965 7964 7962 ] final   -8.45 input  175.53 | X-H torsion
[ 8008 7997 7996 7995 ] final  173.18 input   59.86 | X-H torsion
[ 10167 10162 10161 10158 ] final -124.87 input  -65.29 | X-H torsion
[ 10718 10713 10712 10709 ] final  101.64 input   66.30 | X-H torsion
[ 10763 10752 10751 10750 ] final  -78.71 input  -60.55 | X-H torsion
[ 11005 11000 10999 10996 ] final -121.68 input  -57.11 | X-H torsion

> <Gold.Protein.ActiveResidues>
 VAL166  LYS551  ARG553  GLY616  TRP617  ASP618  TYR619  PRO620  LYS621  CYS622 
 ASP623  PHE694  ASN695  SER759  ASP760  ASP761  ALA762  ILE779  LEU786  VAL792 
 PHE793  MET794  SER795  GLU796  ALA797  LYS798  CYS799  TRP800  GLU811  SER814 

> <Gold.Protein.RotatedAtoms>
  151.3709  133.3855  159.2699 H   0  0  0  0  0  0  0  0  0  0  0  0  # atno 6907 bound_to 6896
  150.9651  134.9034  159.7765 H   0  0  0  0  0  0  0  0  0  0  0  0  # atno 6908 bound_to 6896
  152.5164  134.3670  159.9357 H   0  0  0  0  0  0  0  0  0  0  0  0  # atno 6909 bound_to 6896
  146.2280  140.2470  142.8346 H   0  0  0  0  0  0  0  0  0  0  0  0  # atno 7974 bound_to 7965
  156.1101  140.1466  156.9351 H   0  0  0  0  0  0  0  0  0  0  0  0  # atno 8008 bound_to 7997
  154.4761  140.0894  156.7308 H   0  0  0  0  0  0  0  0  0  0  0  0  # atno 8009 bound_to 7997
  155.4612  140.3438  155.4315 H   0  0  0  0  0  0  0  0  0  0  0  0  # atno 8010 bound_to 7997
  139.9881  143.5670  152.2352 H   0  0  0  0  0  0  0  0  0  0  0  0  # atno 10167 bound_to 10162
  157.6824  131.0731  150.5283 H   0  0  0  0  0  0  0  0  0  0  0  0  # atno 10718 bound_to 10713
  154.5294  135.5720  153.6746 H   0  0  0  0  0  0  0  0  0  0  0  0  # atno 10763 bound_to 10752
  152.9936  135.6201  154.2649 H   0  0  0  0  0  0  0  0  0  0  0  0  # atno 10764 bound_to 10752
  154.2574  135.2857  155.2771 H   0  0  0  0  0  0  0  0  0  0  0  0  # atno 10765 bound_to 10752
  141.0052  134.0345  157.3486 H   0  0  0  0  0  0  0  0  0  0  0  0  # atno 11005 bound_to 11000
  144.9441  140.8109  143.5612 LP  0  0  0  0  0  0  0  0  0  0  0  0  # atno 17320 bound_to 7965
  145.2424  139.2066  143.4985 LP  0  0  0  0  0  0  0  0  0  0  0  0  # atno 17321 bound_to 7965
  139.6360  144.7650  151.2437 LP  0  0  0  0  0  0  0  0  0  0  0  0  # atno 17342 bound_to 10162
  140.7465  143.6398  150.8346 LP  0  0  0  0  0  0  0  0  0  0  0  0  # atno 17343 bound_to 10162
  156.5593  130.4251  149.6070 LP  0  0  0  0  0  0  0  0  0  0  0  0  # atno 17370 bound_to 10713
  156.2834  130.7084  151.1914 LP  0  0  0  0  0  0  0  0  0  0  0  0  # atno 17371 bound_to 10713
  139.9059  135.0179  156.7484 LP  0  0  0  0  0  0  0  0  0  0  0  0  # atno 17394 bound_to 11000
  140.6825  133.9462  155.7918 LP  0  0  0  0  0  0  0  0  0  0  0  0  # atno 17395 bound_to 11000

$$$$
