AV-unprocessed.smi:1744|AV-procd|sdf|7027|dock8
  -GOLD-   22720 8243D 1   1.00000     0.00000
 Structure written by MMmdl.
 43 44  0  0  0  0  0  0  0  0  3 V2000
  150.7355  141.9070  156.4340 C   0  0  0  0  0  0  0  0  0  0  0  0
  151.5422  140.7543  157.0442 C   0  0  0  0  0  0  0  0  0  0  0  0
  151.5470  139.5859  156.1853 N   0  0  0  0  0  0  0  0  0  0  0  0
  150.4748  138.8071  155.7979 C   0  0  0  0  0  0  0  0  0  0  0  0
  150.9912  137.8385  154.9910 C   0  0  0  0  0  0  0  0  0  0  0  0
  150.2336  136.8149  154.3695 N   0  0  0  0  0  0  0  0  0  0  0  0
  149.9106  135.6174  154.8835 C   0  0  0  0  0  0  0  0  0  0  0  0
  150.2433  135.2111  155.9967 O   0  0  0  0  0  0  0  0  0  0  0  0
  149.1781  134.8990  154.0205 N   0  0  0  0  0  0  0  0  0  0  0  0
  148.6813  133.5473  154.2605 C   0  0  2  0  0  0  0  0  0  0  0  0
  149.8183  132.5178  154.1269 C   0  0  0  0  0  0  0  0  0  0  0  0
  149.2891  131.0807  154.2619 C   0  0  0  0  0  0  0  0  0  0  0  0
  148.2168  130.8096  153.2718 N   0  3  1  0  0  0  0  0  0  0  0  0
  147.7911  129.3868  153.2734 C   0  0  0  0  0  0  0  0  0  0  0  0
  146.6811  129.1514  152.2434 C   0  0  0  0  0  0  0  0  0  0  0  0
  147.0736  129.4454  150.9872 N   0  5  0  0  0  0  0  0  0  0  0  0
  145.5842  128.7417  152.6156 O   0  0  0  0  0  0  0  0  0  0  0  0
  147.0853  131.7645  153.4153 C   0  0  0  0  0  0  0  0  0  0  0  0
  147.5652  133.2165  153.2565 C   0  0  0  0  0  0  0  0  0  0  0  0
  152.3922  138.0847  154.9354 C   0  0  0  0  0  0  0  0  0  0  0  0
  152.7174  139.1435  155.6620 N   0  0  0  0  0  0  0  0  0  0  0  0
  150.7190  142.7665  157.1044 H   0  0  0  0  0  0  0  0  0  0  0  0
  149.7033  141.6092  156.2481 H   0  0  0  0  0  0  0  0  0  0  0  0
  151.1665  142.2335  155.4871 H   0  0  0  0  0  0  0  0  0  0  0  0
  152.5730  141.0638  157.2224 H   0  0  0  0  0  0  0  0  0  0  0  0
  151.1234  140.4743  158.0113 H   0  0  0  0  0  0  0  0  0  0  0  0
  149.4639  139.0086  156.1199 H   0  0  0  0  0  0  0  0  0  0  0  0
  149.9133  137.0114  153.4326 H   0  0  0  0  0  0  0  0  0  0  0  0
  148.9542  135.3146  153.1280 H   0  0  0  0  0  0  0  0  0  0  0  0
  148.2639  133.4893  155.2679 H   0  0  0  0  0  0  0  0  0  0  0  0
  150.3096  132.6312  153.1593 H   0  0  0  0  0  0  0  0  0  0  0  0
  150.5826  132.6986  154.8838 H   0  0  0  0  0  0  0  0  0  0  0  0
  150.1132  130.3822  154.1126 H   0  0  0  0  0  0  0  0  0  0  0  0
  148.9067  130.9116  155.2697 H   0  0  0  0  0  0  0  0  0  0  0  0
  148.6304  128.7372  153.0187 H   0  0  0  0  0  0  0  0  0  0  0  0
  147.4603  129.0905  154.2702 H   0  0  0  0  0  0  0  0  0  0  0  0
  148.0374  129.7606  150.8259 H   0  0  0  0  0  0  0  0  0  0  0  0
  146.3202  131.5605  152.6658 H   0  0  0  0  0  0  0  0  0  0  0  0
  146.6143  131.6290  154.3901 H   0  0  0  0  0  0  0  0  0  0  0  0
  146.7251  133.8988  153.3927 H   0  0  0  0  0  0  0  0  0  0  0  0
  147.9238  133.3670  152.2370 H   0  0  0  0  0  0  0  0  0  0  0  0
  153.1716  137.5510  154.4122 H   0  0  0  0  0  0  0  0  0  0  0  0
  148.6215  130.9661  152.3592 H   0  0  0  0  0  0  0  0  0  0  0  0
  1  2  1  0  0  0  0
  1 22  1  0  0  0  0
  1 23  1  0  0  0  0
  1 24  1  0  0  0  0
  2  3  1  0  0  0  0
  2 25  1  0  0  0  0
  2 26  1  0  0  0  0
  3 21  1  0  0  0  0
  3  4  1  0  0  0  0
  4  5  2  0  0  0  0
  4 27  1  0  0  0  0
  5  6  1  0  0  0  0
  5 20  1  0  0  0  0
  6  7  1  0  0  0  0
  6 28  1  0  0  0  0
  7  8  2  0  0  0  0
  7  9  1  0  0  0  0
  9 10  1  0  0  0  0
  9 29  1  0  0  0  0
 10 19  1  0  0  0  0
 10 11  1  0  0  0  0
 10 30  1  0  0  0  0
 11 12  1  0  0  0  0
 11 31  1  0  0  0  0
 11 32  1  0  0  0  0
 12 13  1  0  0  0  0
 12 33  1  0  0  0  0
 12 34  1  0  0  0  0
 13 14  1  0  0  0  0
 13 18  1  0  0  0  0
 13 43  1  0  0  0  0
 14 15  1  0  0  0  0
 14 35  1  0  0  0  0
 14 36  1  0  0  0  0
 15 16  1  0  0  0  0
 15 17  2  0  0  0  0
 16 37  1  0  0  0  0
 18 19  1  0  0  0  0
 18 38  1  0  0  0  0
 18 39  1  0  0  0  0
 19 40  1  0  0  0  0
 19 41  1  0  0  0  0
 20 21  2  0  0  0  0
 20 42  1  0  0  0  0
M  CHG  1  13   1
M  CHG  1  16  -1
M  END
> <s_m_source_file>
AV-unprocessed.smi

> <i_m_source_file_index>
1744

> <i_lp_mmshare_version>
43012

> <i_f3d_flags>
0

> <s_epik_input>
W0NIM11bQ0gyXW4xW2NIXWMoW2NIXW4xKVtOSF1DKD1PKVtOSF1bQ0hdMltDSDJdW0NIMl1OKFtDSDJdW0NIMl0yKVtDSDJdQyg9TylbTkgyXQ==

> <s_epik_cmdline>
J2VwaWtfcHl0aG9uJywgJy1waCcsICc3LjAnLCAnLXRuJywgJzgnLCAnLW1hJywgJzIwMCcsICctbWV0YWxfYmluZGluZycsICctaW1hZScsICc8aW5maWxlLm1hZT4nLCAnLW9tYWUnLCAnPG91dGZpbGUubWFlPic=

> <r_lp_tautomer_probability>
1

> <r_epik_Ionization_Penalty>
5.72895

> <r_epik_Ionization_Penalty_Charging>
5.7288

> <r_epik_Ionization_Penalty_Neutral>
0.000148676

> <r_epik_State_Penalty>
6.54882

> <r_epik_Charging_Adjusted_Penalty>
12.2776

> <i_epik_Tot_Q>
0

> <i_epik_Tot_abs_Q>
2

> <r_epik_Metal_State_Penalty>
2.51309

> <b_epik_Metal_Only>
1

> <s_lp_Force_Field>
OPLS_2005

> <r_lp_Energy>
12.1226

> <b_lp_Chiralities_Consistent>
1

> <s_lp_Variant>
AV-unprocessed.smi:1744-4

> <Gold.Version>
5.8.1

> <Gold.Id.Protein>
6NUR|6NUR_protein|mol2

> <Gold.PLP.Fitness>
45.6415

> <Gold.PLP.PLP>
-33.6109

> <Gold.PLP.part.hbond>
-5.1539

> <Gold.PLP.part.metal>
0.0000

> <Gold.PLP.part.buried>
-4.7581

> <Gold.PLP.part.nonpolar>
-24.8061

> <Gold.PLP.part.repulsive>
0.2410

> <Gold.PLP.ligand.clash>
0.0000

> <Gold.PLP.ligand.torsion>
0.9821

> <Gold.PLP.Chemscore.Hbond>
4.6512

> <Gold.PLP.Chemscore.CHOScore>
0.0000

> <Gold.PLP.Chemscore.Metal>
0.0000

> <Gold.Chemscore.Hbonds>
donor molecule, donor type, donor heavy atom, donor atom, acceptor molecule, acceptor atom, score
      L1  H     6    28       P1  7948  0.88
      L1  H     9    29       P1  7948  0.99
      L1  H    13    43       P1 10747  0.84
      L1  H    16    37       P1 10747  0.93
      P1  H  7997  8008       L1    21  1.00

> <Gold.PLP.Chemscore.Internal.Correction>
0.0412

> <Gold.Rescore>
     Score         DG    S(hbond)    S(metal)    S(lipo)     H(rot)  DE(clash)    DE(int)     intcor
     19.04     -20.25       3.90        0.00      62.75       2.18       0.11       1.10       ----

> <Gold.Chemscore.Fitness>
19.0435

> <Gold.Chemscore.DG>
-20.2521

> <Gold.Chemscore.ZeroCoef>
-5.4800

> <Gold.Chemscore.Hbond>
3.8980

> <Gold.Chemscore.Metal>
0.0000

> <Gold.Chemscore.Lipo>
62.7505

> <Gold.Chemscore.Internal_Hbond>
0.0000

> <Gold.Chemscore.DEClash>
0.1057

> <Gold.Chemscore.DEInternal>
1.1029

> <Gold.Chemscore.Rot>
2.1833

> <Gold.Chemscore.Internal.Correction>
   9.000000E+99

> <Gold.Chemscore.Hbonds>
donor molecule, donor type, donor heavy atom, donor atom, acceptor molecule, acceptor atom, score
      L1  H     6    28       P1  7948  0.30
      L1  H     9    29       P1  7948  0.41
      L1  H    13    43       P1 10747  0.70
      L1  H    16    37       P1 10747  0.72
      P1  H  7997  8008       L1    21  0.92

> <Gold.Chemscore.Hbond.Weighted>
-13.0195

> <Gold.Chemscore.Metal.Weighted>
-0.0000

> <Gold.Chemscore.Lipo.Weighted>
-7.3418

> <Gold.Chemscore.Internal_Hbond.Weighted>
0.0000

> <Gold.Chemscore.DEClash.Weighted>
0.1057

> <Gold.Chemscore.DEInternal.Weighted>
1.1029

> <Gold.Chemscore.Rot.Weighted>
5.5892

> <Gold.Chemscore.Internal.Correction.Weighted>
   9.000000E+99

> <Gold.Protein.RotatedTorsions>
[ 6907 6896 6895 6894 ] final -145.22 input  -60.11 | X-H torsion
[ 7974 7965 7964 7962 ] final  121.46 input  175.53 | X-H torsion
[ 8008 7997 7996 7995 ] final  -34.27 input   59.86 | X-H torsion
[ 10167 10162 10161 10158 ] final   26.71 input  -65.29 | X-H torsion
[ 10718 10713 10712 10709 ] final   55.75 input   66.30 | X-H torsion
[ 10763 10752 10751 10750 ] final -148.08 input  -60.55 | X-H torsion
[ 11005 11000 10999 10996 ] final    4.38 input  -57.11 | X-H torsion

> <Gold.Protein.ActiveResidues>
 VAL166  LYS551  ARG553  GLY616  TRP617  ASP618  TYR619  PRO620  LYS621  CYS622 
 ASP623  PHE694  ASN695  SER759  ASP760  ASP761  ALA762  ILE779  LEU786  VAL792 
 PHE793  MET794  SER795  GLU796  ALA797  LYS798  CYS799  TRP800  GLU811  SER814 

> <Gold.Protein.RotatedAtoms>
  151.1248  133.5078  159.2600 H   0  0  0  0  0  0  0  0  0  0  0  0  # atno 6907 bound_to 6896
  151.1822  135.0365  159.8807 H   0  0  0  0  0  0  0  0  0  0  0  0  # atno 6908 bound_to 6896
  152.5457  134.1099  159.8407 H   0  0  0  0  0  0  0  0  0  0  0  0  # atno 6909 bound_to 6896
  145.1190  139.3401  143.4724 H   0  0  0  0  0  0  0  0  0  0  0  0  # atno 7974 bound_to 7965
  154.4125  140.1688  156.2023 H   0  0  0  0  0  0  0  0  0  0  0  0  # atno 8008 bound_to 7997
  155.9513  140.3400  155.6387 H   0  0  0  0  0  0  0  0  0  0  0  0  # atno 8009 bound_to 7997
  155.6866  140.0729  157.2455 H   0  0  0  0  0  0  0  0  0  0  0  0  # atno 8010 bound_to 7997
  140.4999  144.0331  150.6329 H   0  0  0  0  0  0  0  0  0  0  0  0  # atno 10167 bound_to 10162
  157.5372  130.8671  149.8770 H   0  0  0  0  0  0  0  0  0  0  0  0  # atno 10718 bound_to 10713
  154.8252  135.3344  154.6917 H   0  0  0  0  0  0  0  0  0  0  0  0  # atno 10763 bound_to 10752
  153.7544  135.6937  153.4943 H   0  0  0  0  0  0  0  0  0  0  0  0  # atno 10764 bound_to 10752
  153.2154  135.4467  155.0378 H   0  0  0  0  0  0  0  0  0  0  0  0  # atno 10765 bound_to 10752
  140.5826  133.9999  155.8054 H   0  0  0  0  0  0  0  0  0  0  0  0  # atno 11005 bound_to 11000
  146.3522  140.1141  142.8602 LP  0  0  0  0  0  0  0  0  0  0  0  0  # atno 17320 bound_to 7965
  145.0761  140.9189  143.4853 LP  0  0  0  0  0  0  0  0  0  0  0  0  # atno 17321 bound_to 7965
  140.3624  143.2900  152.0369 LP  0  0  0  0  0  0  0  0  0  0  0  0  # atno 17342 bound_to 10162
  139.4870  144.6293  151.7103 LP  0  0  0  0  0  0  0  0  0  0  0  0  # atno 17343 bound_to 10162
  156.0468  130.3726  150.1298 LP  0  0  0  0  0  0  0  0  0  0  0  0  # atno 17370 bound_to 10713
  156.9480  130.9765  151.3503 LP  0  0  0  0  0  0  0  0  0  0  0  0  # atno 17371 bound_to 10713
  141.0987  133.9803  157.3117 LP  0  0  0  0  0  0  0  0  0  0  0  0  # atno 17394 bound_to 11000
  139.9310  135.0200  156.8401 LP  0  0  0  0  0  0  0  0  0  0  0  0  # atno 17395 bound_to 11000

$$$$
