AV-unprocessed.smi:3333|AV-procd|sdf|12832|dock2
  -GOLD-   2272019213D 1   1.00000     0.00000
 Structure written by MMmdl.
 41 43  0  0  0  0  0  0  0  0  1 V2000
  151.5360  145.0324  159.5789 C   0  0  0  0  0  0  0  0  0  0  0  0
  151.1360  144.0766  160.7080 C   0  0  0  0  0  0  0  0  0  0  0  0
  152.2420  143.1519  161.0930 C   0  0  0  0  0  0  0  0  0  0  0  0
  152.8750  142.3600  160.2237 N   0  0  0  0  0  0  0  0  0  0  0  0
  153.8399  141.5509  160.8331 C   0  0  0  0  0  0  0  0  0  0  0  0
  154.6434  140.5879  160.0043 C   0  0  0  0  0  0  0  0  0  0  0  0
  153.7714  139.4656  159.4266 C   0  0  0  0  0  0  0  0  0  0  0  0
  154.0492  138.2805  159.6174 O   0  0  0  0  0  0  0  0  0  0  0  0
  152.7019  139.8594  158.7182 N   0  0  0  0  0  0  0  0  0  0  0  0
  151.7446  138.9618  158.0806 C   0  0  0  0  0  0  0  0  0  0  0  0
  152.1826  138.5645  156.6547 C   0  0  1  0  0  0  0  0  0  0  0  0
  151.3858  137.3901  156.0497 C   0  0  0  0  0  0  0  0  0  0  0  0
  150.9789  137.9291  154.6652 C   0  0  1  0  0  0  0  0  0  0  0  0
  149.8617  138.9740  154.8396 C   0  0  0  0  0  0  0  0  0  0  0  0
  150.6156  140.1779  155.4337 C   0  0  0  0  0  0  0  0  0  0  0  0
  152.0602  139.6512  155.5585 C   0  0  2  0  0  0  0  0  0  0  0  0
  152.1723  138.8037  154.2948 C   0  0  0  0  0  0  0  0  0  0  0  0
  153.9340  141.7508  162.1886 C   0  0  0  0  0  0  0  0  0  0  0  0
  152.7951  142.9433  162.7507 S   0  0  0  0  0  0  0  0  0  0  0  0
  150.7084  145.6913  159.3158 H   0  0  0  0  0  0  0  0  0  0  0  0
  151.8240  144.4833  158.6819 H   0  0  0  0  0  0  0  0  0  0  0  0
  152.3792  145.6577  159.8744 H   0  0  0  0  0  0  0  0  0  0  0  0
  150.8289  144.6457  161.5863 H   0  0  0  0  0  0  0  0  0  0  0  0
  150.2736  143.4829  160.4033 H   0  0  0  0  0  0  0  0  0  0  0  0
  155.1316  141.1050  159.1775 H   0  0  0  0  0  0  0  0  0  0  0  0
  155.4397  140.1489  160.6071 H   0  0  0  0  0  0  0  0  0  0  0  0
  152.5398  140.8504  158.6119 H   0  0  0  0  0  0  0  0  0  0  0  0
  151.6152  138.0670  158.6914 H   0  0  0  0  0  0  0  0  0  0  0  0
  150.7709  139.4508  158.0676 H   0  0  0  0  0  0  0  0  0  0  0  0
  153.2307  138.2634  156.7027 H   0  0  0  0  0  0  0  0  0  0  0  0
  152.0201  136.5076  155.9550 H   0  0  0  0  0  0  0  0  0  0  0  0
  150.5180  137.1100  156.6485 H   0  0  0  0  0  0  0  0  0  0  0  0
  150.7368  137.1471  153.9452 H   0  0  0  0  0  0  0  0  0  0  0  0
  149.4185  139.2361  153.8780 H   0  0  0  0  0  0  0  0  0  0  0  0
  149.0620  138.6200  155.4913 H   0  0  0  0  0  0  0  0  0  0  0  0
  150.5789  141.0218  154.7435 H   0  0  0  0  0  0  0  0  0  0  0  0
  150.1941  140.5173  156.3789 H   0  0  0  0  0  0  0  0  0  0  0  0
  152.8074  140.4410  155.6415 H   0  0  0  0  0  0  0  0  0  0  0  0
  153.1097  138.2491  154.2238 H   0  0  0  0  0  0  0  0  0  0  0  0
  152.0234  139.3728  153.3752 H   0  0  0  0  0  0  0  0  0  0  0  0
  154.5923  141.2600  162.8900 H   0  0  0  0  0  0  0  0  0  0  0  0
  1  2  1  0  0  0  0
  1 20  1  0  0  0  0
  1 21  1  0  0  0  0
  1 22  1  0  0  0  0
  2  3  1  0  0  0  0
  2 23  1  0  0  0  0
  2 24  1  0  0  0  0
  3 19  1  0  0  0  0
  3  4  2  0  0  0  0
  4  5  1  0  0  0  0
  5  6  1  0  0  0  0
  5 18  2  0  0  0  0
  6  7  1  0  0  0  0
  6 25  1  0  0  0  0
  6 26  1  0  0  0  0
  7  8  2  0  0  0  0
  7  9  1  0  0  0  0
  9 10  1  0  0  0  0
  9 27  1  0  0  0  0
 10 11  1  0  0  0  0
 10 28  1  0  0  0  0
 10 29  1  0  0  0  0
 11 16  1  0  0  0  0
 11 12  1  0  0  0  0
 11 30  1  0  0  0  0
 12 13  1  0  0  0  0
 12 31  1  0  0  0  0
 12 32  1  0  0  0  0
 13 17  1  0  0  0  0
 13 14  1  0  0  0  0
 13 33  1  0  0  0  0
 14 15  1  0  0  0  0
 14 34  1  0  0  0  0
 14 35  1  0  0  0  0
 15 16  1  0  0  0  0
 15 36  1  0  0  0  0
 15 37  1  0  0  0  0
 16 17  1  0  0  0  0
 16 38  1  0  0  0  0
 17 39  1  0  0  0  0
 17 40  1  0  0  0  0
 18 19  1  0  0  0  0
 18 41  1  0  0  0  0
M  END
> <s_m_source_file>
AV-unprocessed.smi

> <i_m_source_file_index>
3333

> <i_lp_mmshare_version>
43012

> <i_f3d_flags>
0

> <s_epik_input>
W0NIM11bQ0gyXWMxbmMoW2NIXXMxKVtDSDJdQyg9TylbTkhdW0NIMl1bQ0BIXShbQ0gyXVtDQEBIXTIzKVtDQEBIXShbQ0gyXTMpW0NIMl1bQ0gyXTI=

> <s_epik_cmdline>
J2VwaWtfcHl0aG9uJywgJy1waCcsICc3LjAnLCAnLXRuJywgJzgnLCAnLW1hJywgJzIwMCcsICctbWV0YWxfYmluZGluZycsICctaW1hZScsICc8aW5maWxlLm1hZT4nLCAnLW9tYWUnLCAnPG91dGZpbGUubWFlPic=

> <r_lp_tautomer_probability>
1

> <r_epik_Ionization_Penalty>
6.68371e-05

> <r_epik_Ionization_Penalty_Charging>
0

> <r_epik_Ionization_Penalty_Neutral>
6.68371e-05

> <r_epik_State_Penalty>
-0

> <r_epik_Charging_Adjusted_Penalty>
0

> <i_epik_Tot_Q>
0

> <i_epik_Tot_abs_Q>
0

> <r_epik_Metal_State_Penalty>
-0

> <b_epik_Metal_Only>
0

> <s_lp_Force_Field>
OPLS_2005

> <r_lp_Energy>
44.5958

> <b_lp_Chiralities_Consistent>
1

> <s_lp_Variant>
AV-unprocessed.smi:3333-2

> <Gold.Version>
5.8.1

> <Gold.Id.Protein>
6NUR|6NUR_protein|mol2

> <Gold.PLP.Fitness>
45.1443

> <Gold.PLP.PLP>
-45.8581

> <Gold.PLP.part.hbond>
0.0000

> <Gold.PLP.part.metal>
0.0000

> <Gold.PLP.part.buried>
-5.0082

> <Gold.PLP.part.nonpolar>
-40.0666

> <Gold.PLP.part.repulsive>
0.1010

> <Gold.PLP.ligand.clash>
0.0000

> <Gold.PLP.ligand.torsion>
0.3866

> <Gold.PLP.Chemscore.Hbond>
0.0000

> <Gold.PLP.Chemscore.CHOScore>
0.0000

> <Gold.PLP.Chemscore.Metal>
0.0000

> <Gold.PLP.Chemscore.Internal.Correction>
0.0593

> <Gold.Rescore>
     Score         DG    S(hbond)    S(metal)    S(lipo)     H(rot)  DE(clash)    DE(int)     intcor
     15.63     -17.01       0.00        0.00     129.67       1.42       1.10       0.28       ----

> <Gold.Chemscore.Fitness>
15.6283

> <Gold.Chemscore.DG>
-17.0090

> <Gold.Chemscore.ZeroCoef>
-5.4800

> <Gold.Chemscore.Hbond>
0.0000

> <Gold.Chemscore.Metal>
0.0000

> <Gold.Chemscore.Lipo>
129.6673

> <Gold.Chemscore.Internal_Hbond>
0.0000

> <Gold.Chemscore.DEClash>
1.0984

> <Gold.Chemscore.DEInternal>
0.2823

> <Gold.Chemscore.Rot>
1.4227

> <Gold.Chemscore.Internal.Correction>
   9.000000E+99

> <Gold.Chemscore.Hbond.Weighted>
-0.0000

> <Gold.Chemscore.Metal.Weighted>
-0.0000

> <Gold.Chemscore.Lipo.Weighted>
-15.1711

> <Gold.Chemscore.Internal_Hbond.Weighted>
0.0000

> <Gold.Chemscore.DEClash.Weighted>
1.0984

> <Gold.Chemscore.DEInternal.Weighted>
0.2823

> <Gold.Chemscore.Rot.Weighted>
3.6421

> <Gold.Chemscore.Internal.Correction.Weighted>
   9.000000E+99

> <Gold.Protein.RotatedTorsions>
[ 6907 6896 6895 6894 ] final   45.27 input  -60.11 | X-H torsion
[ 7974 7965 7964 7962 ] final -173.28 input  175.53 | X-H torsion
[ 8008 7997 7996 7995 ] final   98.18 input   59.86 | X-H torsion
[ 10167 10162 10161 10158 ] final  149.47 input  -65.29 | X-H torsion
[ 10718 10713 10712 10709 ] final   37.55 input   66.30 | X-H torsion
[ 10763 10752 10751 10750 ] final  -15.23 input  -60.55 | X-H torsion
[ 11005 11000 10999 10996 ] final  117.42 input  -57.11 | X-H torsion

> <Gold.Protein.ActiveResidues>
 VAL166  LYS551  ARG553  GLY616  TRP617  ASP618  TYR619  PRO620  LYS621  CYS622 
 ASP623  PHE694  ASN695  SER759  ASP760  ASP761  ALA762  ILE779  LEU786  VAL792 
 PHE793  MET794  SER795  GLU796  ALA797  LYS798  CYS799  TRP800  GLU811  SER814 

> <Gold.Protein.RotatedAtoms>
  152.2426  134.8213  160.0457 H   0  0  0  0  0  0  0  0  0  0  0  0  # atno 6907 bound_to 6896
  151.8923  133.3513  159.3810 H   0  0  0  0  0  0  0  0  0  0  0  0  # atno 6908 bound_to 6896
  150.7058  134.4838  159.5527 H   0  0  0  0  0  0  0  0  0  0  0  0  # atno 6909 bound_to 6896
  144.7139  140.1646  143.6373 H   0  0  0  0  0  0  0  0  0  0  0  0  # atno 7974 bound_to 7965
  156.0978  140.3247  155.7901 H   0  0  0  0  0  0  0  0  0  0  0  0  # atno 8008 bound_to 7997
  155.4888  140.0560  157.2974 H   0  0  0  0  0  0  0  0  0  0  0  0  # atno 8009 bound_to 7997
  154.4677  140.1997  156.0089 H   0  0  0  0  0  0  0  0  0  0  0  0  # atno 8010 bound_to 7997
  139.4861  144.5599  151.7250 H   0  0  0  0  0  0  0  0  0  0  0  0  # atno 10167 bound_to 10162
  157.3483  130.7585  149.6960 H   0  0  0  0  0  0  0  0  0  0  0  0  # atno 10718 bound_to 10713
  153.5402  135.7013  153.5640 H   0  0  0  0  0  0  0  0  0  0  0  0  # atno 10763 bound_to 10752
  153.3609  135.3970  155.1718 H   0  0  0  0  0  0  0  0  0  0  0  0  # atno 10764 bound_to 10752
  154.8674  135.3788  154.4906 H   0  0  0  0  0  0  0  0  0  0  0  0  # atno 10765 bound_to 10752
  139.9074  134.9610  156.7347 H   0  0  0  0  0  0  0  0  0  0  0  0  # atno 11005 bound_to 11000
  145.8999  139.2424  143.1499 LP  0  0  0  0  0  0  0  0  0  0  0  0  # atno 17320 bound_to 7965
  145.9820  140.8674  143.0109 LP  0  0  0  0  0  0  0  0  0  0  0  0  # atno 17321 bound_to 7965
  140.5167  144.0942  150.6010 LP  0  0  0  0  0  0  0  0  0  0  0  0  # atno 17342 bound_to 10162
  140.3886  143.2764  152.0086 LP  0  0  0  0  0  0  0  0  0  0  0  0  # atno 17343 bound_to 10162
  155.9717  130.4148  150.4149 LP  0  0  0  0  0  0  0  0  0  0  0  0  # atno 17370 bound_to 10713
  157.2208  131.0482  151.2547 LP  0  0  0  0  0  0  0  0  0  0  0  0  # atno 17371 bound_to 10713
  140.6897  133.9401  155.7959 LP  0  0  0  0  0  0  0  0  0  0  0  0  # atno 17394 bound_to 11000
  141.0451  134.0566  157.3854 LP  0  0  0  0  0  0  0  0  0  0  0  0  # atno 17395 bound_to 11000

$$$$
