#       Name:                AV-unprocessed.smi:1432
#       Creating user name   scv26
#       Creation time:       Fri Mar 27 05:49:06 2020


#       File generated by GOLD software.
#

@<TRIPOS>MOLECULE
AV-unprocessed.smi:1432
    51    52     1
SMALL
NO_CHARGES


@<TRIPOS>ATOM
      1 ****        -2.7233   1.2169   1.7183 C.3            1 S1                 0.0000
      2 ****        -2.9999   1.2670   0.2021 C.3            1 S1                 0.0000
      3 ****        -4.5258   1.3350  -0.0287 C.3            1 S1                 0.0000
      4 ****        -4.8814   1.3638  -1.5183 C.3            1 S1                 0.0000
      5 ****        -4.2606   0.1509  -2.2135 C.3            1 S1                 0.0000
      6 ****        -2.7434   0.1189  -1.9824 C.3            1 S1                 0.0000
      7 ****        -2.4007   0.1081  -0.5337 N.4            1 S1                 1.0000
      8 ****        -0.9359  -0.0579  -0.3258 C.3            1 S1                 0.0000
      9 ****        -0.6349  -1.2292   0.6205 C.3            1 S1                 0.0000
     10 ****         0.8000  -1.3630   0.8249 N.am           1 S1                 0.0000
     11 ****         1.3929  -2.4149   1.4124 C.2            1 S1                 0.0000
     12 ****         0.7602  -3.3859   1.8245 O.2            1 S1                 0.0000
     13 ****         2.9227  -2.3933   1.5784 C.3            1 S1                 0.0000
     14 ****         3.5693  -1.1165   1.2241 N.am           1 S1                 0.0000
     15 ****         4.0724  -0.9948  -0.0861 C.2            1 S1                 0.0000
     16 ****         4.6915   0.1142  -0.5336 C.2            1 S1                 0.0000
     17 ****         5.1653   0.2353  -1.9737 C.3            1 S1                 0.0000
     18 ****         5.2338   1.5114  -2.3532 F              1 S1                 0.0000
     19 ****         6.3775  -0.3027  -2.0993 F              1 S1                 0.0000
     20 ****         4.3394  -0.4040  -2.8030 F              1 S1                 0.0000
     21 ****         4.7991   1.2156   0.4033 C.2            1 S1                 0.0000
     22 ****         4.3104   1.1211   1.6554 C.2            1 S1                 0.0000
     23 ****         3.6491  -0.0962   2.1304 C.2            1 S1                 0.0000
     24 ****         3.1872  -0.1899   3.2675 O.2            1 S1                 0.0000
     25 ****        -3.2119   2.0477   2.2281 H              1 S1                 0.0000
     26 ****        -1.6618   1.2909   1.9523 H              1 S1                 0.0000
     27 ****        -3.1021   0.2949   2.1606 H              1 S1                 0.0000
     28 ****        -2.5537   2.1805  -0.1952 H              1 S1                 0.0000
     29 ****        -5.0083   0.4758   0.4400 H              1 S1                 0.0000
     30 ****        -4.9382   2.2200   0.4575 H              1 S1                 0.0000
     31 ****        -5.9640   1.3614  -1.6483 H              1 S1                 0.0000
     32 ****        -4.5119   2.2844  -1.9721 H              1 S1                 0.0000
     33 ****        -4.7124  -0.7666  -1.8338 H              1 S1                 0.0000
     34 ****        -4.4748   0.1836  -3.2821 H              1 S1                 0.0000
     35 ****        -2.3342  -0.7727  -2.4600 H              1 S1                 0.0000
     36 ****        -2.2743   0.9800  -2.4612 H              1 S1                 0.0000
     37 ****        -0.4366  -0.2574  -1.2756 H              1 S1                 0.0000
     38 ****        -0.4877   0.8672   0.0391 H              1 S1                 0.0000
     39 ****        -1.1129  -1.0840   1.5892 H              1 S1                 0.0000
     40 ****        -1.0359  -2.1535   0.2007 H              1 S1                 0.0000
     41 ****         1.3847  -0.6017   0.5115 H              1 S1                 0.0000
     42 ****         3.1636  -2.6658   2.6076 H              1 S1                 0.0000
     43 ****         3.3367  -3.2012   0.9733 H              1 S1                 0.0000
     44 ****         3.9120  -1.8616  -0.7112 H              1 S1                 0.0000
     45 ****         5.2840   2.1317   0.0992 H              1 S1                 0.0000
     46 ****         4.4103   1.9611   2.3273 H              1 S1                 0.0000
     47 ****        -2.8335  -0.7229  -0.1563 H              1 S1                 0.0000
     48 ****        -0.2348  -3.4121   1.7277 LP             1 S1                 0.0000
     49 ****         1.2407  -4.1492   2.2563 LP             1 S1                 0.0000
     50 ****         2.7346  -1.0339   3.5554 LP             1 S1                 0.0000
     51 ****         3.2644   0.5780   3.9034 LP             1 S1                 0.0000
@<TRIPOS>BOND
    1    1    2 1     
    2    1   25 1     
    3    1   26 1     
    4    1   27 1     
    5    2    7 1     
    6    2    3 1     
    7    2   28 1     
    8    3    4 1     
    9    3   29 1     
   10    3   30 1     
   11    4    5 1     
   12    4   31 1     
   13    4   32 1     
   14    5    6 1     
   15    5   33 1     
   16    5   34 1     
   17    6    7 1     
   18    6   35 1     
   19    6   36 1     
   20    7    8 1     
   21    7   47 1     
   22    8    9 1     
   23    8   37 1     
   24    8   38 1     
   25    9   10 1     
   26    9   39 1     
   27    9   40 1     
   28   10   11 am    
   29   10   41 1     
   30   11   12 2     
   31   11   13 1     
   32   13   14 1     
   33   13   42 1     
   34   13   43 1     
   35   14   23 am    
   36   14   15 1     
   37   15   16 2     
   38   15   44 1     
   39   16   17 1     
   40   16   21 1     
   41   17   18 1     
   42   17   19 1     
   43   17   20 1     
   44   21   22 2     
   45   21   45 1     
   46   22   23 1     
   47   22   46 1     
   48   23   24 2     
   49   12   48 1     
   50   12   49 1     
   51   24   50 1     
   52   24   51 1     
@<TRIPOS>SUBSTRUCTURE
      1 S1             1
@<TRIPOS>SET
LONE_PAIRS      STATIC     ATOMS    <user>   **** ""
4 48 49 50 51
DONOR_HYDROGENS      STATIC     ATOMS    <user>   **** ""
2 47 41
ATOM$BLUE        STATIC     ATOMS    COLORGROUP SYSTEM
4 48 49 50 51
ATOM$RED        STATIC     ATOMS    COLORGROUP SYSTEM
2 47 41
