#       Name:                AV-unprocessed.smi:1925
#       Creating user name   scv26
#       Creation time:       Fri Mar 27 09:53:41 2020


#       File generated by GOLD software.
#

@<TRIPOS>MOLECULE
AV-unprocessed.smi:1925
    36    37     1
SMALL
NO_CHARGES


@<TRIPOS>ATOM
      1 ****         0.3585   1.5308   0.7403 O.2            1 S1                 0.0000
      2 ****        -0.2000   0.4385   0.8475 C.2            1 S1                 0.0000
      3 ****         0.4626  -0.7202   0.9741 N.am           1 S1                 0.0000
      4 ****         1.9152  -0.8574   1.0006 C.3            1 S1                 0.0000
      5 ****         2.5349  -0.7640  -0.4071 C.3            1 S1                 0.0000
      6 ****         2.0506  -1.8190  -1.3912 C.3            1 S1                 0.0000
      7 ****         3.2476  -2.0328  -2.3245 C.3            1 S1                 0.0000
      8 ****         4.3061  -1.2371  -1.8023 O.3            1 S1                 0.0000
      9 ****         4.0437  -0.9827  -0.4325 C.3            1 S1                 0.0000
     10 ****        -1.5302   0.2411   0.8555 N.am           1 S1                 0.0000
     11 ****        -2.5626   1.2081   0.7274 C.ar           1 S1                 0.0000
     12 ****        -3.8770   0.6936   0.7992 C.ar           1 S1                 0.0000
     13 ****        -4.9723   1.5709   0.6812 C.ar           1 S1                 0.0000
     14 ****        -4.7249   2.9424   0.4934 C.ar           1 S1                 0.0000
     15 ****        -3.3864   3.3723   0.4323 C.ar           1 S1                 0.0000
     16 ****        -2.3353   2.5331   0.5457 N.ar           1 S1                 0.0000
     17 ****        -0.0751  -1.5703   1.0580 H              1 S1                 0.0000
     18 ****         2.3476  -0.0982   1.6545 H              1 S1                 0.0000
     19 ****         2.1535  -1.8214   1.4510 H              1 S1                 0.0000
     20 ****         2.3332   0.2212  -0.8308 H              1 S1                 0.0000
     21 ****         1.8140  -2.7513  -0.8765 H              1 S1                 0.0000
     22 ****         1.1568  -1.4976  -1.9270 H              1 S1                 0.0000
     23 ****         3.5458  -3.0816  -2.3369 H              1 S1                 0.0000
     24 ****         3.0275  -1.7311  -3.3487 H              1 S1                 0.0000
     25 ****         4.6019  -0.1187  -0.0711 H              1 S1                 0.0000
     26 ****         4.3292  -1.8531   0.1607 H              1 S1                 0.0000
     27 ****        -1.8411  -0.7130   0.9625 H              1 S1                 0.0000
     28 ****        -4.0494  -0.3631   0.9437 H              1 S1                 0.0000
     29 ****        -5.9842   1.1971   0.7340 H              1 S1                 0.0000
     30 ****        -5.5386   3.6462   0.3985 H              1 S1                 0.0000
     31 ****        -3.1526   4.4168   0.2884 H              1 S1                 0.0000
     32 ****         1.3571   1.5844   0.7450 LP             1 S1                 0.0000
     33 ****        -0.1865   2.3642   0.6485 LP             1 S1                 0.0000
     34 ****         4.3566  -0.3726  -2.3023 LP             1 S1                 0.0000
     35 ****         5.1733  -1.7266  -1.8944 LP             1 S1                 0.0000
     36 ****        -1.4001   2.8839   0.4964 LP             1 S1                 0.0000
@<TRIPOS>BOND
    1    1    2 2     
    2    2    3 am    
    3    2   10 am    
    4    3    4 1     
    5    3   17 1     
    6    4    5 1     
    7    4   18 1     
    8    4   19 1     
    9    5    9 1     
   10    5    6 1     
   11    5   20 1     
   12    6    7 1     
   13    6   21 1     
   14    6   22 1     
   15    7    8 1     
   16    7   23 1     
   17    7   24 1     
   18    8    9 1     
   19    9   25 1     
   20    9   26 1     
   21   10   11 1     
   22   10   27 1     
   23   11   16 ar    
   24   11   12 ar    
   25   12   13 ar    
   26   12   28 1     
   27   13   14 ar    
   28   13   29 1     
   29   14   15 ar    
   30   14   30 1     
   31   15   16 ar    
   32   15   31 1     
   33    1   32 1     
   34    1   33 1     
   35    8   34 1     
   36    8   35 1     
   37   16   36 1     
@<TRIPOS>SUBSTRUCTURE
      1 S1             1
@<TRIPOS>SET
LONE_PAIRS      STATIC     ATOMS    <user>   **** ""
5 32 33 34 35 36
DONOR_HYDROGENS      STATIC     ATOMS    <user>   **** ""
2 17 27
ATOM$BLUE        STATIC     ATOMS    COLORGROUP SYSTEM
5 32 33 34 35 36
ATOM$RED        STATIC     ATOMS    COLORGROUP SYSTEM
2 17 27
