AV-unprocessed.smi:2331|AV-procd|sdf|9317|dock3
  -GOLD-   2272012533D 1   1.00000     0.00000
 Structure written by MMmdl.
 50 51  0  0  0  0  0  0  0  0  2 V2000
  153.3721  141.5495  161.4162 C   0  0  0  0  0  0  0  0  0  0  0  0
  153.5447  141.1488  159.9360 C   0  0  0  0  0  0  0  0  0  0  0  0
  155.0355  141.3612  159.5763 C   0  0  0  0  0  0  0  0  0  0  0  0
  153.2194  139.6404  159.7802 C   0  0  0  0  0  0  0  0  0  0  0  0
  153.8338  138.8411  160.8364 N   0  0  0  0  0  0  0  0  0  0  0  0
  153.6904  137.5170  161.0046 C   0  0  0  0  0  0  0  0  0  0  0  0
  153.0310  136.8168  160.2361 O   0  0  0  0  0  0  0  0  0  0  0  0
  154.3981  137.0225  162.0487 N   0  0  0  0  0  0  0  0  0  0  0  0
  154.9101  137.8560  163.1463 C   0  0  0  0  0  0  0  0  0  0  0  0
  155.2971  136.9090  164.2800 C   0  0  0  0  0  0  0  0  0  0  0  0
  154.5437  135.6230  163.9721 C   0  0  0  0  0  0  0  0  0  0  0  0
  154.4067  135.6010  162.4387 C   0  0  2  0  0  0  0  0  0  0  0  0
  155.4808  134.7335  161.6942 C   0  0  0  0  0  0  0  0  0  0  0  0
  155.4411  133.2773  162.1991 C   0  0  0  0  0  0  0  0  0  0  0  0
  155.3515  134.7274  160.1579 C   0  0  0  0  0  0  0  0  0  0  0  0
  156.7788  135.2166  161.9853 O   0  0  0  0  0  0  0  0  0  0  0  0
  152.5972  141.9932  159.0598 C   0  0  0  0  0  0  0  0  0  0  0  0
  151.5659  141.4178  158.2724 C   0  0  0  0  0  0  0  0  0  0  0  0
  150.7222  142.2485  157.5074 C   0  0  0  0  0  0  0  0  0  0  0  0
  150.8960  143.5863  157.5255 N   0  3  0  0  0  0  0  0  0  0  0  0
  151.8598  144.1848  158.2554 C   0  0  0  0  0  0  0  0  0  0  0  0
  152.7323  143.4040  159.0394 C   0  0  0  0  0  0  0  0  0  0  0  0
  154.0474  140.9857  162.0610 H   0  0  0  0  0  0  0  0  0  0  0  0
  152.3602  141.3657  161.7772 H   0  0  0  0  0  0  0  0  0  0  0  0
  153.5859  142.6085  161.5662 H   0  0  0  0  0  0  0  0  0  0  0  0
  155.6836  140.7591  160.2144 H   0  0  0  0  0  0  0  0  0  0  0  0
  155.3379  142.4007  159.7097 H   0  0  0  0  0  0  0  0  0  0  0  0
  155.2548  141.0770  158.5464 H   0  0  0  0  0  0  0  0  0  0  0  0
  152.1378  139.4930  159.7644 H   0  0  0  0  0  0  0  0  0  0  0  0
  153.5892  139.2635  158.8262 H   0  0  0  0  0  0  0  0  0  0  0  0
  154.4151  139.3333  161.4987 H   0  0  0  0  0  0  0  0  0  0  0  0
  155.7643  138.4546  162.8265 H   0  0  0  0  0  0  0  0  0  0  0  0
  154.1289  138.5373  163.4885 H   0  0  0  0  0  0  0  0  0  0  0  0
  156.3716  136.7256  164.2572 H   0  0  0  0  0  0  0  0  0  0  0  0
  155.0547  137.3105  165.2643 H   0  0  0  0  0  0  0  0  0  0  0  0
  155.0338  134.7462  164.3937 H   0  0  0  0  0  0  0  0  0  0  0  0
  153.5501  135.6795  164.4188 H   0  0  0  0  0  0  0  0  0  0  0  0
  153.4289  135.1739  162.2078 H   0  0  0  0  0  0  0  0  0  0  0  0
  154.4713  132.8205  161.9998 H   0  0  0  0  0  0  0  0  0  0  0  0
  155.6213  133.2052  163.2713 H   0  0  0  0  0  0  0  0  0  0  0  0
  156.1964  132.6635  161.7064 H   0  0  0  0  0  0  0  0  0  0  0  0
  154.3733  134.3615  159.8457 H   0  0  0  0  0  0  0  0  0  0  0  0
  156.0988  134.0779  159.7002 H   0  0  0  0  0  0  0  0  0  0  0  0
  155.4937  135.7199  159.7304 H   0  0  0  0  0  0  0  0  0  0  0  0
  157.1764  135.5115  161.1803 H   0  0  0  0  0  0  0  0  0  0  0  0
  151.3977  140.3524  158.2391 H   0  0  0  0  0  0  0  0  0  0  0  0
  149.9168  141.8837  156.8866 H   0  0  0  0  0  0  0  0  0  0  0  0
  151.9031  145.2625  158.1926 H   0  0  0  0  0  0  0  0  0  0  0  0
  153.4965  143.8937  159.6245 H   0  0  0  0  0  0  0  0  0  0  0  0
  150.2730  144.1686  156.9651 H   0  0  0  0  0  0  0  0  0  0  0  0
  1  2  1  0  0  0  0
  1 23  1  0  0  0  0
  1 24  1  0  0  0  0
  1 25  1  0  0  0  0
  2  3  1  0  0  0  0
  2  4  1  0  0  0  0
  2 17  1  0  0  0  0
  3 26  1  0  0  0  0
  3 27  1  0  0  0  0
  3 28  1  0  0  0  0
  4  5  1  0  0  0  0
  4 29  1  0  0  0  0
  4 30  1  0  0  0  0
  5  6  1  0  0  0  0
  5 31  1  0  0  0  0
  6  7  2  0  0  0  0
  6  8  1  0  0  0  0
  8 12  1  0  0  0  0
  8  9  1  0  0  0  0
  9 10  1  0  0  0  0
  9 32  1  0  0  0  0
  9 33  1  0  0  0  0
 10 11  1  0  0  0  0
 10 34  1  0  0  0  0
 10 35  1  0  0  0  0
 11 12  1  0  0  0  0
 11 36  1  0  0  0  0
 11 37  1  0  0  0  0
 12 13  1  0  0  0  0
 12 38  1  0  0  0  0
 13 14  1  0  0  0  0
 13 15  1  0  0  0  0
 13 16  1  0  0  0  0
 14 39  1  0  0  0  0
 14 40  1  0  0  0  0
 14 41  1  0  0  0  0
 15 42  1  0  0  0  0
 15 43  1  0  0  0  0
 15 44  1  0  0  0  0
 16 45  1  0  0  0  0
 17 22  1  0  0  0  0
 17 18  2  0  0  0  0
 18 19  1  0  0  0  0
 18 46  1  0  0  0  0
 19 20  2  0  0  0  0
 19 47  1  0  0  0  0
 20 21  1  0  0  0  0
 20 50  1  0  0  0  0
 21 22  2  0  0  0  0
 21 48  1  0  0  0  0
 22 49  1  0  0  0  0
M  CHG  1  20   1
M  END
> <s_m_source_file>
AV-unprocessed.smi

> <i_m_source_file_index>
2331

> <i_lp_mmshare_version>
43012

> <i_f3d_flags>
0

> <s_epik_input>
W2NIXTFbY0hdbltjSF1bY0hdYzFDKFtDSDNdKShbQ0gzXSlbQ0gyXVtOSF1DKD1PKU4yW0NIMl1bQ0gyXVtDSDJdW0NASF0yQyhbQ0gzXSkoW0NIM10pW09IXQ==

> <s_epik_cmdline>
J2VwaWtfcHl0aG9uJywgJy1waCcsICc3LjAnLCAnLXRuJywgJzgnLCAnLW1hJywgJzIwMCcsICctbWV0YWxfYmluZGluZycsICctaW1hZScsICc8aW5maWxlLm1hZT4nLCAnLW9tYWUnLCAnPG91dGZpbGUubWFlPic=

> <r_epik_Ionization_Penalty>
1.40501

> <r_epik_Ionization_Penalty_Charging>
1.40494

> <r_epik_Ionization_Penalty_Neutral>
7.00889e-05

> <r_epik_State_Penalty>
1.48741

> <r_epik_Charging_Adjusted_Penalty>
2.89235

> <i_epik_Tot_Q>
1

> <i_epik_Tot_abs_Q>
1

> <r_epik_Metal_State_Penalty>
1.54092

> <b_epik_Metal_Only>
0

> <s_lp_Force_Field>
OPLS_2005

> <r_lp_Energy>
57.0606

> <b_lp_Chiralities_Consistent>
1

> <s_lp_Variant>
AV-unprocessed.smi:2331-4

> <Gold.Version>
5.8.1

> <Gold.Id.Protein>
6NUR|6NUR_protein|mol2

> <Gold.PLP.Fitness>
52.0106

> <Gold.PLP.PLP>
-43.9820

> <Gold.PLP.part.hbond>
-1.9039

> <Gold.PLP.part.metal>
0.0000

> <Gold.PLP.part.buried>
-5.4450

> <Gold.PLP.part.nonpolar>
-37.9060

> <Gold.PLP.part.repulsive>
0.0374

> <Gold.PLP.ligand.clash>
0.6467

> <Gold.PLP.ligand.torsion>
0.2317

> <Gold.PLP.Chemscore.Hbond>
2.9588

> <Gold.PLP.Chemscore.CHOScore>
0.0000

> <Gold.PLP.Chemscore.Metal>
0.0000

> <Gold.Chemscore.Hbonds>
donor molecule, donor type, donor heavy atom, donor atom, acceptor molecule, acceptor atom, score
      L1  H    20    50       P1  8028  2.00
      P1  H  6896  6907       L1     7  0.99

> <Gold.PLP.Chemscore.Internal.Correction>
0.2624

> <Gold.Rescore>
     Score         DG    S(hbond)    S(metal)    S(lipo)     H(rot)  DE(clash)    DE(int)     intcor
     21.21     -21.56       1.93        0.00     126.45       2.02       0.05       0.30       ----

> <Gold.Chemscore.Fitness>
21.2136

> <Gold.Chemscore.DG>
-21.5616

> <Gold.Chemscore.ZeroCoef>
-5.4800

> <Gold.Chemscore.Hbond>
1.9331

> <Gold.Chemscore.Metal>
0.0000

> <Gold.Chemscore.Lipo>
126.4472

> <Gold.Chemscore.Internal_Hbond>
0.0000

> <Gold.Chemscore.DEClash>
0.0477

> <Gold.Chemscore.DEInternal>
0.3003

> <Gold.Chemscore.Rot>
2.0192

> <Gold.Chemscore.Internal.Correction>
   9.000000E+99

> <Gold.Chemscore.Hbonds>
donor molecule, donor type, donor heavy atom, donor atom, acceptor molecule, acceptor atom, score
      L1  H    20    50       P1  8028  0.93
      P1  H  6896  6907       L1     7  0.92

> <Gold.Chemscore.Hbond.Weighted>
-6.4565

> <Gold.Chemscore.Metal.Weighted>
-0.0000

> <Gold.Chemscore.Lipo.Weighted>
-14.7943

> <Gold.Chemscore.Internal_Hbond.Weighted>
0.0000

> <Gold.Chemscore.DEClash.Weighted>
0.0477

> <Gold.Chemscore.DEInternal.Weighted>
0.3003

> <Gold.Chemscore.Rot.Weighted>
5.1691

> <Gold.Chemscore.Internal.Correction.Weighted>
   9.000000E+99

> <Gold.Protein.RotatedTorsions>
[ 6907 6896 6895 6894 ] final   31.18 input  -60.11 | X-H torsion
[ 7974 7965 7964 7962 ] final -168.67 input  175.53 | X-H torsion
[ 8008 7997 7996 7995 ] final -168.42 input   59.86 | X-H torsion
[ 10167 10162 10161 10158 ] final -176.46 input  -65.29 | X-H torsion
[ 10718 10713 10712 10709 ] final  100.55 input   66.30 | X-H torsion
[ 10763 10752 10751 10750 ] final  -49.62 input  -60.55 | X-H torsion
[ 11005 11000 10999 10996 ] final -165.19 input  -57.11 | X-H torsion

> <Gold.Protein.ActiveResidues>
 VAL166  LYS551  ARG553  GLY616  TRP617  ASP618  TYR619  PRO620  LYS621  CYS622 
 ASP623  PHE694  ASN695  SER759  ASP760  ASP761  ALA762  ILE779  LEU786  VAL792 
 PHE793  MET794  SER795  GLU796  ALA797  LYS798  CYS799  TRP800  GLU811  SER814 

> <Gold.Protein.RotatedAtoms>
  152.0566  134.9621  160.0574 H   0  0  0  0  0  0  0  0  0  0  0  0  # atno 6907 bound_to 6896
  152.1001  133.4240  159.4591 H   0  0  0  0  0  0  0  0  0  0  0  0  # atno 6908 bound_to 6896
  150.6839  134.2690  159.4623 H   0  0  0  0  0  0  0  0  0  0  0  0  # atno 6909 bound_to 6896
  144.7199  140.2336  143.6301 H   0  0  0  0  0  0  0  0  0  0  0  0  # atno 7974 bound_to 7965
  155.8911  140.1025  157.1417 H   0  0  0  0  0  0  0  0  0  0  0  0  # atno 8008 bound_to 7997
  154.4015  140.1310  156.4381 H   0  0  0  0  0  0  0  0  0  0  0  0  # atno 8009 bound_to 7997
  155.7532  140.3464  155.5163 H   0  0  0  0  0  0  0  0  0  0  0  0  # atno 8010 bound_to 7997
  139.5528  144.2065  152.1107 H   0  0  0  0  0  0  0  0  0  0  0  0  # atno 10167 bound_to 10162
  157.6851  131.0701  150.5118 H   0  0  0  0  0  0  0  0  0  0  0  0  # atno 10718 bound_to 10713
  154.0970  135.6569  153.4862 H   0  0  0  0  0  0  0  0  0  0  0  0  # atno 10763 bound_to 10752
  153.0302  135.5216  154.7324 H   0  0  0  0  0  0  0  0  0  0  0  0  # atno 10764 bound_to 10752
  154.6465  135.2995  155.0009 H   0  0  0  0  0  0  0  0  0  0  0  0  # atno 10765 bound_to 10752
  140.5785  134.5166  157.5174 H   0  0  0  0  0  0  0  0  0  0  0  0  # atno 11005 bound_to 11000
  145.8387  139.2119  143.1840 LP  0  0  0  0  0  0  0  0  0  0  0  0  # atno 17320 bound_to 7965
  146.0366  140.8206  142.9849 LP  0  0  0  0  0  0  0  0  0  0  0  0  # atno 17321 bound_to 7965
  140.1563  144.5067  150.6658 LP  0  0  0  0  0  0  0  0  0  0  0  0  # atno 17342 bound_to 10162
  140.6795  143.2320  151.5421 LP  0  0  0  0  0  0  0  0  0  0  0  0  # atno 17343 bound_to 10162
  156.5435  130.4214  149.6142 LP  0  0  0  0  0  0  0  0  0  0  0  0  # atno 17370 bound_to 10713
  156.2965  130.7153  151.2014 LP  0  0  0  0  0  0  0  0  0  0  0  0  # atno 17371 bound_to 10713
  139.9328  134.7931  156.0883 LP  0  0  0  0  0  0  0  0  0  0  0  0  # atno 17394 bound_to 11000
  141.1011  133.6677  156.2757 LP  0  0  0  0  0  0  0  0  0  0  0  0  # atno 17395 bound_to 11000

$$$$
