AV-unprocessed.smi:2950|AV-procd|sdf|11289|dock3
  -GOLD-   2272016183D 1   1.00000     0.00000
 Structure written by MMmdl.
 30 31  0  0  0  0  0  0  0  0  2 V2000
  150.3270  138.3498  154.4275 C   0  0  0  0  0  0  0  0  0  0  0  0
  151.3032  139.3759  154.4006 O   0  0  0  0  0  0  0  0  0  0  0  0
  152.2377  139.2659  155.4623 C   0  0  0  0  0  0  0  0  0  0  0  0
  151.5399  139.5688  156.7961 C   0  0  0  0  0  0  0  0  0  0  0  0
  151.2100  140.9938  156.9390 N   0  0  0  0  0  0  0  0  0  0  0  0
  150.3574  141.7814  156.2217 C   0  0  0  0  0  0  0  0  0  0  0  0
  149.5186  141.3709  155.0572 C   0  0  0  0  0  0  0  0  0  0  0  0
  148.8854  142.4697  154.4407 O   0  0  0  0  0  0  0  0  0  0  0  0
  150.4124  143.0313  156.7623 N   0  3  0  0  0  0  0  0  0  0  0  0
  151.3027  143.0430  157.8367 C   0  0  0  0  0  0  0  0  0  0  0  0
  151.6874  144.0714  158.6914 C   0  0  0  0  0  0  0  0  0  0  0  0
  152.6215  143.7429  159.6962 C   0  0  0  0  0  0  0  0  0  0  0  0
  153.1356  142.4358  159.8220 C   0  0  0  0  0  0  0  0  0  0  0  0
  152.7400  141.4020  158.9477 C   0  0  0  0  0  0  0  0  0  0  0  0
  151.8170  141.7359  157.9573 C   0  0  0  0  0  0  0  0  0  0  0  0
  149.6408  138.4737  153.5898 H   0  0  0  0  0  0  0  0  0  0  0  0
  149.7431  138.3856  155.3481 H   0  0  0  0  0  0  0  0  0  0  0  0
  150.7877  137.3648  154.3426 H   0  0  0  0  0  0  0  0  0  0  0  0
  152.6613  138.2608  155.4820 H   0  0  0  0  0  0  0  0  0  0  0  0
  153.0627  139.9633  155.3097 H   0  0  0  0  0  0  0  0  0  0  0  0
  150.6274  138.9817  156.9040 H   0  0  0  0  0  0  0  0  0  0  0  0
  152.1851  139.2902  157.6296 H   0  0  0  0  0  0  0  0  0  0  0  0
  150.1361  140.8537  154.3228 H   0  0  0  0  0  0  0  0  0  0  0  0
  148.7589  140.6634  155.3903 H   0  0  0  0  0  0  0  0  0  0  0  0
  149.0155  143.2339  154.9812 H   0  0  0  0  0  0  0  0  0  0  0  0
  151.2944  145.0730  158.5965 H   0  0  0  0  0  0  0  0  0  0  0  0
  152.9493  144.5084  160.3845 H   0  0  0  0  0  0  0  0  0  0  0  0
  153.8481  142.2208  160.6052 H   0  0  0  0  0  0  0  0  0  0  0  0
  153.1386  140.4037  159.0517 H   0  0  0  0  0  0  0  0  0  0  0  0
  149.8774  143.8179  156.4173 H   0  0  0  0  0  0  0  0  0  0  0  0
  1  2  1  0  0  0  0
  1 16  1  0  0  0  0
  1 17  1  0  0  0  0
  1 18  1  0  0  0  0
  2  3  1  0  0  0  0
  3  4  1  0  0  0  0
  3 19  1  0  0  0  0
  3 20  1  0  0  0  0
  4  5  1  0  0  0  0
  4 21  1  0  0  0  0
  4 22  1  0  0  0  0
  5 15  1  0  0  0  0
  5  6  1  0  0  0  0
  6  7  1  0  0  0  0
  6  9  2  0  0  0  0
  7  8  1  0  0  0  0
  7 23  1  0  0  0  0
  7 24  1  0  0  0  0
  8 25  1  0  0  0  0
  9 10  1  0  0  0  0
  9 30  1  0  0  0  0
 10 15  2  0  0  0  0
 10 11  1  0  0  0  0
 11 12  2  0  0  0  0
 11 26  1  0  0  0  0
 12 13  1  0  0  0  0
 12 27  1  0  0  0  0
 13 14  2  0  0  0  0
 13 28  1  0  0  0  0
 14 15  1  0  0  0  0
 14 29  1  0  0  0  0
M  CHG  1   9   1
M  END
> <s_m_source_file>
AV-unprocessed.smi

> <i_m_source_file_index>
2950

> <i_lp_mmshare_version>
43012

> <i_f3d_flags>
0

> <s_epik_input>
W0NIM11PW0NIMl1bQ0gyXW4oYyhuMSlbQ0gyXVtPSF0pYyhjMTIpW2NIXVtjSF1bY0hdW2NIXTI=

> <s_epik_cmdline>
J2VwaWtfcHl0aG9uJywgJy1waCcsICc3LjAnLCAnLXRuJywgJzgnLCAnLW1hJywgJzIwMCcsICctbWV0YWxfYmluZGluZycsICctaW1hZScsICc8aW5maWxlLm1hZT4nLCAnLW9tYWUnLCAnPG91dGZpbGUubWFlPic=

> <r_epik_Ionization_Penalty>
1.35411

> <r_epik_Ionization_Penalty_Charging>
1.35325

> <r_epik_Ionization_Penalty_Neutral>
0.000855784

> <r_epik_State_Penalty>
1.4315

> <r_epik_Charging_Adjusted_Penalty>
2.78475

> <i_epik_Tot_Q>
1

> <i_epik_Tot_abs_Q>
1

> <r_epik_Metal_State_Penalty>
5.4689

> <b_epik_Metal_Only>
0

> <s_lp_Force_Field>
OPLS_2005

> <r_lp_Energy>
9.95832

> <b_lp_Chiralities_Consistent>
1

> <s_lp_Variant>
AV-unprocessed.smi:2950-2

> <Gold.Version>
5.8.1

> <Gold.Id.Protein>
6NUR|6NUR_protein|mol2

> <Gold.PLP.Fitness>
50.2131

> <Gold.PLP.PLP>
-38.2761

> <Gold.PLP.part.hbond>
-3.9813

> <Gold.PLP.part.metal>
0.0000

> <Gold.PLP.part.buried>
-4.4842

> <Gold.PLP.part.nonpolar>
-30.7129

> <Gold.PLP.part.repulsive>
0.1695

> <Gold.PLP.ligand.clash>
0.0000

> <Gold.PLP.ligand.torsion>
0.1255

> <Gold.PLP.Chemscore.Hbond>
4.0608

> <Gold.PLP.Chemscore.CHOScore>
0.0000

> <Gold.PLP.Chemscore.Metal>
0.0000

> <Gold.Chemscore.Hbonds>
donor molecule, donor type, donor heavy atom, donor atom, acceptor molecule, acceptor atom, score
      L1  H     8    25       P1  8028  1.00
      L1  H     9    30       P1  8028  2.00
      P1  H  7989  7998       L1     2  1.00
      P1  H  8011  8017       L1     8  0.05

> <Gold.PLP.Chemscore.Internal.Correction>
0.0056

> <Gold.Rescore>
     Score         DG    S(hbond)    S(metal)    S(lipo)     H(rot)  DE(clash)    DE(int)     intcor
     19.68     -20.17       2.98        0.00      88.77       2.21       0.02       0.48       ----

> <Gold.Chemscore.Fitness>
19.6778

> <Gold.Chemscore.DG>
-20.1703

> <Gold.Chemscore.ZeroCoef>
-5.4800

> <Gold.Chemscore.Hbond>
2.9821

> <Gold.Chemscore.Metal>
0.0000

> <Gold.Chemscore.Lipo>
88.7662

> <Gold.Chemscore.Internal_Hbond>
0.0000

> <Gold.Chemscore.DEClash>
0.0153

> <Gold.Chemscore.DEInternal>
0.4772

> <Gold.Chemscore.Rot>
2.2092

> <Gold.Chemscore.Internal.Correction>
   9.000000E+99

> <Gold.Chemscore.Hbonds>
donor molecule, donor type, donor heavy atom, donor atom, acceptor molecule, acceptor atom, score
      L1  H     8    25       P1  8028  0.99
      L1  H     9    30       P1  8028  0.93
      P1  H  7989  7998       L1     2  0.70
      P1  H  8011  8017       L1     8  0.02

> <Gold.Chemscore.Hbond.Weighted>
-9.9602

> <Gold.Chemscore.Metal.Weighted>
-0.0000

> <Gold.Chemscore.Lipo.Weighted>
-10.3856

> <Gold.Chemscore.Internal_Hbond.Weighted>
0.0000

> <Gold.Chemscore.DEClash.Weighted>
0.0153

> <Gold.Chemscore.DEInternal.Weighted>
0.4772

> <Gold.Chemscore.Rot.Weighted>
5.6555

> <Gold.Chemscore.Internal.Correction.Weighted>
   9.000000E+99

> <Gold.Protein.RotatedTorsions>
[ 6907 6896 6895 6894 ] final  136.14 input  -60.11 | X-H torsion
[ 7974 7965 7964 7962 ] final   23.41 input  175.53 | X-H torsion
[ 8008 7997 7996 7995 ] final   98.39 input   59.86 | X-H torsion
[ 10167 10162 10161 10158 ] final  -13.16 input  -65.29 | X-H torsion
[ 10718 10713 10712 10709 ] final  107.37 input   66.30 | X-H torsion
[ 10763 10752 10751 10750 ] final   27.04 input  -60.55 | X-H torsion
[ 11005 11000 10999 10996 ] final   35.35 input  -57.11 | X-H torsion

> <Gold.Protein.ActiveResidues>
 VAL166  LYS551  ARG553  GLY616  TRP617  ASP618  TYR619  PRO620  LYS621  CYS622 
 ASP623  PHE694  ASN695  SER759  ASP760  ASP761  ALA762  ILE779  LEU786  VAL792 
 PHE793  MET794  SER795  GLU796  ALA797  LYS798  CYS799  TRP800  GLU811  SER814 

> <Gold.Protein.RotatedAtoms>
  152.2927  133.5577  159.5567 H   0  0  0  0  0  0  0  0  0  0  0  0  # atno 6907 bound_to 6896
  150.7242  134.0406  159.3773 H   0  0  0  0  0  0  0  0  0  0  0  0  # atno 6908 bound_to 6896
  151.8310  135.0621  160.0487 H   0  0  0  0  0  0  0  0  0  0  0  0  # atno 6909 bound_to 6896
  146.1986  139.7749  142.8779 H   0  0  0  0  0  0  0  0  0  0  0  0  # atno 7974 bound_to 7965
  156.0999  140.3244  155.7928 H   0  0  0  0  0  0  0  0  0  0  0  0  # atno 8008 bound_to 7997
  155.4854  140.0557  157.2978 H   0  0  0  0  0  0  0  0  0  0  0  0  # atno 8009 bound_to 7997
  154.4690  140.2002  156.0058 H   0  0  0  0  0  0  0  0  0  0  0  0  # atno 8010 bound_to 7997
  140.7176  143.5456  150.9359 H   0  0  0  0  0  0  0  0  0  0  0  0  # atno 10167 bound_to 10162
  157.6631  131.0871  150.6146 H   0  0  0  0  0  0  0  0  0  0  0  0  # atno 10718 bound_to 10713
  153.0582  135.6546  154.0526 H   0  0  0  0  0  0  0  0  0  0  0  0  # atno 10763 bound_to 10752
  154.0199  135.2921  155.3383 H   0  0  0  0  0  0  0  0  0  0  0  0  # atno 10764 bound_to 10752
  154.6908  135.5283  153.8457 H   0  0  0  0  0  0  0  0  0  0  0  0  # atno 10765 bound_to 10752
  140.2436  134.3386  155.7916 H   0  0  0  0  0  0  0  0  0  0  0  0  # atno 11005 bound_to 11000
  145.3562  141.0317  143.3311 LP  0  0  0  0  0  0  0  0  0  0  0  0  # atno 17320 bound_to 7965
  144.8633  139.5145  143.6802 LP  0  0  0  0  0  0  0  0  0  0  0  0  # atno 17321 bound_to 7965
  139.9179  143.6641  152.3102 LP  0  0  0  0  0  0  0  0  0  0  0  0  # atno 17342 bound_to 10162
  139.7047  144.7630  151.1212 LP  0  0  0  0  0  0  0  0  0  0  0  0  # atno 17343 bound_to 10162
  156.6448  130.4468  149.5739 LP  0  0  0  0  0  0  0  0  0  0  0  0  # atno 17370 bound_to 10713
  156.2182  130.6720  151.1340 LP  0  0  0  0  0  0  0  0  0  0  0  0  # atno 17371 bound_to 10713
  141.2208  133.7313  156.8924 LP  0  0  0  0  0  0  0  0  0  0  0  0  # atno 17394 bound_to 11000
  140.1628  134.9153  157.2737 LP  0  0  0  0  0  0  0  0  0  0  0  0  # atno 17395 bound_to 11000

$$$$
