AV-unprocessed.smi:3306|AV-procd|sdf|12702|dock5
  -GOLD-   2272019 33D 1   1.00000     0.00000
 Structure written by MMmdl.
 45 46  0  0  0  0  0  0  0  0  3 V2000
  145.1123  133.4253  152.4019 C   0  0  0  0  0  0  0  0  0  0  0  0
  146.5875  133.0369  152.1822 C   0  0  0  0  0  0  0  0  0  0  0  0
  146.7247  131.5842  151.6970 C   0  0  0  0  0  0  0  0  0  0  0  0
  147.4558  133.2958  153.3684 N   0  3  2  0  0  0  0  0  0  0  0  0
  147.1518  134.5446  154.1183 C   0  0  0  0  0  0  0  0  0  0  0  0
  147.9340  134.5912  155.4428 C   0  0  0  0  0  0  0  0  0  0  0  0
  149.4559  134.4541  155.2260 C   0  0  2  0  0  0  0  0  0  0  0  0
  150.0618  135.6598  154.6103 N   0  3  0  0  0  0  0  0  0  0  0  0
  149.7465  136.9405  155.2780 C   0  0  0  0  0  0  0  0  0  0  0  0
  150.4460  138.1119  154.5750 C   0  0  0  0  0  0  0  0  0  0  0  0
  150.5561  139.3333  155.4680 C   0  0  0  0  0  0  0  0  0  0  0  0
  151.1630  139.2471  156.7390 C   0  0  0  0  0  0  0  0  0  0  0  0
  151.2412  140.4136  157.5247 C   0  0  0  0  0  0  0  0  0  0  0  0
  150.7139  141.6143  157.0111 C   0  0  0  0  0  0  0  0  0  0  0  0
  150.1287  141.5954  155.7293 C   0  0  0  0  0  0  0  0  0  0  0  0
  150.0490  140.4823  154.9676 N   0  0  0  0  0  0  0  0  0  0  0  0
  149.7401  133.2039  154.3727 C   0  0  0  0  0  0  0  0  0  0  0  0
  148.9083  133.1741  153.0762 C   0  0  0  0  0  0  0  0  0  0  0  0
  144.5471  133.3187  151.4753 H   0  0  0  0  0  0  0  0  0  0  0  0
  145.0091  134.4615  152.7233 H   0  0  0  0  0  0  0  0  0  0  0  0
  144.6292  132.7909  153.1453 H   0  0  0  0  0  0  0  0  0  0  0  0
  146.9677  133.6566  151.3690 H   0  0  0  0  0  0  0  0  0  0  0  0
  146.1996  131.4417  150.7519 H   0  0  0  0  0  0  0  0  0  0  0  0
  146.3066  130.8717  152.4077 H   0  0  0  0  0  0  0  0  0  0  0  0
  147.7696  131.3198  151.5321 H   0  0  0  0  0  0  0  0  0  0  0  0
  147.4024  135.4170  153.5135 H   0  0  0  0  0  0  0  0  0  0  0  0
  146.0858  134.6063  154.3352 H   0  0  0  0  0  0  0  0  0  0  0  0
  147.6916  135.5009  155.9912 H   0  0  0  0  0  0  0  0  0  0  0  0
  147.5946  133.7702  156.0762 H   0  0  0  0  0  0  0  0  0  0  0  0
  149.9386  134.3112  156.1941 H   0  0  0  0  0  0  0  0  0  0  0  0
  151.0653  135.5481  154.6503 H   0  0  0  0  0  0  0  0  0  0  0  0
  148.6691  137.1060  155.2768 H   0  0  0  0  0  0  0  0  0  0  0  0
  150.0658  136.8910  156.3200 H   0  0  0  0  0  0  0  0  0  0  0  0
  151.4479  137.8159  154.2599 H   0  0  0  0  0  0  0  0  0  0  0  0
  149.9048  138.3792  153.6662 H   0  0  0  0  0  0  0  0  0  0  0  0
  151.5588  138.3123  157.1080 H   0  0  0  0  0  0  0  0  0  0  0  0
  151.6969  140.3879  158.5037 H   0  0  0  0  0  0  0  0  0  0  0  0
  150.7563  142.5277  157.5857 H   0  0  0  0  0  0  0  0  0  0  0  0
  149.7151  142.4979  155.3040 H   0  0  0  0  0  0  0  0  0  0  0  0
  150.8034  133.1383  154.1381 H   0  0  0  0  0  0  0  0  0  0  0  0
  149.5073  132.3137  154.9589 H   0  0  0  0  0  0  0  0  0  0  0  0
  149.1042  132.2374  152.5531 H   0  0  0  0  0  0  0  0  0  0  0  0
  149.2224  133.9782  152.4096 H   0  0  0  0  0  0  0  0  0  0  0  0
  147.2517  132.5369  154.0035 H   0  0  0  0  0  0  0  0  0  0  0  0
  149.7862  135.7156  153.6404 H   0  0  0  0  0  0  0  0  0  0  0  0
  1  2  1  0  0  0  0
  1 19  1  0  0  0  0
  1 20  1  0  0  0  0
  1 21  1  0  0  0  0
  2  3  1  0  0  0  0
  2  4  1  0  0  0  0
  2 22  1  0  0  0  0
  3 23  1  0  0  0  0
  3 24  1  0  0  0  0
  3 25  1  0  0  0  0
  4 18  1  0  0  0  0
  4  5  1  0  0  0  0
  4 44  1  0  0  0  0
  5  6  1  0  0  0  0
  5 26  1  0  0  0  0
  5 27  1  0  0  0  0
  6  7  1  0  0  0  0
  6 28  1  0  0  0  0
  6 29  1  0  0  0  0
  7  8  1  0  0  0  0
  7 17  1  0  0  0  0
  7 30  1  0  0  0  0
  8  9  1  0  0  0  0
  8 31  1  0  0  0  0
  8 45  1  0  0  0  0
  9 10  1  0  0  0  0
  9 32  1  0  0  0  0
  9 33  1  0  0  0  0
 10 11  1  0  0  0  0
 10 34  1  0  0  0  0
 10 35  1  0  0  0  0
 11 16  1  0  0  0  0
 11 12  2  0  0  0  0
 12 13  1  0  0  0  0
 12 36  1  0  0  0  0
 13 14  2  0  0  0  0
 13 37  1  0  0  0  0
 14 15  1  0  0  0  0
 14 38  1  0  0  0  0
 15 16  2  0  0  0  0
 15 39  1  0  0  0  0
 17 18  1  0  0  0  0
 17 40  1  0  0  0  0
 17 41  1  0  0  0  0
 18 42  1  0  0  0  0
 18 43  1  0  0  0  0
M  CHG  1   4   1
M  CHG  1   8   1
M  END
> <s_m_source_file>
AV-unprocessed.smi

> <i_m_source_file_index>
3306

> <i_lp_mmshare_version>
43012

> <i_f3d_flags>
0

> <s_epik_input>
W0NIM11bQ0hdKFtDSDNdKU4xW0NIMl1bQ0gyXVtDSF0oW0NIMl1bQ0gyXTEpW05IXVtDSDJdW0NIMl1jMltjSF1bY0hdW2NIXVtjSF1uMg==

> <s_epik_cmdline>
J2VwaWtfcHl0aG9uJywgJy1waCcsICc3LjAnLCAnLXRuJywgJzgnLCAnLW1hJywgJzIwMCcsICctbWV0YWxfYmluZGluZycsICctaW1hZScsICc8aW5maWxlLm1hZT4nLCAnLW9tYWUnLCAnPG91dGZpbGUubWFlPic=

> <r_epik_Ionization_Penalty>
0.0800465

> <r_epik_Ionization_Penalty_Charging>
0.0790817

> <r_epik_Ionization_Penalty_Neutral>
0.000964829

> <r_epik_State_Penalty>
0.0665964

> <r_epik_Charging_Adjusted_Penalty>
0.145678

> <i_epik_Tot_Q>
2

> <i_epik_Tot_abs_Q>
2

> <r_epik_Metal_State_Penalty>
0.0683331

> <b_epik_Metal_Only>
0

> <s_lp_Force_Field>
OPLS_2005

> <r_lp_Energy>
31.8931

> <b_lp_Chiralities_Consistent>
1

> <s_lp_Variant>
AV-unprocessed.smi:3306-2

> <Gold.Version>
5.8.1

> <Gold.Id.Protein>
6NUR|6NUR_protein|mol2

> <Gold.PLP.Fitness>
39.4494

> <Gold.PLP.PLP>
-28.2875

> <Gold.PLP.part.hbond>
-2.0000

> <Gold.PLP.part.metal>
0.0000

> <Gold.PLP.part.buried>
-3.5343

> <Gold.PLP.part.nonpolar>
-22.8857

> <Gold.PLP.part.repulsive>
0.1370

> <Gold.PLP.ligand.clash>
0.0000

> <Gold.PLP.ligand.torsion>
0.3450

> <Gold.PLP.Chemscore.Hbond>
2.9120

> <Gold.PLP.Chemscore.CHOScore>
1.0000

> <Gold.PLP.Chemscore.Metal>
0.0000

> <Gold.Chemscore.Hbonds>
donor molecule, donor type, donor heavy atom, donor atom, acceptor molecule, acceptor atom, score
      L1  H     8    45       P1  7948  1.40
      P1  H  7989  7998       L1    16  0.51
      L1  C    15    39       P1  8028  1.00

> <Gold.PLP.Chemscore.Internal.Correction>
0.1158

> <Gold.Rescore>
     Score         DG    S(hbond)    S(metal)    S(lipo)     H(rot)  DE(clash)    DE(int)     intcor
     14.49     -14.92       1.40        0.00      72.75       1.47       0.09       0.34       ----

> <Gold.Chemscore.Fitness>
14.4920

> <Gold.Chemscore.DG>
-14.9197

> <Gold.Chemscore.ZeroCoef>
-5.4800

> <Gold.Chemscore.Hbond>
1.4030

> <Gold.Chemscore.Metal>
0.0000

> <Gold.Chemscore.Lipo>
72.7488

> <Gold.Chemscore.Internal_Hbond>
0.0000

> <Gold.Chemscore.DEClash>
0.0859

> <Gold.Chemscore.DEInternal>
0.3418

> <Gold.Chemscore.Rot>
1.4679

> <Gold.Chemscore.Internal.Correction>
   9.000000E+99

> <Gold.Chemscore.Hbonds>
donor molecule, donor type, donor heavy atom, donor atom, acceptor molecule, acceptor atom, score
      L1  H     8    45       P1  7948  0.07
      P1  H  7989  7998       L1    16  0.03

> <Gold.Chemscore.Hbond.Weighted>
-4.6860

> <Gold.Chemscore.Metal.Weighted>
-0.0000

> <Gold.Chemscore.Lipo.Weighted>
-8.5116

> <Gold.Chemscore.Internal_Hbond.Weighted>
0.0000

> <Gold.Chemscore.DEClash.Weighted>
0.0859

> <Gold.Chemscore.DEInternal.Weighted>
0.3418

> <Gold.Chemscore.Rot.Weighted>
3.7579

> <Gold.Chemscore.Internal.Correction.Weighted>
   9.000000E+99

> <Gold.Protein.RotatedTorsions>
[ 6907 6896 6895 6894 ] final  -45.37 input  -60.11 | X-H torsion
[ 7974 7965 7964 7962 ] final  160.79 input  175.53 | X-H torsion
[ 8008 7997 7996 7995 ] final  -78.22 input   59.86 | X-H torsion
[ 10167 10162 10161 10158 ] final  130.12 input  -65.29 | X-H torsion
[ 10718 10713 10712 10709 ] final  -56.88 input   66.30 | X-H torsion
[ 10763 10752 10751 10750 ] final  141.20 input  -60.55 | X-H torsion
[ 11005 11000 10999 10996 ] final -142.37 input  -57.11 | X-H torsion

> <Gold.Protein.ActiveResidues>
 VAL166  LYS551  ARG553  GLY616  TRP617  ASP618  TYR619  PRO620  LYS621  CYS622 
 ASP623  PHE694  ASN695  SER759  ASP760  ASP761  ALA762  ILE779  LEU786  VAL792 
 PHE793  MET794  SER795  GLU796  ALA797  LYS798  CYS799  TRP800  GLU811  SER814 

> <Gold.Protein.RotatedAtoms>
  150.9227  134.8645  159.7499 H   0  0  0  0  0  0  0  0  0  0  0  0  # atno 6907 bound_to 6896
  152.5000  134.4194  159.9485 H   0  0  0  0  0  0  0  0  0  0  0  0  # atno 6908 bound_to 6896
  151.4227  133.3654  159.2793 H   0  0  0  0  0  0  0  0  0  0  0  0  # atno 6909 bound_to 6896
  144.7719  139.7807  143.6294 H   0  0  0  0  0  0  0  0  0  0  0  0  # atno 7974 bound_to 7965
  154.5669  140.0698  156.8905 H   0  0  0  0  0  0  0  0  0  0  0  0  # atno 8008 bound_to 7997
  155.2707  140.3365  155.4247 H   0  0  0  0  0  0  0  0  0  0  0  0  # atno 8009 bound_to 7997
  156.2087  140.1750  156.7728 H   0  0  0  0  0  0  0  0  0  0  0  0  # atno 8010 bound_to 7997
  139.5445  144.6761  151.4518 H   0  0  0  0  0  0  0  0  0  0  0  0  # atno 10167 bound_to 10162
  156.1253  130.4163  150.0366 H   0  0  0  0  0  0  0  0  0  0  0  0  # atno 10718 bound_to 10713
  153.9353  135.2985  155.3444 H   0  0  0  0  0  0  0  0  0  0  0  0  # atno 10763 bound_to 10752
  154.7505  135.4982  153.9284 H   0  0  0  0  0  0  0  0  0  0  0  0  # atno 10764 bound_to 10752
  153.1070  135.6749  153.9674 H   0  0  0  0  0  0  0  0  0  0  0  0  # atno 10765 bound_to 10752
  140.8232  134.2606  157.4891 H   0  0  0  0  0  0  0  0  0  0  0  0  # atno 11005 bound_to 11000
  146.1871  139.5092  142.9829 LP  0  0  0  0  0  0  0  0  0  0  0  0  # atno 17320 bound_to 7965
  145.6300  141.0306  143.1868 LP  0  0  0  0  0  0  0  0  0  0  0  0  # atno 17321 bound_to 7965
  140.6688  143.8340  150.6974 LP  0  0  0  0  0  0  0  0  0  0  0  0  # atno 17342 bound_to 10162
  140.1757  143.4156  152.1969 LP  0  0  0  0  0  0  0  0  0  0  0  0  # atno 17343 bound_to 10162
  156.8293  130.9386  151.3638 LP  0  0  0  0  0  0  0  0  0  0  0  0  # atno 17370 bound_to 10713
  157.6435  130.8825  149.9494 LP  0  0  0  0  0  0  0  0  0  0  0  0  # atno 17371 bound_to 10713
  139.8707  134.9546  156.4182 LP  0  0  0  0  0  0  0  0  0  0  0  0  # atno 17394 bound_to 11000
  140.9077  133.7734  155.9754 LP  0  0  0  0  0  0  0  0  0  0  0  0  # atno 17395 bound_to 11000

$$$$
