AV-unprocessed.smi:1815|AV-procd|sdf|7361|dock4
  -GOLD-   22720 9 23D 1   1.00000     0.00000
 Structure written by MMmdl.
 39 40  0  0  0  0  0  0  0  0  3 V2000
  149.2105  141.4071  154.6393 C   0  0  0  0  0  0  0  0  0  0  0  0
  149.7128  140.0004  154.9820 C   0  0  1  0  0  0  0  0  0  0  0  0
  148.9580  138.9093  154.1917 C   0  0  0  0  0  0  0  0  0  0  0  0
  149.5313  137.5603  154.4339 N   0  3  2  0  0  0  0  0  0  0  0  0
  149.1555  136.9498  155.7359 C   0  0  0  0  0  0  0  0  0  0  0  0
  149.2945  135.4159  155.7270 C   0  0  0  0  0  0  0  0  0  0  0  0
  148.5978  134.8168  156.8586 N   0  0  0  0  0  0  0  0  0  0  0  0
  148.8186  135.1047  158.1495 C   0  0  0  0  0  0  0  0  0  0  0  0
  149.6662  135.9476  158.4544 O   0  0  0  0  0  0  0  0  0  0  0  0
  148.0499  134.3941  159.0044 N   0  5  0  0  0  0  0  0  0  0  0  0
  147.8683  134.8280  160.2624 C   0  0  0  0  0  0  0  0  0  0  0  0
  148.0939  136.0920  160.6379 N   0  0  0  0  0  0  0  0  0  0  0  0
  147.8347  136.3240  161.9899 C   0  0  0  0  0  0  0  0  0  0  0  0
  147.3934  135.2124  162.6573 C   0  0  0  0  0  0  0  0  0  0  0  0
  147.2899  133.8328  161.6013 S   0  0  0  0  0  0  0  0  0  0  0  0
  150.9936  137.5718  154.1873 C   0  0  0  0  0  0  0  0  0  0  0  0
  151.6886  138.6856  154.9972 C   0  0  1  0  0  0  0  0  0  0  0  0
  153.1882  138.7692  154.6918 C   0  0  0  0  0  0  0  0  0  0  0  0
  151.0986  139.9368  154.6603 O   0  0  0  0  0  0  0  0  0  0  0  0
  148.1523  141.5146  154.8787 H   0  0  0  0  0  0  0  0  0  0  0  0
  149.3383  141.6260  153.5789 H   0  0  0  0  0  0  0  0  0  0  0  0
  149.7563  142.1636  155.2034 H   0  0  0  0  0  0  0  0  0  0  0  0
  149.5864  139.8492  156.0546 H   0  0  0  0  0  0  0  0  0  0  0  0
  147.8944  138.9333  154.4250 H   0  0  0  0  0  0  0  0  0  0  0  0
  149.0367  139.1188  153.1240 H   0  0  0  0  0  0  0  0  0  0  0  0
  149.8123  137.3388  156.5153 H   0  0  0  0  0  0  0  0  0  0  0  0
  148.1460  137.2480  156.0175 H   0  0  0  0  0  0  0  0  0  0  0  0
  148.9127  134.9788  154.8044 H   0  0  0  0  0  0  0  0  0  0  0  0
  150.3465  135.1375  155.7897 H   0  0  0  0  0  0  0  0  0  0  0  0
  147.8921  134.1248  156.6515 H   0  0  0  0  0  0  0  0  0  0  0  0
  147.9907  137.3135  162.3933 H   0  0  0  0  0  0  0  0  0  0  0  0
  147.1232  135.1210  163.6984 H   0  0  0  0  0  0  0  0  0  0  0  0
  151.4271  136.5964  154.4124 H   0  0  0  0  0  0  0  0  0  0  0  0
  151.1578  137.7395  153.1219 H   0  0  0  0  0  0  0  0  0  0  0  0
  151.5666  138.5053  156.0664 H   0  0  0  0  0  0  0  0  0  0  0  0
  153.6907  137.8328  154.9355 H   0  0  0  0  0  0  0  0  0  0  0  0
  153.6606  139.5604  155.2745 H   0  0  0  0  0  0  0  0  0  0  0  0
  153.3666  138.9808  153.6370 H   0  0  0  0  0  0  0  0  0  0  0  0
  149.1372  136.9476  153.7343 H   0  0  0  0  0  0  0  0  0  0  0  0
  1  2  1  0  0  0  0
  1 20  1  0  0  0  0
  1 21  1  0  0  0  0
  1 22  1  0  0  0  0
  2 19  1  0  0  0  0
  2  3  1  0  0  0  0
  2 23  1  0  0  0  0
  3  4  1  0  0  0  0
  3 24  1  0  0  0  0
  3 25  1  0  0  0  0
  4  5  1  0  0  0  0
  4 16  1  0  0  0  0
  4 39  1  0  0  0  0
  5  6  1  0  0  0  0
  5 26  1  0  0  0  0
  5 27  1  0  0  0  0
  6  7  1  0  0  0  0
  6 28  1  0  0  0  0
  6 29  1  0  0  0  0
  7  8  1  0  0  0  0
  7 30  1  0  0  0  0
  8  9  2  0  0  0  0
  8 10  1  0  0  0  0
 10 11  1  0  0  0  0
 11 15  1  0  0  0  0
 11 12  2  0  0  0  0
 12 13  1  0  0  0  0
 13 14  2  0  0  0  0
 13 31  1  0  0  0  0
 14 15  1  0  0  0  0
 14 32  1  0  0  0  0
 16 17  1  0  0  0  0
 16 33  1  0  0  0  0
 16 34  1  0  0  0  0
 17 18  1  0  0  0  0
 17 19  1  0  0  0  0
 17 35  1  0  0  0  0
 18 36  1  0  0  0  0
 18 37  1  0  0  0  0
 18 38  1  0  0  0  0
M  CHG  1   4   1
M  CHG  1  10  -1
M  END
> <s_m_source_file>
AV-unprocessed.smi

> <i_m_source_file_index>
1815

> <i_lp_mmshare_version>
43012

> <i_f3d_flags>
0

> <s_epik_input>
W0NIM11bQ0BASF0xW0NIMl1OKFtDSDJdW0NASF0oTzEpW0NIM10pW0NIMl1bQ0gyXVtOSF1DKD1PKVtOSF1jMm5bY0hdW2NIXXMy

> <s_epik_cmdline>
J2VwaWtfcHl0aG9uJywgJy1waCcsICc3LjAnLCAnLXRuJywgJzgnLCAnLW1hJywgJzIwMCcsICctbWV0YWxfYmluZGluZycsICctaW1hZScsICc8aW5maWxlLm1hZT4nLCAnLW9tYWUnLCAnPG91dGZpbGUubWFlPic=

> <r_lp_tautomer_probability>
0.999

> <r_epik_Ionization_Penalty>
6.71699

> <r_epik_Ionization_Penalty_Charging>
5.88592

> <r_epik_Ionization_Penalty_Neutral>
0.831074

> <r_epik_State_Penalty>
6.08365

> <r_epik_Charging_Adjusted_Penalty>
11.9696

> <i_epik_Tot_Q>
0

> <i_epik_Tot_abs_Q>
2

> <r_epik_Metal_State_Penalty>
2.0947

> <b_epik_Metal_Only>
1

> <s_lp_Force_Field>
OPLS_2005

> <r_lp_Energy>
5.04414

> <b_lp_Chiralities_Consistent>
1

> <s_lp_Variant>
AV-unprocessed.smi:1815-12

> <Gold.Version>
5.8.1

> <Gold.Id.Protein>
6NUR|6NUR_protein|mol2

> <Gold.PLP.Fitness>
46.2722

> <Gold.PLP.PLP>
-34.9828

> <Gold.PLP.part.hbond>
-3.0000

> <Gold.PLP.part.metal>
0.0000

> <Gold.PLP.part.buried>
-3.6833

> <Gold.PLP.part.nonpolar>
-29.5720

> <Gold.PLP.part.repulsive>
0.1158

> <Gold.PLP.ligand.clash>
0.0000

> <Gold.PLP.ligand.torsion>
0.3783

> <Gold.PLP.Chemscore.Hbond>
4.0000

> <Gold.PLP.Chemscore.CHOScore>
0.0000

> <Gold.PLP.Chemscore.Metal>
0.0000

> <Gold.Chemscore.Hbonds>
donor molecule, donor type, donor heavy atom, donor atom, acceptor molecule, acceptor atom, score
      L1  H     4    39       P1  7948  2.00
      P1  H  6896  6909       L1     9  1.00
      P1  H  7989  7998       L1    19  1.00

> <Gold.PLP.Chemscore.Internal.Correction>
0.0460

> <Gold.Rescore>
     Score         DG    S(hbond)    S(metal)    S(lipo)     H(rot)  DE(clash)    DE(int)     intcor
     17.86     -19.84       2.79        0.00      78.15       1.61       0.03       1.95       ----

> <Gold.Chemscore.Fitness>
17.8619

> <Gold.Chemscore.DG>
-19.8431

> <Gold.Chemscore.ZeroCoef>
-5.4800

> <Gold.Chemscore.Hbond>
2.7936

> <Gold.Chemscore.Metal>
0.0000

> <Gold.Chemscore.Lipo>
78.1517

> <Gold.Chemscore.Internal_Hbond>
0.0000

> <Gold.Chemscore.DEClash>
0.0324

> <Gold.Chemscore.DEInternal>
1.9488

> <Gold.Chemscore.Rot>
1.6060

> <Gold.Chemscore.Internal.Correction>
   9.000000E+99

> <Gold.Chemscore.Hbonds>
donor molecule, donor type, donor heavy atom, donor atom, acceptor molecule, acceptor atom, score
      L1  H     4    39       P1  7948  0.93
      P1  H  6896  6909       L1     9  0.28
      P1  H  7989  7998       L1    19  0.93

> <Gold.Chemscore.Hbond.Weighted>
-9.3306

> <Gold.Chemscore.Metal.Weighted>
-0.0000

> <Gold.Chemscore.Lipo.Weighted>
-9.1437

> <Gold.Chemscore.Internal_Hbond.Weighted>
0.0000

> <Gold.Chemscore.DEClash.Weighted>
0.0324

> <Gold.Chemscore.DEInternal.Weighted>
1.9488

> <Gold.Chemscore.Rot.Weighted>
4.1112

> <Gold.Chemscore.Internal.Correction.Weighted>
   9.000000E+99

> <Gold.Protein.RotatedTorsions>
[ 6907 6896 6895 6894 ] final   70.91 input  -60.11 | X-H torsion
[ 7974 7965 7964 7962 ] final  -71.56 input  175.53 | X-H torsion
[ 8008 7997 7996 7995 ] final  153.24 input   59.86 | X-H torsion
[ 10167 10162 10161 10158 ] final -177.22 input  -65.29 | X-H torsion
[ 10718 10713 10712 10709 ] final  139.31 input   66.30 | X-H torsion
[ 10763 10752 10751 10750 ] final  -57.14 input  -60.55 | X-H torsion
[ 11005 11000 10999 10996 ] final  -91.11 input  -57.11 | X-H torsion

> <Gold.Protein.ActiveResidues>
 VAL166  LYS551  ARG553  GLY616  TRP617  ASP618  TYR619  PRO620  LYS621  CYS622 
 ASP623  PHE694  ASN695  SER759  ASP760  ASP761  ALA762  ILE779  LEU786  VAL792 
 PHE793  MET794  SER795  GLU796  ALA797  LYS798  CYS799  TRP800  GLU811  SER814 

> <Gold.Protein.RotatedAtoms>
  152.4778  134.4798  159.9661 H   0  0  0  0  0  0  0  0  0  0  0  0  # atno 6907 bound_to 6896
  151.4811  133.3540  159.2846 H   0  0  0  0  0  0  0  0  0  0  0  0  # atno 6908 bound_to 6896
  150.8829  134.8249  159.7299 H   0  0  0  0  0  0  0  0  0  0  0  0  # atno 6909 bound_to 6896
  145.6765  140.9203  143.0855 H   0  0  0  0  0  0  0  0  0  0  0  0  # atno 7974 bound_to 7965
  156.2591  140.1999  156.6458 H   0  0  0  0  0  0  0  0  0  0  0  0  # atno 8008 bound_to 7997
  154.6574  140.0565  157.0049 H   0  0  0  0  0  0  0  0  0  0  0  0  # atno 8009 bound_to 7997
  155.1327  140.3235  155.4473 H   0  0  0  0  0  0  0  0  0  0  0  0  # atno 8010 bound_to 7997
  139.5491  144.2157  152.1043 H   0  0  0  0  0  0  0  0  0  0  0  0  # atno 10167 bound_to 10162
  157.4158  131.1033  151.0406 H   0  0  0  0  0  0  0  0  0  0  0  0  # atno 10718 bound_to 10713
  154.2178  135.6383  153.5135 H   0  0  0  0  0  0  0  0  0  0  0  0  # atno 10763 bound_to 10752
  152.9975  135.5489  154.6146 H   0  0  0  0  0  0  0  0  0  0  0  0  # atno 10764 bound_to 10752
  154.5599  135.2908  155.0903 H   0  0  0  0  0  0  0  0  0  0  0  0  # atno 10765 bound_to 10752
  141.1552  133.7735  156.9833 H   0  0  0  0  0  0  0  0  0  0  0  0  # atno 11005 bound_to 11000
  144.7040  139.8640  143.7436 LP  0  0  0  0  0  0  0  0  0  0  0  0  # atno 17320 bound_to 7965
  146.1001  139.3996  143.0352 LP  0  0  0  0  0  0  0  0  0  0  0  0  # atno 17321 bound_to 7965
  140.1649  144.4990  150.6611 LP  0  0  0  0  0  0  0  0  0  0  0  0  # atno 17342 bound_to 10162
  140.6748  143.2300  151.5535 LP  0  0  0  0  0  0  0  0  0  0  0  0  # atno 17343 bound_to 10162
  157.1354  130.6120  149.5541 LP  0  0  0  0  0  0  0  0  0  0  0  0  # atno 17370 bound_to 10713
  155.9864  130.4899  150.7080 LP  0  0  0  0  0  0  0  0  0  0  0  0  # atno 17371 bound_to 10713
  140.1051  134.9511  157.1982 LP  0  0  0  0  0  0  0  0  0  0  0  0  # atno 17394 bound_to 11000
  140.3267  134.2856  155.7235 LP  0  0  0  0  0  0  0  0  0  0  0  0  # atno 17395 bound_to 11000

$$$$
