AV-unprocessed.smi:970|AV-procd|sdf|4291|dock8
  -GOLD-   22720 2193D 1   1.00000     0.00000
 Structure written by MMmdl.
 31 31  0  0  0  0  0  0  0  0  1 V2000
  154.0239  140.9687  161.6420 C   0  0  0  0  0  0  0  0  0  0  0  0
  153.7929  141.6939  160.4022 N   0  0  0  0  0  0  0  0  0  0  0  0
  152.6378  142.2963  160.0855 C   0  0  0  0  0  0  0  0  0  0  0  0
  151.6536  142.2966  160.8273 O   0  0  0  0  0  0  0  0  0  0  0  0
  152.5990  143.0241  158.7318 C   0  0  2  0  0  0  0  0  0  0  0  0
  152.2008  144.4866  158.9903 C   0  0  0  0  0  0  0  0  0  0  0  0
  151.5866  142.4311  157.8604 N   0  0  0  0  0  0  0  0  0  0  0  0
  151.6661  141.2183  157.2872 C   0  0  0  0  0  0  0  0  0  0  0  0
  152.6298  140.4674  157.4447 O   0  0  0  0  0  0  0  0  0  0  0  0
  150.4680  140.7939  156.4188 C   0  0  2  0  0  0  0  0  0  0  0  0
  149.1583  140.6526  157.2208 C   0  0  0  0  0  0  0  0  0  0  0  0
  150.7725  139.5794  155.6708 N   0  0  0  0  0  0  0  0  0  0  0  0
  151.0185  138.3418  156.1063 C   0  0  0  0  0  0  0  0  0  0  0  0
  151.2235  137.4608  155.1374 N   0  0  0  0  0  0  0  0  0  0  0  0
  151.0732  138.2765  154.0520 C   0  0  0  0  0  0  0  0  0  0  0  0
  150.7965  139.5535  154.3148 N   0  0  0  0  0  0  0  0  0  0  0  0
  155.0258  140.5396  161.6412 H   0  0  0  0  0  0  0  0  0  0  0  0
  153.3053  140.1562  161.7582 H   0  0  0  0  0  0  0  0  0  0  0  0
  153.9387  141.6350  162.5014 H   0  0  0  0  0  0  0  0  0  0  0  0
  154.5565  141.7390  159.7429 H   0  0  0  0  0  0  0  0  0  0  0  0
  153.5788  142.9897  158.2511 H   0  0  0  0  0  0  0  0  0  0  0  0
  152.9280  144.9874  159.6308 H   0  0  0  0  0  0  0  0  0  0  0  0
  151.2240  144.5650  159.4704 H   0  0  0  0  0  0  0  0  0  0  0  0
  152.1532  145.0472  158.0562 H   0  0  0  0  0  0  0  0  0  0  0  0
  150.7581  142.9820  157.6894 H   0  0  0  0  0  0  0  0  0  0  0  0
  150.3167  141.5907  155.6888 H   0  0  0  0  0  0  0  0  0  0  0  0
  148.8936  141.5890  157.7132 H   0  0  0  0  0  0  0  0  0  0  0  0
  149.2323  139.8828  157.9899 H   0  0  0  0  0  0  0  0  0  0  0  0
  148.3296  140.3852  156.5648 H   0  0  0  0  0  0  0  0  0  0  0  0
  151.0435  138.0792  157.1538 H   0  0  0  0  0  0  0  0  0  0  0  0
  151.1653  137.9173  153.0376 H   0  0  0  0  0  0  0  0  0  0  0  0
  1  2  1  0  0  0  0
  1 17  1  0  0  0  0
  1 18  1  0  0  0  0
  1 19  1  0  0  0  0
  2  3  1  0  0  0  0
  2 20  1  0  0  0  0
  3  4  2  0  0  0  0
  3  5  1  0  0  0  0
  5  6  1  0  0  0  0
  5  7  1  0  0  0  0
  5 21  1  0  0  0  0
  6 22  1  0  0  0  0
  6 23  1  0  0  0  0
  6 24  1  0  0  0  0
  7  8  1  0  0  0  0
  7 25  1  0  0  0  0
  8  9  2  0  0  0  0
  8 10  1  0  0  0  0
 10 11  1  0  0  0  0
 10 12  1  0  0  0  0
 10 26  1  0  0  0  0
 11 27  1  0  0  0  0
 11 28  1  0  0  0  0
 11 29  1  0  0  0  0
 12 16  1  0  0  0  0
 12 13  1  0  0  0  0
 13 14  2  0  0  0  0
 13 30  1  0  0  0  0
 14 15  1  0  0  0  0
 15 16  2  0  0  0  0
 15 31  1  0  0  0  0
M  END
> <s_m_source_file>
AV-unprocessed.smi

> <i_m_source_file_index>
970

> <i_lp_mmshare_version>
43012

> <i_f3d_flags>
0

> <s_epik_input>
W0NIM11bTkhdQyg9TylbQ0BIXShbQ0gzXSlbTkhdQyg9TylbQ0BIXShbQ0gzXSluMVtjSF1uW2NIXW4x

> <s_epik_cmdline>
J2VwaWtfcHl0aG9uJywgJy1waCcsICc3LjAnLCAnLXRuJywgJzgnLCAnLW1hJywgJzIwMCcsICctbWV0YWxfYmluZGluZycsICctaW1hZScsICc8aW5maWxlLm1hZT4nLCAnLW9tYWUnLCAnPG91dGZpbGUubWFlPic=

> <r_lp_tautomer_probability>
1

> <r_epik_Ionization_Penalty>
1.07271e-05

> <r_epik_Ionization_Penalty_Charging>
0

> <r_epik_Ionization_Penalty_Neutral>
1.07271e-05

> <r_epik_State_Penalty>
-0

> <r_epik_Charging_Adjusted_Penalty>
0

> <i_epik_Tot_Q>
0

> <i_epik_Tot_abs_Q>
0

> <r_epik_Metal_State_Penalty>
-0

> <b_epik_Metal_Only>
0

> <s_lp_Force_Field>
OPLS_2005

> <r_lp_Energy>
8.61602

> <b_lp_Chiralities_Consistent>
1

> <s_lp_Variant>
AV-unprocessed.smi:970-1

> <Gold.Version>
5.8.1

> <Gold.Id.Protein>
6NUR|6NUR_protein|mol2

> <Gold.PLP.Fitness>
37.9713

> <Gold.PLP.PLP>
-29.0706

> <Gold.PLP.part.hbond>
-3.0000

> <Gold.PLP.part.metal>
0.0000

> <Gold.PLP.part.buried>
-4.0902

> <Gold.PLP.part.nonpolar>
-21.9171

> <Gold.PLP.part.repulsive>
0.3677

> <Gold.PLP.ligand.clash>
0.0000

> <Gold.PLP.ligand.torsion>
0.2521

> <Gold.PLP.Chemscore.Hbond>
2.0361

> <Gold.PLP.Chemscore.CHOScore>
1.0604

> <Gold.PLP.Chemscore.Metal>
0.0000

> <Gold.Chemscore.Hbonds>
donor molecule, donor type, donor heavy atom, donor atom, acceptor molecule, acceptor atom, score
      P1  H  6933  6945       L1     4  0.16
      P1  H  7989  7998       L1    16  1.00
      P1  H  7997  8008       L1     9  0.88
      L1  C    15    31       P1  7949  1.00

> <Gold.PLP.Chemscore.Internal.Correction>
0.1154

> <Gold.Rescore>
     Score         DG    S(hbond)    S(metal)    S(lipo)     H(rot)  DE(clash)    DE(int)     intcor
     11.07     -11.52       2.32        0.00      41.84       2.59       0.00       0.45       ----

> <Gold.Chemscore.Fitness>
11.0724

> <Gold.Chemscore.DG>
-11.5178

> <Gold.Chemscore.ZeroCoef>
-5.4800

> <Gold.Chemscore.Hbond>
2.3236

> <Gold.Chemscore.Metal>
0.0000

> <Gold.Chemscore.Lipo>
41.8390

> <Gold.Chemscore.Internal_Hbond>
0.0000

> <Gold.Chemscore.DEClash>
0.0000

> <Gold.Chemscore.DEInternal>
0.4454

> <Gold.Chemscore.Rot>
2.5852

> <Gold.Chemscore.Internal.Correction>
   9.000000E+99

> <Gold.Chemscore.Hbonds>
donor molecule, donor type, donor heavy atom, donor atom, acceptor molecule, acceptor atom, score
      P1  H  6933  6945       L1     4  0.16
      P1  H  7989  7998       L1    16  0.94
      P1  H  7997  8008       L1     9  0.86

> <Gold.Chemscore.Hbond.Weighted>
-7.7608

> <Gold.Chemscore.Metal.Weighted>
-0.0000

> <Gold.Chemscore.Lipo.Weighted>
-4.8952

> <Gold.Chemscore.Internal_Hbond.Weighted>
0.0000

> <Gold.Chemscore.DEClash.Weighted>
0.0000

> <Gold.Chemscore.DEInternal.Weighted>
0.4454

> <Gold.Chemscore.Rot.Weighted>
6.6182

> <Gold.Chemscore.Internal.Correction.Weighted>
   9.000000E+99

> <Gold.Protein.RotatedTorsions>
[ 6907 6896 6895 6894 ] final  -89.71 input  -60.11 | X-H torsion
[ 7974 7965 7964 7962 ] final  -55.78 input  175.53 | X-H torsion
[ 8008 7997 7996 7995 ] final  -63.99 input   59.86 | X-H torsion
[ 10167 10162 10161 10158 ] final   24.68 input  -65.29 | X-H torsion
[ 10718 10713 10712 10709 ] final   92.97 input   66.30 | X-H torsion
[ 10763 10752 10751 10750 ] final   61.63 input  -60.55 | X-H torsion
[ 11005 11000 10999 10996 ] final  162.25 input  -57.11 | X-H torsion

> <Gold.Protein.ActiveResidues>
 VAL166  LYS551  ARG553  GLY616  TRP617  ASP618  TYR619  PRO620  LYS621  CYS622 
 ASP623  PHE694  ASN695  SER759  ASP760  ASP761  ALA762  ILE779  LEU786  VAL792 
 PHE793  MET794  SER795  GLU796  ALA797  LYS798  CYS799  TRP800  GLU811  SER814 

> <Gold.Protein.RotatedAtoms>
  150.6876  134.2545  159.4523 H   0  0  0  0  0  0  0  0  0  0  0  0  # atno 6907 bound_to 6896
  152.0480  134.9669  160.0584 H   0  0  0  0  0  0  0  0  0  0  0  0  # atno 6908 bound_to 6896
  152.1144  133.4284  159.4683 H   0  0  0  0  0  0  0  0  0  0  0  0  # atno 6909 bound_to 6896
  145.8702  140.8222  142.9892 H   0  0  0  0  0  0  0  0  0  0  0  0  # atno 7974 bound_to 7965
  154.4586  140.0963  156.6828 H   0  0  0  0  0  0  0  0  0  0  0  0  # atno 8008 bound_to 7997
  155.5063  140.3475  155.4362 H   0  0  0  0  0  0  0  0  0  0  0  0  # atno 8009 bound_to 7997
  156.0826  140.1377  156.9682 H   0  0  0  0  0  0  0  0  0  0  0  0  # atno 8010 bound_to 7997
  140.5168  144.0068  150.6398 H   0  0  0  0  0  0  0  0  0  0  0  0  # atno 10167 bound_to 10162
  157.6956  131.0462  150.3963 H   0  0  0  0  0  0  0  0  0  0  0  0  # atno 10718 bound_to 10713
  152.9956  135.5494  154.6064 H   0  0  0  0  0  0  0  0  0  0  0  0  # atno 10763 bound_to 10752
  154.5394  135.2819  155.1111 H   0  0  0  0  0  0  0  0  0  0  0  0  # atno 10764 bound_to 10752
  154.2395  135.6419  153.5255 H   0  0  0  0  0  0  0  0  0  0  0  0  # atno 10765 bound_to 10752
  140.2239  134.8175  157.3249 H   0  0  0  0  0  0  0  0  0  0  0  0  # atno 11005 bound_to 11000
  144.6726  140.1227  143.7449 LP  0  0  0  0  0  0  0  0  0  0  0  0  # atno 17320 bound_to 7965
  145.9146  139.2508  143.1417 LP  0  0  0  0  0  0  0  0  0  0  0  0  # atno 17321 bound_to 7965
  140.3406  143.3022  152.0592 LP  0  0  0  0  0  0  0  0  0  0  0  0  # atno 17342 bound_to 10162
  139.4911  144.6445  151.6808 LP  0  0  0  0  0  0  0  0  0  0  0  0  # atno 17343 bound_to 10162
  156.4361  130.3982  149.6728 LP  0  0  0  0  0  0  0  0  0  0  0  0  # atno 17370 bound_to 10713
  156.3928  130.7636  151.2638 LP  0  0  0  0  0  0  0  0  0  0  0  0  # atno 17371 bound_to 10713
  140.1821  134.4477  155.7766 LP  0  0  0  0  0  0  0  0  0  0  0  0  # atno 17394 bound_to 11000
  141.2221  133.6988  156.7885 LP  0  0  0  0  0  0  0  0  0  0  0  0  # atno 17395 bound_to 11000

$$$$
