#       Name:                AV-unprocessed.smi:37
#       Creating user name   scv26
#       Creation time:       Thu Mar 26 16:12:55 2020


#       File generated by GOLD software.
#

@<TRIPOS>MOLECULE
AV-unprocessed.smi:37
    54    55     1
SMALL
NO_CHARGES


@<TRIPOS>ATOM
      1 ****        -4.2224   2.8828   2.0146 C.3            1 S1                 0.0000
      2 ****        -4.4978   2.0497   0.7555 C.3            1 S1                 0.0000
      3 ****        -3.8145   0.6848   0.8050 C.2            1 S1                 0.0000
      4 ****        -4.4670  -0.3588   0.8310 O.2            1 S1                 0.0000
      5 ****        -2.4755   0.7762   0.8069 O.3            1 S1                 0.0000
      6 ****        -1.6918  -0.4043   0.8486 C.3            1 S1                 0.0000
      7 ****        -0.2074  -0.0308   0.7510 C.3            1 S1                 0.0000
      8 ****         0.5606  -1.2099   0.9847 O.3            1 S1                 0.0000
      9 ****         1.4540  -1.4005  -0.0647 C.3            1 S1                 0.0000
     10 ****         1.7592  -2.8728  -0.2462 N.am           1 S1                 0.0000
     11 ****         3.0625  -3.2649  -0.5171 C.2            1 S1                 0.0000
     12 ****         3.4301  -4.5585  -0.6732 C.2            1 S1                 0.0000
     13 ****         4.7127  -4.8560  -0.9423 F              1 S1                 0.0000
     14 ****         2.4477  -5.6309  -0.5517 C.2            1 S1                 0.0000
     15 ****         2.6824  -6.8308  -0.6799 O.2            1 S1                 0.0000
     16 ****         1.1521  -5.1948  -0.2614 N.am           1 S1                 0.0000
     17 ****         0.7601  -3.8654  -0.0938 C.2            1 S1                 0.0000
     18 ****        -0.4115  -3.6095   0.1797 O.2            1 S1                 0.0000
     19 ****         0.8934  -0.6791  -1.2988 C.3            1 S1                 0.0000
     20 ****        -0.4493  -1.7085  -2.3586 Br             1 S1                 0.0000
     21 ****         0.1927   0.4989  -0.6392 C.3            1 S1                 0.0000
     22 ****         1.0943   1.5869  -0.4657 O.3            1 S1                 0.0000
     23 ****         1.2502   2.5048  -1.4381 C.2            1 S1                 0.0000
     24 ****         0.6947   2.4942  -2.5366 O.2            1 S1                 0.0000
     25 ****         2.2371   3.6059  -1.0566 C.3            1 S1                 0.0000
     26 ****         1.7406   4.4451   0.1285 C.3            1 S1                 0.0000
     27 ****         0.4393  -5.9023  -0.1587 H              1 S1                 0.0000
     28 ****        -4.7651   3.8272   1.9759 H              1 S1                 0.0000
     29 ****        -3.1621   3.1168   2.1154 H              1 S1                 0.0000
     30 ****        -4.5387   2.3566   2.9159 H              1 S1                 0.0000
     31 ****        -5.5715   1.9008   0.6386 H              1 S1                 0.0000
     32 ****        -4.1542   2.5849  -0.1300 H              1 S1                 0.0000
     33 ****        -1.8822  -0.9256   1.7876 H              1 S1                 0.0000
     34 ****        -1.9725  -1.0789   0.0390 H              1 S1                 0.0000
     35 ****         0.0288   0.6960   1.5298 H              1 S1                 0.0000
     36 ****         2.3939  -0.9483   0.2576 H              1 S1                 0.0000
     37 ****         3.8274  -2.5084  -0.6203 H              1 S1                 0.0000
     38 ****         1.6975  -0.3927  -1.9773 H              1 S1                 0.0000
     39 ****        -0.6782   0.8275  -1.2089 H              1 S1                 0.0000
     40 ****         3.1981   3.1504  -0.8169 H              1 S1                 0.0000
     41 ****         2.3989   4.2489  -1.9222 H              1 S1                 0.0000
     42 ****         2.4435   5.2480   0.3507 H              1 S1                 0.0000
     43 ****         1.6348   3.8415   1.0306 H              1 S1                 0.0000
     44 ****         0.7740   4.9023  -0.0865 H              1 S1                 0.0000
     45 ****        -5.4663  -0.3240   0.8198 LP             1 S1                 0.0000
     46 ****        -3.9977  -1.2412   0.8632 LP             1 S1                 0.0000
     47 ****        -0.0511  -1.9983   1.0483 LP             1 S1                 0.0000
     48 ****         1.0685  -1.1121   1.8405 LP             1 S1                 0.0000
     49 ****         3.6112  -7.1395  -0.8849 LP             1 S1                 0.0000
     50 ****         1.9445  -7.4981  -0.5793 LP             1 S1                 0.0000
     51 ****        -0.6996  -2.6602   0.3061 LP             1 S1                 0.0000
     52 ****        -1.0759  -4.3506   0.2756 LP             1 S1                 0.0000
     53 ****         0.0624   1.7556  -2.7701 LP             1 S1                 0.0000
     54 ****         0.8758   3.2243  -3.1956 LP             1 S1                 0.0000
@<TRIPOS>BOND
    1    1    2 1     
    2    1   28 1     
    3    1   29 1     
    4    1   30 1     
    5    2    3 1     
    6    2   31 1     
    7    2   32 1     
    8    3    4 2     
    9    3    5 1     
   10    5    6 1     
   11    6    7 1     
   12    6   33 1     
   13    6   34 1     
   14    7   21 1     
   15    7    8 1     
   16    7   35 1     
   17    8    9 1     
   18    9   10 1     
   19    9   19 1     
   20    9   36 1     
   21   10   17 1     
   22   10   11 1     
   23   11   12 2     
   24   11   37 1     
   25   12   13 1     
   26   12   14 1     
   27   14   15 2     
   28   14   16 1     
   29   16   27 1     
   30   16   17 1     
   31   17   18 2     
   32   19   20 1     
   33   19   21 1     
   34   19   38 1     
   35   21   22 1     
   36   21   39 1     
   37   22   23 1     
   38   23   24 2     
   39   23   25 1     
   40   25   26 1     
   41   25   40 1     
   42   25   41 1     
   43   26   42 1     
   44   26   43 1     
   45   26   44 1     
   46    4   45 1     
   47    4   46 1     
   48    8   47 1     
   49    8   48 1     
   50   15   49 1     
   51   15   50 1     
   52   18   51 1     
   53   18   52 1     
   54   24   53 1     
   55   24   54 1     
@<TRIPOS>SUBSTRUCTURE
      1 S1             1
@<TRIPOS>SET
LONE_PAIRS      STATIC     ATOMS    <user>   **** ""
10 45 46 47 48 49 50 51 52 53 54
DONOR_HYDROGENS      STATIC     ATOMS    <user>   **** ""
1 27
ATOM$BLUE        STATIC     ATOMS    COLORGROUP SYSTEM
10 45 46 47 48 49 50 51 52 53 54
ATOM$RED        STATIC     ATOMS    COLORGROUP SYSTEM
1 27
