#       Name:                AV-unprocessed.smi:2055
#       Creating user name   scv26
#       Creation time:       Fri Mar 27 11:00:27 2020


#       File generated by GOLD software.
#

@<TRIPOS>MOLECULE
AV-unprocessed.smi:2055
    51    52     1
SMALL
NO_CHARGES


@<TRIPOS>ATOM
      1 ****        -3.8165  -2.8445   0.0418 C.3            1 S1                 0.0000
      2 ****        -3.5359  -1.6713  -0.9095 C.3            1 S1                 0.0000
      3 ****        -4.5669  -1.5872  -2.0525 C.3            1 S1                 0.0000
      4 ****        -5.8216  -1.1781  -1.5517 O.3            1 S1                 0.0000
      5 ****        -2.1844  -1.8063  -1.4461 N.am           1 S1                 0.0000
      6 ****        -1.4363  -0.8017  -1.9236 C.2            1 S1                 0.0000
      7 ****        -1.8113   0.3686  -1.9934 O.2            1 S1                 0.0000
      8 ****        -0.2224  -1.2223  -2.3060 N.am           1 S1                 0.0000
      9 ****         0.8132  -0.3680  -2.8813 C.3            1 S1                 0.0000
     10 ****         1.4453   0.6315  -1.9184 C.ar           1 S1                 0.0000
     11 ****         2.0628   1.7890  -2.4360 C.ar           1 S1                 0.0000
     12 ****         2.6487   2.7111  -1.5494 C.ar           1 S1                 0.0000
     13 ****         2.6153   2.4791  -0.2202 N.pl3          1 S1                 1.0000
     14 ****         2.0433   1.3861   0.3413 C.ar           1 S1                 0.0000
     15 ****         2.0661   1.2742   1.7492 N.3            1 S1                 0.0000
     16 ****         1.3573   0.1562   2.3658 C.3            1 S1                 0.0000
     17 ****         1.2152   0.3767   3.8812 C.3            1 S1                 0.0000
     18 ****         2.4961   0.6121   4.4539 O.3            1 S1                 0.0000
     19 ****         3.0993   1.7893   3.9291 C.3            1 S1                 0.0000
     20 ****         3.3182   1.6311   2.4149 C.3            1 S1                 0.0000
     21 ****         1.4464   0.4280  -0.5175 C.ar           1 S1                 0.0000
     22 ****        -4.8001  -2.7524   0.5028 H              1 S1                 0.0000
     23 ****        -3.0817  -2.8823   0.8465 H              1 S1                 0.0000
     24 ****        -3.7848  -3.7994  -0.4840 H              1 S1                 0.0000
     25 ****        -3.5776  -0.7484  -0.3274 H              1 S1                 0.0000
     26 ****        -4.2596  -0.8561  -2.8008 H              1 S1                 0.0000
     27 ****        -4.6689  -2.5456  -2.5626 H              1 S1                 0.0000
     28 ****        -6.4249  -1.1052  -2.2753 H              1 S1                 0.0000
     29 ****        -1.7861  -2.7339  -1.4368 H              1 S1                 0.0000
     30 ****        -0.0045  -2.2036  -2.2097 H              1 S1                 0.0000
     31 ****         1.6027  -1.0103  -3.2715 H              1 S1                 0.0000
     32 ****         0.3976   0.1655  -3.7379 H              1 S1                 0.0000
     33 ****         2.0847   1.9720  -3.5006 H              1 S1                 0.0000
     34 ****         3.1363   3.6235  -1.8603 H              1 S1                 0.0000
     35 ****         0.3618   0.0522   1.9334 H              1 S1                 0.0000
     36 ****         1.9022  -0.7681   2.1696 H              1 S1                 0.0000
     37 ****         0.5505   1.2162   4.0917 H              1 S1                 0.0000
     38 ****         0.7725  -0.5031   4.3484 H              1 S1                 0.0000
     39 ****         2.4748   2.6584   4.1432 H              1 S1                 0.0000
     40 ****         4.0533   1.9530   4.4306 H              1 S1                 0.0000
     41 ****         4.0532   0.8482   2.2234 H              1 S1                 0.0000
     42 ****         3.7312   2.5603   2.0228 H              1 S1                 0.0000
     43 ****         0.9917  -0.4645  -0.1165 H              1 S1                 0.0000
     44 ****         3.0417   3.1701   0.3974 H              1 S1                 0.0000
     45 ****        -5.7306  -0.2916  -1.0979 LP             1 S1                 0.0000
     46 ****        -6.1601  -1.8543  -0.8973 LP             1 S1                 0.0000
     47 ****        -2.7279   0.6194  -1.6820 LP             1 S1                 0.0000
     48 ****        -1.1993   1.0686  -2.3615 LP             1 S1                 0.0000
     49 ****         1.4539   2.0376   1.9551 LP             1 S1                 0.0000
     50 ****         3.0875  -0.1701   4.2578 LP             1 S1                 0.0000
     51 ****         2.3949   0.7135   5.4436 LP             1 S1                 0.0000
@<TRIPOS>BOND
    1    1    2 1     
    2    1   22 1     
    3    1   23 1     
    4    1   24 1     
    5    2    3 1     
    6    2    5 1     
    7    2   25 1     
    8    3    4 1     
    9    3   26 1     
   10    3   27 1     
   11    4   28 1     
   12    5    6 am    
   13    5   29 1     
   14    6    7 2     
   15    6    8 am    
   16    8    9 1     
   17    8   30 1     
   18    9   10 1     
   19    9   31 1     
   20    9   32 1     
   21   10   21 ar    
   22   10   11 ar    
   23   11   12 ar    
   24   11   33 1     
   25   12   13 ar    
   26   12   34 1     
   27   13   14 ar    
   28   13   44 1     
   29   14   15 1     
   30   14   21 ar    
   31   15   20 1     
   32   15   16 1     
   33   16   17 1     
   34   16   35 1     
   35   16   36 1     
   36   17   18 1     
   37   17   37 1     
   38   17   38 1     
   39   18   19 1     
   40   19   20 1     
   41   19   39 1     
   42   19   40 1     
   43   20   41 1     
   44   20   42 1     
   45   21   43 1     
   46    4   45 1     
   47    4   46 1     
   48    7   47 1     
   49    7   48 1     
   50   15   49 1     
   51   18   50 1     
   52   18   51 1     
@<TRIPOS>SUBSTRUCTURE
      1 S1             1
@<TRIPOS>SET
LONE_PAIRS      STATIC     ATOMS    <user>   **** ""
7 45 46 47 48 49 50 51
DONOR_HYDROGENS      STATIC     ATOMS    <user>   **** ""
4 28 29 30 44
ATOM$BLUE        STATIC     ATOMS    COLORGROUP SYSTEM
7 45 46 47 48 49 50 51
ATOM$RED        STATIC     ATOMS    COLORGROUP SYSTEM
4 28 29 30 44
