AV-unprocessed.smi:1507|AV-procd|sdf|6085|dock9
  -GOLD-   22720 6203D 1   1.00000     0.00000
 Structure written by MMmdl.
 33 34  0  0  0  0  0  0  0  0  4 V2000
  148.2506  144.0065  158.7300 N   0  5  0  0  0  0  0  0  0  0  0  0
  147.6778  144.4971  160.1629 S   0  0  0  0  0  0  0  0  0  0  0  0
  147.1042  145.8444  160.0301 O   0  0  0  0  0  0  0  0  0  0  0  0
  146.7828  143.4864  160.7541 O   0  0  0  0  0  0  0  0  0  0  0  0
  149.1296  144.5829  160.9067 N   0  5  0  0  0  0  0  0  0  0  0  0
  150.3558  144.9705  160.2112 C   0  0  0  0  0  0  0  0  0  0  0  0
  151.4957  143.9865  160.4378 C   0  0  0  0  0  0  0  0  0  0  0  0
  151.9786  143.1802  159.3825 C   0  0  0  0  0  0  0  0  0  0  0  0
  153.0106  142.2523  159.6332 C   0  0  0  0  0  0  0  0  0  0  0  0
  153.5551  142.1343  160.9350 C   0  0  0  0  0  0  0  0  0  0  0  0
  154.5812  141.2153  161.2462 N   0  0  0  0  0  0  0  0  0  0  0  0
  155.2552  140.5434  160.1365 C   0  0  0  0  0  0  0  0  0  0  0  0
  156.5184  139.8209  160.6328 C   0  0  0  0  0  0  0  0  0  0  0  0
  156.1763  138.9333  161.6914 O   0  0  0  0  0  0  0  0  0  0  0  0
  155.6352  139.6283  162.8093 C   0  0  0  0  0  0  0  0  0  0  0  0
  154.3401  140.3493  162.3978 C   0  0  0  0  0  0  0  0  0  0  0  0
  153.0569  142.9311  161.9128 N   0  3  0  0  0  0  0  0  0  0  0  0
  152.0703  143.8332  161.7183 C   0  0  0  0  0  0  0  0  0  0  0  0
  147.9673  144.6910  158.0190 H   0  0  0  0  0  0  0  0  0  0  0  0
  150.1919  145.0315  159.1348 H   0  0  0  0  0  0  0  0  0  0  0  0
  150.6901  145.9669  160.5023 H   0  0  0  0  0  0  0  0  0  0  0  0
  151.5589  143.2475  158.3880 H   0  0  0  0  0  0  0  0  0  0  0  0
  153.3513  141.6254  158.8236 H   0  0  0  0  0  0  0  0  0  0  0  0
  154.5704  139.8282  159.6789 H   0  0  0  0  0  0  0  0  0  0  0  0
  155.5358  141.2658  159.3690 H   0  0  0  0  0  0  0  0  0  0  0  0
  156.9675  139.2497  159.8204 H   0  0  0  0  0  0  0  0  0  0  0  0
  157.2693  140.5369  160.9710 H   0  0  0  0  0  0  0  0  0  0  0  0
  155.4290  138.9129  163.6054 H   0  0  0  0  0  0  0  0  0  0  0  0
  156.3672  140.3367  163.2005 H   0  0  0  0  0  0  0  0  0  0  0  0
  153.9648  140.9079  163.2535 H   0  0  0  0  0  0  0  0  0  0  0  0
  153.5744  139.6187  162.1335 H   0  0  0  0  0  0  0  0  0  0  0  0
  151.7649  144.3831  162.5982 H   0  0  0  0  0  0  0  0  0  0  0  0
  153.4401  142.8400  162.8534 H   0  0  0  0  0  0  0  0  0  0  0  0
  1  2  1  0  0  0  0
  1 19  1  0  0  0  0
  2  3  2  0  0  0  0
  2  4  2  0  0  0  0
  2  5  1  0  0  0  0
  5  6  1  0  0  0  0
  6  7  1  0  0  0  0
  6 20  1  0  0  0  0
  6 21  1  0  0  0  0
  7 18  1  0  0  0  0
  7  8  2  0  0  0  0
  8  9  1  0  0  0  0
  8 22  1  0  0  0  0
  9 10  2  0  0  0  0
  9 23  1  0  0  0  0
 10 11  1  0  0  0  0
 10 17  1  0  0  0  0
 11 16  1  0  0  0  0
 11 12  1  0  0  0  0
 12 13  1  0  0  0  0
 12 24  1  0  0  0  0
 12 25  1  0  0  0  0
 13 14  1  0  0  0  0
 13 26  1  0  0  0  0
 13 27  1  0  0  0  0
 14 15  1  0  0  0  0
 15 16  1  0  0  0  0
 15 28  1  0  0  0  0
 15 29  1  0  0  0  0
 16 30  1  0  0  0  0
 16 31  1  0  0  0  0
 17 18  2  0  0  0  0
 17 33  1  0  0  0  0
 18 32  1  0  0  0  0
M  CHG  1   1  -1
M  CHG  1   5  -1
M  CHG  1  17   1
M  END
> <s_m_source_file>
AV-unprocessed.smi

> <i_m_source_file_index>
1507

> <i_lp_mmshare_version>
43012

> <i_f3d_flags>
0

> <s_epik_input>
W05IMl1TKD1PKSg9TylbTkhdW0NIMl1jMVtjSF1bY0hdYyhuW2NIXTEpTjJbQ0gyXVtDSDJdT1tDSDJdW0NIMl0y

> <s_epik_cmdline>
J2VwaWtfcHl0aG9uJywgJy1waCcsICc3LjAnLCAnLXRuJywgJzgnLCAnLW1hJywgJzIwMCcsICctbWV0YWxfYmluZGluZycsICctaW1hZScsICc8aW5maWxlLm1hZT4nLCAnLW9tYWUnLCAnPG91dGZpbGUubWFlPic=

> <r_epik_Ionization_Penalty>
8.77184

> <r_epik_Ionization_Penalty_Charging>
8.77184

> <r_epik_Ionization_Penalty_Neutral>
3.18726e-12

> <r_epik_State_Penalty>
5.60098

> <r_epik_Charging_Adjusted_Penalty>
14.3728

> <i_epik_Tot_Q>
-1

> <i_epik_Tot_abs_Q>
3

> <r_epik_Metal_State_Penalty>
2.46454

> <b_epik_Metal_Only>
1

> <s_lp_Force_Field>
OPLS_2005

> <r_lp_Energy>
15.9769

> <b_lp_Chiralities_Consistent>
1

> <s_lp_Variant>
AV-unprocessed.smi:1507-6

> <Gold.Version>
5.8.1

> <Gold.Id.Protein>
6NUR|6NUR_protein|mol2

> <Gold.PLP.Fitness>
39.1178

> <Gold.PLP.PLP>
-34.8326

> <Gold.PLP.part.hbond>
-3.8278

> <Gold.PLP.part.metal>
0.0000

> <Gold.PLP.part.buried>
-3.7751

> <Gold.PLP.part.nonpolar>
-26.7896

> <Gold.PLP.part.repulsive>
0.4782

> <Gold.PLP.ligand.clash>
0.0503

> <Gold.PLP.ligand.torsion>
0.8515

> <Gold.PLP.Chemscore.Hbond>
1.5500

> <Gold.PLP.Chemscore.CHOScore>
0.0000

> <Gold.PLP.Chemscore.Metal>
0.0000

> <Gold.Chemscore.Hbonds>
donor molecule, donor type, donor heavy atom, donor atom, acceptor molecule, acceptor atom, score
      L1  H     1    19       P1  8029  0.81
      P1  H  6933  6944       L1     4  0.37

> <Gold.PLP.Chemscore.Internal.Correction>
1.3885

> <Gold.Rescore>
     Score         DG    S(hbond)    S(metal)    S(lipo)     H(rot)  DE(clash)    DE(int)     intcor
     12.03     -13.69       1.00        0.00      83.03       1.89       0.75       0.92       ----

> <Gold.Chemscore.Fitness>
12.0273

> <Gold.Chemscore.DG>
-13.6908

> <Gold.Chemscore.ZeroCoef>
-5.4800

> <Gold.Chemscore.Hbond>
1.0002

> <Gold.Chemscore.Metal>
0.0000

> <Gold.Chemscore.Lipo>
83.0285

> <Gold.Chemscore.Internal_Hbond>
0.0000

> <Gold.Chemscore.DEClash>
0.7454

> <Gold.Chemscore.DEInternal>
0.9180

> <Gold.Chemscore.Rot>
1.8922

> <Gold.Chemscore.Internal.Correction>
   9.000000E+99

> <Gold.Chemscore.Hbonds>
donor molecule, donor type, donor heavy atom, donor atom, acceptor molecule, acceptor atom, score
      L1  H     1    19       P1  8029  0.44
      P1  H  6933  6944       L1     4  0.02

> <Gold.Chemscore.Hbond.Weighted>
-3.3406

> <Gold.Chemscore.Metal.Weighted>
-0.0000

> <Gold.Chemscore.Lipo.Weighted>
-9.7143

> <Gold.Chemscore.Internal_Hbond.Weighted>
0.0000

> <Gold.Chemscore.DEClash.Weighted>
0.7454

> <Gold.Chemscore.DEInternal.Weighted>
0.9180

> <Gold.Chemscore.Rot.Weighted>
4.8441

> <Gold.Chemscore.Internal.Correction.Weighted>
   9.000000E+99

> <Gold.Protein.RotatedTorsions>
[ 6907 6896 6895 6894 ] final   15.19 input  -60.11 | X-H torsion
[ 7974 7965 7964 7962 ] final  -95.97 input  175.53 | X-H torsion
[ 8008 7997 7996 7995 ] final  147.66 input   59.86 | X-H torsion
[ 10167 10162 10161 10158 ] final -154.22 input  -65.29 | X-H torsion
[ 10718 10713 10712 10709 ] final  -46.52 input   66.30 | X-H torsion
[ 10763 10752 10751 10750 ] final -133.19 input  -60.55 | X-H torsion
[ 11005 11000 10999 10996 ] final   76.63 input  -57.11 | X-H torsion

> <Gold.Protein.ActiveResidues>
 VAL166  LYS551  ARG553  GLY616  TRP617  ASP618  TYR619  PRO620  LYS621  CYS622 
 ASP623  PHE694  ASN695  SER759  ASP760  ASP761  ALA762  ILE779  LEU786  VAL792 
 PHE793  MET794  SER795  GLU796  ALA797  LYS798  CYS799  TRP800  GLU811  SER814 

> <Gold.Protein.RotatedAtoms>
  151.8141  135.0672  160.0416 H   0  0  0  0  0  0  0  0  0  0  0  0  # atno 6907 bound_to 6896
  152.2999  133.5640  159.5620 H   0  0  0  0  0  0  0  0  0  0  0  0  # atno 6908 bound_to 6896
  150.7268  134.0223  159.3747 H   0  0  0  0  0  0  0  0  0  0  0  0  # atno 6909 bound_to 6896
  145.3530  140.9480  143.2543 H   0  0  0  0  0  0  0  0  0  0  0  0  # atno 7974 bound_to 7965
  156.2817  140.2149  156.5573 H   0  0  0  0  0  0  0  0  0  0  0  0  # atno 8008 bound_to 7997
  154.7242  140.0501  157.0690 H   0  0  0  0  0  0  0  0  0  0  0  0  # atno 8009 bound_to 7997
  155.0439  140.3148  155.4718 H   0  0  0  0  0  0  0  0  0  0  0  0  # atno 8010 bound_to 7997
  139.7031  143.9230  152.2437 H   0  0  0  0  0  0  0  0  0  0  0  0  # atno 10167 bound_to 10162
  156.2175  130.4164  149.9035 H   0  0  0  0  0  0  0  0  0  0  0  0  # atno 10718 bound_to 10713
  154.8735  135.3774  154.4532 H   0  0  0  0  0  0  0  0  0  0  0  0  # atno 10763 bound_to 10752
  153.5206  135.7029  153.5738 H   0  0  0  0  0  0  0  0  0  0  0  0  # atno 10764 bound_to 10752
  153.3987  135.3954  155.1938 H   0  0  0  0  0  0  0  0  0  0  0  0  # atno 10765 bound_to 10752
  139.9289  134.7617  156.1420 H   0  0  0  0  0  0  0  0  0  0  0  0  # atno 11005 bound_to 11000
  144.8703  139.5048  143.6771 LP  0  0  0  0  0  0  0  0  0  0  0  0  # atno 17320 bound_to 7965
  146.2960  139.7278  142.9126 LP  0  0  0  0  0  0  0  0  0  0  0  0  # atno 17321 bound_to 7965
  139.9078  144.6874  150.8595 LP  0  0  0  0  0  0  0  0  0  0  0  0  # atno 17342 bound_to 10162
  140.7715  143.3465  151.2100 LP  0  0  0  0  0  0  0  0  0  0  0  0  # atno 17343 bound_to 10162
  156.6692  130.8813  151.3559 LP  0  0  0  0  0  0  0  0  0  0  0  0  # atno 17370 bound_to 10713
  157.7071  130.9397  150.0965 LP  0  0  0  0  0  0  0  0  0  0  0  0  # atno 17371 bound_to 10713
  141.0866  133.6732  156.2449 LP  0  0  0  0  0  0  0  0  0  0  0  0  # atno 17394 bound_to 11000
  140.6256  134.5316  157.5553 LP  0  0  0  0  0  0  0  0  0  0  0  0  # atno 17395 bound_to 11000

$$$$
