AV-unprocessed.smi:1419|AV-procd|sdf|5781|dock10
  -GOLD-   22720 5423D 1   1.00000     0.00000
 Structure written by MMmdl.
 41 42  0  0  0  0  0  0  0  0  1 V2000
  146.3305  128.6344  151.6278 C   0  0  0  0  0  0  0  0  0  0  0  0
  146.8020  130.0332  152.0465 C   0  0  1  0  0  0  0  0  0  0  0  0
  145.6076  130.9862  152.2701 C   0  0  0  0  0  0  0  0  0  0  0  0
  145.1320  131.5875  151.0367 N   0  0  0  0  0  0  0  0  0  0  0  0
  143.9109  132.2139  150.8250 C   0  0  0  0  0  0  0  0  0  0  0  0
  143.8936  132.6044  149.5052 C   0  0  0  0  0  0  0  0  0  0  0  0
  145.0891  132.2379  148.8911 N   0  0  0  0  0  0  0  0  0  0  0  0
  145.7733  131.6457  149.8609 C   0  0  0  0  0  0  0  0  0  0  0  0
  147.6037  129.9220  153.2643 N   0  0  0  0  0  0  0  0  0  0  0  0
  148.5825  129.0262  153.4837 C   0  0  0  0  0  0  0  0  0  0  0  0
  148.8280  128.1123  152.6952 O   0  0  0  0  0  0  0  0  0  0  0  0
  149.3095  129.2511  154.6052 N   0  0  0  0  0  0  0  0  0  0  0  0
  149.1372  130.3538  155.5595 C   0  0  0  0  0  0  0  0  0  0  0  0
  150.2871  131.3559  155.3363 C   0  0  1  0  0  0  0  0  0  0  0  0
  150.2306  132.5306  156.3181 C   0  0  0  0  0  0  0  0  0  0  0  0
  151.5323  130.6805  155.5172 O   0  0  0  0  0  0  0  0  0  0  0  0
  151.7167  129.5599  154.6508 C   0  0  1  0  0  0  0  0  0  0  0  0
  153.0911  128.9489  154.9421 C   0  0  0  0  0  0  0  0  0  0  0  0
  150.5684  128.5542  154.8746 C   0  0  0  0  0  0  0  0  0  0  0  0
  145.7491  128.6768  150.7064 H   0  0  0  0  0  0  0  0  0  0  0  0
  145.7041  128.1790  152.3957 H   0  0  0  0  0  0  0  0  0  0  0  0
  147.1776  127.9705  151.4511 H   0  0  0  0  0  0  0  0  0  0  0  0
  147.4143  130.4245  151.2319 H   0  0  0  0  0  0  0  0  0  0  0  0
  144.7749  130.4455  152.7213 H   0  0  0  0  0  0  0  0  0  0  0  0
  145.8778  131.7813  152.9666 H   0  0  0  0  0  0  0  0  0  0  0  0
  143.1723  132.3168  151.6061 H   0  0  0  0  0  0  0  0  0  0  0  0
  143.1182  133.1160  148.9543 H   0  0  0  0  0  0  0  0  0  0  0  0
  146.7595  131.2324  149.7083 H   0  0  0  0  0  0  0  0  0  0  0  0
  147.4630  130.6371  153.9629 H   0  0  0  0  0  0  0  0  0  0  0  0
  148.1727  130.8557  155.4812 H   0  0  0  0  0  0  0  0  0  0  0  0
  149.1763  129.9583  156.5756 H   0  0  0  0  0  0  0  0  0  0  0  0
  150.2409  131.7485  154.3191 H   0  0  0  0  0  0  0  0  0  0  0  0
  149.3008  133.0891  156.2082 H   0  0  0  0  0  0  0  0  0  0  0  0
  151.0558  133.2221  156.1464 H   0  0  0  0  0  0  0  0  0  0  0  0
  150.2948  132.1854  157.3504 H   0  0  0  0  0  0  0  0  0  0  0  0
  151.7036  129.9077  153.6158 H   0  0  0  0  0  0  0  0  0  0  0  0
  153.2837  128.0918  154.2964 H   0  0  0  0  0  0  0  0  0  0  0  0
  153.1624  128.6128  155.9770 H   0  0  0  0  0  0  0  0  0  0  0  0
  153.8841  129.6774  154.7724 H   0  0  0  0  0  0  0  0  0  0  0  0
  150.5737  128.1879  155.9024 H   0  0  0  0  0  0  0  0  0  0  0  0
  150.7088  127.6767  154.2417 H   0  0  0  0  0  0  0  0  0  0  0  0
  1  2  1  0  0  0  0
  1 20  1  0  0  0  0
  1 21  1  0  0  0  0
  1 22  1  0  0  0  0
  2  3  1  0  0  0  0
  2  9  1  0  0  0  0
  2 23  1  0  0  0  0
  3  4  1  0  0  0  0
  3 24  1  0  0  0  0
  3 25  1  0  0  0  0
  4  8  1  0  0  0  0
  4  5  1  0  0  0  0
  5  6  2  0  0  0  0
  5 26  1  0  0  0  0
  6  7  1  0  0  0  0
  6 27  1  0  0  0  0
  7  8  2  0  0  0  0
  8 28  1  0  0  0  0
  9 10  1  0  0  0  0
  9 29  1  0  0  0  0
 10 11  2  0  0  0  0
 10 12  1  0  0  0  0
 12 19  1  0  0  0  0
 12 13  1  0  0  0  0
 13 14  1  0  0  0  0
 13 30  1  0  0  0  0
 13 31  1  0  0  0  0
 14 15  1  0  0  0  0
 14 16  1  0  0  0  0
 14 32  1  0  0  0  0
 15 33  1  0  0  0  0
 15 34  1  0  0  0  0
 15 35  1  0  0  0  0
 16 17  1  0  0  0  0
 17 18  1  0  0  0  0
 17 19  1  0  0  0  0
 17 36  1  0  0  0  0
 18 37  1  0  0  0  0
 18 38  1  0  0  0  0
 18 39  1  0  0  0  0
 19 40  1  0  0  0  0
 19 41  1  0  0  0  0
M  END
> <s_m_source_file>
AV-unprocessed.smi

> <i_m_source_file_index>
1419

> <i_lp_mmshare_version>
43012

> <i_f3d_flags>
0

> <s_epik_input>
W2NIXTFuW2NIXVtjSF1uMVtDSDJdW0NAQEhdKFtDSDNdKVtOSF1DKD1PKU4yW0NIMl1bQ0BASF0oW0NIM10pT1tDQEBIXShbQ0gzXSlbQ0gyXTI=

> <s_epik_cmdline>
J2VwaWtfcHl0aG9uJywgJy1waCcsICc3LjAnLCAnLXRuJywgJzgnLCAnLW1hJywgJzIwMCcsICctbWV0YWxfYmluZGluZycsICctaW1hZScsICc8aW5maWxlLm1hZT4nLCAnLW9tYWUnLCAnPG91dGZpbGUubWFlPic=

> <r_lp_tautomer_probability>
1

> <r_epik_Ionization_Penalty>
0.625124

> <r_epik_Ionization_Penalty_Charging>
0.625093

> <r_epik_Ionization_Penalty_Neutral>
3.17415e-05

> <r_epik_State_Penalty>
0.641455

> <r_epik_Charging_Adjusted_Penalty>
1.26655

> <i_epik_Tot_Q>
0

> <i_epik_Tot_abs_Q>
0

> <r_epik_Metal_State_Penalty>
0.307717

> <b_epik_Metal_Only>
0

> <s_lp_Force_Field>
OPLS_2005

> <r_lp_Energy>
27.9017

> <b_lp_Chiralities_Consistent>
1

> <s_lp_Variant>
AV-unprocessed.smi:1419-8

> <Gold.Version>
5.8.1

> <Gold.Id.Protein>
6NUR|6NUR_protein|mol2

> <Gold.PLP.Fitness>
39.7114

> <Gold.PLP.PLP>
-34.9473

> <Gold.PLP.part.hbond>
-0.7636

> <Gold.PLP.part.metal>
0.0000

> <Gold.PLP.part.buried>
-2.9769

> <Gold.PLP.part.nonpolar>
-31.5714

> <Gold.PLP.part.repulsive>
0.3736

> <Gold.PLP.ligand.clash>
0.0000

> <Gold.PLP.ligand.torsion>
0.6503

> <Gold.PLP.Chemscore.Hbond>
0.0000

> <Gold.PLP.Chemscore.CHOScore>
2.0000

> <Gold.PLP.Chemscore.Metal>
0.0000

> <Gold.Chemscore.Hbonds>
donor molecule, donor type, donor heavy atom, donor atom, acceptor molecule, acceptor atom, score
      L1  C     6    27       P1 10186  0.96
      L1  C     8    28       P1 10747  1.00

> <Gold.PLP.Chemscore.Internal.Correction>
0.0648

> <Gold.Rescore>
     Score         DG    S(hbond)    S(metal)    S(lipo)     H(rot)  DE(clash)    DE(int)     intcor
      8.31     -10.60       0.00        0.00      78.29       1.58       0.39       1.91       ----

> <Gold.Chemscore.Fitness>
8.3065

> <Gold.Chemscore.DG>
-10.6026

> <Gold.Chemscore.ZeroCoef>
-5.4800

> <Gold.Chemscore.Hbond>
0.0000

> <Gold.Chemscore.Metal>
0.0000

> <Gold.Chemscore.Lipo>
78.2863

> <Gold.Chemscore.Internal_Hbond>
0.0000

> <Gold.Chemscore.DEClash>
0.3904

> <Gold.Chemscore.DEInternal>
1.9057

> <Gold.Chemscore.Rot>
1.5769

> <Gold.Chemscore.Internal.Correction>
   9.000000E+99

> <Gold.Chemscore.Hbond.Weighted>
-0.0000

> <Gold.Chemscore.Metal.Weighted>
-0.0000

> <Gold.Chemscore.Lipo.Weighted>
-9.1595

> <Gold.Chemscore.Internal_Hbond.Weighted>
0.0000

> <Gold.Chemscore.DEClash.Weighted>
0.3904

> <Gold.Chemscore.DEInternal.Weighted>
1.9057

> <Gold.Chemscore.Rot.Weighted>
4.0369

> <Gold.Chemscore.Internal.Correction.Weighted>
   9.000000E+99

> <Gold.Protein.RotatedTorsions>
[ 6907 6896 6895 6894 ] final  153.87 input  -60.11 | X-H torsion
[ 7974 7965 7964 7962 ] final  -31.93 input  175.53 | X-H torsion
[ 8008 7997 7996 7995 ] final -126.58 input   59.86 | X-H torsion
[ 10167 10162 10161 10158 ] final   38.82 input  -65.29 | X-H torsion
[ 10718 10713 10712 10709 ] final  -65.01 input   66.30 | X-H torsion
[ 10763 10752 10751 10750 ] final   28.55 input  -60.55 | X-H torsion
[ 11005 11000 10999 10996 ] final -147.37 input  -57.11 | X-H torsion

> <Gold.Protein.ActiveResidues>
 VAL166  LYS551  ARG553  GLY616  TRP617  ASP618  TYR619  PRO620  LYS621  CYS622 
 ASP623  PHE694  ASN695  SER759  ASP760  ASP761  ALA762  ILE779  LEU786  VAL792 
 PHE793  MET794  SER795  GLU796  ALA797  LYS798  CYS799  TRP800  GLU811  SER814 

> <Gold.Protein.RotatedAtoms>
  152.0666  133.4087  159.4440 H   0  0  0  0  0  0  0  0  0  0  0  0  # atno 6907 bound_to 6896
  150.6864  134.3139  159.4767 H   0  0  0  0  0  0  0  0  0  0  0  0  # atno 6908 bound_to 6896
  152.0966  134.9370  160.0621 H   0  0  0  0  0  0  0  0  0  0  0  0  # atno 6909 bound_to 6896
  146.1029  140.5729  142.8813 H   0  0  0  0  0  0  0  0  0  0  0  0  # atno 7974 bound_to 7965
  155.2321  140.0425  157.2963 H   0  0  0  0  0  0  0  0  0  0  0  0  # atno 8008 bound_to 7997
  154.5882  140.2419  155.7928 H   0  0  0  0  0  0  0  0  0  0  0  0  # atno 8009 bound_to 7997
  156.2241  140.2960  156.0032 H   0  0  0  0  0  0  0  0  0  0  0  0  # atno 8010 bound_to 7997
  140.3900  144.1865  150.6131 H   0  0  0  0  0  0  0  0  0  0  0  0  # atno 10167 bound_to 10162
  156.0694  130.4241  150.1503 H   0  0  0  0  0  0  0  0  0  0  0  0  # atno 10718 bound_to 10713
  153.0485  135.6510  154.0755 H   0  0  0  0  0  0  0  0  0  0  0  0  # atno 10763 bound_to 10752
  154.0448  135.2900  155.3351 H   0  0  0  0  0  0  0  0  0  0  0  0  # atno 10764 bound_to 10752
  154.6758  135.5339  153.8264 H   0  0  0  0  0  0  0  0  0  0  0  0  # atno 10765 bound_to 10752
  140.7724  134.3174  157.5071 H   0  0  0  0  0  0  0  0  0  0  0  0  # atno 11005 bound_to 11000
  144.7447  140.5037  143.6844 LP  0  0  0  0  0  0  0  0  0  0  0  0  # atno 17320 bound_to 7965
  145.5818  139.1489  143.3231 LP  0  0  0  0  0  0  0  0  0  0  0  0  # atno 17321 bound_to 7965
  140.4850  143.2366  151.8901 LP  0  0  0  0  0  0  0  0  0  0  0  0  # atno 17342 bound_to 10162
  139.4789  144.5229  151.8776 LP  0  0  0  0  0  0  0  0  0  0  0  0  # atno 17343 bound_to 10162
  156.9557  130.9789  151.3489 LP  0  0  0  0  0  0  0  0  0  0  0  0  # atno 17370 bound_to 10713
  157.5756  130.8341  149.8452 LP  0  0  0  0  0  0  0  0  0  0  0  0  # atno 17371 bound_to 10713
  139.8754  134.9269  156.3411 LP  0  0  0  0  0  0  0  0  0  0  0  0  # atno 17394 bound_to 11000
  140.9561  133.7419  156.0338 LP  0  0  0  0  0  0  0  0  0  0  0  0  # atno 17395 bound_to 11000

$$$$
