AV-unprocessed.smi:759|AV-procd|sdf|3623|dock1
  -GOLD-   22720 1 13D 1   1.00000     0.00000
 Structure written by MMmdl.
 24 25  0  0  0  0  0  0  0  0  2 V2000
  150.9704  142.1266  157.1581 C   0  0  0  0  0  0  0  0  0  0  0  0
  151.2312  140.8641  157.5003 N   0  0  0  0  0  0  0  0  0  0  0  0
  150.6283  140.0983  156.5156 N   0  0  0  0  0  0  0  0  0  0  0  0
  150.0639  140.9726  155.6722 C   0  0  0  0  0  0  0  0  0  0  0  0
  149.2945  140.6017  154.4414 C   0  0  2  0  0  0  0  0  0  0  0  0
  147.8573  141.1571  154.4679 C   0  0  0  0  0  0  0  0  0  0  0  0
  147.0941  140.7397  153.2012 C   0  0  0  0  0  0  0  0  0  0  0  0
  147.1353  139.2143  153.0116 C   0  0  0  0  0  0  0  0  0  0  0  0
  148.5323  138.7291  152.9831 N   0  3  0  0  0  0  0  0  0  0  0  0
  149.2907  139.0769  154.2051 C   0  0  0  0  0  0  0  0  0  0  0  0
  150.2516  142.2508  156.0363 N   0  0  0  0  0  0  0  0  0  0  0  0
  149.9320  143.0942  155.5824 H   0  0  0  0  0  0  0  0  0  0  0  0
  151.3102  142.9737  157.7357 H   0  0  0  0  0  0  0  0  0  0  0  0
  149.8051  141.0613  153.5931 H   0  0  0  0  0  0  0  0  0  0  0  0
  147.3294  140.7850  155.3472 H   0  0  0  0  0  0  0  0  0  0  0  0
  147.8732  142.2445  154.5516 H   0  0  0  0  0  0  0  0  0  0  0  0
  146.0600  141.0804  153.2596 H   0  0  0  0  0  0  0  0  0  0  0  0
  147.5324  141.2295  152.3305 H   0  0  0  0  0  0  0  0  0  0  0  0
  146.5976  138.7159  153.8195 H   0  0  0  0  0  0  0  0  0  0  0  0
  146.6426  138.9349  152.0800 H   0  0  0  0  0  0  0  0  0  0  0  0
  148.5280  137.7246  152.8758 H   0  0  0  0  0  0  0  0  0  0  0  0
  150.3110  138.7055  154.1029 H   0  0  0  0  0  0  0  0  0  0  0  0
  148.8464  138.5573  155.0554 H   0  0  0  0  0  0  0  0  0  0  0  0
  148.9984  139.1398  152.1868 H   0  0  0  0  0  0  0  0  0  0  0  0
  1 11  1  0  0  0  0
  1  2  2  0  0  0  0
  1 13  1  0  0  0  0
  2  3  1  0  0  0  0
  3  4  2  0  0  0  0
  4  5  1  0  0  0  0
  4 11  1  0  0  0  0
  5 10  1  0  0  0  0
  5  6  1  0  0  0  0
  5 14  1  0  0  0  0
  6  7  1  0  0  0  0
  6 15  1  0  0  0  0
  6 16  1  0  0  0  0
  7  8  1  0  0  0  0
  7 17  1  0  0  0  0
  7 18  1  0  0  0  0
  8  9  1  0  0  0  0
  8 19  1  0  0  0  0
  8 20  1  0  0  0  0
  9 10  1  0  0  0  0
  9 21  1  0  0  0  0
  9 24  1  0  0  0  0
 10 22  1  0  0  0  0
 10 23  1  0  0  0  0
 11 12  1  0  0  0  0
M  CHG  1   9   1
M  END
> <s_m_source_file>
AV-unprocessed.smi

> <i_m_source_file_index>
759

> <i_lp_mmshare_version>
43012

> <i_f3d_flags>
0

> <s_epik_input>
W25IXTFbY0hdbm5jMVtDQEBIXTJbQ0gyXVtDSDJdW0NIMl1bTkhdW0NIMl0y

> <s_epik_cmdline>
J2VwaWtfcHl0aG9uJywgJy1waCcsICc3LjAnLCAnLXRuJywgJzgnLCAnLW1hJywgJzIwMCcsICctbWV0YWxfYmluZGluZycsICctaW1hZScsICc8aW5maWxlLm1hZT4nLCAnLW9tYWUnLCAnPG91dGZpbGUubWFlPic=

> <r_lp_tautomer_probability>
0.0517155

> <r_epik_Ionization_Penalty>
0.0333069

> <r_epik_Ionization_Penalty_Charging>
0.000426856

> <r_epik_Ionization_Penalty_Neutral>
0.03288

> <r_epik_State_Penalty>
2.11054

> <r_epik_Charging_Adjusted_Penalty>
2.11097

> <i_epik_Tot_Q>
1

> <i_epik_Tot_abs_Q>
1

> <r_epik_Metal_State_Penalty>
2.37626

> <b_epik_Metal_Only>
0

> <s_lp_Force_Field>
OPLS_2005

> <r_lp_Energy>
13.742

> <b_lp_Chiralities_Consistent>
1

> <s_lp_Variant>
AV-unprocessed.smi:759-5

> <Gold.Version>
5.8.1

> <Gold.Id.Protein>
6NUR|6NUR_protein|mol2

> <Gold.PLP.Fitness>
33.3962

> <Gold.PLP.PLP>
-22.0289

> <Gold.PLP.part.hbond>
-2.8234

> <Gold.PLP.part.metal>
0.0000

> <Gold.PLP.part.buried>
-2.9378

> <Gold.PLP.part.nonpolar>
-16.8671

> <Gold.PLP.part.repulsive>
0.2026

> <Gold.PLP.ligand.clash>
0.0000

> <Gold.PLP.ligand.torsion>
0.0145

> <Gold.PLP.Chemscore.Hbond>
3.7895

> <Gold.PLP.Chemscore.CHOScore>
0.0000

> <Gold.PLP.Chemscore.Metal>
0.0000

> <Gold.Chemscore.Hbonds>
donor molecule, donor type, donor heavy atom, donor atom, acceptor molecule, acceptor atom, score
      L1  H     9    21       P1  7948  1.92
      L1  H     9    24       P1  7957  0.88
      L1  H    11    12       P1  8028  0.99

> <Gold.PLP.Chemscore.Internal.Correction>
0.0278

> <Gold.Rescore>
     Score         DG    S(hbond)    S(metal)    S(lipo)     H(rot)  DE(clash)    DE(int)     intcor
     16.51     -16.52       2.90        0.00      33.48       1.00       0.00       0.01       ----

> <Gold.Chemscore.Fitness>
16.5054

> <Gold.Chemscore.DG>
-16.5195

> <Gold.Chemscore.ZeroCoef>
-5.4800

> <Gold.Chemscore.Hbond>
2.8990

> <Gold.Chemscore.Metal>
0.0000

> <Gold.Chemscore.Lipo>
33.4781

> <Gold.Chemscore.Internal_Hbond>
0.0000

> <Gold.Chemscore.DEClash>
0.0000

> <Gold.Chemscore.DEInternal>
0.0142

> <Gold.Chemscore.Rot>
1.0000

> <Gold.Chemscore.Internal.Correction>
   9.000000E+99

> <Gold.Chemscore.Hbonds>
donor molecule, donor type, donor heavy atom, donor atom, acceptor molecule, acceptor atom, score
      L1  H     9    21       P1  7948  0.92
      L1  H     9    24       P1  7957  0.84
      L1  H    11    12       P1  8028  0.93

> <Gold.Chemscore.Hbond.Weighted>
-9.6826

> <Gold.Chemscore.Metal.Weighted>
-0.0000

> <Gold.Chemscore.Lipo.Weighted>
-3.9169

> <Gold.Chemscore.Internal_Hbond.Weighted>
0.0000

> <Gold.Chemscore.DEClash.Weighted>
0.0000

> <Gold.Chemscore.DEInternal.Weighted>
0.0142

> <Gold.Chemscore.Rot.Weighted>
2.5600

> <Gold.Chemscore.Internal.Correction.Weighted>
   9.000000E+99

> <Gold.Protein.RotatedTorsions>
[ 6907 6896 6895 6894 ] final -110.52 input  -60.11 | X-H torsion
[ 7974 7965 7964 7962 ] final  -85.31 input  175.53 | X-H torsion
[ 8008 7997 7996 7995 ] final  -65.27 input   59.86 | X-H torsion
[ 10167 10162 10161 10158 ] final  123.93 input  -65.29 | X-H torsion
[ 10718 10713 10712 10709 ] final   61.37 input   66.30 | X-H torsion
[ 10763 10752 10751 10750 ] final   -5.03 input  -60.55 | X-H torsion
[ 11005 11000 10999 10996 ] final  -32.46 input  -57.11 | X-H torsion

> <Gold.Protein.ActiveResidues>
 VAL166  LYS551  ARG553  GLY616  TRP617  ASP618  TYR619  PRO620  LYS621  CYS622 
 ASP623  PHE694  ASN695  SER759  ASP760  ASP761  ALA762  ILE779  LEU786  VAL792 
 PHE793  MET794  SER795  GLU796  ALA797  LYS798  CYS799  TRP800  GLU811  SER814 

> <Gold.Protein.RotatedAtoms>
  150.7630  133.9369  159.3444 H   0  0  0  0  0  0  0  0  0  0  0  0  # atno 6907 bound_to 6896
  151.7274  135.0880  160.0304 H   0  0  0  0  0  0  0  0  0  0  0  0  # atno 6908 bound_to 6896
  152.3611  133.6261  159.6052 H   0  0  0  0  0  0  0  0  0  0  0  0  # atno 6909 bound_to 6896
  145.4949  140.9550  143.1791 H   0  0  0  0  0  0  0  0  0  0  0  0  # atno 7974 bound_to 7965
  154.4661  140.0936  156.7024 H   0  0  0  0  0  0  0  0  0  0  0  0  # atno 8008 bound_to 7997
  155.4854  140.3469  155.4328 H   0  0  0  0  0  0  0  0  0  0  0  0  # atno 8009 bound_to 7997
  156.0959  140.1409  156.9520 H   0  0  0  0  0  0  0  0  0  0  0  0  # atno 8010 bound_to 7997
  139.5771  144.6968  151.3625 H   0  0  0  0  0  0  0  0  0  0  0  0  # atno 10167 bound_to 10162
  157.5823  130.8991  149.9453 H   0  0  0  0  0  0  0  0  0  0  0  0  # atno 10718 bound_to 10713
  153.3929  135.7002  153.6481 H   0  0  0  0  0  0  0  0  0  0  0  0  # atno 10763 bound_to 10752
  153.5046  135.3645  155.2557 H   0  0  0  0  0  0  0  0  0  0  0  0  # atno 10764 bound_to 10752
  154.8704  135.4120  154.3250 H   0  0  0  0  0  0  0  0  0  0  0  0  # atno 10765 bound_to 10752
  140.9554  133.7196  156.1284 H   0  0  0  0  0  0  0  0  0  0  0  0  # atno 11005 bound_to 11000
  144.7813  139.6521  143.7153 LP  0  0  0  0  0  0  0  0  0  0  0  0  # atno 17320 bound_to 7965
  146.2261  139.5726  142.9586 LP  0  0  0  0  0  0  0  0  0  0  0  0  # atno 17321 bound_to 7965
  140.7052  143.7531  150.7470 LP  0  0  0  0  0  0  0  0  0  0  0  0  # atno 17342 bound_to 10162
  140.1053  143.4749  152.2401 LP  0  0  0  0  0  0  0  0  0  0  0  0  # atno 17343 bound_to 10162
  156.0870  130.3667  150.0469 LP  0  0  0  0  0  0  0  0  0  0  0  0  # atno 17370 bound_to 10713
  156.8606  130.9490  151.3618 LP  0  0  0  0  0  0  0  0  0  0  0  0  # atno 17371 bound_to 10713
  140.7544  134.4009  157.5536 LP  0  0  0  0  0  0  0  0  0  0  0  0  # atno 17394 bound_to 11000
  139.8860  134.8920  156.2608 LP  0  0  0  0  0  0  0  0  0  0  0  0  # atno 17395 bound_to 11000

$$$$
