AV-unprocessed.smi:2390|AV-procd|sdf|9474|dock3
  -GOLD-   2272013103D 1   1.00000     0.00000
 Structure written by MMmdl.
 45 46  0  0  0  0  0  0  0  0  1 V2000
  142.4205  136.4737  153.7484 C   0  0  0  0  0  0  0  0  0  0  0  0
  143.6221  136.3976  152.8302 C   0  0  0  0  0  0  0  0  0  0  0  0
  143.7648  135.3427  151.9077 C   0  0  0  0  0  0  0  0  0  0  0  0
  144.9037  135.3336  151.0827 C   0  0  0  0  0  0  0  0  0  0  0  0
  145.8459  136.3722  151.2125 C   0  0  0  0  0  0  0  0  0  0  0  0
  145.6270  137.3940  152.1637 C   0  0  0  0  0  0  0  0  0  0  0  0
  146.6347  138.3933  152.2191 N   0  0  0  0  0  0  0  0  0  0  0  0
  146.9328  139.2146  153.2414 C   0  0  0  0  0  0  0  0  0  0  0  0
  146.3540  139.2382  154.3283 O   0  0  0  0  0  0  0  0  0  0  0  0
  147.9545  140.0267  152.9314 N   0  0  0  0  0  0  0  0  0  0  0  0
  148.5224  141.0430  153.8173 C   0  0  1  0  0  0  0  0  0  0  0  0
  147.4441  142.0954  154.1304 C   0  0  0  0  0  0  0  0  0  0  0  0
  149.1615  140.4065  155.0950 C   0  0  2  0  0  0  0  0  0  0  0  0
  149.2122  141.4544  156.2374 C   0  0  0  0  0  0  0  0  0  0  0  0
  150.4667  139.7460  154.8557 N   0  0  0  0  0  0  0  0  0  0  0  0
  150.3431  138.5120  154.0704 C   0  0  0  0  0  0  0  0  0  0  0  0
  151.6904  137.8011  153.8553 C   0  0  0  0  0  0  0  0  0  0  0  0
  152.2948  137.5249  155.1111 O   0  0  0  0  0  0  0  0  0  0  0  0
  152.5075  138.7063  155.8709 C   0  0  0  0  0  0  0  0  0  0  0  0
  151.1649  139.4195  156.1044 C   0  0  0  0  0  0  0  0  0  0  0  0
  144.5251  137.3936  152.9546 N   0  0  0  0  0  0  0  0  0  0  0  0
  141.8142  135.5700  153.6822 H   0  0  0  0  0  0  0  0  0  0  0  0
  141.7946  137.3255  153.4807 H   0  0  0  0  0  0  0  0  0  0  0  0
  142.7389  136.5934  154.7844 H   0  0  0  0  0  0  0  0  0  0  0  0
  143.0235  134.5611  151.8322 H   0  0  0  0  0  0  0  0  0  0  0  0
  145.0530  134.5437  150.3617 H   0  0  0  0  0  0  0  0  0  0  0  0
  146.7257  136.3805  150.5856 H   0  0  0  0  0  0  0  0  0  0  0  0
  147.1935  138.4931  151.3848 H   0  0  0  0  0  0  0  0  0  0  0  0
  148.3701  139.9403  152.0156 H   0  0  0  0  0  0  0  0  0  0  0  0
  149.2892  141.5398  153.2247 H   0  0  0  0  0  0  0  0  0  0  0  0
  147.8401  142.8931  154.7590 H   0  0  0  0  0  0  0  0  0  0  0  0
  146.5876  141.6598  154.6450 H   0  0  0  0  0  0  0  0  0  0  0  0
  147.0745  142.5581  153.2148 H   0  0  0  0  0  0  0  0  0  0  0  0
  148.4704  139.6314  155.4302 H   0  0  0  0  0  0  0  0  0  0  0  0
  148.2778  142.0047  156.3409 H   0  0  0  0  0  0  0  0  0  0  0  0
  150.0063  142.1837  156.0756 H   0  0  0  0  0  0  0  0  0  0  0  0
  149.3811  140.9893  157.2078 H   0  0  0  0  0  0  0  0  0  0  0  0
  149.6472  137.8294  154.5604 H   0  0  0  0  0  0  0  0  0  0  0  0
  149.9396  138.7220  153.0822 H   0  0  0  0  0  0  0  0  0  0  0  0
  151.5416  136.8639  153.3189 H   0  0  0  0  0  0  0  0  0  0  0  0
  152.3580  138.4145  153.2481 H   0  0  0  0  0  0  0  0  0  0  0  0
  152.9638  138.4385  156.8239 H   0  0  0  0  0  0  0  0  0  0  0  0
  153.2094  139.3617  155.3527 H   0  0  0  0  0  0  0  0  0  0  0  0
  151.3772  140.3237  156.6723 H   0  0  0  0  0  0  0  0  0  0  0  0
  150.5278  138.7936  156.7312 H   0  0  0  0  0  0  0  0  0  0  0  0
  1  2  1  0  0  0  0
  1 22  1  0  0  0  0
  1 23  1  0  0  0  0
  1 24  1  0  0  0  0
  2 21  1  0  0  0  0
  2  3  2  0  0  0  0
  3  4  1  0  0  0  0
  3 25  1  0  0  0  0
  4  5  2  0  0  0  0
  4 26  1  0  0  0  0
  5  6  1  0  0  0  0
  5 27  1  0  0  0  0
  6  7  1  0  0  0  0
  6 21  2  0  0  0  0
  7  8  1  0  0  0  0
  7 28  1  0  0  0  0
  8  9  2  0  0  0  0
  8 10  1  0  0  0  0
 10 11  1  0  0  0  0
 10 29  1  0  0  0  0
 11 12  1  0  0  0  0
 11 13  1  0  0  0  0
 11 30  1  0  0  0  0
 12 31  1  0  0  0  0
 12 32  1  0  0  0  0
 12 33  1  0  0  0  0
 13 14  1  0  0  0  0
 13 15  1  0  0  0  0
 13 34  1  0  0  0  0
 14 35  1  0  0  0  0
 14 36  1  0  0  0  0
 14 37  1  0  0  0  0
 15 20  1  0  0  0  0
 15 16  1  0  0  0  0
 16 17  1  0  0  0  0
 16 38  1  0  0  0  0
 16 39  1  0  0  0  0
 17 18  1  0  0  0  0
 17 40  1  0  0  0  0
 17 41  1  0  0  0  0
 18 19  1  0  0  0  0
 19 20  1  0  0  0  0
 19 42  1  0  0  0  0
 19 43  1  0  0  0  0
 20 44  1  0  0  0  0
 20 45  1  0  0  0  0
M  END
> <s_m_source_file>
AV-unprocessed.smi

> <i_m_source_file_index>
2390

> <i_lp_mmshare_version>
43012

> <i_f3d_flags>
0

> <s_epik_input>
W0NIM11jMVtjSF1bY0hdW2NIXWMobjEpW05IXUMoPU8pW05IXVtDQEhdKFtDSDNdKVtDQEhdKFtDSDNdKU4yW0NIMl1bQ0gyXU9bQ0gyXVtDSDJdMg==

> <s_epik_cmdline>
J2VwaWtfcHl0aG9uJywgJy1waCcsICc3LjAnLCAnLXRuJywgJzgnLCAnLW1hJywgJzIwMCcsICctbWV0YWxfYmluZGluZycsICctaW1hZScsICc8aW5maWxlLm1hZT4nLCAnLW9tYWUnLCAnPG91dGZpbGUubWFlPic=

> <r_epik_Ionization_Penalty>
0.266074

> <r_epik_Ionization_Penalty_Charging>
0

> <r_epik_Ionization_Penalty_Neutral>
0.266074

> <r_epik_State_Penalty>
0.257924

> <r_epik_Charging_Adjusted_Penalty>
0.257924

> <i_epik_Tot_Q>
0

> <i_epik_Tot_abs_Q>
0

> <r_epik_Metal_State_Penalty>
0.257919

> <b_epik_Metal_Only>
0

> <s_lp_Force_Field>
OPLS_2005

> <r_lp_Energy>
32.9653

> <b_lp_Chiralities_Consistent>
1

> <s_lp_Variant>
AV-unprocessed.smi:2390-2

> <Gold.Version>
5.8.1

> <Gold.Id.Protein>
6NUR|6NUR_protein|mol2

> <Gold.PLP.Fitness>
40.7620

> <Gold.PLP.PLP>
-35.3621

> <Gold.PLP.part.hbond>
-2.9126

> <Gold.PLP.part.metal>
0.0000

> <Gold.PLP.part.buried>
-3.3451

> <Gold.PLP.part.nonpolar>
-30.9670

> <Gold.PLP.part.repulsive>
0.6053

> <Gold.PLP.ligand.clash>
0.0000

> <Gold.PLP.ligand.torsion>
0.7579

> <Gold.PLP.Chemscore.Hbond>
2.2534

> <Gold.PLP.Chemscore.CHOScore>
0.0000

> <Gold.PLP.Chemscore.Metal>
0.0000

> <Gold.Chemscore.Hbonds>
donor molecule, donor type, donor heavy atom, donor atom, acceptor molecule, acceptor atom, score
      L1  H    10    29       P1  7957  0.89
      P1  H  7989  7998       L1    15  0.72
      P1  H 10752 10765       L1    18  0.57

> <Gold.PLP.Chemscore.Internal.Correction>
0.1557

> <Gold.Rescore>
     Score         DG    S(hbond)    S(metal)    S(lipo)     H(rot)  DE(clash)    DE(int)     intcor
     12.29     -15.38       1.36        0.00      77.19       1.44       0.20       2.88       ----

> <Gold.Chemscore.Fitness>
12.2939

> <Gold.Chemscore.DG>
-15.3771

> <Gold.Chemscore.ZeroCoef>
-5.4800

> <Gold.Chemscore.Hbond>
1.3625

> <Gold.Chemscore.Metal>
0.0000

> <Gold.Chemscore.Lipo>
77.1942

> <Gold.Chemscore.Internal_Hbond>
0.0000

> <Gold.Chemscore.DEClash>
0.2033

> <Gold.Chemscore.DEInternal>
2.8799

> <Gold.Chemscore.Rot>
1.4396

> <Gold.Chemscore.Internal.Correction>
   9.000000E+99

> <Gold.Chemscore.Hbonds>
donor molecule, donor type, donor heavy atom, donor atom, acceptor molecule, acceptor atom, score
      L1  H    10    29       P1  7957  0.82
      P1  H  7989  7998       L1    15  0.10
      P1  H 10752 10765       L1    18  0.14

> <Gold.Chemscore.Hbond.Weighted>
-4.5508

> <Gold.Chemscore.Metal.Weighted>
-0.0000

> <Gold.Chemscore.Lipo.Weighted>
-9.0317

> <Gold.Chemscore.Internal_Hbond.Weighted>
0.0000

> <Gold.Chemscore.DEClash.Weighted>
0.2033

> <Gold.Chemscore.DEInternal.Weighted>
2.8799

> <Gold.Chemscore.Rot.Weighted>
3.6855

> <Gold.Chemscore.Internal.Correction.Weighted>
   9.000000E+99

> <Gold.Protein.RotatedTorsions>
[ 6907 6896 6895 6894 ] final -140.81 input  -60.11 | X-H torsion
[ 7974 7965 7964 7962 ] final  137.68 input  175.53 | X-H torsion
[ 8008 7997 7996 7995 ] final -118.89 input   59.86 | X-H torsion
[ 10167 10162 10161 10158 ] final -137.55 input  -65.29 | X-H torsion
[ 10718 10713 10712 10709 ] final  156.44 input   66.30 | X-H torsion
[ 10763 10752 10751 10750 ] final -170.67 input  -60.55 | X-H torsion
[ 11005 11000 10999 10996 ] final   -9.90 input  -57.11 | X-H torsion

> <Gold.Protein.ActiveResidues>
 VAL166  LYS551  ARG553  GLY616  TRP617  ASP618  TYR619  PRO620  LYS621  CYS622 
 ASP623  PHE694  ASN695  SER759  ASP760  ASP761  ALA762  ILE779  LEU786  VAL792 
 PHE793  MET794  SER795  GLU796  ALA797  LYS798  CYS799  TRP800  GLU811  SER814 

> <Gold.Protein.RotatedAtoms>
  151.0656  133.5508  159.2630 H   0  0  0  0  0  0  0  0  0  0  0  0  # atno 6907 bound_to 6896
  151.2467  135.0607  159.9056 H   0  0  0  0  0  0  0  0  0  0  0  0  # atno 6908 bound_to 6896
  152.5404  134.0423  159.8126 H   0  0  0  0  0  0  0  0  0  0  0  0  # atno 6909 bound_to 6896
  144.9445  139.4892  143.5556 H   0  0  0  0  0  0  0  0  0  0  0  0  # atno 7974 bound_to 7965
  155.1068  140.0396  157.2713 H   0  0  0  0  0  0  0  0  0  0  0  0  # atno 8008 bound_to 7997
  154.6715  140.2613  155.6976 H   0  0  0  0  0  0  0  0  0  0  0  0  # atno 8009 bound_to 7997
  156.2660  140.2796  156.1226 H   0  0  0  0  0  0  0  0  0  0  0  0  # atno 8010 bound_to 7997
  139.8567  143.7129  152.2653 H   0  0  0  0  0  0  0  0  0  0  0  0  # atno 10167 bound_to 10162
  157.2049  131.0684  151.2003 H   0  0  0  0  0  0  0  0  0  0  0  0  # atno 10718 bound_to 10713
  154.6390  135.2896  155.0126 H   0  0  0  0  0  0  0  0  0  0  0  0  # atno 10763 bound_to 10752
  154.1260  135.6541  153.4916 H   0  0  0  0  0  0  0  0  0  0  0  0  # atno 10764 bound_to 10752
  153.0317  135.5299  154.7249 H   0  0  0  0  0  0  0  0  0  0  0  0  # atno 10765 bound_to 10752
  140.7391  133.8685  155.8953 H   0  0  0  0  0  0  0  0  0  0  0  0  # atno 11005 bound_to 11000
  146.3298  139.8487  142.8877 LP  0  0  0  0  0  0  0  0  0  0  0  0  # atno 17320 bound_to 7965
  145.2940  141.0175  143.3647 LP  0  0  0  0  0  0  0  0  0  0  0  0  # atno 17321 bound_to 7965
  139.7413  144.7558  151.0648 LP  0  0  0  0  0  0  0  0  0  0  0  0  # atno 17342 bound_to 10162
  140.7780  143.4969  150.9821 LP  0  0  0  0  0  0  0  0  0  0  0  0  # atno 17343 bound_to 10162
  157.3730  130.7191  149.6578 LP  0  0  0  0  0  0  0  0  0  0  0  0  # atno 17370 bound_to 10713
  155.9696  130.4193  150.4371 LP  0  0  0  0  0  0  0  0  0  0  0  0  # atno 17371 bound_to 10713
  140.9853  134.1351  157.4458 LP  0  0  0  0  0  0  0  0  0  0  0  0  # atno 17394 bound_to 11000
  139.8810  135.0023  156.6121 LP  0  0  0  0  0  0  0  0  0  0  0  0  # atno 17395 bound_to 11000

$$$$
