#       Name:                AV-unprocessed.smi:837
#       Creating user name   scv26
#       Creation time:       Fri Mar 27 01:35:33 2020


#       File generated by GOLD software.
#

@<TRIPOS>MOLECULE
AV-unprocessed.smi:837
    56    58     1
SMALL
NO_CHARGES


@<TRIPOS>ATOM
      1 ****        -4.0063   1.7729   0.1442 C.3            1 S1                 0.0000
      2 ****        -2.9509   2.7403  -0.4317 C.3            1 S1                 0.0000
      3 ****        -2.9912   4.0956   0.3072 C.3            1 S1                 0.0000
      4 ****        -2.0161   5.1089  -0.3118 C.3            1 S1                 0.0000
      5 ****        -0.5821   4.5621  -0.3439 C.3            1 S1                 0.0000
      6 ****        -0.5183   3.2103  -1.0771 C.3            1 S1                 0.0000
      7 ****        -1.5028   2.1598  -0.5030 C.3            1 S1                 0.0000
      8 ****        -1.4586   0.9570  -1.3165 N.am           1 S1                 0.0000
      9 ****        -1.0123  -0.1150  -0.6511 C.2            1 S1                 0.0000
     10 ****        -0.8696  -1.2390  -1.1309 O.2            1 S1                 0.0000
     11 ****        -0.7501   0.2528   0.6152 N.am           1 S1                 0.0000
     12 ****        -0.2168  -0.6528   1.6407 C.3            1 S1                 0.0000
     13 ****         1.3087  -0.8015   1.5668 C.2            1 S1                 0.0000
     14 ****         2.0128   0.1166   1.1446 O.2            1 S1                 0.0000
     15 ****         1.8061  -1.9748   1.9851 N.am           1 S1                 0.0000
     16 ****         3.2192  -2.3430   1.9758 C.3            1 S1                 0.0000
     17 ****         3.7828  -2.5611   0.5560 C.3            1 S1                 0.0000
     18 ****         2.9295  -3.4752  -0.3072 C.ar           1 S1                 0.0000
     19 ****         2.0584  -2.9383  -1.2816 C.ar           1 S1                 0.0000
     20 ****         1.2708  -3.8101  -2.0614 C.ar           1 S1                 0.0000
     21 ****         1.3751  -5.2003  -1.8532 C.ar           1 S1                 0.0000
     22 ****         2.2216  -5.6778  -0.9145 N.pl3          1 S1                 1.0000
     23 ****         2.9909  -4.8761  -0.1455 C.ar           1 S1                 0.0000
     24 ****        -0.9960   1.5560   0.8088 C.2            1 S1                 0.0000
     25 ****        -0.8440   2.1849   1.8563 O.2            1 S1                 0.0000
     26 ****        -3.8159   1.5424   1.1926 H              1 S1                 0.0000
     27 ****        -4.0338   0.8324  -0.4060 H              1 S1                 0.0000
     28 ****        -5.0039   2.2085   0.0847 H              1 S1                 0.0000
     29 ****        -3.2576   2.9381  -1.4602 H              1 S1                 0.0000
     30 ****        -4.0011   4.5055   0.2710 H              1 S1                 0.0000
     31 ****        -2.7596   3.9608   1.3640 H              1 S1                 0.0000
     32 ****        -2.3367   5.3496  -1.3262 H              1 S1                 0.0000
     33 ****        -2.0449   6.0426   0.2504 H              1 S1                 0.0000
     34 ****         0.0739   5.2793  -0.8378 H              1 S1                 0.0000
     35 ****        -0.2043   4.4592   0.6733 H              1 S1                 0.0000
     36 ****        -0.7417   3.3726  -2.1326 H              1 S1                 0.0000
     37 ****         0.5050   2.8324  -1.0455 H              1 S1                 0.0000
     38 ****        -1.7275   0.9497  -2.2896 H              1 S1                 0.0000
     39 ****        -0.4819  -0.3010   2.6391 H              1 S1                 0.0000
     40 ****        -0.6854  -1.6335   1.5380 H              1 S1                 0.0000
     41 ****         1.1566  -2.6676   2.3289 H              1 S1                 0.0000
     42 ****         3.8057  -1.5919   2.5073 H              1 S1                 0.0000
     43 ****         3.3138  -3.2670   2.5467 H              1 S1                 0.0000
     44 ****         3.8918  -1.6006   0.0509 H              1 S1                 0.0000
     45 ****         4.7890  -2.9762   0.6221 H              1 S1                 0.0000
     46 ****         1.9862  -1.8698  -1.4254 H              1 S1                 0.0000
     47 ****         0.5947  -3.4158  -2.8061 H              1 S1                 0.0000
     48 ****         0.8109  -5.9387  -2.4042 H              1 S1                 0.0000
     49 ****         3.6255  -5.3762   0.5717 H              1 S1                 0.0000
     50 ****         2.2823  -6.6875  -0.7805 H              1 S1                 0.0000
     51 ****        -1.0942  -1.4050  -2.0911 LP             1 S1                 0.0000
     52 ****        -0.5291  -1.9865  -0.5606 LP             1 S1                 0.0000
     53 ****         1.5915   0.9725   0.8446 LP             1 S1                 0.0000
     54 ****         3.0057   0.0062   1.1019 LP             1 S1                 0.0000
     55 ****        -1.0570   3.1614   1.8887 LP             1 S1                 0.0000
     56 ****        -0.5076   1.7192   2.6748 LP             1 S1                 0.0000
@<TRIPOS>BOND
    1    1    2 1     
    2    1   26 1     
    3    1   27 1     
    4    1   28 1     
    5    2    7 1     
    6    2    3 1     
    7    2   29 1     
    8    3    4 1     
    9    3   30 1     
   10    3   31 1     
   11    4    5 1     
   12    4   32 1     
   13    4   33 1     
   14    5    6 1     
   15    5   34 1     
   16    5   35 1     
   17    6    7 1     
   18    6   36 1     
   19    6   37 1     
   20    7   24 1     
   21    7    8 1     
   22    8    9 am    
   23    8   38 1     
   24    9   10 2     
   25    9   11 am    
   26   11   12 1     
   27   11   24 am    
   28   12   13 1     
   29   12   39 1     
   30   12   40 1     
   31   13   14 2     
   32   13   15 am    
   33   15   16 1     
   34   15   41 1     
   35   16   17 1     
   36   16   42 1     
   37   16   43 1     
   38   17   18 1     
   39   17   44 1     
   40   17   45 1     
   41   18   23 ar    
   42   18   19 ar    
   43   19   20 ar    
   44   19   46 1     
   45   20   21 ar    
   46   20   47 1     
   47   21   22 ar    
   48   21   48 1     
   49   22   23 ar    
   50   22   50 1     
   51   23   49 1     
   52   24   25 2     
   53   10   51 1     
   54   10   52 1     
   55   14   53 1     
   56   14   54 1     
   57   25   55 1     
   58   25   56 1     
@<TRIPOS>SUBSTRUCTURE
      1 S1             1
@<TRIPOS>SET
LONE_PAIRS      STATIC     ATOMS    <user>   **** ""
6 51 52 53 54 55 56
DONOR_HYDROGENS      STATIC     ATOMS    <user>   **** ""
3 38 41 50
ATOM$BLUE        STATIC     ATOMS    COLORGROUP SYSTEM
6 51 52 53 54 55 56
ATOM$RED        STATIC     ATOMS    COLORGROUP SYSTEM
3 38 41 50
