AV-unprocessed.smi:3083|AV-procd|sdf|11746|dock1
  -GOLD-   2272017143D 1   1.00000     0.00000
 Structure written by MMmdl.
 28 29  0  0  0  0  0  0  0  0  2 V2000
  145.9618  135.9845  151.2822 N   0  3  0  0  0  0  0  0  0  0  0  0
  145.4525  134.6683  150.8535 C   0  0  2  0  0  0  0  0  0  0  0  0
  144.0755  134.3707  151.4876 C   0  0  0  0  0  0  0  0  0  0  0  0
  143.5507  132.9852  151.0783 C   0  0  0  0  0  0  0  0  0  0  0  0
  144.5737  131.8803  151.3829 C   0  0  0  0  0  0  0  0  0  0  0  0
  145.9154  132.1670  150.6884 C   0  0  0  0  0  0  0  0  0  0  0  0
  146.5029  133.5415  151.0744 C   0  0  2  0  0  0  0  0  0  0  0  0
  147.1178  133.5044  152.4035 N   0  0  0  0  0  0  0  0  0  0  0  0
  148.1223  132.6583  152.8303 C   0  0  0  0  0  0  0  0  0  0  0  0
  148.3677  132.9327  154.1449 C   0  0  0  0  0  0  0  0  0  0  0  0
  147.4388  133.9640  154.4515 C   0  0  0  0  0  0  0  0  0  0  0  0
  146.6911  134.2973  153.4129 N   0  0  0  0  0  0  0  0  0  0  0  0
  145.4325  136.2998  152.0832 H   0  0  0  0  0  0  0  0  0  0  0  0
  145.8601  136.6488  150.5286 H   0  0  0  0  0  0  0  0  0  0  0  0
  145.2928  134.7485  149.7773 H   0  0  0  0  0  0  0  0  0  0  0  0
  144.1205  134.4341  152.5739 H   0  0  0  0  0  0  0  0  0  0  0  0
  143.3572  135.1312  151.1793 H   0  0  0  0  0  0  0  0  0  0  0  0
  142.6132  132.7765  151.5946 H   0  0  0  0  0  0  0  0  0  0  0  0
  143.3215  132.9828  150.0118 H   0  0  0  0  0  0  0  0  0  0  0  0
  144.7179  131.7932  152.4602 H   0  0  0  0  0  0  0  0  0  0  0  0
  144.1854  130.9174  151.0494 H   0  0  0  0  0  0  0  0  0  0  0  0
  146.6293  131.3736  150.9139 H   0  0  0  0  0  0  0  0  0  0  0  0
  145.7641  132.1355  149.6086 H   0  0  0  0  0  0  0  0  0  0  0  0
  147.3233  133.7391  150.3825 H   0  0  0  0  0  0  0  0  0  0  0  0
  148.5763  131.9356  152.1683 H   0  0  0  0  0  0  0  0  0  0  0  0
  149.0937  132.4616  154.7911 H   0  0  0  0  0  0  0  0  0  0  0  0
  147.2841  134.4739  155.3910 H   0  0  0  0  0  0  0  0  0  0  0  0
  146.9367  135.9053  151.5337 H   0  0  0  0  0  0  0  0  0  0  0  0
  1  2  1  0  0  0  0
  1 13  1  0  0  0  0
  1 14  1  0  0  0  0
  1 28  1  0  0  0  0
  2  7  1  0  0  0  0
  2  3  1  0  0  0  0
  2 15  1  0  0  0  0
  3  4  1  0  0  0  0
  3 16  1  0  0  0  0
  3 17  1  0  0  0  0
  4  5  1  0  0  0  0
  4 18  1  0  0  0  0
  4 19  1  0  0  0  0
  5  6  1  0  0  0  0
  5 20  1  0  0  0  0
  5 21  1  0  0  0  0
  6  7  1  0  0  0  0
  6 22  1  0  0  0  0
  6 23  1  0  0  0  0
  7  8  1  0  0  0  0
  7 24  1  0  0  0  0
  8 12  1  0  0  0  0
  8  9  1  0  0  0  0
  9 10  2  0  0  0  0
  9 25  1  0  0  0  0
 10 11  1  0  0  0  0
 10 26  1  0  0  0  0
 11 12  2  0  0  0  0
 11 27  1  0  0  0  0
M  CHG  1   1   1
M  END
> <s_m_source_file>
AV-unprocessed.smi

> <i_m_source_file_index>
3083

> <i_lp_mmshare_version>
43012

> <i_f3d_flags>
0

> <s_epik_input>
W05IMl1bQ0BASF0xW0NIMl1bQ0gyXVtDSDJdW0NIMl1bQ0BIXTFuMltjSF1bY0hdW2NIXW4y

> <s_epik_cmdline>
J2VwaWtfcHl0aG9uJywgJy1waCcsICc3LjAnLCAnLXRuJywgJzgnLCAnLW1hJywgJzIwMCcsICctbWV0YWxfYmluZGluZycsICctaW1hZScsICc8aW5maWxlLm1hZT4nLCAnLW9tYWUnLCAnPG91dGZpbGUubWFlPic=

> <r_lp_tautomer_probability>
1

> <r_epik_Ionization_Penalty>
0.00385053

> <r_epik_Ionization_Penalty_Charging>
0.0038389

> <r_epik_Ionization_Penalty_Neutral>
1.16305e-05

> <r_epik_State_Penalty>
-0

> <r_epik_Charging_Adjusted_Penalty>
0.0038389

> <i_epik_Tot_Q>
1

> <i_epik_Tot_abs_Q>
1

> <r_epik_Metal_State_Penalty>
-0

> <b_epik_Metal_Only>
0

> <s_lp_Force_Field>
OPLS_2005

> <r_lp_Energy>
16.3847

> <b_lp_Chiralities_Consistent>
1

> <s_lp_Variant>
AV-unprocessed.smi:3083-3

> <Gold.Version>
5.8.1

> <Gold.Id.Protein>
6NUR|6NUR_protein|mol2

> <Gold.PLP.Fitness>
33.1982

> <Gold.PLP.PLP>
-24.2106

> <Gold.PLP.part.hbond>
-1.0000

> <Gold.PLP.part.metal>
0.0000

> <Gold.PLP.part.buried>
-2.3057

> <Gold.PLP.part.nonpolar>
-21.0586

> <Gold.PLP.part.repulsive>
0.1851

> <Gold.PLP.ligand.clash>
0.0000

> <Gold.PLP.ligand.torsion>
0.0385

> <Gold.PLP.Chemscore.Hbond>
2.0000

> <Gold.PLP.Chemscore.CHOScore>
1.0000

> <Gold.PLP.Chemscore.Metal>
0.0000

> <Gold.Chemscore.Hbonds>
donor molecule, donor type, donor heavy atom, donor atom, acceptor molecule, acceptor atom, score
      L1  H     1    28       P1  7948  1.98
      L1  C     9    25       P1 10747  1.00

> <Gold.PLP.Chemscore.Internal.Correction>
0.0646

> <Gold.Rescore>
     Score         DG    S(hbond)    S(metal)    S(lipo)     H(rot)  DE(clash)    DE(int)     intcor
     11.69     -13.13       1.00        0.00      58.80       1.00       0.00       1.44       ----

> <Gold.Chemscore.Fitness>
11.6890

> <Gold.Chemscore.DG>
-13.1348

> <Gold.Chemscore.ZeroCoef>
-5.4800

> <Gold.Chemscore.Hbond>
0.9986

> <Gold.Chemscore.Metal>
0.0000

> <Gold.Chemscore.Lipo>
58.7984

> <Gold.Chemscore.Internal_Hbond>
0.0000

> <Gold.Chemscore.DEClash>
0.0047

> <Gold.Chemscore.DEInternal>
1.4411

> <Gold.Chemscore.Rot>
1.0000

> <Gold.Chemscore.Internal.Correction>
   9.000000E+99

> <Gold.Chemscore.Hbonds>
donor molecule, donor type, donor heavy atom, donor atom, acceptor molecule, acceptor atom, score
      L1  H     1    28       P1  7948  0.92

> <Gold.Chemscore.Hbond.Weighted>
-3.3353

> <Gold.Chemscore.Metal.Weighted>
-0.0000

> <Gold.Chemscore.Lipo.Weighted>
-6.8794

> <Gold.Chemscore.Internal_Hbond.Weighted>
0.0000

> <Gold.Chemscore.DEClash.Weighted>
0.0047

> <Gold.Chemscore.DEInternal.Weighted>
1.4411

> <Gold.Chemscore.Rot.Weighted>
2.5600

> <Gold.Chemscore.Internal.Correction.Weighted>
   9.000000E+99

> <Gold.Protein.RotatedTorsions>
[ 6907 6896 6895 6894 ] final  146.08 input  -60.11 | X-H torsion
[ 7974 7965 7964 7962 ] final  164.03 input  175.53 | X-H torsion
[ 8008 7997 7996 7995 ] final  -13.43 input   59.86 | X-H torsion
[ 10167 10162 10161 10158 ] final   11.72 input  -65.29 | X-H torsion
[ 10718 10713 10712 10709 ] final    7.68 input   66.30 | X-H torsion
[ 10763 10752 10751 10750 ] final    4.30 input  -60.55 | X-H torsion
[ 11005 11000 10999 10996 ] final   26.56 input  -57.11 | X-H torsion

> <Gold.Protein.ActiveResidues>
 VAL166  LYS551  ARG553  GLY616  TRP617  ASP618  TYR619  PRO620  LYS621  CYS622 
 ASP623  PHE694  ASN695  SER759  ASP760  ASP761  ALA762  ILE779  LEU786  VAL792 
 PHE793  MET794  SER795  GLU796  ALA797  LYS798  CYS799  TRP800  GLU811  SER814 

> <Gold.Protein.RotatedAtoms>
  152.1725  133.4653  159.4916 H   0  0  0  0  0  0  0  0  0  0  0  0  # atno 6907 bound_to 6896
  150.6922  134.1935  159.4303 H   0  0  0  0  0  0  0  0  0  0  0  0  # atno 6908 bound_to 6896
  151.9843  135.0012  160.0609 H   0  0  0  0  0  0  0  0  0  0  0  0  # atno 6909 bound_to 6896
  144.7563  139.8267  143.6348 H   0  0  0  0  0  0  0  0  0  0  0  0  # atno 7974 bound_to 7965
  154.5293  140.2250  155.8833 H   0  0  0  0  0  0  0  0  0  0  0  0  # atno 8008 bound_to 7997
  156.1746  140.3114  155.9000 H   0  0  0  0  0  0  0  0  0  0  0  0  # atno 8009 bound_to 7997
  155.3485  140.0454  157.3036 H   0  0  0  0  0  0  0  0  0  0  0  0  # atno 8010 bound_to 7997
  140.6114  143.8400  150.7069 H   0  0  0  0  0  0  0  0  0  0  0  0  # atno 10167 bound_to 10162
  156.9405  130.5859  149.5652 H   0  0  0  0  0  0  0  0  0  0  0  0  # atno 10718 bound_to 10713
  153.2729  135.6934  153.7463 H   0  0  0  0  0  0  0  0  0  0  0  0  # atno 10763 bound_to 10752
  153.6479  135.3382  155.3092 H   0  0  0  0  0  0  0  0  0  0  0  0  # atno 10764 bound_to 10752
  154.8470  135.4447  154.1757 H   0  0  0  0  0  0  0  0  0  0  0  0  # atno 10765 bound_to 10752
  140.3357  134.2388  155.7696 H   0  0  0  0  0  0  0  0  0  0  0  0  # atno 11005 bound_to 11000
  146.1577  139.4681  143.0008 LP  0  0  0  0  0  0  0  0  0  0  0  0  # atno 17320 bound_to 7965
  145.6768  141.0202  143.1628 LP  0  0  0  0  0  0  0  0  0  0  0  0  # atno 17321 bound_to 7965
  140.1969  143.3990  152.1821 LP  0  0  0  0  0  0  0  0  0  0  0  0  # atno 17342 bound_to 10162
  139.5364  144.7213  151.4880 LP  0  0  0  0  0  0  0  0  0  0  0  0  # atno 17343 bound_to 10162
  156.0407  130.5489  150.8763 LP  0  0  0  0  0  0  0  0  0  0  0  0  # atno 17370 bound_to 10713
  157.5788  131.0946  150.9303 LP  0  0  0  0  0  0  0  0  0  0  0  0  # atno 17371 bound_to 10713
  141.2052  133.7867  157.0247 LP  0  0  0  0  0  0  0  0  0  0  0  0  # atno 17394 bound_to 11000
  140.0823  134.9641  157.1644 LP  0  0  0  0  0  0  0  0  0  0  0  0  # atno 17395 bound_to 11000

$$$$
