AV-unprocessed.smi:947|AV-procd|sdf|4238|dock1
  -GOLD-   22720 2153D 1   1.00000     0.00000
 Structure written by MMmdl.
 25 26  0  0  0  0  0  0  0  0  2 V2000
  154.3307  140.1766  160.7584 C   0  0  0  0  0  0  0  0  0  0  0  0
  153.5209  141.4306  160.6080 C   0  0  0  0  0  0  0  0  0  0  0  0
  153.2855  142.4489  161.5738 C   0  0  0  0  0  0  0  0  0  0  0  0
  152.4888  143.3509  160.9268 C   0  0  0  0  0  0  0  0  0  0  0  0
  151.8959  144.6338  161.4099 C   0  0  0  0  0  0  0  0  0  0  0  0
  152.2934  142.8645  159.6471 N   0  0  0  0  0  0  0  0  0  0  0  0
  151.5203  143.4501  158.5872 C   0  0  0  0  0  0  0  0  0  0  0  0
  151.2664  142.7224  157.2640 C   0  0  0  0  0  0  0  0  0  0  0  0
  151.3101  144.0246  156.6118 N   0  3  0  0  0  0  0  0  0  0  0  0
  152.1187  144.5455  157.7072 C   0  0  0  0  0  0  0  0  0  0  0  0
  152.9201  141.6841  159.4568 N   0  0  0  0  0  0  0  0  0  0  0  0
  154.8224  140.1395  161.7307 H   0  0  0  0  0  0  0  0  0  0  0  0
  155.1050  140.1141  159.9935 H   0  0  0  0  0  0  0  0  0  0  0  0
  153.7015  139.2905  160.6716 H   0  0  0  0  0  0  0  0  0  0  0  0
  153.6454  142.5064  162.5906 H   0  0  0  0  0  0  0  0  0  0  0  0
  152.1633  144.8176  162.4508 H   0  0  0  0  0  0  0  0  0  0  0  0
  150.8081  144.6098  161.3433 H   0  0  0  0  0  0  0  0  0  0  0  0
  152.2555  145.4762  160.8192 H   0  0  0  0  0  0  0  0  0  0  0  0
  150.5773  143.7756  159.0322 H   0  0  0  0  0  0  0  0  0  0  0  0
  152.0883  142.0820  156.9375 H   0  0  0  0  0  0  0  0  0  0  0  0
  150.3008  142.2211  157.1915 H   0  0  0  0  0  0  0  0  0  0  0  0
  151.7806  144.0213  155.7178 H   0  0  0  0  0  0  0  0  0  0  0  0
  151.8652  145.5643  158.0013 H   0  0  0  0  0  0  0  0  0  0  0  0
  153.1882  144.4224  157.5254 H   0  0  0  0  0  0  0  0  0  0  0  0
  150.3972  144.4560  156.5876 H   0  0  0  0  0  0  0  0  0  0  0  0
  1  2  1  0  0  0  0
  1 12  1  0  0  0  0
  1 13  1  0  0  0  0
  1 14  1  0  0  0  0
  2 11  2  0  0  0  0
  2  3  1  0  0  0  0
  3  4  2  0  0  0  0
  3 15  1  0  0  0  0
  4  5  1  0  0  0  0
  4  6  1  0  0  0  0
  5 16  1  0  0  0  0
  5 17  1  0  0  0  0
  5 18  1  0  0  0  0
  6  7  1  0  0  0  0
  6 11  1  0  0  0  0
  7 10  1  0  0  0  0
  7  8  1  0  0  0  0
  7 19  1  0  0  0  0
  8  9  1  0  0  0  0
  8 20  1  0  0  0  0
  8 21  1  0  0  0  0
  9 10  1  0  0  0  0
  9 22  1  0  0  0  0
  9 25  1  0  0  0  0
 10 23  1  0  0  0  0
 10 24  1  0  0  0  0
M  CHG  1   9   1
M  END
> <s_m_source_file>
AV-unprocessed.smi

> <i_m_source_file_index>
947

> <i_lp_mmshare_version>
43012

> <i_f3d_flags>
0

> <s_epik_input>
W0NIM11jMVtjSF1jKFtDSDNdKW4objEpW0NIXTJbQ0gyXVtOSF1bQ0gyXTI=

> <s_epik_cmdline>
J2VwaWtfcHl0aG9uJywgJy1waCcsICc3LjAnLCAnLXRuJywgJzgnLCAnLW1hJywgJzIwMCcsICctbWV0YWxfYmluZGluZycsICctaW1hZScsICc8aW5maWxlLm1hZT4nLCAnLW9tYWUnLCAnPG91dGZpbGUubWFlPic=

> <r_lp_tautomer_probability>
1

> <r_epik_Ionization_Penalty>
0.0172231

> <r_epik_Ionization_Penalty_Charging>
0.0170392

> <r_epik_Ionization_Penalty_Neutral>
0.000183908

> <r_epik_State_Penalty>
0.00361255

> <r_epik_Charging_Adjusted_Penalty>
0.0206517

> <i_epik_Tot_Q>
1

> <i_epik_Tot_abs_Q>
1

> <r_epik_Metal_State_Penalty>
-0

> <b_epik_Metal_Only>
0

> <s_lp_Force_Field>
OPLS_2005

> <r_lp_Energy>
12.8102

> <b_lp_Chiralities_Consistent>
1

> <s_lp_Variant>
AV-unprocessed.smi:947-1

> <Gold.Version>
5.8.1

> <Gold.Id.Protein>
6NUR|6NUR_protein|mol2

> <Gold.PLP.Fitness>
36.6708

> <Gold.PLP.PLP>
-31.2728

> <Gold.PLP.part.hbond>
-1.0000

> <Gold.PLP.part.metal>
0.0000

> <Gold.PLP.part.buried>
-2.2323

> <Gold.PLP.part.nonpolar>
-27.5770

> <Gold.PLP.part.repulsive>
0.0629

> <Gold.PLP.ligand.clash>
0.0000

> <Gold.PLP.ligand.torsion>
0.3518

> <Gold.PLP.Chemscore.Hbond>
1.9520

> <Gold.PLP.Chemscore.CHOScore>
0.0000

> <Gold.PLP.Chemscore.Metal>
0.0000

> <Gold.Chemscore.Hbonds>
donor molecule, donor type, donor heavy atom, donor atom, acceptor molecule, acceptor atom, score
      L1  H     9    25       P1  8028  1.92

> <Gold.PLP.Chemscore.Internal.Correction>
0.2457

> <Gold.Rescore>
     Score         DG    S(hbond)    S(metal)    S(lipo)     H(rot)  DE(clash)    DE(int)     intcor
     16.14     -16.63       1.00        0.00      88.79       1.00       0.05       0.44       ----

> <Gold.Chemscore.Fitness>
16.1417

> <Gold.Chemscore.DG>
-16.6330

> <Gold.Chemscore.ZeroCoef>
-5.4800

> <Gold.Chemscore.Hbond>
0.9954

> <Gold.Chemscore.Metal>
0.0000

> <Gold.Chemscore.Lipo>
88.7901

> <Gold.Chemscore.Internal_Hbond>
0.0000

> <Gold.Chemscore.DEClash>
0.0530

> <Gold.Chemscore.DEInternal>
0.4383

> <Gold.Chemscore.Rot>
1.0000

> <Gold.Chemscore.Internal.Correction>
   9.000000E+99

> <Gold.Chemscore.Hbonds>
donor molecule, donor type, donor heavy atom, donor atom, acceptor molecule, acceptor atom, score
      L1  H     9    25       P1  8028  0.90

> <Gold.Chemscore.Hbond.Weighted>
-3.3245

> <Gold.Chemscore.Metal.Weighted>
-0.0000

> <Gold.Chemscore.Lipo.Weighted>
-10.3884

> <Gold.Chemscore.Internal_Hbond.Weighted>
0.0000

> <Gold.Chemscore.DEClash.Weighted>
0.0530

> <Gold.Chemscore.DEInternal.Weighted>
0.4383

> <Gold.Chemscore.Rot.Weighted>
2.5600

> <Gold.Chemscore.Internal.Correction.Weighted>
   9.000000E+99

> <Gold.Protein.RotatedTorsions>
[ 6907 6896 6895 6894 ] final  176.57 input  -60.11 | X-H torsion
[ 7974 7965 7964 7962 ] final  -25.91 input  175.53 | X-H torsion
[ 8008 7997 7996 7995 ] final   52.09 input   59.86 | X-H torsion
[ 10167 10162 10161 10158 ] final   57.59 input  -65.29 | X-H torsion
[ 10718 10713 10712 10709 ] final  162.88 input   66.30 | X-H torsion
[ 10763 10752 10751 10750 ] final   43.68 input  -60.55 | X-H torsion
[ 11005 11000 10999 10996 ] final  110.35 input  -57.11 | X-H torsion

> <Gold.Protein.ActiveResidues>
 VAL166  LYS551  ARG553  GLY616  TRP617  ASP618  TYR619  PRO620  LYS621  CYS622 
 ASP623  PHE694  ASN695  SER759  ASP760  ASP761  ALA762  ILE779  LEU786  VAL792 
 PHE793  MET794  SER795  GLU796  ALA797  LYS798  CYS799  TRP800  GLU811  SER814 

> <Gold.Protein.RotatedAtoms>
  151.7179  133.3314  159.3307 H   0  0  0  0  0  0  0  0  0  0  0  0  # atno 6907 bound_to 6896
  150.7665  134.6474  159.6279 H   0  0  0  0  0  0  0  0  0  0  0  0  # atno 6908 bound_to 6896
  152.3670  134.6792  160.0240 H   0  0  0  0  0  0  0  0  0  0  0  0  # atno 6909 bound_to 6896
  146.1460  140.4949  142.8631 H   0  0  0  0  0  0  0  0  0  0  0  0  # atno 7974 bound_to 7965
  155.4461  140.3456  155.4295 H   0  0  0  0  0  0  0  0  0  0  0  0  # atno 8008 bound_to 7997
  156.1249  140.1497  156.9181 H   0  0  0  0  0  0  0  0  0  0  0  0  # atno 8009 bound_to 7997
  154.4850  140.0858  156.7446 H   0  0  0  0  0  0  0  0  0  0  0  0  # atno 8010 bound_to 7997
  140.1963  144.4034  150.6548 H   0  0  0  0  0  0  0  0  0  0  0  0  # atno 10167 bound_to 10162
  157.1163  131.0481  151.2435 H   0  0  0  0  0  0  0  0  0  0  0  0  # atno 10718 bound_to 10713
  152.9856  135.6094  154.3151 H   0  0  0  0  0  0  0  0  0  0  0  0  # atno 10763 bound_to 10752
  154.2864  135.2776  155.2676 H   0  0  0  0  0  0  0  0  0  0  0  0  # atno 10764 bound_to 10752
  154.4992  135.5871  153.6574 H   0  0  0  0  0  0  0  0  0  0  0  0  # atno 10765 bound_to 10752
  139.8880  134.9482  156.6265 H   0  0  0  0  0  0  0  0  0  0  0  0  # atno 11005 bound_to 11000
  144.7847  140.5913  143.6581 LP  0  0  0  0  0  0  0  0  0  0  0  0  # atno 17320 bound_to 7965
  145.4935  139.1487  143.3696 LP  0  0  0  0  0  0  0  0  0  0  0  0  # atno 17321 bound_to 7965
  140.6421  143.2206  151.6267 LP  0  0  0  0  0  0  0  0  0  0  0  0  # atno 17342 bound_to 10162
  139.5235  144.3131  152.0976 LP  0  0  0  0  0  0  0  0  0  0  0  0  # atno 17343 bound_to 10162
  157.4515  130.7601  149.7156 LP  0  0  0  0  0  0  0  0  0  0  0  0  # atno 17370 bound_to 10713
  155.9839  130.3996  150.3341 LP  0  0  0  0  0  0  0  0  0  0  0  0  # atno 17371 bound_to 10713
  140.7699  133.8747  155.8483 LP  0  0  0  0  0  0  0  0  0  0  0  0  # atno 17394 bound_to 11000
  140.9851  134.1354  157.4460 LP  0  0  0  0  0  0  0  0  0  0  0  0  # atno 17395 bound_to 11000

$$$$
