AV-unprocessed.smi:743|AV-procd|sdf|3563|dock3
  -GOLD-   22720 0563D 1   1.00000     0.00000
 Structure written by MMmdl.
 29 30  0  0  0  0  0  0  0  0  2 V2000
  141.4091  138.2220  153.3478 C   0  0  0  0  0  0  0  0  0  0  0  0
  142.2225  137.0611  153.0554 N   0  0  0  0  0  0  0  0  0  0  0  0
  143.4550  137.0060  152.4424 C   0  0  0  0  0  0  0  0  0  0  0  0
  143.8353  135.6918  152.3915 C   0  0  0  0  0  0  0  0  0  0  0  0
  145.1009  135.0717  151.8337 C   0  0  1  0  0  0  0  0  0  0  0  0
  145.7497  134.2219  152.8358 N   0  0  0  0  0  0  0  0  0  0  0  0
  145.6503  132.8832  152.9384 C   0  0  0  0  0  0  0  0  0  0  0  0
  146.1401  132.2766  153.8874 O   0  0  0  0  0  0  0  0  0  0  0  0
  144.9539  132.0924  151.8178 C   0  0  0  0  0  0  0  0  0  0  0  0
  144.1303  132.9567  150.8456 C   0  0  0  0  0  0  0  0  0  0  0  0
  144.8503  134.2747  150.5303 C   0  0  1  0  0  0  0  0  0  0  0  0
  144.1293  135.0628  149.5132 N   0  3  0  0  0  0  0  0  0  0  0  0
  142.7365  135.0158  152.9978 C   0  0  0  0  0  0  0  0  0  0  0  0
  141.7801  135.8353  153.3996 N   0  0  0  0  0  0  0  0  0  0  0  0
  145.8179  134.0274  150.0906 H   0  0  0  0  0  0  0  0  0  0  0  0
  141.9223  139.1289  153.0273 H   0  0  0  0  0  0  0  0  0  0  0  0
  141.2218  138.2816  154.4204 H   0  0  0  0  0  0  0  0  0  0  0  0
  140.4574  138.1483  152.8206 H   0  0  0  0  0  0  0  0  0  0  0  0
  143.9586  137.8990  152.1016 H   0  0  0  0  0  0  0  0  0  0  0  0
  145.8144  135.8644  151.6051 H   0  0  0  0  0  0  0  0  0  0  0  0
  146.2553  134.7010  153.5675 H   0  0  0  0  0  0  0  0  0  0  0  0
  145.7352  131.5746  151.2606 H   0  0  0  0  0  0  0  0  0  0  0  0
  144.3232  131.3178  152.2550 H   0  0  0  0  0  0  0  0  0  0  0  0
  143.9554  132.3964  149.9266 H   0  0  0  0  0  0  0  0  0  0  0  0
  143.1459  133.1546  151.2721 H   0  0  0  0  0  0  0  0  0  0  0  0
  144.1474  136.0392  149.7714 H   0  0  0  0  0  0  0  0  0  0  0  0
  143.1714  134.7472  149.4579 H   0  0  0  0  0  0  0  0  0  0  0  0
  142.6106  133.9559  153.1631 H   0  0  0  0  0  0  0  0  0  0  0  0
  144.5749  134.9442  148.6146 H   0  0  0  0  0  0  0  0  0  0  0  0
  1  2  1  0  0  0  0
  1 16  1  0  0  0  0
  1 17  1  0  0  0  0
  1 18  1  0  0  0  0
  2 14  1  0  0  0  0
  2  3  1  0  0  0  0
  3  4  2  0  0  0  0
  3 19  1  0  0  0  0
  4  5  1  0  0  0  0
  4 13  1  0  0  0  0
  5 11  1  0  0  0  0
  5  6  1  0  0  0  0
  5 20  1  0  0  0  0
  6  7  1  0  0  0  0
  6 21  1  0  0  0  0
  7  8  2  0  0  0  0
  7  9  1  0  0  0  0
  9 10  1  0  0  0  0
  9 22  1  0  0  0  0
  9 23  1  0  0  0  0
 10 11  1  0  0  0  0
 10 24  1  0  0  0  0
 10 25  1  0  0  0  0
 11 15  1  0  0  0  0
 11 12  1  0  0  0  0
 12 26  1  0  0  0  0
 12 27  1  0  0  0  0
 12 29  1  0  0  0  0
 13 14  2  0  0  0  0
 13 28  1  0  0  0  0
M  CHG  1  12   1
M  END
> <s_m_source_file>
AV-unprocessed.smi

> <i_m_source_file_index>
743

> <i_lp_mmshare_version>
43012

> <i_f3d_flags>
0

> <s_epik_input>
W0NIM11uMVtjSF1jKFtjSF1uMSlbQ0BASF0yW05IXUMoPU8pW0NIMl1bQ0gyXVtDQEBIXTJbTkgyXQ==

> <s_epik_cmdline>
J2VwaWtfcHl0aG9uJywgJy1waCcsICc3LjAnLCAnLXRuJywgJzgnLCAnLW1hJywgJzIwMCcsICctbWV0YWxfYmluZGluZycsICctaW1hZScsICc8aW5maWxlLm1hZT4nLCAnLW9tYWUnLCAnPG91dGZpbGUubWFlPic=

> <r_lp_tautomer_probability>
1

> <r_epik_Ionization_Penalty>
0.00878543

> <r_epik_Ionization_Penalty_Charging>
0.00874185

> <r_epik_Ionization_Penalty_Neutral>
4.35793e-05

> <r_epik_State_Penalty>
0.00660351

> <r_epik_Charging_Adjusted_Penalty>
0.0153454

> <i_epik_Tot_Q>
1

> <i_epik_Tot_abs_Q>
1

> <r_epik_Metal_State_Penalty>
0.00660727

> <b_epik_Metal_Only>
0

> <s_lp_Force_Field>
OPLS_2005

> <r_lp_Energy>
11.1602

> <b_lp_Chiralities_Consistent>
1

> <s_lp_Variant>
AV-unprocessed.smi:743-4

> <Gold.Version>
5.8.1

> <Gold.Id.Protein>
6NUR|6NUR_protein|mol2

> <Gold.PLP.Fitness>
39.5223

> <Gold.PLP.PLP>
-22.7852

> <Gold.PLP.part.hbond>
-2.0000

> <Gold.PLP.part.metal>
0.0000

> <Gold.PLP.part.buried>
-4.8874

> <Gold.PLP.part.nonpolar>
-16.8794

> <Gold.PLP.part.repulsive>
0.3640

> <Gold.PLP.ligand.clash>
0.0000

> <Gold.PLP.ligand.torsion>
0.1449

> <Gold.PLP.Chemscore.Hbond>
2.9357

> <Gold.PLP.Chemscore.CHOScore>
2.7337

> <Gold.PLP.Chemscore.Metal>
0.0000

> <Gold.Chemscore.Hbonds>
donor molecule, donor type, donor heavy atom, donor atom, acceptor molecule, acceptor atom, score
      L1  H    12    27       P1 10186  1.27
      L1  H    12    29       P1  7921  0.99
      L1  C     3    19       P1 10171  0.83
      L1  C     3    19       P1 10175  0.89
      L1  C    13    28       P1 10957  0.54

> <Gold.PLP.Chemscore.Internal.Correction>
0.0187

> <Gold.Rescore>
     Score         DG    S(hbond)    S(metal)    S(lipo)     H(rot)  DE(clash)    DE(int)     intcor
     14.33     -14.50       2.00        0.00      42.03       1.00       0.16       0.01       ----

> <Gold.Chemscore.Fitness>
14.3306

> <Gold.Chemscore.DG>
-14.5020

> <Gold.Chemscore.ZeroCoef>
-5.4800

> <Gold.Chemscore.Hbond>
1.9955

> <Gold.Chemscore.Metal>
0.0000

> <Gold.Chemscore.Lipo>
42.0267

> <Gold.Chemscore.Internal_Hbond>
0.0000

> <Gold.Chemscore.DEClash>
0.1596

> <Gold.Chemscore.DEInternal>
0.0118

> <Gold.Chemscore.Rot>
1.0000

> <Gold.Chemscore.Internal.Correction>
   9.000000E+99

> <Gold.Chemscore.Hbonds>
donor molecule, donor type, donor heavy atom, donor atom, acceptor molecule, acceptor atom, score
      L1  H    12    27       P1 10186  0.58
      L1  H    12    29       P1  7921  0.93

> <Gold.Chemscore.Hbond.Weighted>
-6.6649

> <Gold.Chemscore.Metal.Weighted>
-0.0000

> <Gold.Chemscore.Lipo.Weighted>
-4.9171

> <Gold.Chemscore.Internal_Hbond.Weighted>
0.0000

> <Gold.Chemscore.DEClash.Weighted>
0.1596

> <Gold.Chemscore.DEInternal.Weighted>
0.0118

> <Gold.Chemscore.Rot.Weighted>
2.5600

> <Gold.Chemscore.Internal.Correction.Weighted>
   9.000000E+99

> <Gold.Protein.RotatedTorsions>
[ 6907 6896 6895 6894 ] final   75.66 input  -60.11 | X-H torsion
[ 7974 7965 7964 7962 ] final -131.17 input  175.53 | X-H torsion
[ 8008 7997 7996 7995 ] final  -67.90 input   59.86 | X-H torsion
[ 10167 10162 10161 10158 ] final  -66.92 input  -65.29 | X-H torsion
[ 10718 10713 10712 10709 ] final  -47.36 input   66.30 | X-H torsion
[ 10763 10752 10751 10750 ] final   73.48 input  -60.55 | X-H torsion
[ 11005 11000 10999 10996 ] final  -49.87 input  -57.11 | X-H torsion

> <Gold.Protein.ActiveResidues>
 VAL166  LYS551  ARG553  GLY616  TRP617  ASP618  TYR619  PRO620  LYS621  CYS622 
 ASP623  PHE694  ASN695  SER759  ASP760  ASP761  ALA762  ILE779  LEU786  VAL792 
 PHE793  MET794  SER795  GLU796  ALA797  LYS798  CYS799  TRP800  GLU811  SER814 

> <Gold.Protein.RotatedAtoms>
  152.5036  134.4086  159.9440 H   0  0  0  0  0  0  0  0  0  0  0  0  # atno 6907 bound_to 6896
  151.4053  133.3738  159.2745 H   0  0  0  0  0  0  0  0  0  0  0  0  # atno 6908 bound_to 6896
  150.9331  134.8767  159.7623 H   0  0  0  0  0  0  0  0  0  0  0  0  # atno 6909 bound_to 6896
  144.9404  140.7232  143.4850 H   0  0  0  0  0  0  0  0  0  0  0  0  # atno 7974 bound_to 7965
  154.4831  140.0883  156.7423 H   0  0  0  0  0  0  0  0  0  0  0  0  # atno 8008 bound_to 7997
  155.4419  140.3454  155.4273 H   0  0  0  0  0  0  0  0  0  0  0  0  # atno 8009 bound_to 7997
  156.1221  140.1477  156.9177 H   0  0  0  0  0  0  0  0  0  0  0  0  # atno 8010 bound_to 7997
  140.5622  143.2313  151.6706 H   0  0  0  0  0  0  0  0  0  0  0  0  # atno 10167 bound_to 10162
  156.2092  130.4160  149.9138 H   0  0  0  0  0  0  0  0  0  0  0  0  # atno 10718 bound_to 10713
  153.0524  135.5061  154.7900 H   0  0  0  0  0  0  0  0  0  0  0  0  # atno 10763 bound_to 10752
  154.6752  135.2959  154.9691 H   0  0  0  0  0  0  0  0  0  0  0  0  # atno 10764 bound_to 10752
  154.0495  135.6706  153.4851 H   0  0  0  0  0  0  0  0  0  0  0  0  # atno 10765 bound_to 10752
  141.0784  133.6660  156.3648 H   0  0  0  0  0  0  0  0  0  0  0  0  # atno 11005 bound_to 11000
  145.2999  139.1854  143.4695 LP  0  0  0  0  0  0  0  0  0  0  0  0  # atno 17320 bound_to 7965
  146.3283  140.2989  142.8619 LP  0  0  0  0  0  0  0  0  0  0  0  0  # atno 17321 bound_to 7965
  139.5075  144.3643  152.0532 LP  0  0  0  0  0  0  0  0  0  0  0  0  # atno 17342 bound_to 10162
  140.2771  144.3901  150.6131 LP  0  0  0  0  0  0  0  0  0  0  0  0  # atno 17343 bound_to 10162
  156.6821  130.8862  151.3577 LP  0  0  0  0  0  0  0  0  0  0  0  0  # atno 17370 bound_to 10713
  157.7029  130.9353  150.0840 LP  0  0  0  0  0  0  0  0  0  0  0  0  # atno 17371 bound_to 10713
  140.5523  134.6015  157.5411 LP  0  0  0  0  0  0  0  0  0  0  0  0  # atno 17394 bound_to 11000
  139.9596  134.7475  156.0265 LP  0  0  0  0  0  0  0  0  0  0  0  0  # atno 17395 bound_to 11000

$$$$
