AV-unprocessed.smi:3331|AV-procd|sdf|12824|dock9
  -GOLD-   2272019203D 1   1.00000     0.00000
 Structure written by MMmdl.
 46 47  0  0  0  0  0  0  0  0  1 V2000
  154.0611  140.8575  161.6236 C   0  0  0  0  0  0  0  0  0  0  0  0
  152.9373  141.2355  160.6489 C   0  0  1  0  0  0  0  0  0  0  0  0
  152.8550  142.7652  160.4415 C   0  0  0  0  0  0  0  0  0  0  0  0
  151.8171  143.1607  159.3661 C   0  0  1  0  0  0  0  0  0  0  0  0
  151.8413  144.6691  159.0840 C   0  0  0  0  0  0  0  0  0  0  0  0
  152.0398  142.3376  158.0796 C   0  0  0  0  0  0  0  0  0  0  0  0
  151.9782  140.9121  158.4254 N   0  0  0  0  0  0  0  0  0  0  0  0
  150.9196  140.1305  158.0943 C   0  0  0  0  0  0  0  0  0  0  0  0
  150.0195  140.5363  157.3555 O   0  0  0  0  0  0  0  0  0  0  0  0
  150.8055  138.6935  158.6579 C   0  0  2  0  0  0  0  0  0  0  0  0
  151.9845  137.8415  158.1623 C   0  0  0  0  0  0  0  0  0  0  0  0
  149.5390  138.0379  158.2895 N   0  0  0  0  0  0  0  0  0  0  0  0
  149.2951  136.7976  159.0212 C   0  0  0  0  0  0  0  0  0  0  0  0
  147.7931  136.6449  159.3069 C   0  0  0  0  0  0  0  0  0  0  0  0
  147.5373  135.6192  160.3023 N   0  0  0  0  0  0  0  0  0  0  0  0
  147.0760  135.7710  161.5930 C   0  0  0  0  0  0  0  0  0  0  0  0
  147.0175  134.5268  162.1520 C   0  0  0  0  0  0  0  0  0  0  0  0
  147.4691  133.6675  161.1116 C   0  0  0  0  0  0  0  0  0  0  0  0
  147.7777  134.3238  160.0051 N   0  0  0  0  0  0  0  0  0  0  0  0
  153.1043  140.5322  159.2871 C   0  0  0  0  0  0  0  0  0  0  0  0
  155.0369  141.1556  161.2390 H   0  0  0  0  0  0  0  0  0  0  0  0
  154.0849  139.7810  161.7952 H   0  0  0  0  0  0  0  0  0  0  0  0
  153.9212  141.3423  162.5900 H   0  0  0  0  0  0  0  0  0  0  0  0
  151.9953  140.9021  161.0875 H   0  0  0  0  0  0  0  0  0  0  0  0
  152.6180  143.2566  161.3858 H   0  0  0  0  0  0  0  0  0  0  0  0
  153.8360  143.1367  160.1417 H   0  0  0  0  0  0  0  0  0  0  0  0
  150.8259  142.9159  159.7518 H   0  0  0  0  0  0  0  0  0  0  0  0
  152.8064  144.9828  158.6851 H   0  0  0  0  0  0  0  0  0  0  0  0
  151.6534  145.2414  159.9928 H   0  0  0  0  0  0  0  0  0  0  0  0
  151.0758  144.9435  158.3578 H   0  0  0  0  0  0  0  0  0  0  0  0
  151.3067  142.6203  157.3229 H   0  0  0  0  0  0  0  0  0  0  0  0
  153.0134  142.5672  157.6440 H   0  0  0  0  0  0  0  0  0  0  0  0
  150.8312  138.7135  159.7465 H   0  0  0  0  0  0  0  0  0  0  0  0
  152.9427  138.2817  158.4400 H   0  0  0  0  0  0  0  0  0  0  0  0
  151.9715  137.7361  157.0764 H   0  0  0  0  0  0  0  0  0  0  0  0
  151.9509  136.8399  158.5918 H   0  0  0  0  0  0  0  0  0  0  0  0
  149.4776  137.8634  157.2970 H   0  0  0  0  0  0  0  0  0  0  0  0
  149.6501  135.9618  158.4176 H   0  0  0  0  0  0  0  0  0  0  0  0
  149.8447  136.7603  159.9625 H   0  0  0  0  0  0  0  0  0  0  0  0
  147.3607  137.5871  159.6467 H   0  0  0  0  0  0  0  0  0  0  0  0
  147.2666  136.3723  158.3912 H   0  0  0  0  0  0  0  0  0  0  0  0
  146.8374  136.7413  162.0025 H   0  0  0  0  0  0  0  0  0  0  0  0
  146.7037  134.2697  163.1528 H   0  0  0  0  0  0  0  0  0  0  0  0
  147.5813  132.5936  161.1273 H   0  0  0  0  0  0  0  0  0  0  0  0
  154.0356  140.8524  158.8171 H   0  0  0  0  0  0  0  0  0  0  0  0
  153.2166  139.4569  159.4110 H   0  0  0  0  0  0  0  0  0  0  0  0
  1  2  1  0  0  0  0
  1 21  1  0  0  0  0
  1 22  1  0  0  0  0
  1 23  1  0  0  0  0
  2 20  1  0  0  0  0
  2  3  1  0  0  0  0
  2 24  1  0  0  0  0
  3  4  1  0  0  0  0
  3 25  1  0  0  0  0
  3 26  1  0  0  0  0
  4  5  1  0  0  0  0
  4  6  1  0  0  0  0
  4 27  1  0  0  0  0
  5 28  1  0  0  0  0
  5 29  1  0  0  0  0
  5 30  1  0  0  0  0
  6  7  1  0  0  0  0
  6 31  1  0  0  0  0
  6 32  1  0  0  0  0
  7  8  1  0  0  0  0
  7 20  1  0  0  0  0
  8  9  2  0  0  0  0
  8 10  1  0  0  0  0
 10 11  1  0  0  0  0
 10 12  1  0  0  0  0
 10 33  1  0  0  0  0
 11 34  1  0  0  0  0
 11 35  1  0  0  0  0
 11 36  1  0  0  0  0
 12 13  1  0  0  0  0
 12 37  1  0  0  0  0
 13 14  1  0  0  0  0
 13 38  1  0  0  0  0
 13 39  1  0  0  0  0
 14 15  1  0  0  0  0
 14 40  1  0  0  0  0
 14 41  1  0  0  0  0
 15 19  1  0  0  0  0
 15 16  1  0  0  0  0
 16 17  2  0  0  0  0
 16 42  1  0  0  0  0
 17 18  1  0  0  0  0
 17 43  1  0  0  0  0
 18 19  2  0  0  0  0
 18 44  1  0  0  0  0
 20 45  1  0  0  0  0
 20 46  1  0  0  0  0
M  END
> <s_m_source_file>
AV-unprocessed.smi

> <i_m_source_file_index>
3331

> <i_lp_mmshare_version>
43012

> <i_f3d_flags>
0

> <s_epik_input>
W0NIM11bQ0BASF0xW0NIMl1bQ0BASF0oW0NIM10pW0NIMl1OKFtDSDJdMSlDKD1PKVtDQEhdKFtDSDNdKVtOSF1bQ0gyXVtDSDJdbjJbY0hdW2NIXVtjSF1uMg==

> <s_epik_cmdline>
J2VwaWtfcHl0aG9uJywgJy1waCcsICc3LjAnLCAnLXRuJywgJzgnLCAnLW1hJywgJzIwMCcsICctbWV0YWxfYmluZGluZycsICctaW1hZScsICc8aW5maWxlLm1hZT4nLCAnLW9tYWUnLCAnPG91dGZpbGUubWFlPic=

> <r_lp_tautomer_probability>
1

> <r_epik_Ionization_Penalty>
0.767994

> <r_epik_Ionization_Penalty_Charging>
0

> <r_epik_Ionization_Penalty_Neutral>
0.767994

> <r_epik_State_Penalty>
0.795453

> <r_epik_Charging_Adjusted_Penalty>
0.795453

> <i_epik_Tot_Q>
0

> <i_epik_Tot_abs_Q>
0

> <r_epik_Metal_State_Penalty>
0.794784

> <b_epik_Metal_Only>
0

> <s_lp_Force_Field>
OPLS_2005

> <r_lp_Energy>
28.4276

> <b_lp_Chiralities_Consistent>
1

> <s_lp_Variant>
AV-unprocessed.smi:3331-8

> <Gold.Version>
5.8.1

> <Gold.Id.Protein>
6NUR|6NUR_protein|mol2

> <Gold.PLP.Fitness>
44.3962

> <Gold.PLP.PLP>
-45.2435

> <Gold.PLP.part.hbond>
0.0000

> <Gold.PLP.part.metal>
0.0000

> <Gold.PLP.part.buried>
-5.3742

> <Gold.PLP.part.nonpolar>
-39.4108

> <Gold.PLP.part.repulsive>
0.0147

> <Gold.PLP.ligand.clash>
0.0000

> <Gold.PLP.ligand.torsion>
0.4578

> <Gold.PLP.Chemscore.Hbond>
0.0000

> <Gold.PLP.Chemscore.CHOScore>
0.0000

> <Gold.PLP.Chemscore.Metal>
0.0000

> <Gold.PLP.Chemscore.Internal.Correction>
0.0684

> <Gold.Rescore>
     Score         DG    S(hbond)    S(metal)    S(lipo)     H(rot)  DE(clash)    DE(int)     intcor
     14.33     -15.00       0.00        0.00     117.78       1.66       0.11       0.55       ----

> <Gold.Chemscore.Fitness>
14.3316

> <Gold.Chemscore.DG>
-14.9988

> <Gold.Chemscore.ZeroCoef>
-5.4800

> <Gold.Chemscore.Hbond>
0.0000

> <Gold.Chemscore.Metal>
0.0000

> <Gold.Chemscore.Lipo>
117.7849

> <Gold.Chemscore.Internal_Hbond>
0.0000

> <Gold.Chemscore.DEClash>
0.1132

> <Gold.Chemscore.DEInternal>
0.5540

> <Gold.Chemscore.Rot>
1.6649

> <Gold.Chemscore.Internal.Correction>
   9.000000E+99

> <Gold.Chemscore.Hbond.Weighted>
-0.0000

> <Gold.Chemscore.Metal.Weighted>
-0.0000

> <Gold.Chemscore.Lipo.Weighted>
-13.7808

> <Gold.Chemscore.Internal_Hbond.Weighted>
0.0000

> <Gold.Chemscore.DEClash.Weighted>
0.1132

> <Gold.Chemscore.DEInternal.Weighted>
0.5540

> <Gold.Chemscore.Rot.Weighted>
4.2621

> <Gold.Chemscore.Internal.Correction.Weighted>
   9.000000E+99

> <Gold.Protein.RotatedTorsions>
[ 6907 6896 6895 6894 ] final  -94.85 input  -60.11 | X-H torsion
[ 7974 7965 7964 7962 ] final  134.89 input  175.53 | X-H torsion
[ 8008 7997 7996 7995 ] final   61.92 input   59.86 | X-H torsion
[ 10167 10162 10161 10158 ] final  -58.00 input  -65.29 | X-H torsion
[ 10718 10713 10712 10709 ] final  106.09 input   66.30 | X-H torsion
[ 10763 10752 10751 10750 ] final  -87.52 input  -60.55 | X-H torsion
[ 11005 11000 10999 10996 ] final   93.05 input  -57.11 | X-H torsion

> <Gold.Protein.ActiveResidues>
 VAL166  LYS551  ARG553  GLY616  TRP617  ASP618  TYR619  PRO620  LYS621  CYS622 
 ASP623  PHE694  ASN695  SER759  ASP760  ASP761  ALA762  ILE779  LEU786  VAL792 
 PHE793  MET794  SER795  GLU796  ALA797  LYS798  CYS799  TRP800  GLU811  SER814 

> <Gold.Protein.RotatedAtoms>
  150.6950  134.1749  159.4225 H   0  0  0  0  0  0  0  0  0  0  0  0  # atno 6907 bound_to 6896
  151.9725  135.0067  160.0563 H   0  0  0  0  0  0  0  0  0  0  0  0  # atno 6908 bound_to 6896
  152.1828  133.4684  159.5004 H   0  0  0  0  0  0  0  0  0  0  0  0  # atno 6909 bound_to 6896
  144.9718  139.4598  143.5429 H   0  0  0  0  0  0  0  0  0  0  0  0  # atno 7974 bound_to 7965
  155.6061  140.3494  155.4608 H   0  0  0  0  0  0  0  0  0  0  0  0  # atno 8008 bound_to 7997
  156.0191  140.1249  157.0401 H   0  0  0  0  0  0  0  0  0  0  0  0  # atno 8009 bound_to 7997
  154.4308  140.1066  156.5923 H   0  0  0  0  0  0  0  0  0  0  0  0  # atno 8010 bound_to 7997
  140.6224  143.2425  151.5447 H   0  0  0  0  0  0  0  0  0  0  0  0  # atno 10167 bound_to 10162
  157.6681  131.0843  150.5954 H   0  0  0  0  0  0  0  0  0  0  0  0  # atno 10718 bound_to 10713
  154.6345  135.5410  153.7718 H   0  0  0  0  0  0  0  0  0  0  0  0  # atno 10763 bound_to 10752
  153.0301  135.6444  154.1252 H   0  0  0  0  0  0  0  0  0  0  0  0  # atno 10764 bound_to 10752
  154.1180  135.2922  155.3195 H   0  0  0  0  0  0  0  0  0  0  0  0  # atno 10765 bound_to 10752
  139.8815  134.8768  156.3662 H   0  0  0  0  0  0  0  0  0  0  0  0  # atno 11005 bound_to 11000
  146.3384  139.8934  142.8805 LP  0  0  0  0  0  0  0  0  0  0  0  0  # atno 17320 bound_to 7965
  145.2548  141.0057  143.3860 LP  0  0  0  0  0  0  0  0  0  0  0  0  # atno 17321 bound_to 7965
  139.5450  144.2545  152.1425 LP  0  0  0  0  0  0  0  0  0  0  0  0  # atno 17342 bound_to 10162
  140.1768  144.4883  150.6549 LP  0  0  0  0  0  0  0  0  0  0  0  0  # atno 17343 bound_to 10162
  156.6254  130.4417  149.5806 LP  0  0  0  0  0  0  0  0  0  0  0  0  # atno 17370 bound_to 10713
  156.2323  130.6802  151.1475 LP  0  0  0  0  0  0  0  0  0  0  0  0  # atno 17371 bound_to 10713
  140.9495  133.7460  156.0253 LP  0  0  0  0  0  0  0  0  0  0  0  0  # atno 17394 bound_to 11000
  140.8122  134.3386  157.5408 LP  0  0  0  0  0  0  0  0  0  0  0  0  # atno 17395 bound_to 11000

$$$$
