AV-unprocessed.smi:1103|AV-procd|sdf|4771|dock1
  -GOLD-   22720 3313D 1   1.00000     0.00000
 Structure written by MMmdl.
 44 45  0  0  0  0  0  0  0  0  2 V2000
  145.4575  135.4162  151.7002 C   0  0  0  0  0  0  0  0  0  0  0  0
  145.7976  135.9351  153.1050 C   0  0  0  0  0  0  0  0  0  0  0  0
  146.6580  137.1449  153.0726 N   0  3  1  0  0  0  0  0  0  0  0  0
  146.1157  138.1927  152.1701 C   0  0  0  0  0  0  0  0  0  0  0  0
  147.0937  139.3702  152.0427 C   0  0  0  0  0  0  0  0  0  0  0  0
  147.4215  139.9595  153.4197 C   0  0  0  0  0  0  0  0  0  0  0  0
  147.9578  138.8648  154.3583 C   0  0  1  0  0  0  0  0  0  0  0  0
  148.2822  139.4474  155.7516 C   0  0  0  0  0  0  0  0  0  0  0  0
  149.2774  140.5144  155.7038 N   0  0  0  0  0  0  0  0  0  0  0  0
  149.8646  141.0687  156.7755 C   0  0  0  0  0  0  0  0  0  0  0  0
  149.6112  140.7266  157.9316 O   0  0  0  0  0  0  0  0  0  0  0  0
  150.8879  142.1727  156.4847 C   0  0  0  0  0  0  0  0  0  0  0  0
  151.3220  142.8599  157.6899 N   0  0  0  0  0  0  0  0  0  0  0  0
  151.1698  144.1905  158.0215 C   0  0  0  0  0  0  0  0  0  0  0  0
  151.7326  144.3748  159.2525 C   0  0  0  0  0  0  0  0  0  0  0  0
  151.8266  145.6363  160.0610 C   0  0  0  0  0  0  0  0  0  0  0  0
  152.2136  143.0786  159.5937 C   0  0  0  0  0  0  0  0  0  0  0  0
  151.9691  142.1762  158.6577 N   0  0  0  0  0  0  0  0  0  0  0  0
  146.9573  137.6886  154.4251 C   0  0  0  0  0  0  0  0  0  0  0  0
  144.7526  134.5865  151.7603 H   0  0  0  0  0  0  0  0  0  0  0  0
  146.3374  135.0521  151.1708 H   0  0  0  0  0  0  0  0  0  0  0  0
  144.9972  136.1963  151.0928 H   0  0  0  0  0  0  0  0  0  0  0  0
  144.8575  136.1756  153.6029 H   0  0  0  0  0  0  0  0  0  0  0  0
  146.2706  135.1538  153.7016 H   0  0  0  0  0  0  0  0  0  0  0  0
  145.9350  137.7719  151.1801 H   0  0  0  0  0  0  0  0  0  0  0  0
  145.1528  138.5400  152.5484 H   0  0  0  0  0  0  0  0  0  0  0  0
  148.0119  139.0342  151.5587 H   0  0  0  0  0  0  0  0  0  0  0  0
  146.6688  140.1408  151.3988 H   0  0  0  0  0  0  0  0  0  0  0  0
  148.1557  140.7588  153.3128 H   0  0  0  0  0  0  0  0  0  0  0  0
  146.5262  140.4128  153.8474 H   0  0  0  0  0  0  0  0  0  0  0  0
  148.8863  138.4898  153.9247 H   0  0  0  0  0  0  0  0  0  0  0  0
  147.3740  139.8231  156.2263 H   0  0  0  0  0  0  0  0  0  0  0  0
  148.6636  138.6616  156.4042 H   0  0  0  0  0  0  0  0  0  0  0  0
  149.5505  140.8450  154.7894 H   0  0  0  0  0  0  0  0  0  0  0  0
  151.7528  141.7379  155.9810 H   0  0  0  0  0  0  0  0  0  0  0  0
  150.4576  142.9115  155.8074 H   0  0  0  0  0  0  0  0  0  0  0  0
  150.6743  144.8875  157.3618 H   0  0  0  0  0  0  0  0  0  0  0  0
  152.2650  145.4567  161.0429 H   0  0  0  0  0  0  0  0  0  0  0  0
  150.8454  146.0826  160.2247 H   0  0  0  0  0  0  0  0  0  0  0  0
  152.4438  146.3861  159.5660 H   0  0  0  0  0  0  0  0  0  0  0  0
  152.7304  142.7682  160.4898 H   0  0  0  0  0  0  0  0  0  0  0  0
  146.0294  138.0099  154.9013 H   0  0  0  0  0  0  0  0  0  0  0  0
  147.3726  136.8983  155.0490 H   0  0  0  0  0  0  0  0  0  0  0  0
  147.5384  136.8577  152.6691 H   0  0  0  0  0  0  0  0  0  0  0  0
  1  2  1  0  0  0  0
  1 20  1  0  0  0  0
  1 21  1  0  0  0  0
  1 22  1  0  0  0  0
  2  3  1  0  0  0  0
  2 23  1  0  0  0  0
  2 24  1  0  0  0  0
  3 19  1  0  0  0  0
  3  4  1  0  0  0  0
  3 44  1  0  0  0  0
  4  5  1  0  0  0  0
  4 25  1  0  0  0  0
  4 26  1  0  0  0  0
  5  6  1  0  0  0  0
  5 27  1  0  0  0  0
  5 28  1  0  0  0  0
  6  7  1  0  0  0  0
  6 29  1  0  0  0  0
  6 30  1  0  0  0  0
  7  8  1  0  0  0  0
  7 19  1  0  0  0  0
  7 31  1  0  0  0  0
  8  9  1  0  0  0  0
  8 32  1  0  0  0  0
  8 33  1  0  0  0  0
  9 10  1  0  0  0  0
  9 34  1  0  0  0  0
 10 11  2  0  0  0  0
 10 12  1  0  0  0  0
 12 13  1  0  0  0  0
 12 35  1  0  0  0  0
 12 36  1  0  0  0  0
 13 18  1  0  0  0  0
 13 14  1  0  0  0  0
 14 15  2  0  0  0  0
 14 37  1  0  0  0  0
 15 16  1  0  0  0  0
 15 17  1  0  0  0  0
 16 38  1  0  0  0  0
 16 39  1  0  0  0  0
 16 40  1  0  0  0  0
 17 18  2  0  0  0  0
 17 41  1  0  0  0  0
 19 42  1  0  0  0  0
 19 43  1  0  0  0  0
M  CHG  1   3   1
M  END
> <s_m_source_file>
AV-unprocessed.smi

> <i_m_source_file_index>
1103

> <i_lp_mmshare_version>
43012

> <i_f3d_flags>
0

> <s_epik_input>
W0NIM11bQ0gyXU4xW0NIMl1bQ0gyXVtDSDJdW0NASF0oW0NIMl0xKVtDSDJdW05IXUMoPU8pW0NIMl1uMltjSF1jKFtDSDNdKVtjSF1uMg==

> <s_epik_cmdline>
J2VwaWtfcHl0aG9uJywgJy1waCcsICc3LjAnLCAnLXRuJywgJzgnLCAnLW1hJywgJzIwMCcsICctbWV0YWxfYmluZGluZycsICctaW1hZScsICc8aW5maWxlLm1hZT4nLCAnLW9tYWUnLCAnPG91dGZpbGUubWFlPic=

> <r_lp_tautomer_probability>
1

> <r_epik_Ionization_Penalty>
0.000672456

> <r_epik_Ionization_Penalty_Charging>
0.000647327

> <r_epik_Ionization_Penalty_Neutral>
2.51297e-05

> <r_epik_State_Penalty>
0.000409793

> <r_epik_Charging_Adjusted_Penalty>
0.00105712

> <i_epik_Tot_Q>
1

> <i_epik_Tot_abs_Q>
1

> <r_epik_Metal_State_Penalty>
-0

> <b_epik_Metal_Only>
0

> <s_lp_Force_Field>
OPLS_2005

> <r_lp_Energy>
19.0507

> <b_lp_Chiralities_Consistent>
1

> <s_lp_Variant>
AV-unprocessed.smi:1103-1

> <Gold.Version>
5.8.1

> <Gold.Id.Protein>
6NUR|6NUR_protein|mol2

> <Gold.PLP.Fitness>
43.8796

> <Gold.PLP.PLP>
-35.0371

> <Gold.PLP.part.hbond>
-1.0000

> <Gold.PLP.part.metal>
0.0000

> <Gold.PLP.part.buried>
-1.4181

> <Gold.PLP.part.nonpolar>
-33.1555

> <Gold.PLP.part.repulsive>
0.0978

> <Gold.PLP.ligand.clash>
0.0000

> <Gold.PLP.ligand.torsion>
0.1464

> <Gold.PLP.Chemscore.Hbond>
2.0000

> <Gold.PLP.Chemscore.CHOScore>
1.0023

> <Gold.PLP.Chemscore.Metal>
0.0000

> <Gold.Chemscore.Hbonds>
donor molecule, donor type, donor heavy atom, donor atom, acceptor molecule, acceptor atom, score
      L1  H     3    44       P1  7948  2.00
      L1  C    14    37       P1  8028  1.00

> <Gold.PLP.Chemscore.Internal.Correction>
0.1283

> <Gold.Rescore>
     Score         DG    S(hbond)    S(metal)    S(lipo)     H(rot)  DE(clash)    DE(int)     intcor
     13.21     -16.05       1.00        0.00      98.58       1.68       1.47       1.37       ----

> <Gold.Chemscore.Fitness>
13.2135

> <Gold.Chemscore.DG>
-16.0475

> <Gold.Chemscore.ZeroCoef>
-5.4800

> <Gold.Chemscore.Hbond>
1.0000

> <Gold.Chemscore.Metal>
0.0000

> <Gold.Chemscore.Lipo>
98.5818

> <Gold.Chemscore.Internal_Hbond>
0.0000

> <Gold.Chemscore.DEClash>
1.4666

> <Gold.Chemscore.DEInternal>
1.3673

> <Gold.Chemscore.Rot>
1.6823

> <Gold.Chemscore.Internal.Correction>
   9.000000E+99

> <Gold.Chemscore.Hbonds>
donor molecule, donor type, donor heavy atom, donor atom, acceptor molecule, acceptor atom, score
      L1  H     3    44       P1  7948  1.00

> <Gold.Chemscore.Hbond.Weighted>
-3.3400

> <Gold.Chemscore.Metal.Weighted>
-0.0000

> <Gold.Chemscore.Lipo.Weighted>
-11.5341

> <Gold.Chemscore.Internal_Hbond.Weighted>
0.0000

> <Gold.Chemscore.DEClash.Weighted>
1.4666

> <Gold.Chemscore.DEInternal.Weighted>
1.3673

> <Gold.Chemscore.Rot.Weighted>
4.3066

> <Gold.Chemscore.Internal.Correction.Weighted>
   9.000000E+99

> <Gold.Protein.RotatedTorsions>
[ 6907 6896 6895 6894 ] final   47.97 input  -60.11 | X-H torsion
[ 7974 7965 7964 7962 ] final  -31.21 input  175.53 | X-H torsion
[ 8008 7997 7996 7995 ] final -151.81 input   59.86 | X-H torsion
[ 10167 10162 10161 10158 ] final   12.03 input  -65.29 | X-H torsion
[ 10718 10713 10712 10709 ] final  -91.26 input   66.30 | X-H torsion
[ 10763 10752 10751 10750 ] final  -83.28 input  -60.55 | X-H torsion
[ 11005 11000 10999 10996 ] final  -17.27 input  -57.11 | X-H torsion

> <Gold.Protein.ActiveResidues>
 VAL166  LYS551  ARG553  GLY616  TRP617  ASP618  TYR619  PRO620  LYS621  CYS622 
 ASP623  PHE694  ASN695  SER759  ASP760  ASP761  ALA762  ILE779  LEU786  VAL792 
 PHE793  MET794  SER795  GLU796  ALA797  LYS798  CYS799  TRP800  GLU811  SER814 

> <Gold.Protein.RotatedAtoms>
  152.2742  134.7900  160.0408 H   0  0  0  0  0  0  0  0  0  0  0  0  # atno 6907 bound_to 6896
  151.8501  133.3433  159.3679 H   0  0  0  0  0  0  0  0  0  0  0  0  # atno 6908 bound_to 6896
  150.7164  134.5235  159.5709 H   0  0  0  0  0  0  0  0  0  0  0  0  # atno 6909 bound_to 6896
  146.1085  140.5638  142.8789 H   0  0  0  0  0  0  0  0  0  0  0  0  # atno 7974 bound_to 7965
  155.6453  140.0706  157.2605 H   0  0  0  0  0  0  0  0  0  0  0  0  # atno 8008 bound_to 7997
  154.4174  140.1743  156.1667 H   0  0  0  0  0  0  0  0  0  0  0  0  # atno 8009 bound_to 7997
  155.9821  140.3353  155.6676 H   0  0  0  0  0  0  0  0  0  0  0  0  # atno 8010 bound_to 7997
  140.6094  143.8439  150.7049 H   0  0  0  0  0  0  0  0  0  0  0  0  # atno 10167 bound_to 10162
  155.9992  130.4941  150.5448 H   0  0  0  0  0  0  0  0  0  0  0  0  # atno 10718 bound_to 10713
  154.5858  135.5561  153.7230 H   0  0  0  0  0  0  0  0  0  0  0  0  # atno 10763 bound_to 10752
  153.0098  135.6331  154.1918 H   0  0  0  0  0  0  0  0  0  0  0  0  # atno 10764 bound_to 10752
  154.1859  135.2885  155.3017 H   0  0  0  0  0  0  0  0  0  0  0  0  # atno 10765 bound_to 10752
  140.8151  133.8111  155.9602 H   0  0  0  0  0  0  0  0  0  0  0  0  # atno 11005 bound_to 11000
  144.7491  140.5144  143.6815 LP  0  0  0  0  0  0  0  0  0  0  0  0  # atno 17320 bound_to 7965
  145.5713  139.1483  143.3287 LP  0  0  0  0  0  0  0  0  0  0  0  0  # atno 17321 bound_to 7965
  140.2004  143.3964  152.1796 LP  0  0  0  0  0  0  0  0  0  0  0  0  # atno 17342 bound_to 10162
  139.5350  144.7199  151.4925 LP  0  0  0  0  0  0  0  0  0  0  0  0  # atno 17343 bound_to 10162
  157.3379  131.0711  151.1810 LP  0  0  0  0  0  0  0  0  0  0  0  0  # atno 17370 bound_to 10713
  157.2669  130.6685  149.6001 LP  0  0  0  0  0  0  0  0  0  0  0  0  # atno 17371 bound_to 10713
  140.9157  134.2204  157.4958 LP  0  0  0  0  0  0  0  0  0  0  0  0  # atno 17394 bound_to 11000
  139.8711  134.9770  156.4942 LP  0  0  0  0  0  0  0  0  0  0  0  0  # atno 17395 bound_to 11000

$$$$
