#       Name:                AV-unprocessed.smi:2372
#       Creating user name   scv26
#       Creation time:       Fri Mar 27 13:06:49 2020


#       File generated by GOLD software.
#

@<TRIPOS>MOLECULE
AV-unprocessed.smi:2372
    39    40     1
SMALL
NO_CHARGES


@<TRIPOS>ATOM
      1 ****        -0.6916   0.9226   1.0860 O.2            1 S1                 0.0000
      2 ****        -1.3387   1.0292   0.0447 C.2            1 S1                 0.0000
      3 ****        -1.2546   0.1542  -0.9676 N.am           1 S1                 0.0000
      4 ****        -0.4102  -1.0342  -0.9733 C.3            1 S1                 0.0000
      5 ****         1.0540  -0.6874  -1.2977 C.3            1 S1                 0.0000
      6 ****         1.8814  -1.8858  -1.3599 N.am           1 S1                 0.0000
      7 ****         2.3861  -2.5284  -0.2956 C.2            1 S1                 0.0000
      8 ****         2.2067  -2.1513   0.8634 O.2            1 S1                 0.0000
      9 ****         3.1785  -3.7463  -0.6422 C.3            1 S1                 0.0000
     10 ****         3.0984  -4.9261   0.3053 C.3            1 S1                 0.0000
     11 ****         4.3565  -4.0973   0.2438 C.3            1 S1                 0.0000
     12 ****        -2.1944   2.0250  -0.2429 N.am           1 S1                 0.0000
     13 ****        -2.5626   3.1413   0.5573 C.ar           1 S1                 0.0000
     14 ****        -2.4258   3.1893   1.9660 C.ar           1 S1                 0.0000
     15 ****        -2.8443   4.3509   2.6455 C.ar           1 S1                 0.0000
     16 ****        -3.3799   5.4236   2.0256 N.ar           1 S1                 0.0000
     17 ****        -3.5222   5.3688   0.6844 C.ar           1 S1                 0.0000
     18 ****        -3.1358   4.2564  -0.0900 C.ar           1 S1                 0.0000
     19 ****        -3.3103   4.2652  -1.4339 F              1 S1                 0.0000
     20 ****        -1.8156   0.3190  -1.7906 H              1 S1                 0.0000
     21 ****        -0.4844  -1.5459  -0.0120 H              1 S1                 0.0000
     22 ****        -0.8030  -1.7231  -1.7217 H              1 S1                 0.0000
     23 ****         1.1120  -0.1865  -2.2644 H              1 S1                 0.0000
     24 ****         1.4623   0.0086  -0.5628 H              1 S1                 0.0000
     25 ****         2.0770  -2.2592  -2.2773 H              1 S1                 0.0000
     26 ****         3.2783  -3.9771  -1.7018 H              1 S1                 0.0000
     27 ****         2.4832  -4.8354   1.1991 H              1 S1                 0.0000
     28 ****         3.1173  -5.9187  -0.1399 H              1 S1                 0.0000
     29 ****         5.2287  -4.5292  -0.2424 H              1 S1                 0.0000
     30 ****         4.5761  -3.4568   1.0964 H              1 S1                 0.0000
     31 ****        -2.5891   2.0158  -1.1719 H              1 S1                 0.0000
     32 ****        -2.0246   2.3659   2.5360 H              1 S1                 0.0000
     33 ****        -2.7517   4.4164   3.7195 H              1 S1                 0.0000
     34 ****        -3.9590   6.2371   0.2139 H              1 S1                 0.0000
     35 ****        -0.0642   0.1535   1.2083 LP             1 S1                 0.0000
     36 ****        -0.7931   1.6050   1.8099 LP             1 S1                 0.0000
     37 ****         1.6635  -1.3314   1.0440 LP             1 S1                 0.0000
     38 ****         2.6043  -2.6651   1.6236 LP             1 S1                 0.0000
     39 ****        -3.6618   6.2318   2.5426 LP             1 S1                 0.0000
@<TRIPOS>BOND
    1    1    2 2     
    2    2    3 am    
    3    2   12 am    
    4    3    4 1     
    5    3   20 1     
    6    4    5 1     
    7    4   21 1     
    8    4   22 1     
    9    5    6 1     
   10    5   23 1     
   11    5   24 1     
   12    6    7 am    
   13    6   25 1     
   14    7    8 2     
   15    7    9 1     
   16    9   11 1     
   17    9   10 1     
   18    9   26 1     
   19   10   11 1     
   20   10   27 1     
   21   10   28 1     
   22   11   29 1     
   23   11   30 1     
   24   12   13 1     
   25   12   31 1     
   26   13   18 ar    
   27   13   14 ar    
   28   14   15 ar    
   29   14   32 1     
   30   15   16 ar    
   31   15   33 1     
   32   16   17 ar    
   33   17   18 ar    
   34   17   34 1     
   35   18   19 1     
   36    1   35 1     
   37    1   36 1     
   38    8   37 1     
   39    8   38 1     
   40   16   39 1     
@<TRIPOS>SUBSTRUCTURE
      1 S1             1
@<TRIPOS>SET
LONE_PAIRS      STATIC     ATOMS    <user>   **** ""
5 35 36 37 38 39
DONOR_HYDROGENS      STATIC     ATOMS    <user>   **** ""
3 20 25 31
ATOM$BLUE        STATIC     ATOMS    COLORGROUP SYSTEM
5 35 36 37 38 39
ATOM$RED        STATIC     ATOMS    COLORGROUP SYSTEM
3 20 25 31
