#       Name:                AV-unprocessed.smi:1399
#       Creating user name   scv26
#       Creation time:       Fri Mar 27 05:30:41 2020


#       File generated by GOLD software.
#

@<TRIPOS>MOLECULE
AV-unprocessed.smi:1399
    43    44     1
SMALL
NO_CHARGES


@<TRIPOS>ATOM
      1 ****        -4.3056   2.8430   2.0258 N.am           1 S1                 0.0000
      2 ****        -4.7286   2.0177   1.0649 C.2            1 S1                 0.0000
      3 ****        -5.4956   2.3806   0.1759 O.2            1 S1                 0.0000
      4 ****        -4.2225   0.5714   1.1145 C.3            1 S1                 0.0000
      5 ****        -2.7499   0.4268   1.0408 N.3            1 S1                 0.0000
      6 ****        -2.1983   0.9363  -0.2238 C.3            1 S1                 0.0000
      7 ****        -0.6629   0.8286  -0.2284 C.3            1 S1                 0.0000
      8 ****        -0.2042  -0.6215  -0.0031 C.3            1 S1                 0.0000
      9 ****         1.2482  -0.6977   0.1232 N.am           1 S1                 0.0000
     10 ****         2.1121  -0.7263  -0.9015 C.2            1 S1                 0.0000
     11 ****         1.7692  -0.6854  -2.0832 O.2            1 S1                 0.0000
     12 ****         3.3809  -0.8031  -0.4678 N.am           1 S1                 0.0000
     13 ****         4.5584  -0.8563  -1.2555 C.2            1 S1                 0.0000
     14 ****         5.8780  -0.9400  -0.7340 C.2            1 S1                 0.0000
     15 ****         6.7802  -0.9756  -1.7042 N.2            1 S1                 0.0000
     16 ****         6.0492  -0.9147  -2.8402 N.pl3          1 S1                 0.0000
     17 ****         4.6922  -0.8413  -2.6158 C.2            1 S1                 0.0000
     18 ****        -0.8690  -1.1604   1.2710 C.3            1 S1                 0.0000
     19 ****        -2.3967  -0.9862   1.2142 C.3            1 S1                 0.0000
     20 ****         6.4857  -0.9245  -3.7512 H              1 S1                 0.0000
     21 ****        -4.6076   3.8064   2.0294 H              1 S1                 0.0000
     22 ****        -3.6800   2.5012   2.7408 H              1 S1                 0.0000
     23 ****        -4.5850   0.1353   2.0466 H              1 S1                 0.0000
     24 ****        -4.6890   0.0042   0.3066 H              1 S1                 0.0000
     25 ****        -2.6182   0.3849  -1.0669 H              1 S1                 0.0000
     26 ****        -2.4621   1.9836  -0.3705 H              1 S1                 0.0000
     27 ****        -0.2737   1.2030  -1.1758 H              1 S1                 0.0000
     28 ****        -0.2531   1.4744   0.5499 H              1 S1                 0.0000
     29 ****        -0.5269  -1.2354  -0.8465 H              1 S1                 0.0000
     30 ****         1.6211  -0.7336   1.0606 H              1 S1                 0.0000
     31 ****         3.5197  -0.8284   0.5318 H              1 S1                 0.0000
     32 ****         6.2042  -0.9760   0.2951 H              1 S1                 0.0000
     33 ****         3.9750  -0.7872  -3.4214 H              1 S1                 0.0000
     34 ****        -0.6233  -2.2148   1.4031 H              1 S1                 0.0000
     35 ****        -0.4780  -0.6396   2.1467 H              1 S1                 0.0000
     36 ****        -2.8269  -1.3635   2.1430 H              1 S1                 0.0000
     37 ****        -2.8159  -1.5860   0.4042 H              1 S1                 0.0000
     38 ****        -5.8257   3.3243   0.1548 LP             1 S1                 0.0000
     39 ****        -5.7896   1.7322  -0.5263 LP             1 S1                 0.0000
     40 ****        -2.3494   0.9769   1.7737 LP             1 S1                 0.0000
     41 ****         0.7995  -0.6275  -2.3207 LP             1 S1                 0.0000
     42 ****         2.4603  -0.7101  -2.8055 LP             1 S1                 0.0000
     43 ****         7.7746  -1.0341  -1.6162 LP             1 S1                 0.0000
@<TRIPOS>BOND
    1    1    2 am    
    2    1   21 1     
    3    1   22 1     
    4    2    3 2     
    5    2    4 1     
    6    4    5 1     
    7    4   23 1     
    8    4   24 1     
    9    5   19 1     
   10    5    6 1     
   11    6    7 1     
   12    6   25 1     
   13    6   26 1     
   14    7    8 1     
   15    7   27 1     
   16    7   28 1     
   17    8    9 1     
   18    8   18 1     
   19    8   29 1     
   20    9   10 am    
   21    9   30 1     
   22   10   11 2     
   23   10   12 am    
   24   12   13 1     
   25   12   31 1     
   26   13   17 2     
   27   13   14 1     
   28   14   15 2     
   29   14   32 1     
   30   15   16 1     
   31   16   20 1     
   32   16   17 1     
   33   17   33 1     
   34   18   19 1     
   35   18   34 1     
   36   18   35 1     
   37   19   36 1     
   38   19   37 1     
   39    3   38 1     
   40    3   39 1     
   41    5   40 1     
   42   11   41 1     
   43   11   42 1     
   44   15   43 1     
@<TRIPOS>SUBSTRUCTURE
      1 S1             1
@<TRIPOS>SET
LONE_PAIRS      STATIC     ATOMS    <user>   **** ""
6 38 39 40 41 42 43
DONOR_HYDROGENS      STATIC     ATOMS    <user>   **** ""
5 21 22 30 31 20
ATOM$BLUE        STATIC     ATOMS    COLORGROUP SYSTEM
6 38 39 40 41 42 43
ATOM$RED        STATIC     ATOMS    COLORGROUP SYSTEM
5 21 22 30 31 20
