AV-unprocessed.smi:384|AV-procd|sdf|2470|dock1
  -GOLD-   2262022413D 1   1.00000     0.00000
 Structure written by MMmdl.
 33 34  0  0  0  0  0  0  0  0  3 V2000
  152.4290  144.5222  158.0071 C   0  0  0  0  0  0  0  0  0  0  0  0
  151.3768  143.8252  158.8877 C   0  0  1  0  0  0  0  0  0  0  0  0
  151.0098  142.4075  158.4058 C   0  0  0  0  0  0  0  0  0  0  0  0
  152.0761  141.4646  158.7162 N   0  0  0  0  0  0  0  0  0  0  0  0
  151.8376  140.1828  158.2053 C   0  0  0  0  0  0  0  0  0  0  0  0
  152.3096  139.7449  156.9467 C   0  0  0  0  0  0  0  0  0  0  0  0
  152.0161  138.4347  156.5163 C   0  0  0  0  0  0  0  0  0  0  0  0
  151.2562  137.5783  157.3469 C   0  0  0  0  0  0  0  0  0  0  0  0
  150.9244  136.1782  156.9152 C   0  0  0  0  0  0  0  0  0  0  0  0
  151.3262  135.7833  155.7984 O   0  0  0  0  0  0  0  0  0  0  0  0
  150.2578  135.4533  157.6865 O   0  5  0  0  0  0  0  0  0  0  0  0
  150.8152  138.0735  158.5953 C   0  0  0  0  0  0  0  0  0  0  0  0
  151.1175  139.3355  158.9718 N   0  3  0  0  0  0  0  0  0  0  0  0
  152.4258  141.4665  160.1295 C   0  0  0  0  0  0  0  0  0  0  0  0
  152.8264  142.8856  160.5685 C   0  0  2  0  0  0  0  0  0  0  0  0
  153.1017  142.9640  162.0737 C   0  0  0  0  0  0  0  0  0  0  0  0
  151.7643  143.7905  160.2641 O   0  0  0  0  0  0  0  0  0  0  0  0
  152.0591  144.6476  156.9891 H   0  0  0  0  0  0  0  0  0  0  0  0
  153.3590  143.9578  157.9454 H   0  0  0  0  0  0  0  0  0  0  0  0
  152.6642  145.5134  158.3955 H   0  0  0  0  0  0  0  0  0  0  0  0
  150.4742  144.4351  158.8411 H   0  0  0  0  0  0  0  0  0  0  0  0
  150.0916  142.0843  158.8985 H   0  0  0  0  0  0  0  0  0  0  0  0
  150.8105  142.4104  157.3333 H   0  0  0  0  0  0  0  0  0  0  0  0
  152.8904  140.3995  156.3135 H   0  0  0  0  0  0  0  0  0  0  0  0
  152.3752  138.0989  155.5543 H   0  0  0  0  0  0  0  0  0  0  0  0
  150.2307  137.5031  159.3030 H   0  0  0  0  0  0  0  0  0  0  0  0
  151.5770  141.1198  160.7205 H   0  0  0  0  0  0  0  0  0  0  0  0
  153.2484  140.7721  160.3066 H   0  0  0  0  0  0  0  0  0  0  0  0
  153.7320  143.1900  160.0431 H   0  0  0  0  0  0  0  0  0  0  0  0
  153.9124  142.2934  162.3601 H   0  0  0  0  0  0  0  0  0  0  0  0
  152.2193  142.6897  162.6525 H   0  0  0  0  0  0  0  0  0  0  0  0
  153.3892  143.9747  162.3642 H   0  0  0  0  0  0  0  0  0  0  0  0
  150.7829  139.6632  159.8780 H   0  0  0  0  0  0  0  0  0  0  0  0
  1  2  1  0  0  0  0
  1 18  1  0  0  0  0
  1 19  1  0  0  0  0
  1 20  1  0  0  0  0
  2 17  1  0  0  0  0
  2  3  1  0  0  0  0
  2 21  1  0  0  0  0
  3  4  1  0  0  0  0
  3 22  1  0  0  0  0
  3 23  1  0  0  0  0
  4  5  1  0  0  0  0
  4 14  1  0  0  0  0
  5 13  1  0  0  0  0
  5  6  2  0  0  0  0
  6  7  1  0  0  0  0
  6 24  1  0  0  0  0
  7  8  2  0  0  0  0
  7 25  1  0  0  0  0
  8  9  1  0  0  0  0
  8 12  1  0  0  0  0
  9 10  2  0  0  0  0
  9 11  1  0  0  0  0
 12 13  2  0  0  0  0
 12 26  1  0  0  0  0
 13 33  1  0  0  0  0
 14 15  1  0  0  0  0
 14 27  1  0  0  0  0
 14 28  1  0  0  0  0
 15 16  1  0  0  0  0
 15 17  1  0  0  0  0
 15 29  1  0  0  0  0
 16 30  1  0  0  0  0
 16 31  1  0  0  0  0
 16 32  1  0  0  0  0
M  CHG  1  11  -1
M  CHG  1  13   1
M  END
> <s_m_source_file>
AV-unprocessed.smi

> <i_m_source_file_index>
384

> <i_lp_mmshare_version>
43012

> <i_f3d_flags>
0

> <s_epik_input>
W0NIM11bQ0BASF0xW0NIMl1OKFtDSDJdW0NASF0oTzEpW0NIM10pYzJbY0hdW2NIXWMoW2NIXW4yKUMoPU8pW09IXQ==

> <s_epik_cmdline>
J2VwaWtfcHl0aG9uJywgJy1waCcsICc3LjAnLCAnLXRuJywgJzgnLCAnLW1hJywgJzIwMCcsICctbWV0YWxfYmluZGluZycsICctaW1hZScsICc8aW5maWxlLm1hZT4nLCAnLW9tYWUnLCAnPG91dGZpbGUubWFlPic=

> <r_epik_Ionization_Penalty>
2.35185

> <r_epik_Ionization_Penalty_Charging>
2.35185

> <r_epik_Ionization_Penalty_Neutral>
3.18713e-12

> <r_epik_State_Penalty>
2.50619

> <r_epik_Charging_Adjusted_Penalty>
4.85804

> <i_epik_Tot_Q>
0

> <i_epik_Tot_abs_Q>
2

> <r_epik_Metal_State_Penalty>
6.59026

> <b_epik_Metal_Only>
0

> <s_lp_Force_Field>
OPLS_2005

> <r_lp_Energy>
19.8992

> <b_lp_Chiralities_Consistent>
1

> <s_lp_Variant>
AV-unprocessed.smi:384-6

> <Gold.Version>
5.8.1

> <Gold.Id.Protein>
6NUR|6NUR_protein|mol2

> <Gold.PLP.Fitness>
38.4661

> <Gold.PLP.PLP>
-29.4999

> <Gold.PLP.part.hbond>
-2.0000

> <Gold.PLP.part.metal>
0.0000

> <Gold.PLP.part.buried>
-4.2287

> <Gold.PLP.part.nonpolar>
-23.4502

> <Gold.PLP.part.repulsive>
0.2924

> <Gold.PLP.ligand.clash>
0.0000

> <Gold.PLP.ligand.torsion>
0.6073

> <Gold.PLP.Chemscore.Hbond>
3.3640

> <Gold.PLP.Chemscore.CHOScore>
0.0000

> <Gold.PLP.Chemscore.Metal>
0.0000

> <Gold.Chemscore.Hbonds>
donor molecule, donor type, donor heavy atom, donor atom, acceptor molecule, acceptor atom, score
      P1  H  6896  6907       L1    11  1.21
      P1  H 10752 10764       L1    10  2.00

> <Gold.PLP.Chemscore.Internal.Correction>
0.0889

> <Gold.Rescore>
     Score         DG    S(hbond)    S(metal)    S(lipo)     H(rot)  DE(clash)    DE(int)     intcor
     18.16     -18.65       1.75        0.00      84.41       1.00       0.16       0.33       ----

> <Gold.Chemscore.Fitness>
18.1621

> <Gold.Chemscore.DG>
-18.6510

> <Gold.Chemscore.ZeroCoef>
-5.4800

> <Gold.Chemscore.Hbond>
1.7532

> <Gold.Chemscore.Metal>
0.0000

> <Gold.Chemscore.Lipo>
84.4060

> <Gold.Chemscore.Internal_Hbond>
0.0000

> <Gold.Chemscore.DEClash>
0.1587

> <Gold.Chemscore.DEInternal>
0.3302

> <Gold.Chemscore.Rot>
1.0000

> <Gold.Chemscore.Internal.Correction>
   9.000000E+99

> <Gold.Chemscore.Hbonds>
donor molecule, donor type, donor heavy atom, donor atom, acceptor molecule, acceptor atom, score
      P1  H  6896  6907       L1    11  0.60
      P1  H 10752 10764       L1    10  0.95

> <Gold.Chemscore.Hbond.Weighted>
-5.8555

> <Gold.Chemscore.Metal.Weighted>
-0.0000

> <Gold.Chemscore.Lipo.Weighted>
-9.8755

> <Gold.Chemscore.Internal_Hbond.Weighted>
0.0000

> <Gold.Chemscore.DEClash.Weighted>
0.1587

> <Gold.Chemscore.DEInternal.Weighted>
0.3302

> <Gold.Chemscore.Rot.Weighted>
2.5600

> <Gold.Chemscore.Internal.Correction.Weighted>
   9.000000E+99

> <Gold.Protein.RotatedTorsions>
[ 6907 6896 6895 6894 ] final  -77.01 input  -60.11 | X-H torsion
[ 7974 7965 7964 7962 ] final  -83.26 input  175.53 | X-H torsion
[ 8008 7997 7996 7995 ] final   40.85 input   59.86 | X-H torsion
[ 10167 10162 10161 10158 ] final  -79.18 input  -65.29 | X-H torsion
[ 10718 10713 10712 10709 ] final  -93.68 input   66.30 | X-H torsion
[ 10763 10752 10751 10750 ] final  -26.74 input  -60.55 | X-H torsion
[ 11005 11000 10999 10996 ] final  -33.65 input  -57.11 | X-H torsion

> <Gold.Protein.ActiveResidues>
 VAL166  LYS551  ARG553  GLY616  TRP617  ASP618  TYR619  PRO620  LYS621  CYS622 
 ASP623  PHE694  ASN695  SER759  ASP760  ASP761  ALA762  ILE779  LEU786  VAL792 
 PHE793  MET794  SER795  GLU796  ALA797  LYS798  CYS799  TRP800  GLU811  SER814 

> <Gold.Protein.RotatedAtoms>
  150.7010  134.4486  159.5325 H   0  0  0  0  0  0  0  0  0  0  0  0  # atno 6907 bound_to 6896
  152.2182  134.8434  160.0498 H   0  0  0  0  0  0  0  0  0  0  0  0  # atno 6908 bound_to 6896
  151.9295  133.3572  159.3962 H   0  0  0  0  0  0  0  0  0  0  0  0  # atno 6909 bound_to 6896
  145.5223  140.9530  143.1648 H   0  0  0  0  0  0  0  0  0  0  0  0  # atno 7974 bound_to 7965
  155.2599  140.3358  155.4274 H   0  0  0  0  0  0  0  0  0  0  0  0  # atno 8008 bound_to 7997
  156.2179  140.1796  156.7589 H   0  0  0  0  0  0  0  0  0  0  0  0  # atno 8009 bound_to 7997
  154.5781  140.0658  156.9048 H   0  0  0  0  0  0  0  0  0  0  0  0  # atno 8010 bound_to 7997
  140.4616  143.2452  151.8340 H   0  0  0  0  0  0  0  0  0  0  0  0  # atno 10167 bound_to 10162
  156.0016  130.5036  150.5812 H   0  0  0  0  0  0  0  0  0  0  0  0  # atno 10718 bound_to 10713
  153.7208  135.6945  153.5013 H   0  0  0  0  0  0  0  0  0  0  0  0  # atno 10763 bound_to 10752
  153.2205  135.4371  155.0483 H   0  0  0  0  0  0  0  0  0  0  0  0  # atno 10764 bound_to 10752
  154.8285  135.3459  154.6742 H   0  0  0  0  0  0  0  0  0  0  0  0  # atno 10765 bound_to 10752
  140.9652  133.7141  156.1434 H   0  0  0  0  0  0  0  0  0  0  0  0  # atno 11005 bound_to 11000
  144.7669  139.6823  143.7211 LP  0  0  0  0  0  0  0  0  0  0  0  0  # atno 17320 bound_to 7965
  146.2098  139.5447  142.9688 LP  0  0  0  0  0  0  0  0  0  0  0  0  # atno 17321 bound_to 7965
  139.4807  144.5001  151.9072 LP  0  0  0  0  0  0  0  0  0  0  0  0  # atno 17342 bound_to 10162
  140.4086  144.2398  150.5889 LP  0  0  0  0  0  0  0  0  0  0  0  0  # atno 17343 bound_to 10162
  157.3692  131.0763  151.1572 LP  0  0  0  0  0  0  0  0  0  0  0  0  # atno 17370 bound_to 10713
  157.2331  130.6534  149.5858 LP  0  0  0  0  0  0  0  0  0  0  0  0  # atno 17371 bound_to 10713
  140.7409  134.4151  157.5555 LP  0  0  0  0  0  0  0  0  0  0  0  0  # atno 17394 bound_to 11000
  139.8892  134.8836  156.2433 LP  0  0  0  0  0  0  0  0  0  0  0  0  # atno 17395 bound_to 11000

$$$$
