AV-unprocessed.smi:1897|AV-procd|sdf|7691|dock3
  -GOLD-   22720 9433D 1   1.00000     0.00000
 Structure written by MMmdl.
 39 41  0  0  0  0  0  0  0  0  2 V2000
  152.4601  137.0861  158.0137 C   0  0  0  0  0  0  0  0  0  0  0  0
  151.2625  136.5623  157.2973 C   0  0  0  0  0  0  0  0  0  0  0  0
  150.3327  135.8107  157.8984 N   0  0  0  0  0  0  0  0  0  0  0  0
  149.3149  135.4411  157.0312 N   0  0  0  0  0  0  0  0  0  0  0  0
  149.5097  135.9173  155.7926 C   0  0  0  0  0  0  0  0  0  0  0  0
  148.6237  135.7080  154.6951 N   0  0  0  0  0  0  0  0  0  0  0  0
  147.4562  135.0364  154.5996 C   0  0  0  0  0  0  0  0  0  0  0  0
  146.9720  134.4655  155.5751 O   0  0  0  0  0  0  0  0  0  0  0  0
  146.8654  135.0359  153.3933 N   0  0  0  0  0  0  0  0  0  0  0  0
  145.6100  134.3711  153.0605 C   0  0  1  0  0  0  0  0  0  0  0  0
  144.3933  135.2710  153.2404 C   0  0  0  0  0  0  0  0  0  0  0  0
  143.3408  134.5644  152.3847 C   0  0  0  0  0  0  0  0  0  0  0  0
  144.0758  133.9676  151.2459 N   0  3  2  0  0  0  0  0  0  0  0  0
  143.5329  132.6709  150.7723 C   0  0  0  0  0  0  0  0  0  0  0  0
  144.3518  132.1405  149.5806 C   0  0  0  0  0  0  0  0  0  0  0  0
  145.8722  132.1365  149.8446 C   0  0  0  0  0  0  0  0  0  0  0  0
  146.2238  132.6286  151.2573 C   0  0  0  0  0  0  0  0  0  0  0  0
  145.5294  133.9719  151.5773 C   0  0  2  0  0  0  0  0  0  0  0  0
  150.9641  136.8809  155.5928 S   0  0  0  0  0  0  0  0  0  0  0  0
  152.2038  137.3470  159.0410 H   0  0  0  0  0  0  0  0  0  0  0  0
  152.8405  137.9771  157.5138 H   0  0  0  0  0  0  0  0  0  0  0  0
  153.2455  136.3304  158.0282 H   0  0  0  0  0  0  0  0  0  0  0  0
  148.9094  136.1659  153.8414 H   0  0  0  0  0  0  0  0  0  0  0  0
  147.3295  135.5332  152.6460 H   0  0  0  0  0  0  0  0  0  0  0  0
  145.4680  133.4901  153.6900 H   0  0  0  0  0  0  0  0  0  0  0  0
  144.0908  135.3757  154.2828 H   0  0  0  0  0  0  0  0  0  0  0  0
  144.5915  136.2674  152.8420 H   0  0  0  0  0  0  0  0  0  0  0  0
  142.8677  133.7779  152.9753 H   0  0  0  0  0  0  0  0  0  0  0  0
  142.5570  135.2408  152.0429 H   0  0  0  0  0  0  0  0  0  0  0  0
  143.5448  131.9461  151.5882 H   0  0  0  0  0  0  0  0  0  0  0  0
  142.4896  132.7982  150.4816 H   0  0  0  0  0  0  0  0  0  0  0  0
  144.0156  131.1341  149.3283 H   0  0  0  0  0  0  0  0  0  0  0  0
  144.1463  132.7534  148.7020 H   0  0  0  0  0  0  0  0  0  0  0  0
  146.2783  131.1361  149.6901 H   0  0  0  0  0  0  0  0  0  0  0  0
  146.3635  132.7774  149.1114 H   0  0  0  0  0  0  0  0  0  0  0  0
  145.9282  131.8713  151.9848 H   0  0  0  0  0  0  0  0  0  0  0  0
  147.3049  132.7320  151.3537 H   0  0  0  0  0  0  0  0  0  0  0  0
  145.9750  134.7578  150.9650 H   0  0  0  0  0  0  0  0  0  0  0  0
  143.9779  134.6116  150.4738 H   0  0  0  0  0  0  0  0  0  0  0  0
  1  2  1  0  0  0  0
  1 20  1  0  0  0  0
  1 21  1  0  0  0  0
  1 22  1  0  0  0  0
  2 19  1  0  0  0  0
  2  3  2  0  0  0  0
  3  4  1  0  0  0  0
  4  5  2  0  0  0  0
  5  6  1  0  0  0  0
  5 19  1  0  0  0  0
  6  7  1  0  0  0  0
  6 23  1  0  0  0  0
  7  8  2  0  0  0  0
  7  9  1  0  0  0  0
  9 10  1  0  0  0  0
  9 24  1  0  0  0  0
 10 18  1  0  0  0  0
 10 11  1  0  0  0  0
 10 25  1  0  0  0  0
 11 12  1  0  0  0  0
 11 26  1  0  0  0  0
 11 27  1  0  0  0  0
 12 13  1  0  0  0  0
 12 28  1  0  0  0  0
 12 29  1  0  0  0  0
 13 18  1  0  0  0  0
 13 14  1  0  0  0  0
 13 39  1  0  0  0  0
 14 15  1  0  0  0  0
 14 30  1  0  0  0  0
 14 31  1  0  0  0  0
 15 16  1  0  0  0  0
 15 32  1  0  0  0  0
 15 33  1  0  0  0  0
 16 17  1  0  0  0  0
 16 34  1  0  0  0  0
 16 35  1  0  0  0  0
 17 18  1  0  0  0  0
 17 36  1  0  0  0  0
 17 37  1  0  0  0  0
 18 38  1  0  0  0  0
M  CHG  1  13   1
M  END
> <s_m_source_file>
AV-unprocessed.smi

> <i_m_source_file_index>
1897

> <i_lp_mmshare_version>
43012

> <i_f3d_flags>
0

> <s_epik_input>
W0NIM11jMW5uYyhzMSlbTkhdQyg9TylbTkhdW0NASF0oW0NIMl1bQ0gyXTIpW0NAQEhdKE4yMylbQ0gyXVtDSDJdW0NIMl1bQ0gyXTM=

> <s_epik_cmdline>
J2VwaWtfcHl0aG9uJywgJy1waCcsICc3LjAnLCAnLXRuJywgJzgnLCAnLW1hJywgJzIwMCcsICctbWV0YWxfYmluZGluZycsICctaW1hZScsICc8aW5maWxlLm1hZT4nLCAnLW9tYWUnLCAnPG91dGZpbGUubWFlPic=

> <r_lp_tautomer_probability>
1

> <r_epik_Ionization_Penalty>
0.00228891

> <r_epik_Ionization_Penalty_Charging>
0.00107044

> <r_epik_Ionization_Penalty_Neutral>
0.00121847

> <r_epik_State_Penalty>
-0

> <r_epik_Charging_Adjusted_Penalty>
0.00107044

> <i_epik_Tot_Q>
1

> <i_epik_Tot_abs_Q>
1

> <r_epik_Metal_State_Penalty>
0.304057

> <b_epik_Metal_Only>
0

> <s_lp_Force_Field>
OPLS_2005

> <r_lp_Energy>
41.04

> <b_lp_Chiralities_Consistent>
1

> <s_lp_Variant>
AV-unprocessed.smi:1897-8

> <Gold.Version>
5.8.1

> <Gold.Id.Protein>
6NUR|6NUR_protein|mol2

> <Gold.PLP.Fitness>
33.7048

> <Gold.PLP.PLP>
-26.2979

> <Gold.PLP.part.hbond>
-3.0000

> <Gold.PLP.part.metal>
0.0000

> <Gold.PLP.part.buried>
-4.7133

> <Gold.PLP.part.nonpolar>
-19.7755

> <Gold.PLP.part.repulsive>
0.0212

> <Gold.PLP.ligand.clash>
0.0000

> <Gold.PLP.ligand.torsion>
0.3711

> <Gold.PLP.Chemscore.Hbond>
2.7137

> <Gold.PLP.Chemscore.CHOScore>
0.0000

> <Gold.PLP.Chemscore.Metal>
0.0000

> <Gold.Chemscore.Hbonds>
donor molecule, donor type, donor heavy atom, donor atom, acceptor molecule, acceptor atom, score
      L1  H     6    23       P1  7948  1.00
      L1  H     9    24       P1  7948  1.00
      P1  H  6896  6908       L1     3  0.68

> <Gold.PLP.Chemscore.Internal.Correction>
0.0080

> <Gold.Rescore>
     Score         DG    S(hbond)    S(metal)    S(lipo)     H(rot)  DE(clash)    DE(int)     intcor
     17.77     -19.36       2.62        0.00      65.83       1.00       0.01       1.59       ----

> <Gold.Chemscore.Fitness>
17.7675

> <Gold.Chemscore.DG>
-19.3630

> <Gold.Chemscore.ZeroCoef>
-5.4800

> <Gold.Chemscore.Hbond>
2.6169

> <Gold.Chemscore.Metal>
0.0000

> <Gold.Chemscore.Lipo>
65.8335

> <Gold.Chemscore.Internal_Hbond>
0.0000

> <Gold.Chemscore.DEClash>
0.0060

> <Gold.Chemscore.DEInternal>
1.5895

> <Gold.Chemscore.Rot>
1.0000

> <Gold.Chemscore.Internal.Correction>
   9.000000E+99

> <Gold.Chemscore.Hbonds>
donor molecule, donor type, donor heavy atom, donor atom, acceptor molecule, acceptor atom, score
      L1  H     6    23       P1  7948  0.92
      L1  H     9    24       P1  7948  0.94
      P1  H  6896  6908       L1     3  0.64

> <Gold.Chemscore.Hbond.Weighted>
-8.7404

> <Gold.Chemscore.Metal.Weighted>
-0.0000

> <Gold.Chemscore.Lipo.Weighted>
-7.7025

> <Gold.Chemscore.Internal_Hbond.Weighted>
0.0000

> <Gold.Chemscore.DEClash.Weighted>
0.0060

> <Gold.Chemscore.DEInternal.Weighted>
1.5895

> <Gold.Chemscore.Rot.Weighted>
2.5600

> <Gold.Chemscore.Internal.Correction.Weighted>
   9.000000E+99

> <Gold.Protein.RotatedTorsions>
[ 6907 6896 6895 6894 ] final  177.67 input  -60.11 | X-H torsion
[ 7974 7965 7964 7962 ] final -160.16 input  175.53 | X-H torsion
[ 8008 7997 7996 7995 ] final -143.81 input   59.86 | X-H torsion
[ 10167 10162 10161 10158 ] final -114.74 input  -65.29 | X-H torsion
[ 10718 10713 10712 10709 ] final  156.29 input   66.30 | X-H torsion
[ 10763 10752 10751 10750 ] final  -97.33 input  -60.55 | X-H torsion
[ 11005 11000 10999 10996 ] final   21.21 input  -57.11 | X-H torsion

> <Gold.Protein.ActiveResidues>
 VAL166  LYS551  ARG553  GLY616  TRP617  ASP618  TYR619  PRO620  LYS621  CYS622 
 ASP623  PHE694  ASN695  SER759  ASP760  ASP761  ALA762  ILE779  LEU786  VAL792 
 PHE793  MET794  SER795  GLU796  ALA797  LYS798  CYS799  TRP800  GLU811  SER814 

> <Gold.Protein.RotatedAtoms>
  151.7002  133.3311  159.3264 H   0  0  0  0  0  0  0  0  0  0  0  0  # atno 6907 bound_to 6896
  150.7739  134.6623  159.6355 H   0  0  0  0  0  0  0  0  0  0  0  0  # atno 6908 bound_to 6896
  152.3774  134.6645  160.0207 H   0  0  0  0  0  0  0  0  0  0  0  0  # atno 6909 bound_to 6896
  144.7437  140.3581  143.6102 H   0  0  0  0  0  0  0  0  0  0  0  0  # atno 7974 bound_to 7965
  155.5166  140.0588  157.2914 H   0  0  0  0  0  0  0  0  0  0  0  0  # atno 8008 bound_to 7997
  154.4532  140.1960  156.0403 H   0  0  0  0  0  0  0  0  0  0  0  0  # atno 8009 bound_to 7997
  156.0747  140.3255  155.7623 H   0  0  0  0  0  0  0  0  0  0  0  0  # atno 8010 bound_to 7997
  140.0977  143.4642  152.1831 H   0  0  0  0  0  0  0  0  0  0  0  0  # atno 10167 bound_to 10162
  157.2070  131.0689  151.1992 H   0  0  0  0  0  0  0  0  0  0  0  0  # atno 10718 bound_to 10713
  154.7318  135.5050  153.8977 H   0  0  0  0  0  0  0  0  0  0  0  0  # atno 10763 bound_to 10752
  153.0957  135.6671  153.9776 H   0  0  0  0  0  0  0  0  0  0  0  0  # atno 10764 bound_to 10752
  153.9575  135.3051  155.3414 H   0  0  0  0  0  0  0  0  0  0  0  0  # atno 10765 bound_to 10752
  140.3941  134.1788  155.7663 H   0  0  0  0  0  0  0  0  0  0  0  0  # atno 11005 bound_to 11000
  145.7205  139.1708  143.2487 LP  0  0  0  0  0  0  0  0  0  0  0  0  # atno 17320 bound_to 7965
  146.1280  140.7222  142.9426 LP  0  0  0  0  0  0  0  0  0  0  0  0  # atno 17321 bound_to 7965
  139.5689  144.7451  151.3946 LP  0  0  0  0  0  0  0  0  0  0  0  0  # atno 17342 bound_to 10162
  140.6995  143.7667  150.7380 LP  0  0  0  0  0  0  0  0  0  0  0  0  # atno 17343 bound_to 10162
  157.3710  130.7181  149.6565 LP  0  0  0  0  0  0  0  0  0  0  0  0  # atno 17370 bound_to 10713
  155.9694  130.4199  150.4395 LP  0  0  0  0  0  0  0  0  0  0  0  0  # atno 17371 bound_to 10713
  141.1880  133.8269  157.1010 LP  0  0  0  0  0  0  0  0  0  0  0  0  # atno 17394 bound_to 11000
  140.0385  134.9866  157.0916 LP  0  0  0  0  0  0  0  0  0  0  0  0  # atno 17395 bound_to 11000

$$$$
