AV-unprocessed.smi:1|AV-procd|sdf|22|dock8
  -GOLD-   2262015133D 1   1.00000     0.00000
 Structure written by MMmdl.
 56 61  0  0  0  0  0  0  0  0  2 V2000
  149.5743  128.6072  155.2506 O   0  0  0  0  0  0  0  0  0  0  0  0
  149.4930  129.3502  154.2701 C   0  0  0  0  0  0  0  0  0  0  0  0
  150.1111  130.5424  154.0740 N   0  5  0  0  0  0  0  0  0  0  0  0
  150.3898  131.3369  155.1186 C   0  0  0  0  0  0  0  0  0  0  0  0
  150.9128  130.8138  156.2566 N   0  0  0  0  0  0  0  0  0  0  0  0
  151.1688  131.6017  157.3073 C   0  0  0  0  0  0  0  0  0  0  0  0
  150.9745  132.9173  157.4381 N   0  0  0  0  0  0  0  0  0  0  0  0
  150.4477  133.4567  156.2998 C   0  0  0  0  0  0  0  0  0  0  0  0
  150.1301  132.7351  155.1122 C   0  0  0  0  0  0  0  0  0  0  0  0
  149.6062  133.5816  154.1462 N   0  0  0  0  0  0  0  0  0  0  0  0
  149.6328  134.7546  154.7741 C   0  0  0  0  0  0  0  0  0  0  0  0
  150.1070  134.7746  156.0354 N   0  0  0  0  0  0  0  0  0  0  0  0
  150.2332  135.9640  156.9324 C   0  0  1  0  0  0  0  0  0  0  0  0
  150.9833  136.9391  156.2795 O   0  0  0  0  0  0  0  0  0  0  0  0
  150.5652  138.2138  156.7394 C   0  0  1  0  0  0  0  0  0  0  0  0
  151.0171  139.3203  155.7775 C   0  0  0  0  0  0  0  0  0  0  0  0
  151.2660  140.5056  156.5211 O   0  0  0  0  0  0  0  0  0  0  0  0
  152.1871  140.5305  157.5076 C   0  0  0  0  0  0  0  0  0  0  0  0
  152.9709  139.6084  157.7407 O   0  0  0  0  0  0  0  0  0  0  0  0
  152.1550  141.7976  158.2944 C   0  0  0  0  0  0  0  0  0  0  0  0
  151.4013  142.8935  157.8128 C   0  0  0  0  0  0  0  0  0  0  0  0
  151.3498  144.1018  158.5346 C   0  0  0  0  0  0  0  0  0  0  0  0
  152.0499  144.2286  159.7483 C   0  0  0  0  0  0  0  0  0  0  0  0
  152.8025  143.1457  160.2389 C   0  0  0  0  0  0  0  0  0  0  0  0
  152.8565  141.9370  159.5175 C   0  0  0  0  0  0  0  0  0  0  0  0
  149.0508  138.0627  156.8999 C   0  0  1  0  0  0  0  0  0  0  0  0
  148.3707  138.2975  155.6792 O   0  0  0  0  0  0  0  0  0  0  0  0
  147.1626  137.1579  155.5298 S   0  0  0  0  0  0  0  0  0  0  0  0
  145.9416  137.7077  156.1389 O   0  0  0  0  0  0  0  0  0  0  0  0
  147.1875  136.6189  154.1620 O   0  0  0  0  0  0  0  0  0  0  0  0
  147.7868  136.0119  156.5718 O   0  0  0  0  0  0  0  0  0  0  0  0
  148.8694  136.5862  157.2921 C   0  0  1  0  0  0  0  0  0  0  0  0
  148.5628  128.9726  153.1476 C   0  0  0  0  0  0  0  0  0  0  0  0
  147.3889  129.7284  152.9256 C   0  0  0  0  0  0  0  0  0  0  0  0
  146.4937  129.3764  151.8965 C   0  0  0  0  0  0  0  0  0  0  0  0
  146.7581  128.2587  151.0832 C   0  0  0  0  0  0  0  0  0  0  0  0
  147.9160  127.4900  151.3033 C   0  0  0  0  0  0  0  0  0  0  0  0
  148.8116  127.8412  152.3322 C   0  0  0  0  0  0  0  0  0  0  0  0
  151.5859  131.1048  158.1705 H   0  0  0  0  0  0  0  0  0  0  0  0
  149.2875  135.6549  154.2874 H   0  0  0  0  0  0  0  0  0  0  0  0
  150.7754  135.6013  157.8069 H   0  0  0  0  0  0  0  0  0  0  0  0
  151.0168  138.3716  157.7206 H   0  0  0  0  0  0  0  0  0  0  0  0
  151.9396  139.0261  155.2766 H   0  0  0  0  0  0  0  0  0  0  0  0
  150.2666  139.4612  154.9986 H   0  0  0  0  0  0  0  0  0  0  0  0
  150.8551  142.8200  156.8833 H   0  0  0  0  0  0  0  0  0  0  0  0
  150.7720  144.9322  158.1559 H   0  0  0  0  0  0  0  0  0  0  0  0
  152.0096  145.1548  160.3023 H   0  0  0  0  0  0  0  0  0  0  0  0
  153.3401  143.2417  161.1708 H   0  0  0  0  0  0  0  0  0  0  0  0
  153.4419  141.1254  159.9240 H   0  0  0  0  0  0  0  0  0  0  0  0
  148.6527  138.7411  157.6551 H   0  0  0  0  0  0  0  0  0  0  0  0
  148.7077  136.4761  158.3647 H   0  0  0  0  0  0  0  0  0  0  0  0
  147.1702  130.5886  153.5417 H   0  0  0  0  0  0  0  0  0  0  0  0
  145.6032  129.9648  151.7320 H   0  0  0  0  0  0  0  0  0  0  0  0
  146.0718  127.9889  150.2942 H   0  0  0  0  0  0  0  0  0  0  0  0
  148.1175  126.6279  150.6848 H   0  0  0  0  0  0  0  0  0  0  0  0
  149.6894  127.2313  152.4907 H   0  0  0  0  0  0  0  0  0  0  0  0
  1  2  2  0  0  0  0
  2  3  1  0  0  0  0
  2 33  1  0  0  0  0
  3  4  1  0  0  0  0
  4  9  1  0  0  0  0
  4  5  2  0  0  0  0
  5  6  1  0  0  0  0
  6  7  2  0  0  0  0
  6 39  1  0  0  0  0
  7  8  1  0  0  0  0
  8 12  1  0  0  0  0
  8  9  2  0  0  0  0
  9 10  1  0  0  0  0
 10 11  2  0  0  0  0
 11 12  1  0  0  0  0
 11 40  1  0  0  0  0
 12 13  1  0  0  0  0
 13 32  1  0  0  0  0
 13 14  1  0  0  0  0
 13 41  1  0  0  0  0
 14 15  1  0  0  0  0
 15 16  1  0  0  0  0
 15 26  1  0  0  0  0
 15 42  1  0  0  0  0
 16 17  1  0  0  0  0
 16 43  1  0  0  0  0
 16 44  1  0  0  0  0
 17 18  1  0  0  0  0
 18 19  2  0  0  0  0
 18 20  1  0  0  0  0
 20 25  1  0  0  0  0
 20 21  2  0  0  0  0
 21 22  1  0  0  0  0
 21 45  1  0  0  0  0
 22 23  2  0  0  0  0
 22 46  1  0  0  0  0
 23 24  1  0  0  0  0
 23 47  1  0  0  0  0
 24 25  2  0  0  0  0
 24 48  1  0  0  0  0
 25 49  1  0  0  0  0
 26 32  1  0  0  0  0
 26 27  1  0  0  0  0
 26 50  1  0  0  0  0
 27 28  1  0  0  0  0
 28 29  2  0  0  0  0
 28 30  2  0  0  0  0
 28 31  1  0  0  0  0
 31 32  1  0  0  0  0
 32 51  1  0  0  0  0
 33 38  1  0  0  0  0
 33 34  2  0  0  0  0
 34 35  1  0  0  0  0
 34 52  1  0  0  0  0
 35 36  2  0  0  0  0
 35 53  1  0  0  0  0
 36 37  1  0  0  0  0
 36 54  1  0  0  0  0
 37 38  2  0  0  0  0
 37 55  1  0  0  0  0
 38 56  1  0  0  0  0
M  CHG  1   3  -1
M  END
> <s_m_source_file>
AV-unprocessed.smi

> <i_m_source_file_index>
1

> <i_lp_mmshare_version>
43012

> <i_f3d_flags>
0

> <s_epik_input>
W2NIXTFbY0hdW2NIXVtjSF1bY0hdYzFDKD1PKVtOSF1jKG5bY0hdbjIpYyhjMjMpbltjSF1uM1tDQEBIXShbQ0BIXShbQ0BIXTQ1KU9TKE81KSg9Tyk9TylPW0NASF00W0NIMl1PQyg9TyljNltjSF1bY0hdW2NIXVtjSF1bY0hdNg==

> <s_epik_cmdline>
J2VwaWtfcHl0aG9uJywgJy1waCcsICc3LjAnLCAnLXRuJywgJzgnLCAnLW1hJywgJzIwMCcsICctbWV0YWxfYmluZGluZycsICctaW1hZScsICc8aW5maWxlLm1hZT4nLCAnLW9tYWUnLCAnPG91dGZpbGUubWFlPic=

> <r_lp_tautomer_probability>
1

> <r_epik_Ionization_Penalty>
4.39121

> <r_epik_Ionization_Penalty_Charging>
3.39398

> <r_epik_Ionization_Penalty_Neutral>
0.997232

> <r_epik_State_Penalty>
3.39839

> <r_epik_Charging_Adjusted_Penalty>
6.79237

> <i_epik_Tot_Q>
-1

> <i_epik_Tot_abs_Q>
1

> <r_epik_Metal_State_Penalty>
0.497663

> <b_epik_Metal_Only>
1

> <s_epik_Chemistry_Notes>
This compound has an ester and may undergo hydrolysis at high or low pH. This compound contains an acetal/aminal-like group ( X-CH(R)-Y where X, Y are N, S, or O) that may be acid/base labile, releasing an aldehyde.

> <s_lp_Force_Field>
OPLS_2005

> <r_lp_Energy>
46.5931

> <b_lp_Chiralities_Consistent>
1

> <s_lp_Variant>
AV-unprocessed.smi:1-22

> <Gold.Version>
5.8.1

> <Gold.Id.Protein>
6NUR|6NUR_protein|mol2

> <Gold.PLP.Fitness>
58.5553

> <Gold.PLP.PLP>
-54.6925

> <Gold.PLP.part.hbond>
-2.0000

> <Gold.PLP.part.metal>
0.0000

> <Gold.PLP.part.buried>
-7.2698

> <Gold.PLP.part.nonpolar>
-45.9983

> <Gold.PLP.part.repulsive>
1.4569

> <Gold.PLP.ligand.clash>
0.0000

> <Gold.PLP.ligand.torsion>
2.4693

> <Gold.PLP.Chemscore.Hbond>
1.8320

> <Gold.PLP.Chemscore.CHOScore>
1.0000

> <Gold.PLP.Chemscore.Metal>
0.0000

> <Gold.Chemscore.Hbonds>
donor molecule, donor type, donor heavy atom, donor atom, acceptor molecule, acceptor atom, score
      P1  H  6896  6908       L1     7  0.80
      P1  H  7997  8009       L1    19  1.00
      L1  C    11    40       P1  7948  1.00

> <Gold.PLP.Chemscore.Internal.Correction>
0.3055

> <Gold.Rescore>
     Score         DG    S(hbond)    S(metal)    S(lipo)     H(rot)  DE(clash)    DE(int)     intcor
     16.03     -21.17       1.90        0.00     125.98       2.11       0.01       5.13       ----

> <Gold.Chemscore.Fitness>
16.0275

> <Gold.Chemscore.DG>
-21.1702

> <Gold.Chemscore.ZeroCoef>
-5.4800

> <Gold.Chemscore.Hbond>
1.9047

> <Gold.Chemscore.Metal>
0.0000

> <Gold.Chemscore.Lipo>
125.9776

> <Gold.Chemscore.Internal_Hbond>
0.0000

> <Gold.Chemscore.DEClash>
0.0132

> <Gold.Chemscore.DEInternal>
5.1295

> <Gold.Chemscore.Rot>
2.1136

> <Gold.Chemscore.Internal.Correction>
   9.000000E+99

> <Gold.Chemscore.Hbonds>
donor molecule, donor type, donor heavy atom, donor atom, acceptor molecule, acceptor atom, score
      P1  H  6896  6908       L1     7  0.40
      P1  H  7997  8009       L1    19  0.45

> <Gold.Chemscore.Hbond.Weighted>
-6.3615

> <Gold.Chemscore.Metal.Weighted>
-0.0000

> <Gold.Chemscore.Lipo.Weighted>
-14.7394

> <Gold.Chemscore.Internal_Hbond.Weighted>
0.0000

> <Gold.Chemscore.DEClash.Weighted>
0.0132

> <Gold.Chemscore.DEInternal.Weighted>
5.1295

> <Gold.Chemscore.Rot.Weighted>
5.4107

> <Gold.Chemscore.Internal.Correction.Weighted>
   9.000000E+99

> <Gold.Protein.RotatedTorsions>
[ 6907 6896 6895 6894 ] final   65.91 input  -60.11 | X-H torsion
[ 7974 7965 7964 7962 ] final   62.72 input  175.53 | X-H torsion
[ 8008 7997 7996 7995 ] final  166.55 input   59.86 | X-H torsion
[ 10167 10162 10161 10158 ] final  -87.99 input  -65.29 | X-H torsion
[ 10718 10713 10712 10709 ] final  144.57 input   66.30 | X-H torsion
[ 10763 10752 10751 10750 ] final  -73.49 input  -60.55 | X-H torsion
[ 11005 11000 10999 10996 ] final  109.82 input  -57.11 | X-H torsion

> <Gold.Protein.ActiveResidues>
 VAL166  LYS551  ARG553  GLY616  TRP617  ASP618  TYR619  PRO620  LYS621  CYS622 
 ASP623  PHE694  ASN695  SER759  ASP760  ASP761  ALA762  ILE779  LEU786  VAL792 
 PHE793  MET794  SER795  GLU796  ALA797  LYS798  CYS799  TRP800  GLU811  SER814 

> <Gold.Protein.RotatedAtoms>
  152.4443  134.5528  159.9871 H   0  0  0  0  0  0  0  0  0  0  0  0  # atno 6907 bound_to 6896
  151.5617  133.3396  159.2980 H   0  0  0  0  0  0  0  0  0  0  0  0  # atno 6908 bound_to 6896
  150.8355  134.7659  159.6953 H   0  0  0  0  0  0  0  0  0  0  0  0  # atno 6909 bound_to 6896
  145.8701  139.3372  143.0767 H   0  0  0  0  0  0  0  0  0  0  0  0  # atno 7974 bound_to 7965
  156.1709  140.1640  156.8449 H   0  0  0  0  0  0  0  0  0  0  0  0  # atno 8008 bound_to 7997
  154.5256  140.0768  156.8286 H   0  0  0  0  0  0  0  0  0  0  0  0  # atno 8009 bound_to 7997
  155.3514  140.3390  155.4241 H   0  0  0  0  0  0  0  0  0  0  0  0  # atno 8010 bound_to 7997
  140.3790  143.2757  151.9407 H   0  0  0  0  0  0  0  0  0  0  0  0  # atno 10167 bound_to 10162
  157.3556  131.0957  151.0961 H   0  0  0  0  0  0  0  0  0  0  0  0  # atno 10718 bound_to 10713
  154.4602  135.5895  153.6251 H   0  0  0  0  0  0  0  0  0  0  0  0  # atno 10763 bound_to 10752
  152.9822  135.6042  154.3495 H   0  0  0  0  0  0  0  0  0  0  0  0  # atno 10764 bound_to 10752
  154.3366  135.2842  155.2423 H   0  0  0  0  0  0  0  0  0  0  0  0  # atno 10765 bound_to 10752
  139.8869  134.9468  156.6184 H   0  0  0  0  0  0  0  0  0  0  0  0  # atno 11005 bound_to 11000
  145.9146  140.9156  143.0436 LP  0  0  0  0  0  0  0  0  0  0  0  0  # atno 17320 bound_to 7965
  144.6726  140.1207  143.7450 LP  0  0  0  0  0  0  0  0  0  0  0  0  # atno 17321 bound_to 7965
  139.4797  144.5836  151.7891 LP  0  0  0  0  0  0  0  0  0  0  0  0  # atno 17342 bound_to 10162
  140.4956  144.1245  150.5959 LP  0  0  0  0  0  0  0  0  0  0  0  0  # atno 17343 bound_to 10162
  157.2120  130.6442  149.5778 LP  0  0  0  0  0  0  0  0  0  0  0  0  # atno 17370 bound_to 10713
  155.9728  130.4657  150.6262 LP  0  0  0  0  0  0  0  0  0  0  0  0  # atno 17371 bound_to 10713
  140.7758  133.8701  155.8528 LP  0  0  0  0  0  0  0  0  0  0  0  0  # atno 17394 bound_to 11000
  140.9803  134.1414  157.4500 LP  0  0  0  0  0  0  0  0  0  0  0  0  # atno 17395 bound_to 11000

$$$$
