AV-unprocessed.smi:2775|AV-procd|sdf|10689|dock1
  -GOLD-   2272015133D 1   1.00000     0.00000
 Structure written by MMmdl.
 42 45  0  0  0  0  0  0  0  0  1 V2000
  143.6850  132.7277  150.6709 C   0  0  0  0  0  0  0  0  0  0  0  0
  143.8194  133.8597  151.6722 C   0  0  0  0  0  0  0  0  0  0  0  0
  142.6745  134.2455  152.2764 N   0  0  0  0  0  0  0  0  0  0  0  0
  142.7395  135.2458  153.1787 C   0  0  0  0  0  0  0  0  0  0  0  0
  143.9344  135.9098  153.5161 C   0  0  0  0  0  0  0  0  0  0  0  0
  145.1338  135.5177  152.8742 C   0  0  0  0  0  0  0  0  0  0  0  0
  146.4033  136.1015  153.1394 N   0  0  0  0  0  0  0  0  0  0  0  0
  146.8023  136.8692  154.1718 C   0  0  0  0  0  0  0  0  0  0  0  0
  146.0852  137.2333  155.1009 O   0  0  0  0  0  0  0  0  0  0  0  0
  148.0927  137.2396  154.1014 N   0  0  0  0  0  0  0  0  0  0  0  0
  148.8290  138.0678  155.0567 C   0  0  1  0  0  0  0  0  0  0  0  0
  150.2979  138.2473  154.6695 C   0  0  2  0  0  0  0  0  0  0  0  0
  151.5823  137.7502  155.2278 C   0  0  0  0  0  0  0  0  0  0  0  0
  152.3713  139.0821  155.1537 C   0  0  0  0  0  0  0  0  0  0  0  0
  151.3983  140.0989  154.8115 O   0  0  0  0  0  0  0  0  0  0  0  0
  150.1799  139.6087  155.3376 C   0  0  1  0  0  0  0  0  0  0  0  0
  148.7537  139.6064  154.7714 C   0  0  0  0  0  0  0  0  0  0  0  0
  147.6515  140.4850  155.3756 C   0  0  0  0  0  0  0  0  0  0  0  0
  147.0647  140.6466  153.9687 C   0  0  0  0  0  0  0  0  0  0  0  0
  148.4167  140.2100  153.3950 C   0  0  0  0  0  0  0  0  0  0  0  0
  145.0730  134.4581  151.9387 C   0  0  0  0  0  0  0  0  0  0  0  0
  146.5041  133.9064  151.1325 Cl  0  0  0  0  0  0  0  0  0  0  0  0
  144.0090  133.0561  149.6830 H   0  0  0  0  0  0  0  0  0  0  0  0
  142.6531  132.3839  150.5896 H   0  0  0  0  0  0  0  0  0  0  0  0
  144.2998  131.8792  150.9719 H   0  0  0  0  0  0  0  0  0  0  0  0
  141.8092  135.5236  153.6516 H   0  0  0  0  0  0  0  0  0  0  0  0
  143.9032  136.6896  154.2604 H   0  0  0  0  0  0  0  0  0  0  0  0
  147.0974  135.9473  152.4224 H   0  0  0  0  0  0  0  0  0  0  0  0
  148.6142  136.9202  153.2976 H   0  0  0  0  0  0  0  0  0  0  0  0
  148.6932  137.7938  156.1067 H   0  0  0  0  0  0  0  0  0  0  0  0
  150.3833  138.3317  153.5796 H   0  0  0  0  0  0  0  0  0  0  0  0
  151.4719  137.3960  156.2536 H   0  0  0  0  0  0  0  0  0  0  0  0
  152.0307  136.9620  154.6225 H   0  0  0  0  0  0  0  0  0  0  0  0
  152.8378  139.3102  156.1130 H   0  0  0  0  0  0  0  0  0  0  0  0
  153.1536  139.0525  154.3947 H   0  0  0  0  0  0  0  0  0  0  0  0
  150.1971  139.5692  156.4320 H   0  0  0  0  0  0  0  0  0  0  0  0
  146.9975  139.9791  156.0857 H   0  0  0  0  0  0  0  0  0  0  0  0
  148.0368  141.4220  155.7801 H   0  0  0  0  0  0  0  0  0  0  0  0
  146.2672  139.9324  153.7587 H   0  0  0  0  0  0  0  0  0  0  0  0
  146.7708  141.6649  153.7127 H   0  0  0  0  0  0  0  0  0  0  0  0
  149.0569  141.0562  153.1419 H   0  0  0  0  0  0  0  0  0  0  0  0
  148.3501  139.4983  152.5717 H   0  0  0  0  0  0  0  0  0  0  0  0
  1  2  1  0  0  0  0
  1 23  1  0  0  0  0
  1 24  1  0  0  0  0
  1 25  1  0  0  0  0
  2 21  1  0  0  0  0
  2  3  2  0  0  0  0
  3  4  1  0  0  0  0
  4  5  2  0  0  0  0
  4 26  1  0  0  0  0
  5  6  1  0  0  0  0
  5 27  1  0  0  0  0
  6  7  1  0  0  0  0
  6 21  2  0  0  0  0
  7  8  1  0  0  0  0
  7 28  1  0  0  0  0
  8  9  2  0  0  0  0
  8 10  1  0  0  0  0
 10 11  1  0  0  0  0
 10 29  1  0  0  0  0
 11 17  1  0  0  0  0
 11 12  1  0  0  0  0
 11 30  1  0  0  0  0
 12 16  1  0  0  0  0
 12 13  1  0  0  0  0
 12 31  1  0  0  0  0
 13 14  1  0  0  0  0
 13 32  1  0  0  0  0
 13 33  1  0  0  0  0
 14 15  1  0  0  0  0
 14 34  1  0  0  0  0
 14 35  1  0  0  0  0
 15 16  1  0  0  0  0
 16 17  1  0  0  0  0
 16 36  1  0  0  0  0
 17 20  1  0  0  0  0
 17 18  1  0  0  0  0
 18 19  1  0  0  0  0
 18 37  1  0  0  0  0
 18 38  1  0  0  0  0
 19 20  1  0  0  0  0
 19 39  1  0  0  0  0
 19 40  1  0  0  0  0
 20 41  1  0  0  0  0
 20 42  1  0  0  0  0
 21 22  1  0  0  0  0
M  END
> <s_m_source_file>
AV-unprocessed.smi

> <i_m_source_file_index>
2775

> <i_lp_mmshare_version>
43012

> <i_f3d_flags>
0

> <s_epik_input>
W0NIM11jMW5bY0hdW2NIXWMoYzFDbClbTkhdQyg9TylbTkhdW0NAQEhdMltDQEhdKFtDSDJdW0NIMl1PMylbQ0BASF0zQzI0W0NIMl1bQ0gyXVtDSDJdNA==

> <s_epik_cmdline>
J2VwaWtfcHl0aG9uJywgJy1waCcsICc3LjAnLCAnLXRuJywgJzgnLCAnLW1hJywgJzIwMCcsICctbWV0YWxfYmluZGluZycsICctaW1hZScsICc8aW5maWxlLm1hZT4nLCAnLW9tYWUnLCAnPG91dGZpbGUubWFlPic=

> <r_epik_Ionization_Penalty>
0.01026

> <r_epik_Ionization_Penalty_Charging>
0

> <r_epik_Ionization_Penalty_Neutral>
0.01026

> <r_epik_State_Penalty>
0.00780685

> <r_epik_Charging_Adjusted_Penalty>
0.00780685

> <i_epik_Tot_Q>
0

> <i_epik_Tot_abs_Q>
0

> <r_epik_Metal_State_Penalty>
0.00767411

> <b_epik_Metal_Only>
0

> <s_lp_Force_Field>
OPLS_2005

> <r_lp_Energy>
80.4779

> <b_lp_Chiralities_Consistent>
1

> <s_lp_Variant>
AV-unprocessed.smi:2775-2

> <Gold.Version>
5.8.1

> <Gold.Id.Protein>
6NUR|6NUR_protein|mol2

> <Gold.PLP.Fitness>
38.8857

> <Gold.PLP.PLP>
-30.2168

> <Gold.PLP.part.hbond>
-2.8767

> <Gold.PLP.part.metal>
0.0000

> <Gold.PLP.part.buried>
-2.5014

> <Gold.PLP.part.nonpolar>
-25.8886

> <Gold.PLP.part.repulsive>
0.3341

> <Gold.PLP.ligand.clash>
0.0000

> <Gold.PLP.ligand.torsion>
0.2512

> <Gold.PLP.Chemscore.Hbond>
2.9513

> <Gold.PLP.Chemscore.CHOScore>
0.0000

> <Gold.PLP.Chemscore.Metal>
0.0000

> <Gold.Chemscore.Hbonds>
donor molecule, donor type, donor heavy atom, donor atom, acceptor molecule, acceptor atom, score
      L1  H     7    28       P1  7948  0.94
      L1  H    10    29       P1  7948  1.00
      P1  H  7989  7998       L1    15  1.00

> <Gold.PLP.Chemscore.Internal.Correction>
0.3176

> <Gold.Rescore>
     Score         DG    S(hbond)    S(metal)    S(lipo)     H(rot)  DE(clash)    DE(int)     intcor
     19.67     -22.45       2.88        0.00      84.80       1.00       1.42       1.36       ----

> <Gold.Chemscore.Fitness>
19.6665

> <Gold.Chemscore.DG>
-22.4495

> <Gold.Chemscore.ZeroCoef>
-5.4800

> <Gold.Chemscore.Hbond>
2.8765

> <Gold.Chemscore.Metal>
0.0000

> <Gold.Chemscore.Lipo>
84.8020

> <Gold.Chemscore.Internal_Hbond>
0.0000

> <Gold.Chemscore.DEClash>
1.4208

> <Gold.Chemscore.DEInternal>
1.3622

> <Gold.Chemscore.Rot>
1.0000

> <Gold.Chemscore.Internal.Correction>
   9.000000E+99

> <Gold.Chemscore.Hbonds>
donor molecule, donor type, donor heavy atom, donor atom, acceptor molecule, acceptor atom, score
      L1  H     7    28       P1  7948  0.91
      L1  H    10    29       P1  7948  0.99
      P1  H  7989  7998       L1    15  0.86

> <Gold.Chemscore.Hbond.Weighted>
-9.6077

> <Gold.Chemscore.Metal.Weighted>
-0.0000

> <Gold.Chemscore.Lipo.Weighted>
-9.9218

> <Gold.Chemscore.Internal_Hbond.Weighted>
0.0000

> <Gold.Chemscore.DEClash.Weighted>
1.4208

> <Gold.Chemscore.DEInternal.Weighted>
1.3622

> <Gold.Chemscore.Rot.Weighted>
2.5600

> <Gold.Chemscore.Internal.Correction.Weighted>
   9.000000E+99

> <Gold.Protein.RotatedTorsions>
[ 6907 6896 6895 6894 ] final  -73.93 input  -60.11 | X-H torsion
[ 7974 7965 7964 7962 ] final   -7.51 input  175.53 | X-H torsion
[ 8008 7997 7996 7995 ] final   -4.88 input   59.86 | X-H torsion
[ 10167 10162 10161 10158 ] final -168.08 input  -65.29 | X-H torsion
[ 10718 10713 10712 10709 ] final   51.24 input   66.30 | X-H torsion
[ 10763 10752 10751 10750 ] final -142.03 input  -60.55 | X-H torsion
[ 11005 11000 10999 10996 ] final  155.76 input  -57.11 | X-H torsion

> <Gold.Protein.ActiveResidues>
 VAL166  LYS551  ARG553  GLY616  TRP617  ASP618  TYR619  PRO620  LYS621  CYS622 
 ASP623  PHE694  ASN695  SER759  ASP760  ASP761  ALA762  ILE779  LEU786  VAL792 
 PHE793  MET794  SER795  GLU796  ALA797  LYS798  CYS799  TRP800  GLU811  SER814 

> <Gold.Protein.RotatedAtoms>
  150.7111  134.4944  159.5530 H   0  0  0  0  0  0  0  0  0  0  0  0  # atno 6907 bound_to 6896
  152.2554  134.8086  160.0448 H   0  0  0  0  0  0  0  0  0  0  0  0  # atno 6908 bound_to 6896
  151.8819  133.3462  159.3806 H   0  0  0  0  0  0  0  0  0  0  0  0  # atno 6909 bound_to 6896
  146.2305  140.2330  142.8341 H   0  0  0  0  0  0  0  0  0  0  0  0  # atno 7974 bound_to 7965
  154.6097  140.2473  155.7685 H   0  0  0  0  0  0  0  0  0  0  0  0  # atno 8008 bound_to 7997
  156.2363  140.2949  156.0272 H   0  0  0  0  0  0  0  0  0  0  0  0  # atno 8009 bound_to 7997
  155.2073  140.0396  157.2918 H   0  0  0  0  0  0  0  0  0  0  0  0  # atno 8010 bound_to 7997
  139.6008  144.1015  152.1740 H   0  0  0  0  0  0  0  0  0  0  0  0  # atno 10167 bound_to 10162
  157.4961  130.8407  149.8260 H   0  0  0  0  0  0  0  0  0  0  0  0  # atno 10718 bound_to 10713
  154.8524  135.3507  154.5963 H   0  0  0  0  0  0  0  0  0  0  0  0  # atno 10763 bound_to 10752
  153.6572  135.6991  153.5194 H   0  0  0  0  0  0  0  0  0  0  0  0  # atno 10764 bound_to 10752
  153.2847  135.4253  155.1069 H   0  0  0  0  0  0  0  0  0  0  0  0  # atno 10765 bound_to 10752
  140.1612  134.8608  157.2576 H   0  0  0  0  0  0  0  0  0  0  0  0  # atno 11005 bound_to 11000
  144.9543  140.8210  143.5552 LP  0  0  0  0  0  0  0  0  0  0  0  0  # atno 17320 bound_to 7965
  145.2294  139.2122  143.5051 LP  0  0  0  0  0  0  0  0  0  0  0  0  # atno 17321 bound_to 7965
  140.0611  144.5856  150.7262 LP  0  0  0  0  0  0  0  0  0  0  0  0  # atno 17342 bound_to 10162
  140.7248  143.2625  151.4158 LP  0  0  0  0  0  0  0  0  0  0  0  0  # atno 17343 bound_to 10162
  156.0201  130.3798  150.1987 LP  0  0  0  0  0  0  0  0  0  0  0  0  # atno 17370 bound_to 10713
  157.0176  130.9970  151.3348 LP  0  0  0  0  0  0  0  0  0  0  0  0  # atno 17371 bound_to 10713
  140.2488  134.3708  155.7450 LP  0  0  0  0  0  0  0  0  0  0  0  0  # atno 17394 bound_to 11000
  141.2209  133.7305  156.8903 LP  0  0  0  0  0  0  0  0  0  0  0  0  # atno 17395 bound_to 11000

$$$$
