AV-unprocessed.smi:2978|AV-procd|sdf|11368|dock5
  -GOLD-   2272016283D 1   1.00000     0.00000
 Structure written by MMmdl.
 32 33  0  0  0  0  0  0  0  0  1 V2000
  150.8561  141.2338  158.1186 O   0  0  0  0  0  0  0  0  0  0  0  0
  150.4793  142.0321  157.2594 C   0  0  0  0  0  0  0  0  0  0  0  0
  150.4425  141.6315  155.7772 C   0  0  0  0  0  0  0  0  0  0  0  0
  150.3689  140.1779  155.5682 N   0  0  0  0  0  0  0  0  0  0  0  0
  151.3355  139.6815  154.7109 N   0  0  0  0  0  0  0  0  0  0  0  0
  151.3785  138.4169  154.4681 C   0  0  0  0  0  0  0  0  0  0  0  0
  150.4429  137.4863  155.0598 C   0  0  0  0  0  0  0  0  0  0  0  0
  150.5509  135.7999  154.6970 Cl  0  0  0  0  0  0  0  0  0  0  0  0
  149.4946  137.9842  155.8926 C   0  0  0  0  0  0  0  0  0  0  0  0
  148.3379  136.9335  156.6358 Cl  0  0  0  0  0  0  0  0  0  0  0  0
  149.4147  139.4207  156.1924 C   0  0  0  0  0  0  0  0  0  0  0  0
  148.5679  139.9119  156.9400 O   0  0  0  0  0  0  0  0  0  0  0  0
  150.1036  143.2898  157.5372 N   0  0  0  0  0  0  0  0  0  0  0  0
  150.0687  143.8902  158.8668 C   0  0  0  0  0  0  0  0  0  0  0  0
  151.4228  143.7661  159.5857 C   0  0  2  0  0  0  0  0  0  0  0  0
  152.6410  143.6718  158.6654 C   0  0  0  0  0  0  0  0  0  0  0  0
  153.6357  142.9556  159.5490 C   0  0  0  0  0  0  0  0  0  0  0  0
  152.7401  141.9596  160.2793 C   0  0  0  0  0  0  0  0  0  0  0  0
  151.4563  142.5736  160.3657 O   0  0  0  0  0  0  0  0  0  0  0  0
  149.5997  142.1213  155.2855 H   0  0  0  0  0  0  0  0  0  0  0  0
  151.3353  142.0369  155.2981 H   0  0  0  0  0  0  0  0  0  0  0  0
  152.1231  137.9807  153.8019 H   0  0  0  0  0  0  0  0  0  0  0  0
  149.8159  143.8772  156.7679 H   0  0  0  0  0  0  0  0  0  0  0  0
  149.8194  144.9447  158.7455 H   0  0  0  0  0  0  0  0  0  0  0  0
  149.2713  143.4589  159.4744 H   0  0  0  0  0  0  0  0  0  0  0  0
  151.5570  144.6044  160.2717 H   0  0  0  0  0  0  0  0  0  0  0  0
  152.4167  143.0615  157.7894 H   0  0  0  0  0  0  0  0  0  0  0  0
  152.9946  144.6449  158.3238 H   0  0  0  0  0  0  0  0  0  0  0  0
  154.4403  142.4761  158.9907 H   0  0  0  0  0  0  0  0  0  0  0  0
  154.0790  143.6559  160.2583 H   0  0  0  0  0  0  0  0  0  0  0  0
  152.6439  141.0397  159.7013 H   0  0  0  0  0  0  0  0  0  0  0  0
  153.1252  141.7006  161.2658 H   0  0  0  0  0  0  0  0  0  0  0  0
  1  2  2  0  0  0  0
  2  3  1  0  0  0  0
  2 13  1  0  0  0  0
  3  4  1  0  0  0  0
  3 20  1  0  0  0  0
  3 21  1  0  0  0  0
  4 11  1  0  0  0  0
  4  5  1  0  0  0  0
  5  6  2  0  0  0  0
  6  7  1  0  0  0  0
  6 22  1  0  0  0  0
  7  8  1  0  0  0  0
  7  9  2  0  0  0  0
  9 10  1  0  0  0  0
  9 11  1  0  0  0  0
 11 12  2  0  0  0  0
 13 14  1  0  0  0  0
 13 23  1  0  0  0  0
 14 15  1  0  0  0  0
 14 24  1  0  0  0  0
 14 25  1  0  0  0  0
 15 19  1  0  0  0  0
 15 16  1  0  0  0  0
 15 26  1  0  0  0  0
 16 17  1  0  0  0  0
 16 27  1  0  0  0  0
 16 28  1  0  0  0  0
 17 18  1  0  0  0  0
 17 29  1  0  0  0  0
 17 30  1  0  0  0  0
 18 19  1  0  0  0  0
 18 31  1  0  0  0  0
 18 32  1  0  0  0  0
M  END
> <s_m_source_file>
AV-unprocessed.smi

> <i_m_source_file_index>
2978

> <i_lp_mmshare_version>
43012

> <i_f3d_flags>
0

> <s_epik_input>
TzFbQ0gyXVtDSDJdW0NIMl1bQ0BIXTFbQ0gyXVtOSF1DKD1PKVtDSDJdbjJuW2NIXWMoQ2wpYyhDbCljMj1P

> <s_epik_cmdline>
J2VwaWtfcHl0aG9uJywgJy1waCcsICc3LjAnLCAnLXRuJywgJzgnLCAnLW1hJywgJzIwMCcsICctbWV0YWxfYmluZGluZycsICctaW1hZScsICc8aW5maWxlLm1hZT4nLCAnLW9tYWUnLCAnPG91dGZpbGUubWFlPic=

> <r_lp_tautomer_probability>
1

> <r_epik_Ionization_Penalty>
2.68881e-08

> <r_epik_Ionization_Penalty_Charging>
2.90862e-11

> <r_epik_Ionization_Penalty_Neutral>
2.6859e-08

> <r_epik_State_Penalty>
-0

> <r_epik_Charging_Adjusted_Penalty>
2.90862e-11

> <i_epik_Tot_Q>
0

> <i_epik_Tot_abs_Q>
0

> <r_epik_Metal_State_Penalty>
-0

> <b_epik_Metal_Only>
0

> <s_lp_Force_Field>
OPLS_2005

> <r_lp_Energy>
31.3125

> <b_lp_Chiralities_Consistent>
1

> <s_lp_Variant>
AV-unprocessed.smi:2978-1

> <Gold.Version>
5.8.1

> <Gold.Id.Protein>
6NUR|6NUR_protein|mol2

> <Gold.PLP.Fitness>
38.8851

> <Gold.PLP.PLP>
-34.5043

> <Gold.PLP.part.hbond>
-3.0000

> <Gold.PLP.part.metal>
0.0000

> <Gold.PLP.part.buried>
-5.2868

> <Gold.PLP.part.nonpolar>
-26.0192

> <Gold.PLP.part.repulsive>
0.1279

> <Gold.PLP.ligand.clash>
0.0000

> <Gold.PLP.ligand.torsion>
0.8134

> <Gold.PLP.Chemscore.Hbond>
2.0000

> <Gold.PLP.Chemscore.CHOScore>
0.0000

> <Gold.PLP.Chemscore.Metal>
0.0000

> <Gold.Chemscore.Hbonds>
donor molecule, donor type, donor heavy atom, donor atom, acceptor molecule, acceptor atom, score
      L1  H    13    23       P1  8028  1.00
      P1  H  7989  7998       L1     5  1.00

> <Gold.PLP.Chemscore.Internal.Correction>
0.0076

> <Gold.Rescore>
     Score         DG    S(hbond)    S(metal)    S(lipo)     H(rot)  DE(clash)    DE(int)     intcor
     13.69     -15.89       1.55        0.00      84.80       1.83       0.07       2.13       ----

> <Gold.Chemscore.Fitness>
13.6880

> <Gold.Chemscore.DG>
-15.8944

> <Gold.Chemscore.ZeroCoef>
-5.4800

> <Gold.Chemscore.Hbond>
1.5517

> <Gold.Chemscore.Metal>
0.0000

> <Gold.Chemscore.Lipo>
84.8017

> <Gold.Chemscore.Internal_Hbond>
0.0000

> <Gold.Chemscore.DEClash>
0.0730

> <Gold.Chemscore.DEInternal>
2.1334

> <Gold.Chemscore.Rot>
1.8320

> <Gold.Chemscore.Internal.Correction>
   9.000000E+99

> <Gold.Chemscore.Hbonds>
donor molecule, donor type, donor heavy atom, donor atom, acceptor molecule, acceptor atom, score
      L1  H    13    23       P1  8028  0.98
      P1  H  7989  7998       L1     5  0.69

> <Gold.Chemscore.Hbond.Weighted>
-5.1826

> <Gold.Chemscore.Metal.Weighted>
-0.0000

> <Gold.Chemscore.Lipo.Weighted>
-9.9218

> <Gold.Chemscore.Internal_Hbond.Weighted>
0.0000

> <Gold.Chemscore.DEClash.Weighted>
0.0730

> <Gold.Chemscore.DEInternal.Weighted>
2.1334

> <Gold.Chemscore.Rot.Weighted>
4.6900

> <Gold.Chemscore.Internal.Correction.Weighted>
   9.000000E+99

> <Gold.Protein.RotatedTorsions>
[ 6907 6896 6895 6894 ] final   51.38 input  -60.11 | X-H torsion
[ 7974 7965 7964 7962 ] final   12.67 input  175.53 | X-H torsion
[ 8008 7997 7996 7995 ] final -150.49 input   59.86 | X-H torsion
[ 10167 10162 10161 10158 ] final   77.40 input  -65.29 | X-H torsion
[ 10718 10713 10712 10709 ] final  138.18 input   66.30 | X-H torsion
[ 10763 10752 10751 10750 ] final -115.36 input  -60.55 | X-H torsion
[ 11005 11000 10999 10996 ] final  -44.89 input  -57.11 | X-H torsion

> <Gold.Protein.ActiveResidues>
 VAL166  LYS551  ARG553  GLY616  TRP617  ASP618  TYR619  PRO620  LYS621  CYS622 
 ASP623  PHE694  ASN695  SER759  ASP760  ASP761  ALA762  ILE779  LEU786  VAL792 
 PHE793  MET794  SER795  GLU796  ALA797  LYS798  CYS799  TRP800  GLU811  SER814 

> <Gold.Protein.RotatedAtoms>
  152.3120  134.7486  160.0333 H   0  0  0  0  0  0  0  0  0  0  0  0  # atno 6907 bound_to 6896
  151.7963  133.3359  159.3522 H   0  0  0  0  0  0  0  0  0  0  0  0  # atno 6908 bound_to 6896
  150.7325  134.5726  159.5942 H   0  0  0  0  0  0  0  0  0  0  0  0  # atno 6909 bound_to 6896
  146.2346  139.9302  142.8497 H   0  0  0  0  0  0  0  0  0  0  0  0  # atno 7974 bound_to 7965
  155.6243  140.0685  157.2668 H   0  0  0  0  0  0  0  0  0  0  0  0  # atno 8008 bound_to 7997
  154.4221  140.1779  156.1453 H   0  0  0  0  0  0  0  0  0  0  0  0  # atno 8009 bound_to 7997
  155.9984  140.3338  155.6825 H   0  0  0  0  0  0  0  0  0  0  0  0  # atno 8010 bound_to 7997
  139.9819  144.5820  150.7893 H   0  0  0  0  0  0  0  0  0  0  0  0  # atno 10167 bound_to 10162
  157.4281  131.1045  151.0280 H   0  0  0  0  0  0  0  0  0  0  0  0  # atno 10718 bound_to 10713
  154.8478  135.4384  154.1651 H   0  0  0  0  0  0  0  0  0  0  0  0  # atno 10763 bound_to 10752
  153.2778  135.6951  153.7422 H   0  0  0  0  0  0  0  0  0  0  0  0  # atno 10764 bound_to 10752
  153.6637  135.3430  155.3109 H   0  0  0  0  0  0  0  0  0  0  0  0  # atno 10765 bound_to 10752
  141.0480  133.6754  156.2936 H   0  0  0  0  0  0  0  0  0  0  0  0  # atno 11005 bound_to 11000
  145.2051  140.9871  143.4133 LP  0  0  0  0  0  0  0  0  0  0  0  0  # atno 17320 bound_to 7965
  144.9739  139.3851  143.6295 LP  0  0  0  0  0  0  0  0  0  0  0  0  # atno 17321 bound_to 7965
  140.7486  143.2924  151.3294 LP  0  0  0  0  0  0  0  0  0  0  0  0  # atno 17342 bound_to 10162
  139.6403  144.0552  152.2549 LP  0  0  0  0  0  0  0  0  0  0  0  0  # atno 17343 bound_to 10162
  157.1187  130.6052  149.5499 LP  0  0  0  0  0  0  0  0  0  0  0  0  # atno 17370 bound_to 10713
  155.9903  130.4954  150.7253 LP  0  0  0  0  0  0  0  0  0  0  0  0  # atno 17371 bound_to 10713
  140.6110  134.5459  157.5533 LP  0  0  0  0  0  0  0  0  0  0  0  0  # atno 17394 bound_to 11000
  139.9327  134.7933  156.0886 LP  0  0  0  0  0  0  0  0  0  0  0  0  # atno 17395 bound_to 11000

$$$$
