#       Name:                AV-unprocessed.smi:665
#       Creating user name   scv26
#       Creation time:       Fri Mar 27 00:20:24 2020


#       File generated by GOLD software.
#

@<TRIPOS>MOLECULE
AV-unprocessed.smi:665
    47    48     1
SMALL
NO_CHARGES


@<TRIPOS>ATOM
      1 ****        -6.8041   1.4284   0.7758 C.3            1 S1                 0.0000
      2 ****        -5.4920   1.9191   0.3465 N.am           1 S1                 0.0000
      3 ****        -5.3994   3.2632  -0.0530 C.2            1 S1                 0.0000
      4 ****        -4.2394   3.7981  -0.4583 C.2            1 S1                 0.0000
      5 ****        -3.0656   2.9585  -0.4756 C.2            1 S1                 0.0000
      6 ****        -3.1300   1.6605  -0.0847 C.2            1 S1                 0.0000
      7 ****        -2.0388   0.7737  -0.0716 N.am           1 S1                 0.0000
      8 ****        -0.7206   1.0398  -0.1323 C.2            1 S1                 0.0000
      9 ****        -0.2150   2.1600  -0.1986 O.2            1 S1                 0.0000
     10 ****        -0.0047  -0.0932  -0.0869 N.am           1 S1                 0.0000
     11 ****         1.4530  -0.1871  -0.0885 C.3            1 S1                 0.0000
     12 ****         1.9317  -0.9295  -1.3475 C.3            1 S1                 0.0000
     13 ****         3.4601  -1.1158  -1.3421 C.3            1 S1                 0.0000
     14 ****         3.9915  -1.8236  -0.0703 C.3            1 S1                 0.0000
     15 ****         3.5837  -3.3129  -0.0582 C.3            1 S1                 0.0000
     16 ****         5.5310  -1.7542  -0.0676 C.3            1 S1                 0.0000
     17 ****         3.4556  -1.0947   1.1872 C.3            1 S1                 0.0000
     18 ****         1.9277  -0.9096   1.1833 C.3            1 S1                 0.0000
     19 ****        -4.4155   1.0774   0.3473 C.2            1 S1                 0.0000
     20 ****        -4.5278  -0.1008   0.6948 O.2            1 S1                 0.0000
     21 ****        -7.5773   2.1960   0.7295 H              1 S1                 0.0000
     22 ****        -6.7609   1.0735   1.8065 H              1 S1                 0.0000
     23 ****        -7.1301   0.6006   0.1444 H              1 S1                 0.0000
     24 ****        -6.3204   3.8262  -0.0095 H              1 S1                 0.0000
     25 ****        -4.1830   4.8332  -0.7613 H              1 S1                 0.0000
     26 ****        -2.1483   3.4049  -0.8226 H              1 S1                 0.0000
     27 ****        -2.2925  -0.1967   0.0443 H              1 S1                 0.0000
     28 ****        -0.5097  -0.9655  -0.0311 H              1 S1                 0.0000
     29 ****         1.8982   0.8096  -0.0945 H              1 S1                 0.0000
     30 ****         1.4383  -1.8992  -1.4218 H              1 S1                 0.0000
     31 ****         1.6382  -0.3727  -2.2383 H              1 S1                 0.0000
     32 ****         3.7642  -1.6655  -2.2336 H              1 S1                 0.0000
     33 ****         3.9230  -0.1314  -1.4270 H              1 S1                 0.0000
     34 ****         3.9678  -3.8192   0.8281 H              1 S1                 0.0000
     35 ****         3.9795  -3.8370  -0.9288 H              1 S1                 0.0000
     36 ****         2.5031  -3.4507  -0.0639 H              1 S1                 0.0000
     37 ****         5.9491  -2.2363   0.8169 H              1 S1                 0.0000
     38 ****         5.8852  -0.7227  -0.0748 H              1 S1                 0.0000
     39 ****         5.9530  -2.2499  -0.9426 H              1 S1                 0.0000
     40 ****         3.7564  -1.6293   2.0891 H              1 S1                 0.0000
     41 ****         3.9176  -0.1087   1.2571 H              1 S1                 0.0000
     42 ****         1.6300  -0.3394   2.0641 H              1 S1                 0.0000
     43 ****         1.4351  -1.8785   1.2701 H              1 S1                 0.0000
     44 ****        -0.7985   2.9720  -0.2110 LP             1 S1                 0.0000
     45 ****         0.7794   2.2582  -0.2401 LP             1 S1                 0.0000
     46 ****        -5.4178  -0.4546   0.9823 LP             1 S1                 0.0000
     47 ****        -3.7288  -0.7021   0.6890 LP             1 S1                 0.0000
@<TRIPOS>BOND
    1    1    2 1     
    2    1   21 1     
    3    1   22 1     
    4    1   23 1     
    5    2   19 am    
    6    2    3 1     
    7    3    4 2     
    8    3   24 1     
    9    4    5 1     
   10    4   25 1     
   11    5    6 2     
   12    5   26 1     
   13    6    7 1     
   14    6   19 1     
   15    7    8 am    
   16    7   27 1     
   17    8    9 2     
   18    8   10 am    
   19   10   11 1     
   20   10   28 1     
   21   11   18 1     
   22   11   12 1     
   23   11   29 1     
   24   12   13 1     
   25   12   30 1     
   26   12   31 1     
   27   13   14 1     
   28   13   32 1     
   29   13   33 1     
   30   14   15 1     
   31   14   16 1     
   32   14   17 1     
   33   15   34 1     
   34   15   35 1     
   35   15   36 1     
   36   16   37 1     
   37   16   38 1     
   38   16   39 1     
   39   17   18 1     
   40   17   40 1     
   41   17   41 1     
   42   18   42 1     
   43   18   43 1     
   44   19   20 2     
   45    9   44 1     
   46    9   45 1     
   47   20   46 1     
   48   20   47 1     
@<TRIPOS>SUBSTRUCTURE
      1 S1             1
@<TRIPOS>SET
LONE_PAIRS      STATIC     ATOMS    <user>   **** ""
4 44 45 46 47
DONOR_HYDROGENS      STATIC     ATOMS    <user>   **** ""
2 27 28
ATOM$BLUE        STATIC     ATOMS    COLORGROUP SYSTEM
4 44 45 46 47
ATOM$RED        STATIC     ATOMS    COLORGROUP SYSTEM
2 27 28
