AV-unprocessed.smi:2059|AV-procd|sdf|8350|dock7
  -GOLD-   2272011 23D 1   1.00000     0.00000
 Structure written by MMmdl.
 29 30  0  0  0  0  0  0  0  0  2 V2000
  151.9682  144.7094  159.7204 C   0  0  0  0  0  0  0  0  0  0  0  0
  152.5334  143.3311  159.7720 C   0  0  0  0  0  0  0  0  0  0  0  0
  152.8649  142.4275  158.8028 C   0  0  0  0  0  0  0  0  0  0  0  0
  153.3497  141.3167  159.5455 C   0  0  0  0  0  0  0  0  0  0  0  0
  153.8093  140.1640  159.0273 N   0  5  0  0  0  0  0  0  0  0  0  0
  153.0493  139.0401  158.9398 C   0  0  0  0  0  0  0  0  0  0  0  0
  153.4212  137.9405  159.3478 O   0  0  0  0  0  0  0  0  0  0  0  0
  151.8297  139.1474  158.3779 N   0  0  0  0  0  0  0  0  0  0  0  0
  150.8731  138.0631  158.1813 C   0  0  2  0  0  0  0  0  0  0  0  0
  149.5948  138.5787  157.4954 C   0  0  0  0  0  0  0  0  0  0  0  0
  148.4987  137.5152  157.6327 C   0  0  0  0  0  0  0  0  0  0  0  0
  148.8257  136.6522  159.2167 S   0  0  0  0  0  0  0  0  0  0  0  0
  147.8829  137.1282  160.2406 O   0  0  0  0  0  0  0  0  0  0  0  0
  148.9898  135.2150  158.9502 O   0  0  0  0  0  0  0  0  0  0  0  0
  150.4659  137.4118  159.5127 C   0  0  0  0  0  0  0  0  0  0  0  0
  153.3235  141.5309  160.8504 N   0  0  0  0  0  0  0  0  0  0  0  0
  152.7962  142.8186  161.0043 O   0  0  0  0  0  0  0  0  0  0  0  0
  152.7130  145.4164  159.3549 H   0  0  0  0  0  0  0  0  0  0  0  0
  151.6447  145.0395  160.7078 H   0  0  0  0  0  0  0  0  0  0  0  0
  151.1075  144.7494  159.0528 H   0  0  0  0  0  0  0  0  0  0  0  0
  152.7755  142.5408  157.7328 H   0  0  0  0  0  0  0  0  0  0  0  0
  151.5489  140.0628  158.0582 H   0  0  0  0  0  0  0  0  0  0  0  0
  151.3133  137.3001  157.5367 H   0  0  0  0  0  0  0  0  0  0  0  0
  149.2615  139.4883  157.9977 H   0  0  0  0  0  0  0  0  0  0  0  0
  149.7715  138.8395  156.4514 H   0  0  0  0  0  0  0  0  0  0  0  0
  147.4937  137.9370  157.6324 H   0  0  0  0  0  0  0  0  0  0  0  0
  148.5704  136.7815  156.8296 H   0  0  0  0  0  0  0  0  0  0  0  0
  151.1763  136.6577  159.8518 H   0  0  0  0  0  0  0  0  0  0  0  0
  150.3518  138.1594  160.2985 H   0  0  0  0  0  0  0  0  0  0  0  0
  1  2  1  0  0  0  0
  1 18  1  0  0  0  0
  1 19  1  0  0  0  0
  1 20  1  0  0  0  0
  2 17  1  0  0  0  0
  2  3  2  0  0  0  0
  3  4  1  0  0  0  0
  3 21  1  0  0  0  0
  4  5  1  0  0  0  0
  4 16  2  0  0  0  0
  5  6  1  0  0  0  0
  6  7  2  0  0  0  0
  6  8  1  0  0  0  0
  8  9  1  0  0  0  0
  8 22  1  0  0  0  0
  9 15  1  0  0  0  0
  9 10  1  0  0  0  0
  9 23  1  0  0  0  0
 10 11  1  0  0  0  0
 10 24  1  0  0  0  0
 10 25  1  0  0  0  0
 11 12  1  0  0  0  0
 11 26  1  0  0  0  0
 11 27  1  0  0  0  0
 12 13  2  0  0  0  0
 12 14  2  0  0  0  0
 12 15  1  0  0  0  0
 15 28  1  0  0  0  0
 15 29  1  0  0  0  0
 16 17  1  0  0  0  0
M  CHG  1   5  -1
M  END
> <s_m_source_file>
AV-unprocessed.smi

> <i_m_source_file_index>
2059

> <i_lp_mmshare_version>
43012

> <i_f3d_flags>
0

> <s_epik_input>
W0NIM11jMVtjSF1jKG5vMSlbTkhdQyg9TylbTkhdW0NAQEhdKFtDSDJdMilbQ0gyXVtDSDJdUzIoPU8pPU8=

> <s_epik_cmdline>
J2VwaWtfcHl0aG9uJywgJy1waCcsICc3LjAnLCAnLXRuJywgJzgnLCAnLW1hJywgJzIwMCcsICctbWV0YWxfYmluZGluZycsICctaW1hZScsICc8aW5maWxlLm1hZT4nLCAnLW9tYWUnLCAnPG91dGZpbGUubWFlPic=

> <r_lp_tautomer_probability>
1

> <r_epik_Ionization_Penalty>
6.15571

> <r_epik_Ionization_Penalty_Charging>
6.1556

> <r_epik_Ionization_Penalty_Neutral>
0.000110918

> <r_epik_State_Penalty>
6.15558

> <r_epik_Charging_Adjusted_Penalty>
12.3112

> <i_epik_Tot_Q>
-1

> <i_epik_Tot_abs_Q>
1

> <r_epik_Metal_State_Penalty>
2.1059

> <b_epik_Metal_Only>
1

> <s_lp_Force_Field>
OPLS_2005

> <r_lp_Energy>
-1.67492

> <b_lp_Chiralities_Consistent>
1

> <s_lp_Variant>
AV-unprocessed.smi:2059-3

> <Gold.Version>
5.8.1

> <Gold.Id.Protein>
6NUR|6NUR_protein|mol2

> <Gold.PLP.Fitness>
38.0071

> <Gold.PLP.PLP>
-26.8372

> <Gold.PLP.part.hbond>
-4.0000

> <Gold.PLP.part.metal>
0.0000

> <Gold.PLP.part.buried>
-3.3043

> <Gold.PLP.part.nonpolar>
-19.1833

> <Gold.PLP.part.repulsive>
0.1205

> <Gold.PLP.ligand.clash>
0.0000

> <Gold.PLP.ligand.torsion>
1.1848

> <Gold.PLP.Chemscore.Hbond>
4.5130

> <Gold.PLP.Chemscore.CHOScore>
0.0000

> <Gold.PLP.Chemscore.Metal>
0.0000

> <Gold.Chemscore.Hbonds>
donor molecule, donor type, donor heavy atom, donor atom, acceptor molecule, acceptor atom, score
      P1  H  6896  6908       L1    14  1.00
      P1  H  6931  6943       L1    13  0.22
      P1  H  6934  6947       L1    13  0.62
      P1  H  7997  8008       L1     5  1.72

> <Gold.PLP.Chemscore.Internal.Correction>
0.0005

> <Gold.Rescore>
     Score         DG    S(hbond)    S(metal)    S(lipo)     H(rot)  DE(clash)    DE(int)     intcor
     15.06     -17.85       2.77        0.00      48.42       1.00       0.62       2.17       ----

> <Gold.Chemscore.Fitness>
15.0620

> <Gold.Chemscore.DG>
-17.8539

> <Gold.Chemscore.ZeroCoef>
-5.4800

> <Gold.Chemscore.Hbond>
2.7749

> <Gold.Chemscore.Metal>
0.0000

> <Gold.Chemscore.Lipo>
48.4239

> <Gold.Chemscore.Internal_Hbond>
0.0000

> <Gold.Chemscore.DEClash>
0.6220

> <Gold.Chemscore.DEInternal>
2.1699

> <Gold.Chemscore.Rot>
1.0000

> <Gold.Chemscore.Internal.Correction>
   9.000000E+99

> <Gold.Chemscore.Hbonds>
donor molecule, donor type, donor heavy atom, donor atom, acceptor molecule, acceptor atom, score
      P1  H  6896  6908       L1    14  0.85
      P1  H  6931  6943       L1    13  0.15
      P1  H  6934  6947       L1    13  0.61
      P1  H  7997  8008       L1     5  0.20

> <Gold.Chemscore.Hbond.Weighted>
-9.2683

> <Gold.Chemscore.Metal.Weighted>
-0.0000

> <Gold.Chemscore.Lipo.Weighted>
-5.6656

> <Gold.Chemscore.Internal_Hbond.Weighted>
0.0000

> <Gold.Chemscore.DEClash.Weighted>
0.6220

> <Gold.Chemscore.DEInternal.Weighted>
2.1699

> <Gold.Chemscore.Rot.Weighted>
2.5600

> <Gold.Chemscore.Internal.Correction.Weighted>
   9.000000E+99

> <Gold.Protein.RotatedTorsions>
[ 6907 6896 6895 6894 ] final  166.36 input  -60.11 | X-H torsion
[ 7974 7965 7964 7962 ] final -102.12 input  175.53 | X-H torsion
[ 8008 7997 7996 7995 ] final -101.72 input   59.86 | X-H torsion
[ 10167 10162 10161 10158 ] final  -24.62 input  -65.29 | X-H torsion
[ 10718 10713 10712 10709 ] final -103.26 input   66.30 | X-H torsion
[ 10763 10752 10751 10750 ] final   41.39 input  -60.55 | X-H torsion
[ 11005 11000 10999 10996 ] final  -68.55 input  -57.11 | X-H torsion

> <Gold.Protein.ActiveResidues>
 VAL166  LYS551  ARG553  GLY616  TRP617  ASP618  TYR619  PRO620  LYS621  CYS622 
 ASP623  PHE694  ASN695  SER759  ASP760  ASP761  ALA762  ILE779  LEU786  VAL792 
 PHE793  MET794  SER795  GLU796  ALA797  LYS798  CYS799  TRP800  GLU811  SER814 

> <Gold.Protein.RotatedAtoms>
  151.8801  133.3493  159.3763 H   0  0  0  0  0  0  0  0  0  0  0  0  # atno 6907 bound_to 6896
  150.7129  134.5027  159.5578 H   0  0  0  0  0  0  0  0  0  0  0  0  # atno 6908 bound_to 6896
  152.2577  134.8067  160.0487 H   0  0  0  0  0  0  0  0  0  0  0  0  # atno 6909 bound_to 6896
  145.2728  140.9304  143.2976 H   0  0  0  0  0  0  0  0  0  0  0  0  # atno 7974 bound_to 7965
  154.8465  140.0432  157.1576 H   0  0  0  0  0  0  0  0  0  0  0  0  # atno 8008 bound_to 7997
  154.8989  140.2997  155.5308 H   0  0  0  0  0  0  0  0  0  0  0  0  # atno 8009 bound_to 7997
  156.2994  140.2379  156.4014 H   0  0  0  0  0  0  0  0  0  0  0  0  # atno 8010 bound_to 7997
  140.7288  143.4337  151.0763 H   0  0  0  0  0  0  0  0  0  0  0  0  # atno 10167 bound_to 10162
  156.0259  130.5459  150.7227 H   0  0  0  0  0  0  0  0  0  0  0  0  # atno 10718 bound_to 10713
  152.9909  135.6163  154.2779 H   0  0  0  0  0  0  0  0  0  0  0  0  # atno 10763 bound_to 10752
  154.2510  135.2785  155.2818 H   0  0  0  0  0  0  0  0  0  0  0  0  # atno 10764 bound_to 10752
  154.5288  135.5794  153.6799 H   0  0  0  0  0  0  0  0  0  0  0  0  # atno 10765 bound_to 10752
  141.1534  133.6743  156.6463 H   0  0  0  0  0  0  0  0  0  0  0  0  # atno 11005 bound_to 11000
  144.9320  139.4287  143.6490 LP  0  0  0  0  0  0  0  0  0  0  0  0  # atno 17320 bound_to 7965
  146.3241  139.8236  142.8922 LP  0  0  0  0  0  0  0  0  0  0  0  0  # atno 17321 bound_to 7965
  139.7996  143.8102  152.3161 LP  0  0  0  0  0  0  0  0  0  0  0  0  # atno 17342 bound_to 10162
  139.8114  144.7334  150.9692 LP  0  0  0  0  0  0  0  0  0  0  0  0  # atno 17343 bound_to 10162
  157.4839  131.0905  151.0505 LP  0  0  0  0  0  0  0  0  0  0  0  0  # atno 17370 bound_to 10713
  157.0930  130.5950  149.5444 LP  0  0  0  0  0  0  0  0  0  0  0  0  # atno 17371 bound_to 10713
  140.3354  134.7893  157.4358 LP  0  0  0  0  0  0  0  0  0  0  0  0  # atno 17394 bound_to 11000
  140.0982  134.5509  155.8378 LP  0  0  0  0  0  0  0  0  0  0  0  0  # atno 17395 bound_to 11000

$$$$
