AV-unprocessed.smi:1870|AV-procd|sdf|7597|dock2
  -GOLD-   22720 9313D 1   1.00000     0.00000
 Structure written by MMmdl.
 47 49  0  0  0  0  0  0  0  0  1 V2000
  145.9546  138.0079  155.4326 C   0  0  0  0  0  0  0  0  0  0  0  0
  147.2901  137.3410  155.6230 C   0  0  0  0  0  0  0  0  0  0  0  0
  148.3013  137.8858  155.0303 N   0  0  0  0  0  0  0  0  0  0  0  0
  149.5714  137.3521  155.1365 N   0  0  0  0  0  0  0  0  0  0  0  0
  150.5949  138.0944  154.3902 C   0  0  0  0  0  0  0  0  0  0  0  0
  151.0847  139.3388  155.1616 C   0  0  2  0  0  0  0  0  0  0  0  0
  152.3391  139.7269  154.6384 O   0  0  0  0  0  0  0  0  0  0  0  0
  151.3001  139.0220  156.6564 C   0  0  0  0  0  0  0  0  0  0  0  0
  151.7564  140.1424  157.4823 N   0  0  0  0  0  0  0  0  0  0  0  0
  151.9874  139.7145  158.8586 C   0  0  0  0  0  0  0  0  0  0  0  0
  152.7037  140.7977  159.6796 C   0  0  0  0  0  0  0  0  0  0  0  0
  152.0710  142.1668  159.4977 C   0  0  0  0  0  0  0  0  0  0  0  0
  152.3893  143.2173  160.3826 C   0  0  0  0  0  0  0  0  0  0  0  0
  151.8222  144.4928  160.1969 C   0  0  0  0  0  0  0  0  0  0  0  0
  150.9368  144.7213  159.1260 C   0  0  0  0  0  0  0  0  0  0  0  0
  150.6175  143.6748  158.2390 C   0  0  0  0  0  0  0  0  0  0  0  0
  151.1858  142.3967  158.4173 C   0  0  0  0  0  0  0  0  0  0  0  0
  150.8064  141.2612  157.4749 C   0  0  0  0  0  0  0  0  0  0  0  0
  149.8854  136.2307  155.8459 C   0  0  0  0  0  0  0  0  0  0  0  0
  151.0310  135.7822  155.9087 O   0  0  0  0  0  0  0  0  0  0  0  0
  148.7357  135.6213  156.5186 C   0  0  0  0  0  0  0  0  0  0  0  0
  149.0212  134.4463  157.2768 C   0  0  0  0  0  0  0  0  0  0  0  0
  149.2459  133.5033  157.9096 N   0  0  0  0  0  0  0  0  0  0  0  0
  147.4850  136.1386  156.4264 C   0  0  0  0  0  0  0  0  0  0  0  0
  146.2585  135.5431  157.1044 C   0  0  0  0  0  0  0  0  0  0  0  0
  145.5571  138.3565  156.3858 H   0  0  0  0  0  0  0  0  0  0  0  0
  145.2342  137.3147  154.9983 H   0  0  0  0  0  0  0  0  0  0  0  0
  146.0215  138.8712  154.7686 H   0  0  0  0  0  0  0  0  0  0  0  0
  151.4368  137.4179  154.2322 H   0  0  0  0  0  0  0  0  0  0  0  0
  150.2644  138.3601  153.3840 H   0  0  0  0  0  0  0  0  0  0  0  0
  150.3690  140.1506  155.0370 H   0  0  0  0  0  0  0  0  0  0  0  0
  152.1907  140.3427  153.9367 H   0  0  0  0  0  0  0  0  0  0  0  0
  150.3731  138.6307  157.0785 H   0  0  0  0  0  0  0  0  0  0  0  0
  152.0201  138.2048  156.7252 H   0  0  0  0  0  0  0  0  0  0  0  0
  151.0345  139.4639  159.3277 H   0  0  0  0  0  0  0  0  0  0  0  0
  152.5905  138.8061  158.8794 H   0  0  0  0  0  0  0  0  0  0  0  0
  152.7045  140.5277  160.7361 H   0  0  0  0  0  0  0  0  0  0  0  0
  153.7468  140.8643  159.3685 H   0  0  0  0  0  0  0  0  0  0  0  0
  153.0717  143.0482  161.2027 H   0  0  0  0  0  0  0  0  0  0  0  0
  152.0673  145.2966  160.8751 H   0  0  0  0  0  0  0  0  0  0  0  0
  150.5006  145.6994  158.9859 H   0  0  0  0  0  0  0  0  0  0  0  0
  149.9324  143.8547  157.4236 H   0  0  0  0  0  0  0  0  0  0  0  0
  150.7229  141.6787  156.4723 H   0  0  0  0  0  0  0  0  0  0  0  0
  149.8123  140.9109  157.7566 H   0  0  0  0  0  0  0  0  0  0  0  0
  146.5066  134.6838  157.7268 H   0  0  0  0  0  0  0  0  0  0  0  0
  145.5345  135.2114  156.3597 H   0  0  0  0  0  0  0  0  0  0  0  0
  145.7773  136.2810  157.7473 H   0  0  0  0  0  0  0  0  0  0  0  0
  1  2  1  0  0  0  0
  1 26  1  0  0  0  0
  1 27  1  0  0  0  0
  1 28  1  0  0  0  0
  2 24  1  0  0  0  0
  2  3  2  0  0  0  0
  3  4  1  0  0  0  0
  4  5  1  0  0  0  0
  4 19  1  0  0  0  0
  5  6  1  0  0  0  0
  5 29  1  0  0  0  0
  5 30  1  0  0  0  0
  6  7  1  0  0  0  0
  6  8  1  0  0  0  0
  6 31  1  0  0  0  0
  7 32  1  0  0  0  0
  8  9  1  0  0  0  0
  8 33  1  0  0  0  0
  8 34  1  0  0  0  0
  9 18  1  0  0  0  0
  9 10  1  0  0  0  0
 10 11  1  0  0  0  0
 10 35  1  0  0  0  0
 10 36  1  0  0  0  0
 11 12  1  0  0  0  0
 11 37  1  0  0  0  0
 11 38  1  0  0  0  0
 12 17  2  0  0  0  0
 12 13  1  0  0  0  0
 13 14  2  0  0  0  0
 13 39  1  0  0  0  0
 14 15  1  0  0  0  0
 14 40  1  0  0  0  0
 15 16  2  0  0  0  0
 15 41  1  0  0  0  0
 16 17  1  0  0  0  0
 16 42  1  0  0  0  0
 17 18  1  0  0  0  0
 18 43  1  0  0  0  0
 18 44  1  0  0  0  0
 19 20  2  0  0  0  0
 19 21  1  0  0  0  0
 21 22  1  0  0  0  0
 21 24  2  0  0  0  0
 22 23  3  0  0  0  0
 24 25  1  0  0  0  0
 25 45  1  0  0  0  0
 25 46  1  0  0  0  0
 25 47  1  0  0  0  0
M  END
> <s_m_source_file>
AV-unprocessed.smi

> <i_m_source_file_index>
1870

> <i_lp_mmshare_version>
43012

> <i_f3d_flags>
0

> <s_epik_input>
TiNDYyhjMVtDSDNdKWMoPU8pbihuYzFbQ0gzXSlbQ0gyXVtDQEhdKFtPSF0pW0NIMl1OKFtDSDJdW0NIMl0yKVtDSDJdYyhjMjMpW2NIXVtjSF1bY0hdW2NIXTM=

> <s_epik_cmdline>
J2VwaWtfcHl0aG9uJywgJy1waCcsICc3LjAnLCAnLXRuJywgJzgnLCAnLW1hJywgJzIwMCcsICctbWV0YWxfYmluZGluZycsICctaW1hZScsICc8aW5maWxlLm1hZT4nLCAnLW9tYWUnLCAnPG91dGZpbGUubWFlPic=

> <r_epik_Ionization_Penalty>
2.30251

> <r_epik_Ionization_Penalty_Charging>
1.06171e-10

> <r_epik_Ionization_Penalty_Neutral>
2.30251

> <r_epik_State_Penalty>
2.45335

> <r_epik_Charging_Adjusted_Penalty>
2.45335

> <i_epik_Tot_Q>
0

> <i_epik_Tot_abs_Q>
0

> <r_epik_Metal_State_Penalty>
2.45335

> <b_epik_Metal_Only>
0

> <s_lp_Force_Field>
OPLS_2005

> <r_lp_Energy>
46.0919

> <b_lp_Chiralities_Consistent>
1

> <s_lp_Variant>
AV-unprocessed.smi:1870-5

> <Gold.Version>
5.8.1

> <Gold.Id.Protein>
6NUR|6NUR_protein|mol2

> <Gold.PLP.Fitness>
53.2722

> <Gold.PLP.PLP>
-45.1460

> <Gold.PLP.part.hbond>
-4.9542

> <Gold.PLP.part.metal>
0.0000

> <Gold.PLP.part.buried>
-4.9046

> <Gold.PLP.part.nonpolar>
-35.4616

> <Gold.PLP.part.repulsive>
0.2208

> <Gold.PLP.ligand.clash>
0.0000

> <Gold.PLP.ligand.torsion>
0.4576

> <Gold.PLP.Chemscore.Hbond>
3.0000

> <Gold.PLP.Chemscore.CHOScore>
0.0000

> <Gold.PLP.Chemscore.Metal>
0.0000

> <Gold.Chemscore.Hbonds>
donor molecule, donor type, donor heavy atom, donor atom, acceptor molecule, acceptor atom, score
      P1  H  6896  6909       L1    23  0.93
      P1  H 10752 10765       L1    20  0.37

> <Gold.PLP.Chemscore.Internal.Correction>
0.0414

> <Gold.Rescore>
     Score         DG    S(hbond)    S(metal)    S(lipo)     H(rot)  DE(clash)    DE(int)     intcor
     22.14     -22.77       2.83        0.00     112.73       2.10       0.04       0.60       ----

> <Gold.Chemscore.Fitness>
22.1378

> <Gold.Chemscore.DG>
-22.7700

> <Gold.Chemscore.ZeroCoef>
-5.4800

> <Gold.Chemscore.Hbond>
2.8349

> <Gold.Chemscore.Metal>
0.0000

> <Gold.Chemscore.Lipo>
112.7345

> <Gold.Chemscore.Internal_Hbond>
0.0000

> <Gold.Chemscore.DEClash>
0.0370

> <Gold.Chemscore.DEInternal>
0.5953

> <Gold.Chemscore.Rot>
2.0971

> <Gold.Chemscore.Internal.Correction>
   9.000000E+99

> <Gold.Chemscore.Hbonds>
donor molecule, donor type, donor heavy atom, donor atom, acceptor molecule, acceptor atom, score
      P1  H  6896  6909       L1    23  0.73
      P1  H  7997  8008       L1     7  0.01
      P1  H 10752 10765       L1    20  0.37

> <Gold.Chemscore.Hbond.Weighted>
-9.4686

> <Gold.Chemscore.Metal.Weighted>
-0.0000

> <Gold.Chemscore.Lipo.Weighted>
-13.1899

> <Gold.Chemscore.Internal_Hbond.Weighted>
0.0000

> <Gold.Chemscore.DEClash.Weighted>
0.0370

> <Gold.Chemscore.DEInternal.Weighted>
0.5953

> <Gold.Chemscore.Rot.Weighted>
5.3685

> <Gold.Chemscore.Internal.Correction.Weighted>
   9.000000E+99

> <Gold.Protein.RotatedTorsions>
[ 6907 6896 6895 6894 ] final    3.33 input  -60.11 | X-H torsion
[ 7974 7965 7964 7962 ] final   48.45 input  175.53 | X-H torsion
[ 8008 7997 7996 7995 ] final  -23.84 input   59.86 | X-H torsion
[ 10167 10162 10161 10158 ] final  -24.36 input  -65.29 | X-H torsion
[ 10718 10713 10712 10709 ] final  151.38 input   66.30 | X-H torsion
[ 10763 10752 10751 10750 ] final -153.71 input  -60.55 | X-H torsion
[ 11005 11000 10999 10996 ] final  -83.50 input  -57.11 | X-H torsion

> <Gold.Protein.ActiveResidues>
 VAL166  LYS551  ARG553  GLY616  TRP617  ASP618  TYR619  PRO620  LYS621  CYS622 
 ASP623  PHE694  ASN695  SER759  ASP760  ASP761  ALA762  ILE779  LEU786  VAL792 
 PHE793  MET794  SER795  GLU796  ALA797  LYS798  CYS799  TRP800  GLU811  SER814 

> <Gold.Protein.RotatedAtoms>
  151.6233  135.1030  160.0106 H   0  0  0  0  0  0  0  0  0  0  0  0  # atno 6907 bound_to 6896
  152.4146  133.7013  159.6436 H   0  0  0  0  0  0  0  0  0  0  0  0  # atno 6908 bound_to 6896
  150.8034  133.8480  159.3238 H   0  0  0  0  0  0  0  0  0  0  0  0  # atno 6909 bound_to 6896
  146.0203  139.4644  142.9901 H   0  0  0  0  0  0  0  0  0  0  0  0  # atno 7974 bound_to 7965
  154.4562  140.1970  156.0372 H   0  0  0  0  0  0  0  0  0  0  0  0  # atno 8008 bound_to 7997
  156.0751  140.3279  155.7596 H   0  0  0  0  0  0  0  0  0  0  0  0  # atno 8009 bound_to 7997
  155.5201  140.0569  157.2899 H   0  0  0  0  0  0  0  0  0  0  0  0  # atno 8010 bound_to 7997
  140.7288  143.4360  151.0729 H   0  0  0  0  0  0  0  0  0  0  0  0  # atno 10167 bound_to 10162
  157.2714  131.0818  151.1597 H   0  0  0  0  0  0  0  0  0  0  0  0  # atno 10718 bound_to 10713
  154.7909  135.3206  154.7780 H   0  0  0  0  0  0  0  0  0  0  0  0  # atno 10763 bound_to 10752
  153.8469  135.6866  153.4801 H   0  0  0  0  0  0  0  0  0  0  0  0  # atno 10764 bound_to 10752
  153.1578  135.4673  154.9670 H   0  0  0  0  0  0  0  0  0  0  0  0  # atno 10765 bound_to 10752
  141.1657  133.7298  156.8730 H   0  0  0  0  0  0  0  0  0  0  0  0  # atno 11005 bound_to 11000
  145.7203  141.0077  143.1406 LP  0  0  0  0  0  0  0  0  0  0  0  0  # atno 17320 bound_to 7965
  144.6987  139.8863  143.7450 LP  0  0  0  0  0  0  0  0  0  0  0  0  # atno 17321 bound_to 7965
  139.8022  143.8068  152.3164 LP  0  0  0  0  0  0  0  0  0  0  0  0  # atno 17342 bound_to 10162
  139.8088  144.7344  150.9725 LP  0  0  0  0  0  0  0  0  0  0  0  0  # atno 17343 bound_to 10162
  157.3067  130.6869  149.6193 LP  0  0  0  0  0  0  0  0  0  0  0  0  # atno 17370 bound_to 10713
  155.9663  130.4376  150.5181 LP  0  0  0  0  0  0  0  0  0  0  0  0  # atno 17371 bound_to 10713
  140.1768  134.9061  157.2901 LP  0  0  0  0  0  0  0  0  0  0  0  0  # atno 17394 bound_to 11000
  140.2439  134.3762  155.7469 LP  0  0  0  0  0  0  0  0  0  0  0  0  # atno 17395 bound_to 11000

$$$$
