AV-unprocessed.smi:224|AV-procd|sdf|1712|dock5
  -GOLD-   2262020183D 1   1.00000     0.00000
 Structure written by MMmdl.
 56 59  0  0  0  0  0  0  0  0  2 V2000
  146.6308  127.8198  153.0574 C   0  0  0  0  0  0  0  0  0  0  0  0
  147.1182  128.7138  151.9100 C   0  0  1  0  0  0  0  0  0  0  0  0
  147.2914  127.9051  150.7641 O   0  0  0  0  0  0  0  0  0  0  0  0
  146.1196  129.8379  151.5819 C   0  0  0  0  0  0  0  0  0  0  0  0
  146.7582  131.1794  151.6953 N   0  3  2  0  0  0  0  0  0  0  0  0
  147.3834  131.3567  153.0366 C   0  0  0  0  0  0  0  0  0  0  0  0
  148.0680  132.7252  153.1926 C   0  0  0  0  0  0  0  0  0  0  0  0
  147.1598  133.8101  152.8364 N   0  0  0  0  0  0  0  0  0  0  0  0
  146.3241  134.3255  153.7789 C   0  0  0  0  0  0  0  0  0  0  0  0
  146.2418  133.7387  155.0032 N   0  0  0  0  0  0  0  0  0  0  0  0
  145.4054  134.2139  155.9301 C   0  0  0  0  0  0  0  0  0  0  0  0
  144.5719  135.2511  155.8463 N   0  0  0  0  0  0  0  0  0  0  0  0
  144.6589  135.8579  154.6286 C   0  0  0  0  0  0  0  0  0  0  0  0
  145.5059  135.4702  153.5514 C   0  0  0  0  0  0  0  0  0  0  0  0
  145.3349  136.3438  152.4831 N   0  0  0  0  0  0  0  0  0  0  0  0
  144.4269  137.1845  152.8969 C   0  0  0  0  0  0  0  0  0  0  0  0
  143.9543  136.9566  154.1690 N   0  0  0  0  0  0  0  0  0  0  0  0
  142.9340  137.7188  154.8716 C   0  0  0  0  0  0  0  0  0  0  0  0
  141.5396  137.6254  154.2087 C   0  0  2  0  0  0  0  0  0  0  0  0
  141.5236  138.4344  153.0451 O   0  0  0  0  0  0  0  0  0  0  0  0
  140.3892  138.0590  155.1139 C   0  0  0  0  0  0  0  0  0  0  0  0
  139.2422  137.1694  154.6563 C   0  0  0  0  0  0  0  0  0  0  0  0
  139.8905  135.9306  154.4263 O   0  0  0  0  0  0  0  0  0  0  0  0
  141.1478  136.1887  153.8095 C   0  0  0  0  0  0  0  0  0  0  0  0
  146.6147  133.6747  151.4914 C   0  0  0  0  0  0  0  0  0  0  0  0
  145.8828  132.3270  151.2964 C   0  0  1  0  0  0  0  0  0  0  0  0
  145.4299  132.2441  149.8234 C   0  0  0  0  0  0  0  0  0  0  0  0
  146.5049  128.3951  153.9751 H   0  0  0  0  0  0  0  0  0  0  0  0
  147.3454  127.0226  153.2653 H   0  0  0  0  0  0  0  0  0  0  0  0
  145.6722  127.3556  152.8227 H   0  0  0  0  0  0  0  0  0  0  0  0
  148.0864  129.1349  152.1812 H   0  0  0  0  0  0  0  0  0  0  0  0
  147.0018  127.0278  150.9647 H   0  0  0  0  0  0  0  0  0  0  0  0
  145.7013  129.6546  150.5952 H   0  0  0  0  0  0  0  0  0  0  0  0
  145.2628  129.7847  152.2555 H   0  0  0  0  0  0  0  0  0  0  0  0
  146.6177  131.2412  153.8046 H   0  0  0  0  0  0  0  0  0  0  0  0
  148.1153  130.5680  153.2106 H   0  0  0  0  0  0  0  0  0  0  0  0
  148.4528  132.8534  154.2052 H   0  0  0  0  0  0  0  0  0  0  0  0
  148.9348  132.7776  152.5324 H   0  0  0  0  0  0  0  0  0  0  0  0
  145.3995  133.6844  156.8715 H   0  0  0  0  0  0  0  0  0  0  0  0
  144.0696  137.9946  152.2778 H   0  0  0  0  0  0  0  0  0  0  0  0
  142.8868  137.3664  155.9029 H   0  0  0  0  0  0  0  0  0  0  0  0
  143.2595  138.7589  154.9188 H   0  0  0  0  0  0  0  0  0  0  0  0
  142.3464  138.8956  152.9896 H   0  0  0  0  0  0  0  0  0  0  0  0
  140.6182  137.8233  156.1537 H   0  0  0  0  0  0  0  0  0  0  0  0
  140.1591  139.1238  155.0576 H   0  0  0  0  0  0  0  0  0  0  0  0
  138.4521  137.0798  155.4020 H   0  0  0  0  0  0  0  0  0  0  0  0
  138.8039  137.5372  153.7272 H   0  0  0  0  0  0  0  0  0  0  0  0
  141.0518  136.0749  152.7285 H   0  0  0  0  0  0  0  0  0  0  0  0
  141.8723  135.4491  154.1516 H   0  0  0  0  0  0  0  0  0  0  0  0
  145.9420  134.4940  151.2438 H   0  0  0  0  0  0  0  0  0  0  0  0
  147.4444  133.7485  150.7873 H   0  0  0  0  0  0  0  0  0  0  0  0
  144.9998  132.3173  151.9378 H   0  0  0  0  0  0  0  0  0  0  0  0
  144.9119  133.1569  149.5279 H   0  0  0  0  0  0  0  0  0  0  0  0
  144.7342  131.4292  149.6323 H   0  0  0  0  0  0  0  0  0  0  0  0
  146.2822  132.1222  149.1537 H   0  0  0  0  0  0  0  0  0  0  0  0
  147.5152  131.1832  151.0262 H   0  0  0  0  0  0  0  0  0  0  0  0
  1  2  1  0  0  0  0
  1 28  1  0  0  0  0
  1 29  1  0  0  0  0
  1 30  1  0  0  0  0
  2  3  1  0  0  0  0
  2  4  1  0  0  0  0
  2 31  1  0  0  0  0
  3 32  1  0  0  0  0
  4  5  1  0  0  0  0
  4 33  1  0  0  0  0
  4 34  1  0  0  0  0
  5 26  1  0  0  0  0
  5  6  1  0  0  0  0
  5 56  1  0  0  0  0
  6  7  1  0  0  0  0
  6 35  1  0  0  0  0
  6 36  1  0  0  0  0
  7  8  1  0  0  0  0
  7 37  1  0  0  0  0
  7 38  1  0  0  0  0
  8  9  1  0  0  0  0
  8 25  1  0  0  0  0
  9 14  1  0  0  0  0
  9 10  2  0  0  0  0
 10 11  1  0  0  0  0
 11 12  2  0  0  0  0
 11 39  1  0  0  0  0
 12 13  1  0  0  0  0
 13 17  1  0  0  0  0
 13 14  2  0  0  0  0
 14 15  1  0  0  0  0
 15 16  2  0  0  0  0
 16 17  1  0  0  0  0
 16 40  1  0  0  0  0
 17 18  1  0  0  0  0
 18 19  1  0  0  0  0
 18 41  1  0  0  0  0
 18 42  1  0  0  0  0
 19 24  1  0  0  0  0
 19 20  1  0  0  0  0
 19 21  1  0  0  0  0
 20 43  1  0  0  0  0
 21 22  1  0  0  0  0
 21 44  1  0  0  0  0
 21 45  1  0  0  0  0
 22 23  1  0  0  0  0
 22 46  1  0  0  0  0
 22 47  1  0  0  0  0
 23 24  1  0  0  0  0
 24 48  1  0  0  0  0
 24 49  1  0  0  0  0
 25 26  1  0  0  0  0
 25 50  1  0  0  0  0
 25 51  1  0  0  0  0
 26 27  1  0  0  0  0
 26 52  1  0  0  0  0
 27 53  1  0  0  0  0
 27 54  1  0  0  0  0
 27 55  1  0  0  0  0
M  CHG  1   5   1
M  END
> <s_m_source_file>
AV-unprocessed.smi

> <i_m_source_file_index>
224

> <i_lp_mmshare_version>
43012

> <i_f3d_flags>
0

> <s_epik_input>
W0NIM11bQ0BIXShbT0hdKVtDSDJdTjFbQ0gyXVtDSDJdTihbQ0gyXVtDQEhdMVtDSDNdKWMobltjSF1uMiljKGMyMyluW2NIXW4zW0NIMl1bQ0BAXTQoW09IXSlbQ0gyXVtDSDJdT1tDSDJdNA==

> <s_epik_cmdline>
J2VwaWtfcHl0aG9uJywgJy1waCcsICc3LjAnLCAnLXRuJywgJzgnLCAnLW1hJywgJzIwMCcsICctbWV0YWxfYmluZGluZycsICctaW1hZScsICc8aW5maWxlLm1hZT4nLCAnLW9tYWUnLCAnPG91dGZpbGUubWFlPic=

> <r_lp_tautomer_probability>
1

> <r_epik_Ionization_Penalty>
0.00516958

> <r_epik_Ionization_Penalty_Charging>
0.00509693

> <r_epik_Ionization_Penalty_Neutral>
7.26542e-05

> <r_epik_State_Penalty>
-0

> <r_epik_Charging_Adjusted_Penalty>
0.00509693

> <i_epik_Tot_Q>
1

> <i_epik_Tot_abs_Q>
1

> <r_epik_Metal_State_Penalty>
-0

> <b_epik_Metal_Only>
0

> <s_lp_Force_Field>
OPLS_2005

> <r_lp_Energy>
47.1484

> <b_lp_Chiralities_Consistent>
1

> <s_lp_Variant>
AV-unprocessed.smi:224-6

> <Gold.Version>
5.8.1

> <Gold.Id.Protein>
6NUR|6NUR_protein|mol2

> <Gold.PLP.Fitness>
50.2332

> <Gold.PLP.PLP>
-37.1338

> <Gold.PLP.part.hbond>
-3.8960

> <Gold.PLP.part.metal>
0.0000

> <Gold.PLP.part.buried>
-7.3022

> <Gold.PLP.part.nonpolar>
-27.3292

> <Gold.PLP.part.repulsive>
1.0340

> <Gold.PLP.ligand.clash>
0.0000

> <Gold.PLP.ligand.torsion>
1.1863

> <Gold.PLP.Chemscore.Hbond>
2.9825

> <Gold.PLP.Chemscore.CHOScore>
2.0000

> <Gold.PLP.Chemscore.Metal>
0.0000

> <Gold.Chemscore.Hbonds>
donor molecule, donor type, donor heavy atom, donor atom, acceptor molecule, acceptor atom, score
      L1  H     5    56       P1 10747  1.00
      L1  H    20    43       P1 10175  0.94
      P1  H 11000 11005       L1    23  1.00
      L1  C    16    40       P1 10171  0.99
      L1  C    16    40       P1 10175  1.00

> <Gold.PLP.Chemscore.Internal.Correction>
0.5245

> <Gold.Rescore>
     Score         DG    S(hbond)    S(metal)    S(lipo)     H(rot)  DE(clash)    DE(int)     intcor
     14.69     -15.94       2.87        0.00      80.93       3.36       0.07       1.18       ----

> <Gold.Chemscore.Fitness>
14.6858

> <Gold.Chemscore.DG>
-15.9369

> <Gold.Chemscore.ZeroCoef>
-5.4800

> <Gold.Chemscore.Hbond>
2.8719

> <Gold.Chemscore.Metal>
0.0000

> <Gold.Chemscore.Lipo>
80.9344

> <Gold.Chemscore.Internal_Hbond>
0.0000

> <Gold.Chemscore.DEClash>
0.0689

> <Gold.Chemscore.DEInternal>
1.1822

> <Gold.Chemscore.Rot>
3.3611

> <Gold.Chemscore.Internal.Correction>
   9.000000E+99

> <Gold.Chemscore.Hbonds>
donor molecule, donor type, donor heavy atom, donor atom, acceptor molecule, acceptor atom, score
      L1  H     5    56       P1 10747  1.00
      L1  H    20    43       P1 10175  0.88
      P1  H 11000 11005       L1    23  0.78

> <Gold.Chemscore.Hbond.Weighted>
-9.5921

> <Gold.Chemscore.Metal.Weighted>
-0.0000

> <Gold.Chemscore.Lipo.Weighted>
-9.4693

> <Gold.Chemscore.Internal_Hbond.Weighted>
0.0000

> <Gold.Chemscore.DEClash.Weighted>
0.0689

> <Gold.Chemscore.DEInternal.Weighted>
1.1822

> <Gold.Chemscore.Rot.Weighted>
8.6045

> <Gold.Chemscore.Internal.Correction.Weighted>
   9.000000E+99

> <Gold.Protein.RotatedTorsions>
[ 6907 6896 6895 6894 ] final   -9.22 input  -60.11 | X-H torsion
[ 7974 7965 7964 7962 ] final  -75.39 input  175.53 | X-H torsion
[ 8008 7997 7996 7995 ] final  119.78 input   59.86 | X-H torsion
[ 10167 10162 10161 10158 ] final -132.18 input  -65.29 | X-H torsion
[ 10718 10713 10712 10709 ] final  -99.05 input   66.30 | X-H torsion
[ 10763 10752 10751 10750 ] final   31.20 input  -60.55 | X-H torsion
[ 11005 11000 10999 10996 ] final   70.12 input  -57.11 | X-H torsion

> <Gold.Protein.ActiveResidues>
 VAL166  LYS551  ARG553  GLY616  TRP617  ASP618  TYR619  PRO620  LYS621  CYS622 
 ASP623  PHE694  ASN695  SER759  ASP760  ASP761  ALA762  ILE779  LEU786  VAL792 
 PHE793  MET794  SER795  GLU796  ALA797  LYS798  CYS799  TRP800  GLU811  SER814 

> <Gold.Protein.RotatedAtoms>
  151.4213  135.0998  159.9614 H   0  0  0  0  0  0  0  0  0  0  0  0  # atno 6907 bound_to 6896
  152.4987  133.8705  159.7306 H   0  0  0  0  0  0  0  0  0  0  0  0  # atno 6908 bound_to 6896
  150.9221  133.6810  159.2857 H   0  0  0  0  0  0  0  0  0  0  0  0  # atno 6909 bound_to 6896
  145.6266  140.9349  143.1109 H   0  0  0  0  0  0  0  0  0  0  0  0  # atno 7974 bound_to 7965
  156.2612  140.2845  156.1046 H   0  0  0  0  0  0  0  0  0  0  0  0  # atno 8008 bound_to 7997
  155.1323  140.0394  157.2795 H   0  0  0  0  0  0  0  0  0  0  0  0  # atno 8009 bound_to 7997
  154.6591  140.2562  155.7135 H   0  0  0  0  0  0  0  0  0  0  0  0  # atno 8010 bound_to 7997
  139.9112  143.6492  152.2575 H   0  0  0  0  0  0  0  0  0  0  0  0  # atno 10167 bound_to 10162
  156.0123  130.5265  150.6613 H   0  0  0  0  0  0  0  0  0  0  0  0  # atno 10718 bound_to 10713
  153.0329  135.6445  154.1162 H   0  0  0  0  0  0  0  0  0  0  0  0  # atno 10763 bound_to 10752
  154.0881  135.2868  155.3278 H   0  0  0  0  0  0  0  0  0  0  0  0  # atno 10764 bound_to 10752
  154.6483  135.5435  153.7935 H   0  0  0  0  0  0  0  0  0  0  0  0  # atno 10765 bound_to 10752
  139.9615  134.7053  156.0636 H   0  0  0  0  0  0  0  0  0  0  0  0  # atno 11005 bound_to 11000
  144.7210  139.8031  143.7382 LP  0  0  0  0  0  0  0  0  0  0  0  0  # atno 17320 bound_to 7965
  146.1389  139.4442  143.0121 LP  0  0  0  0  0  0  0  0  0  0  0  0  # atno 17321 bound_to 7965
  139.6941  144.7643  151.1387 LP  0  0  0  0  0  0  0  0  0  0  0  0  # atno 17342 bound_to 10162
  140.7685  143.5548  150.9164 LP  0  0  0  0  0  0  0  0  0  0  0  0  # atno 17343 bound_to 10162
  157.4355  131.0854  151.0996 LP  0  0  0  0  0  0  0  0  0  0  0  0  # atno 17370 bound_to 10713
  157.1556  130.6203  149.5595 LP  0  0  0  0  0  0  0  0  0  0  0  0  # atno 17371 bound_to 10713
  141.1292  133.6591  156.3419 LP  0  0  0  0  0  0  0  0  0  0  0  0  # atno 17394 bound_to 11000
  140.5490  134.6046  157.5402 LP  0  0  0  0  0  0  0  0  0  0  0  0  # atno 17395 bound_to 11000

$$$$
