AV-unprocessed.smi:3112|AV-procd|sdf|11845|dock7
  -GOLD-   2272017223D 1   1.00000     0.00000
 Structure written by MMmdl.
 36 36  0  0  0  0  0  0  0  0  1 V2000
  147.4374  141.1026  153.4257 C   0  0  0  0  0  0  0  0  0  0  0  0
  148.5185  141.6039  154.3926 C   0  0  0  0  0  0  0  0  0  0  0  0
  149.4724  140.4903  154.8694 C   0  0  1  0  0  0  0  0  0  0  0  0
  150.1763  139.9268  153.7806 O   0  0  0  0  0  0  0  0  0  0  0  0
  150.4831  140.9346  155.9438 C   0  0  0  0  0  0  0  0  0  0  0  0
  149.8272  141.4911  157.1306 N   0  0  0  0  0  0  0  0  0  0  0  0
  150.7370  142.0293  158.1465 C   0  0  2  0  0  0  0  0  0  0  0  0
  151.3558  143.3287  157.5971 C   0  0  0  0  0  0  0  0  0  0  0  0
  151.8204  140.9882  158.5604 C   0  0  2  0  0  0  0  0  0  0  0  0
  151.2846  139.5608  158.7774 C   0  0  0  0  0  0  0  0  0  0  0  0
  152.5599  141.4154  159.7424 N   0  0  0  0  0  0  0  0  0  0  0  0
  152.3897  142.5651  160.4861 C   0  0  0  0  0  0  0  0  0  0  0  0
  153.3067  142.5375  161.4974 C   0  0  0  0  0  0  0  0  0  0  0  0
  154.0047  141.3157  161.2873 C   0  0  0  0  0  0  0  0  0  0  0  0
  153.5569  140.6469  160.2375 N   0  0  0  0  0  0  0  0  0  0  0  0
  146.7674  141.9136  153.1401 H   0  0  0  0  0  0  0  0  0  0  0  0
  146.8329  140.3181  153.8818 H   0  0  0  0  0  0  0  0  0  0  0  0
  147.8762  140.7005  152.5124 H   0  0  0  0  0  0  0  0  0  0  0  0
  149.0820  142.4073  153.9169 H   0  0  0  0  0  0  0  0  0  0  0  0
  148.0271  142.0472  155.2594 H   0  0  0  0  0  0  0  0  0  0  0  0
  148.8741  139.6870  155.3004 H   0  0  0  0  0  0  0  0  0  0  0  0
  149.6950  140.1051  152.9874 H   0  0  0  0  0  0  0  0  0  0  0  0
  151.0735  140.0673  156.2415 H   0  0  0  0  0  0  0  0  0  0  0  0
  151.1903  141.6382  155.5098 H   0  0  0  0  0  0  0  0  0  0  0  0
  149.2396  140.7762  157.5471 H   0  0  0  0  0  0  0  0  0  0  0  0
  150.1636  142.3087  159.0319 H   0  0  0  0  0  0  0  0  0  0  0  0
  151.9432  143.8507  158.3526 H   0  0  0  0  0  0  0  0  0  0  0  0
  150.5815  144.0217  157.2661 H   0  0  0  0  0  0  0  0  0  0  0  0
  152.0079  143.1292  156.7461 H   0  0  0  0  0  0  0  0  0  0  0  0
  152.5487  140.9332  157.7495 H   0  0  0  0  0  0  0  0  0  0  0  0
  150.9503  139.1154  157.8410 H   0  0  0  0  0  0  0  0  0  0  0  0
  150.4511  139.5470  159.4803 H   0  0  0  0  0  0  0  0  0  0  0  0
  152.0630  138.9072  159.1726 H   0  0  0  0  0  0  0  0  0  0  0  0
  151.6370  143.2989  160.2376 H   0  0  0  0  0  0  0  0  0  0  0  0
  153.4563  143.2773  162.2697 H   0  0  0  0  0  0  0  0  0  0  0  0
  154.8177  140.8977  161.8622 H   0  0  0  0  0  0  0  0  0  0  0  0
  1  2  1  0  0  0  0
  1 16  1  0  0  0  0
  1 17  1  0  0  0  0
  1 18  1  0  0  0  0
  2  3  1  0  0  0  0
  2 19  1  0  0  0  0
  2 20  1  0  0  0  0
  3  4  1  0  0  0  0
  3  5  1  0  0  0  0
  3 21  1  0  0  0  0
  4 22  1  0  0  0  0
  5  6  1  0  0  0  0
  5 23  1  0  0  0  0
  5 24  1  0  0  0  0
  6  7  1  0  0  0  0
  6 25  1  0  0  0  0
  7  8  1  0  0  0  0
  7  9  1  0  0  0  0
  7 26  1  0  0  0  0
  8 27  1  0  0  0  0
  8 28  1  0  0  0  0
  8 29  1  0  0  0  0
  9 10  1  0  0  0  0
  9 11  1  0  0  0  0
  9 30  1  0  0  0  0
 10 31  1  0  0  0  0
 10 32  1  0  0  0  0
 10 33  1  0  0  0  0
 11 15  1  0  0  0  0
 11 12  1  0  0  0  0
 12 13  2  0  0  0  0
 12 34  1  0  0  0  0
 13 14  1  0  0  0  0
 13 35  1  0  0  0  0
 14 15  2  0  0  0  0
 14 36  1  0  0  0  0
M  END
> <s_m_source_file>
AV-unprocessed.smi

> <i_m_source_file_index>
3112

> <i_lp_mmshare_version>
43012

> <i_f3d_flags>
0

> <s_epik_input>
W0NIM11bQ0gyXVtDQEhdKFtPSF0pW0NIMl1bTkhdW0NASF0oW0NIM10pW0NASF0oW0NIM10pbjFbY0hdW2NIXVtjSF1uMQ==

> <s_epik_cmdline>
J2VwaWtfcHl0aG9uJywgJy1waCcsICc3LjAnLCAnLXRuJywgJzgnLCAnLW1hJywgJzIwMCcsICctbWV0YWxfYmluZGluZycsICctaW1hZScsICc8aW5maWxlLm1hZT4nLCAnLW9tYWUnLCAnPG91dGZpbGUubWFlPic=

> <r_lp_tautomer_probability>
1

> <r_epik_Ionization_Penalty>
2.16876

> <r_epik_Ionization_Penalty_Charging>
0

> <r_epik_Ionization_Penalty_Neutral>
2.16876

> <r_epik_State_Penalty>
2.30854

> <r_epik_Charging_Adjusted_Penalty>
2.30854

> <i_epik_Tot_Q>
0

> <i_epik_Tot_abs_Q>
0

> <r_epik_Metal_State_Penalty>
2.3073

> <b_epik_Metal_Only>
0

> <s_lp_Force_Field>
OPLS_2005

> <r_lp_Energy>
23.3328

> <b_lp_Chiralities_Consistent>
1

> <s_lp_Variant>
AV-unprocessed.smi:3112-10

> <Gold.Version>
5.8.1

> <Gold.Id.Protein>
6NUR|6NUR_protein|mol2

> <Gold.PLP.Fitness>
40.7864

> <Gold.PLP.PLP>
-35.7614

> <Gold.PLP.part.hbond>
-2.0000

> <Gold.PLP.part.metal>
0.0000

> <Gold.PLP.part.buried>
-4.8963

> <Gold.PLP.part.nonpolar>
-28.9575

> <Gold.PLP.part.repulsive>
0.0000

> <Gold.PLP.ligand.clash>
0.0000

> <Gold.PLP.ligand.torsion>
0.2790

> <Gold.PLP.Chemscore.Hbond>
1.8080

> <Gold.PLP.Chemscore.CHOScore>
0.0000

> <Gold.PLP.Chemscore.Metal>
0.0000

> <Gold.Chemscore.Hbonds>
donor molecule, donor type, donor heavy atom, donor atom, acceptor molecule, acceptor atom, score
      L1  H     4    22       P1  7957  0.96
      P1  H  7989  7998       L1     4  0.84

> <Gold.PLP.Chemscore.Internal.Correction>
0.1590

> <Gold.Rescore>
     Score         DG    S(hbond)    S(metal)    S(lipo)     H(rot)  DE(clash)    DE(int)     intcor
     13.93     -14.16       1.31        0.00      87.35       2.31       0.02       0.22       ----

> <Gold.Chemscore.Fitness>
13.9256

> <Gold.Chemscore.DG>
-14.1587

> <Gold.Chemscore.ZeroCoef>
-5.4800

> <Gold.Chemscore.Hbond>
1.3098

> <Gold.Chemscore.Metal>
0.0000

> <Gold.Chemscore.Lipo>
87.3485

> <Gold.Chemscore.Internal_Hbond>
0.0000

> <Gold.Chemscore.DEClash>
0.0174

> <Gold.Chemscore.DEInternal>
0.2158

> <Gold.Chemscore.Rot>
2.3108

> <Gold.Chemscore.Internal.Correction>
   9.000000E+99

> <Gold.Chemscore.Hbonds>
donor molecule, donor type, donor heavy atom, donor atom, acceptor molecule, acceptor atom, score
      L1  H     4    22       P1  7957  0.92
      P1  H  7989  7998       L1     4  0.14

> <Gold.Chemscore.Hbond.Weighted>
-4.3746

> <Gold.Chemscore.Metal.Weighted>
-0.0000

> <Gold.Chemscore.Lipo.Weighted>
-10.2198

> <Gold.Chemscore.Internal_Hbond.Weighted>
0.0000

> <Gold.Chemscore.DEClash.Weighted>
0.0174

> <Gold.Chemscore.DEInternal.Weighted>
0.2158

> <Gold.Chemscore.Rot.Weighted>
5.9157

> <Gold.Chemscore.Internal.Correction.Weighted>
   9.000000E+99

> <Gold.Protein.RotatedTorsions>
[ 6907 6896 6895 6894 ] final -109.81 input  -60.11 | X-H torsion
[ 7974 7965 7964 7962 ] final   28.04 input  175.53 | X-H torsion
[ 8008 7997 7996 7995 ] final  174.82 input   59.86 | X-H torsion
[ 10167 10162 10161 10158 ] final  -39.92 input  -65.29 | X-H torsion
[ 10718 10713 10712 10709 ] final  -17.63 input   66.30 | X-H torsion
[ 10763 10752 10751 10750 ] final  -91.43 input  -60.55 | X-H torsion
[ 11005 11000 10999 10996 ] final  150.95 input  -57.11 | X-H torsion

> <Gold.Protein.ActiveResidues>
 VAL166  LYS551  ARG553  GLY616  TRP617  ASP618  TYR619  PRO620  LYS621  CYS622 
 ASP623  PHE694  ASN695  SER759  ASP760  ASP761  ALA762  ILE779  LEU786  VAL792 
 PHE793  MET794  SER795  GLU796  ALA797  LYS798  CYS799  TRP800  GLU811  SER814 

> <Gold.Protein.RotatedAtoms>
  150.7585  133.9474  159.3474 H   0  0  0  0  0  0  0  0  0  0  0  0  # atno 6907 bound_to 6896
  151.7388  135.0857  160.0321 H   0  0  0  0  0  0  0  0  0  0  0  0  # atno 6908 bound_to 6896
  152.3542  133.6179  159.6003 H   0  0  0  0  0  0  0  0  0  0  0  0  # atno 6909 bound_to 6896
  146.1751  139.7110  142.8940 H   0  0  0  0  0  0  0  0  0  0  0  0  # atno 7974 bound_to 7965
  156.0935  140.1425  156.9561 H   0  0  0  0  0  0  0  0  0  0  0  0  # atno 8008 bound_to 7997
  154.4657  140.0927  156.7059 H   0  0  0  0  0  0  0  0  0  0  0  0  # atno 8009 bound_to 7997
  155.4880  140.3447  155.4352 H   0  0  0  0  0  0  0  0  0  0  0  0  # atno 8010 bound_to 7997
  140.7050  143.3184  151.2851 H   0  0  0  0  0  0  0  0  0  0  0  0  # atno 10167 bound_to 10162
  156.5709  130.4749  149.6363 H   0  0  0  0  0  0  0  0  0  0  0  0  # atno 10718 bound_to 10713
  154.6760  135.5268  153.8200 H   0  0  0  0  0  0  0  0  0  0  0  0  # atno 10763 bound_to 10752
  153.0532  135.6540  154.0650 H   0  0  0  0  0  0  0  0  0  0  0  0  # atno 10764 bound_to 10752
  154.0543  135.2967  155.3315 H   0  0  0  0  0  0  0  0  0  0  0  0  # atno 10765 bound_to 10752
  140.1176  134.8884  157.2026 H   0  0  0  0  0  0  0  0  0  0  0  0  # atno 11005 bound_to 11000
  145.4233  141.0408  143.2951 LP  0  0  0  0  0  0  0  0  0  0  0  0  # atno 17320 bound_to 7965
  144.8224  139.5769  143.6981 LP  0  0  0  0  0  0  0  0  0  0  0  0  # atno 17321 bound_to 7965
  139.6631  144.0154  152.2705 LP  0  0  0  0  0  0  0  0  0  0  0  0  # atno 17342 bound_to 10162
  139.9728  144.6482  150.7973 LP  0  0  0  0  0  0  0  0  0  0  0  0  # atno 17343 bound_to 10162
  156.2716  130.7020  151.1819 LP  0  0  0  0  0  0  0  0  0  0  0  0  # atno 17370 bound_to 10713
  157.7348  131.0578  150.5503 LP  0  0  0  0  0  0  0  0  0  0  0  0  # atno 17371 bound_to 10713
  140.3007  134.3134  155.7290 LP  0  0  0  0  0  0  0  0  0  0  0  0  # atno 17394 bound_to 11000
  141.2144  133.7590  156.9637 LP  0  0  0  0  0  0  0  0  0  0  0  0  # atno 17395 bound_to 11000

$$$$
