AV-unprocessed.smi:2473|AV-procd|sdf|9744|dock10
  -GOLD-   2272013383D 1   1.00000     0.00000
 Structure written by MMmdl.
 48 49  0  0  0  0  0  0  0  0  2 V2000
  153.6999  141.6720  161.3425 C   0  0  0  0  0  0  0  0  0  0  0  0
  153.1617  142.2155  160.0112 C   0  0  1  0  0  0  0  0  0  0  0  0
  152.3627  141.1413  159.2537 C   0  0  0  0  0  0  0  0  0  0  0  0
  151.8239  141.6769  157.9133 C   0  0  1  0  0  0  0  0  0  0  0  0
  151.0312  140.5846  157.1836 C   0  0  0  0  0  0  0  0  0  0  0  0
  150.1821  139.9232  157.7816 O   0  0  0  0  0  0  0  0  0  0  0  0
  151.3366  140.3883  155.8923 N   0  0  0  0  0  0  0  0  0  0  0  0
  150.7548  139.3566  155.0393 C   0  0  0  0  0  0  0  0  0  0  0  0
  151.6937  138.1508  154.8306 C   0  0  0  0  0  0  0  0  0  0  0  0
  151.0681  136.8253  155.1575 C   0  0  0  0  0  0  0  0  0  0  0  0
  150.1606  136.1959  154.4013 N   0  3  0  0  0  0  0  0  0  0  0  0
  149.8027  135.0061  154.9736 C   0  0  0  0  0  0  0  0  0  0  0  0
  150.5221  134.9041  156.1350 C   0  0  0  0  0  0  0  0  0  0  0  0
  151.2887  136.0375  156.2248 N   0  0  0  0  0  0  0  0  0  0  0  0
  152.2145  136.3715  157.3093 C   0  0  0  0  0  0  0  0  0  0  0  0
  150.9617  142.9383  158.1463 C   0  0  0  0  0  0  0  0  0  0  0  0
  151.7024  144.0577  158.9196 C   0  0  0  0  0  0  0  0  0  0  0  0
  152.8028  144.7000  158.0467 C   0  0  0  0  0  0  0  0  0  0  0  0
  150.6900  145.1613  159.2842 C   0  0  0  0  0  0  0  0  0  0  0  0
  152.2983  143.4760  160.2267 C   0  0  0  0  0  0  0  0  0  0  0  0
  152.8886  141.3721  162.0065 H   0  0  0  0  0  0  0  0  0  0  0  0
  154.2941  142.4242  161.8619 H   0  0  0  0  0  0  0  0  0  0  0  0
  154.3379  140.8022  161.1827 H   0  0  0  0  0  0  0  0  0  0  0  0
  154.0267  142.4855  159.4051 H   0  0  0  0  0  0  0  0  0  0  0  0
  152.9985  140.2725  159.0759 H   0  0  0  0  0  0  0  0  0  0  0  0
  151.5363  140.7958  159.8775 H   0  0  0  0  0  0  0  0  0  0  0  0
  152.6735  141.9464  157.2848 H   0  0  0  0  0  0  0  0  0  0  0  0
  152.0389  140.9837  155.4772 H   0  0  0  0  0  0  0  0  0  0  0  0
  149.7957  139.0282  155.4426 H   0  0  0  0  0  0  0  0  0  0  0  0
  150.5408  139.8195  154.0756 H   0  0  0  0  0  0  0  0  0  0  0  0
  152.0456  138.1150  153.8003 H   0  0  0  0  0  0  0  0  0  0  0  0
  152.5787  138.2446  155.4606 H   0  0  0  0  0  0  0  0  0  0  0  0
  149.0815  134.3394  154.5239 H   0  0  0  0  0  0  0  0  0  0  0  0
  150.5421  134.1286  156.8872 H   0  0  0  0  0  0  0  0  0  0  0  0
  152.2636  135.5430  158.0163 H   0  0  0  0  0  0  0  0  0  0  0  0
  151.8590  137.2645  157.8236 H   0  0  0  0  0  0  0  0  0  0  0  0
  153.2081  136.5508  156.9008 H   0  0  0  0  0  0  0  0  0  0  0  0
  150.6044  143.3243  157.1903 H   0  0  0  0  0  0  0  0  0  0  0  0
  150.0678  142.6587  158.7068 H   0  0  0  0  0  0  0  0  0  0  0  0
  153.3061  145.5074  158.5795 H   0  0  0  0  0  0  0  0  0  0  0  0
  152.3827  145.1253  157.1344 H   0  0  0  0  0  0  0  0  0  0  0  0
  153.5706  143.9892  157.7451 H   0  0  0  0  0  0  0  0  0  0  0  0
  151.1673  145.9732  159.8343 H   0  0  0  0  0  0  0  0  0  0  0  0
  149.8832  144.7751  159.9080 H   0  0  0  0  0  0  0  0  0  0  0  0
  150.2342  145.5928  158.3923 H   0  0  0  0  0  0  0  0  0  0  0  0
  151.4848  143.2227  160.9084 H   0  0  0  0  0  0  0  0  0  0  0  0
  152.8857  144.2409  160.7367 H   0  0  0  0  0  0  0  0  0  0  0  0
  149.7931  136.5524  153.5281 H   0  0  0  0  0  0  0  0  0  0  0  0
  1  2  1  0  0  0  0
  1 21  1  0  0  0  0
  1 22  1  0  0  0  0
  1 23  1  0  0  0  0
  2 20  1  0  0  0  0
  2  3  1  0  0  0  0
  2 24  1  0  0  0  0
  3  4  1  0  0  0  0
  3 25  1  0  0  0  0
  3 26  1  0  0  0  0
  4  5  1  0  0  0  0
  4 16  1  0  0  0  0
  4 27  1  0  0  0  0
  5  6  2  0  0  0  0
  5  7  1  0  0  0  0
  7  8  1  0  0  0  0
  7 28  1  0  0  0  0
  8  9  1  0  0  0  0
  8 29  1  0  0  0  0
  8 30  1  0  0  0  0
  9 10  1  0  0  0  0
  9 31  1  0  0  0  0
  9 32  1  0  0  0  0
 10 14  1  0  0  0  0
 10 11  2  0  0  0  0
 11 12  1  0  0  0  0
 11 48  1  0  0  0  0
 12 13  2  0  0  0  0
 12 33  1  0  0  0  0
 13 14  1  0  0  0  0
 13 34  1  0  0  0  0
 14 15  1  0  0  0  0
 15 35  1  0  0  0  0
 15 36  1  0  0  0  0
 15 37  1  0  0  0  0
 16 17  1  0  0  0  0
 16 38  1  0  0  0  0
 16 39  1  0  0  0  0
 17 18  1  0  0  0  0
 17 19  1  0  0  0  0
 17 20  1  0  0  0  0
 18 40  1  0  0  0  0
 18 41  1  0  0  0  0
 18 42  1  0  0  0  0
 19 43  1  0  0  0  0
 19 44  1  0  0  0  0
 19 45  1  0  0  0  0
 20 46  1  0  0  0  0
 20 47  1  0  0  0  0
M  CHG  1  11   1
M  END
> <s_m_source_file>
AV-unprocessed.smi

> <i_m_source_file_index>
2473

> <i_lp_mmshare_version>
43012

> <i_f3d_flags>
0

> <s_epik_input>
W0NIM11bQ0BASF0oW0NIMl0xKVtDSDJdW0NASF0oW0NIMl1DMShbQ0gzXSlbQ0gzXSlDKD1PKVtOSF1bQ0gyXVtDSDJdYzJuW2NIXVtjSF1uMltDSDNd

> <s_epik_cmdline>
J2VwaWtfcHl0aG9uJywgJy1waCcsICc3LjAnLCAnLXRuJywgJzgnLCAnLW1hJywgJzIwMCcsICctbWV0YWxfYmluZGluZycsICctaW1hZScsICc8aW5maWxlLm1hZT4nLCAnLW9tYWUnLCAnPG91dGZpbGUubWFlPic=

> <r_lp_tautomer_probability>
1

> <r_epik_Ionization_Penalty>
0.0796112

> <r_epik_Ionization_Penalty_Charging>
0

> <r_epik_Ionization_Penalty_Neutral>
0.0796112

> <r_epik_State_Penalty>
0.0704541

> <r_epik_Charging_Adjusted_Penalty>
0.0704541

> <i_epik_Tot_Q>
1

> <i_epik_Tot_abs_Q>
1

> <r_epik_Metal_State_Penalty>
0.409899

> <b_epik_Metal_Only>
0

> <s_lp_Force_Field>
OPLS_2005

> <r_lp_Energy>
16.0975

> <b_lp_Chiralities_Consistent>
1

> <s_lp_Variant>
AV-unprocessed.smi:2473-2

> <Gold.Version>
5.8.1

> <Gold.Id.Protein>
6NUR|6NUR_protein|mol2

> <Gold.PLP.Fitness>
50.0110

> <Gold.PLP.PLP>
-45.9500

> <Gold.PLP.part.hbond>
-1.8436

> <Gold.PLP.part.metal>
0.0000

> <Gold.PLP.part.buried>
-5.8514

> <Gold.PLP.part.nonpolar>
-39.3281

> <Gold.PLP.part.repulsive>
0.2062

> <Gold.PLP.ligand.clash>
0.0000

> <Gold.PLP.ligand.torsion>
0.9578

> <Gold.PLP.Chemscore.Hbond>
1.9840

> <Gold.PLP.Chemscore.CHOScore>
0.0000

> <Gold.PLP.Chemscore.Metal>
0.0000

> <Gold.Chemscore.Hbonds>
donor molecule, donor type, donor heavy atom, donor atom, acceptor molecule, acceptor atom, score
      L1  H    11    48       P1  7948  1.98

> <Gold.PLP.Chemscore.Internal.Correction>
0.0246

> <Gold.Rescore>
     Score         DG    S(hbond)    S(metal)    S(lipo)     H(rot)  DE(clash)    DE(int)     intcor
     17.55     -18.47       0.75        0.00     124.38       1.58       0.11       0.82       ----

> <Gold.Chemscore.Fitness>
17.5467

> <Gold.Chemscore.DG>
-18.4741

> <Gold.Chemscore.ZeroCoef>
-5.4800

> <Gold.Chemscore.Hbond>
0.7459

> <Gold.Chemscore.Metal>
0.0000

> <Gold.Chemscore.Lipo>
124.3796

> <Gold.Chemscore.Internal_Hbond>
0.0000

> <Gold.Chemscore.DEClash>
0.1112

> <Gold.Chemscore.DEInternal>
0.8162

> <Gold.Chemscore.Rot>
1.5818

> <Gold.Chemscore.Internal.Correction>
   9.000000E+99

> <Gold.Chemscore.Hbonds>
donor molecule, donor type, donor heavy atom, donor atom, acceptor molecule, acceptor atom, score
      L1  H    11    48       P1  7948  0.32

> <Gold.Chemscore.Hbond.Weighted>
-2.4912

> <Gold.Chemscore.Metal.Weighted>
-0.0000

> <Gold.Chemscore.Lipo.Weighted>
-14.5524

> <Gold.Chemscore.Internal_Hbond.Weighted>
0.0000

> <Gold.Chemscore.DEClash.Weighted>
0.1112

> <Gold.Chemscore.DEInternal.Weighted>
0.8162

> <Gold.Chemscore.Rot.Weighted>
4.0495

> <Gold.Chemscore.Internal.Correction.Weighted>
   9.000000E+99

> <Gold.Protein.RotatedTorsions>
[ 6907 6896 6895 6894 ] final   64.39 input  -60.11 | X-H torsion
[ 7974 7965 7964 7962 ] final   68.27 input  175.53 | X-H torsion
[ 8008 7997 7996 7995 ] final -127.19 input   59.86 | X-H torsion
[ 10167 10162 10161 10158 ] final   76.73 input  -65.29 | X-H torsion
[ 10718 10713 10712 10709 ] final  -72.67 input   66.30 | X-H torsion
[ 10763 10752 10751 10750 ] final   16.48 input  -60.55 | X-H torsion
[ 11005 11000 10999 10996 ] final   42.35 input  -57.11 | X-H torsion

> <Gold.Protein.ActiveResidues>
 VAL166  LYS551  ARG553  GLY616  TRP617  ASP618  TYR619  PRO620  LYS621  CYS622 
 ASP623  PHE694  ASN695  SER759  ASP760  ASP761  ALA762  ILE779  LEU786  VAL792 
 PHE793  MET794  SER795  GLU796  ALA797  LYS798  CYS799  TRP800  GLU811  SER814 

> <Gold.Protein.RotatedAtoms>
  152.4328  134.5744  159.9930 H   0  0  0  0  0  0  0  0  0  0  0  0  # atno 6907 bound_to 6896
  151.5863  133.3366  159.3026 H   0  0  0  0  0  0  0  0  0  0  0  0  # atno 6908 bound_to 6896
  150.8223  134.7472  159.6847 H   0  0  0  0  0  0  0  0  0  0  0  0  # atno 6909 bound_to 6896
  145.8046  139.3000  143.1135 H   0  0  0  0  0  0  0  0  0  0  0  0  # atno 7974 bound_to 7965
  155.2421  140.0429  157.2976 H   0  0  0  0  0  0  0  0  0  0  0  0  # atno 8008 bound_to 7997
  154.5822  140.2403  155.8008 H   0  0  0  0  0  0  0  0  0  0  0  0  # atno 8009 bound_to 7997
  156.2201  140.2972  155.9939 H   0  0  0  0  0  0  0  0  0  0  0  0  # atno 8010 bound_to 7997
  139.9891  144.5770  150.7833 H   0  0  0  0  0  0  0  0  0  0  0  0  # atno 10167 bound_to 10162
  156.0311  130.4377  150.2627 H   0  0  0  0  0  0  0  0  0  0  0  0  # atno 10718 bound_to 10713
  153.1427  135.6763  153.9002 H   0  0  0  0  0  0  0  0  0  0  0  0  # atno 10763 bound_to 10752
  153.8453  135.3100  155.3430 H   0  0  0  0  0  0  0  0  0  0  0  0  # atno 10764 bound_to 10752
  154.7800  135.4893  153.9910 H   0  0  0  0  0  0  0  0  0  0  0  0  # atno 10765 bound_to 10752
  140.1747  134.4178  155.8236 H   0  0  0  0  0  0  0  0  0  0  0  0  # atno 11005 bound_to 11000
  145.9842  140.8657  143.0099 LP  0  0  0  0  0  0  0  0  0  0  0  0  # atno 17320 bound_to 7965
  144.6764  140.2123  143.7375 LP  0  0  0  0  0  0  0  0  0  0  0  0  # atno 17321 bound_to 7965
  140.7461  143.2886  151.3394 LP  0  0  0  0  0  0  0  0  0  0  0  0  # atno 17342 bound_to 10162
  139.6353  144.0642  152.2510 LP  0  0  0  0  0  0  0  0  0  0  0  0  # atno 17343 bound_to 10162
  157.0729  131.0122  151.3184 LP  0  0  0  0  0  0  0  0  0  0  0  0  # atno 17370 bound_to 10713
  157.4986  130.7866  149.7581 LP  0  0  0  0  0  0  0  0  0  0  0  0  # atno 17371 bound_to 10713
  141.2219  133.6972  156.7825 LP  0  0  0  0  0  0  0  0  0  0  0  0  # atno 17394 bound_to 11000
  140.2336  134.8667  157.3502 LP  0  0  0  0  0  0  0  0  0  0  0  0  # atno 17395 bound_to 11000

$$$$
