AV-unprocessed.smi:246|AV-procd|sdf|1882|dock7
  -GOLD-   2262020533D 1   1.00000     0.00000
 Structure written by MMmdl.
 57 60  0  0  0  0  0  0  0  0  1 V2000
  144.5947  132.0280  150.2488 C   0  0  0  0  0  0  0  0  0  0  0  0
  145.7930  131.1655  150.6686 C   0  0  0  0  0  0  0  0  0  0  0  0
  146.1054  131.3379  152.0433 O   0  0  0  0  0  0  0  0  0  0  0  0
  146.2667  132.6914  152.4419 C   0  0  0  0  0  0  0  0  0  0  0  0
  147.5290  132.8022  153.3015 C   0  0  0  0  0  0  0  0  0  0  0  0
  147.7848  134.1759  153.5538 O   0  0  0  0  0  0  0  0  0  0  0  0
  148.2284  134.4549  154.8755 C   0  0  1  0  0  0  0  0  0  0  0  0
  149.6119  133.8284  155.0614 C   0  0  0  0  0  0  0  0  0  0  0  0
  150.5837  134.8844  154.5300 C   0  0  0  0  0  0  0  0  0  0  0  0
  149.8819  136.1518  154.6575 N   0  0  0  0  0  0  0  0  0  0  0  0
  150.5259  137.3383  154.7997 C   0  0  0  0  0  0  0  0  0  0  0  0
  151.7844  137.4576  154.2993 N   0  0  0  0  0  0  0  0  0  0  0  0
  152.4549  138.6072  154.4141 C   0  0  0  0  0  0  0  0  0  0  0  0
  152.0658  139.7452  154.9901 N   0  0  0  0  0  0  0  0  0  0  0  0
  150.8099  139.6313  155.5079 C   0  0  0  0  0  0  0  0  0  0  0  0
  149.9754  138.4775  155.4579 C   0  0  0  0  0  0  0  0  0  0  0  0
  148.7724  138.7456  156.1031 N   0  0  0  0  0  0  0  0  0  0  0  0
  148.8886  139.9805  156.5069 C   0  0  0  0  0  0  0  0  0  0  0  0
  150.0849  140.5853  156.1995 N   0  0  0  0  0  0  0  0  0  0  0  0
  150.4857  141.9392  156.5370 C   0  0  0  0  0  0  0  0  0  0  0  0
  150.7453  142.1437  158.0457 C   0  0  1  0  0  0  0  0  0  0  0  0
  152.0082  141.5746  158.3281 O   0  0  0  0  0  0  0  0  0  0  0  0
  150.7390  143.6187  158.5098 C   0  0  2  0  0  0  0  0  0  0  0  0
  151.9551  144.4277  158.0488 C   0  0  0  0  0  0  0  0  0  0  0  0
  152.0102  145.5287  159.0819 C   0  0  0  0  0  0  0  0  0  0  0  0
  151.6371  144.7734  160.3515 C   0  0  0  0  0  0  0  0  0  0  0  0
  150.7833  143.7128  159.9340 O   0  0  0  0  0  0  0  0  0  0  0  0
  148.4989  135.9539  155.0681 C   0  0  0  0  0  0  0  0  0  0  0  0
  147.5207  134.0624  155.6075 H   0  0  0  0  0  0  0  0  0  0  0  0
  144.4314  131.9625  149.1731 H   0  0  0  0  0  0  0  0  0  0  0  0
  144.7634  133.0765  150.4961 H   0  0  0  0  0  0  0  0  0  0  0  0
  143.6741  131.7115  150.7381 H   0  0  0  0  0  0  0  0  0  0  0  0
  145.6245  130.1136  150.4325 H   0  0  0  0  0  0  0  0  0  0  0  0
  146.6659  131.4759  150.0938 H   0  0  0  0  0  0  0  0  0  0  0  0
  146.3360  133.3625  151.5856 H   0  0  0  0  0  0  0  0  0  0  0  0
  145.3986  132.9964  153.0280 H   0  0  0  0  0  0  0  0  0  0  0  0
  147.3750  132.2755  154.2431 H   0  0  0  0  0  0  0  0  0  0  0  0
  148.3726  132.3296  152.7958 H   0  0  0  0  0  0  0  0  0  0  0  0
  149.7964  133.6765  156.1255 H   0  0  0  0  0  0  0  0  0  0  0  0
  149.7183  132.8630  154.5659 H   0  0  0  0  0  0  0  0  0  0  0  0
  151.5191  134.8700  155.0903 H   0  0  0  0  0  0  0  0  0  0  0  0
  150.8070  134.7099  153.4771 H   0  0  0  0  0  0  0  0  0  0  0  0
  153.4457  138.6159  153.9844 H   0  0  0  0  0  0  0  0  0  0  0  0
  148.1037  140.4825  157.0538 H   0  0  0  0  0  0  0  0  0  0  0  0
  151.3830  142.1778  155.9643 H   0  0  0  0  0  0  0  0  0  0  0  0
  149.7073  142.6226  156.1945 H   0  0  0  0  0  0  0  0  0  0  0  0
  150.0033  141.5879  158.6198 H   0  0  0  0  0  0  0  0  0  0  0  0
  151.9000  140.6410  158.4271 H   0  0  0  0  0  0  0  0  0  0  0  0
  149.8298  144.1176  158.1698 H   0  0  0  0  0  0  0  0  0  0  0  0
  152.8628  143.8241  158.1016 H   0  0  0  0  0  0  0  0  0  0  0  0
  151.8541  144.8055  157.0308 H   0  0  0  0  0  0  0  0  0  0  0  0
  152.9843  146.0143  159.1440 H   0  0  0  0  0  0  0  0  0  0  0  0
  151.2600  146.2890  158.8601 H   0  0  0  0  0  0  0  0  0  0  0  0
  152.5247  144.3396  160.8135 H   0  0  0  0  0  0  0  0  0  0  0  0
  151.1490  145.4120  161.0879 H   0  0  0  0  0  0  0  0  0  0  0  0
  147.8180  136.5857  154.4982 H   0  0  0  0  0  0  0  0  0  0  0  0
  148.4015  136.2163  156.1225 H   0  0  0  0  0  0  0  0  0  0  0  0
  1  2  1  0  0  0  0
  1 30  1  0  0  0  0
  1 31  1  0  0  0  0
  1 32  1  0  0  0  0
  2  3  1  0  0  0  0
  2 33  1  0  0  0  0
  2 34  1  0  0  0  0
  3  4  1  0  0  0  0
  4  5  1  0  0  0  0
  4 35  1  0  0  0  0
  4 36  1  0  0  0  0
  5  6  1  0  0  0  0
  5 37  1  0  0  0  0
  5 38  1  0  0  0  0
  6  7  1  0  0  0  0
  7 29  1  0  0  0  0
  7 28  1  0  0  0  0
  7  8  1  0  0  0  0
  8  9  1  0  0  0  0
  8 39  1  0  0  0  0
  8 40  1  0  0  0  0
  9 10  1  0  0  0  0
  9 41  1  0  0  0  0
  9 42  1  0  0  0  0
 10 11  1  0  0  0  0
 10 28  1  0  0  0  0
 11 16  1  0  0  0  0
 11 12  2  0  0  0  0
 12 13  1  0  0  0  0
 13 14  2  0  0  0  0
 13 43  1  0  0  0  0
 14 15  1  0  0  0  0
 15 19  1  0  0  0  0
 15 16  2  0  0  0  0
 16 17  1  0  0  0  0
 17 18  2  0  0  0  0
 18 19  1  0  0  0  0
 18 44  1  0  0  0  0
 19 20  1  0  0  0  0
 20 21  1  0  0  0  0
 20 45  1  0  0  0  0
 20 46  1  0  0  0  0
 21 22  1  0  0  0  0
 21 23  1  0  0  0  0
 21 47  1  0  0  0  0
 22 48  1  0  0  0  0
 23 27  1  0  0  0  0
 23 24  1  0  0  0  0
 23 49  1  0  0  0  0
 24 25  1  0  0  0  0
 24 50  1  0  0  0  0
 24 51  1  0  0  0  0
 25 26  1  0  0  0  0
 25 52  1  0  0  0  0
 25 53  1  0  0  0  0
 26 27  1  0  0  0  0
 26 54  1  0  0  0  0
 26 55  1  0  0  0  0
 28 56  1  0  0  0  0
 28 57  1  0  0  0  0
M  END
> <s_m_source_file>
AV-unprocessed.smi

> <i_m_source_file_index>
246

> <i_lp_mmshare_version>
43012

> <i_f3d_flags>
0

> <s_epik_input>
W0NIM11bQ0gyXU9bQ0gyXVtDSDJdT1tDQEhdMVtDSDJdW0NIMl1OKFtDSDJdMSljKG5bY0hdbjIpYyhjMjMpbltjSF1uM1tDSDJdW0NASF0oW09IXSlbQ0BASF00W0NIMl1bQ0gyXVtDSDJdTzQ=

> <s_epik_cmdline>
J2VwaWtfcHl0aG9uJywgJy1waCcsICc3LjAnLCAnLXRuJywgJzgnLCAnLW1hJywgJzIwMCcsICctbWV0YWxfYmluZGluZycsICctaW1hZScsICc8aW5maWxlLm1hZT4nLCAnLW9tYWUnLCAnPG91dGZpbGUubWFlPic=

> <r_lp_tautomer_probability>
1

> <r_epik_Ionization_Penalty>
0.0024631

> <r_epik_Ionization_Penalty_Charging>
0

> <r_epik_Ionization_Penalty_Neutral>
0.0024631

> <r_epik_State_Penalty>
0.00162428

> <r_epik_Charging_Adjusted_Penalty>
0.00162428

> <i_epik_Tot_Q>
0

> <i_epik_Tot_abs_Q>
0

> <r_epik_Metal_State_Penalty>
-0

> <b_epik_Metal_Only>
0

> <s_lp_Force_Field>
OPLS_2005

> <r_lp_Energy>
52.0053

> <b_lp_Chiralities_Consistent>
1

> <s_lp_Variant>
AV-unprocessed.smi:246-3

> <Gold.Version>
5.8.1

> <Gold.Id.Protein>
6NUR|6NUR_protein|mol2

> <Gold.PLP.Fitness>
50.2766

> <Gold.PLP.PLP>
-46.8358

> <Gold.PLP.part.hbond>
-2.2578

> <Gold.PLP.part.metal>
0.0000

> <Gold.PLP.part.buried>
-8.4161

> <Gold.PLP.part.nonpolar>
-38.0949

> <Gold.PLP.part.repulsive>
0.8984

> <Gold.PLP.ligand.clash>
0.0000

> <Gold.PLP.ligand.torsion>
1.1546

> <Gold.PLP.Chemscore.Hbond>
1.7815

> <Gold.PLP.Chemscore.CHOScore>
0.0000

> <Gold.PLP.Chemscore.Metal>
0.0000

> <Gold.Chemscore.Hbonds>
donor molecule, donor type, donor heavy atom, donor atom, acceptor molecule, acceptor atom, score
      P1  H  7989  7998       L1    14  0.82
      P1  H 10752 10764       L1    12  0.74

> <Gold.PLP.Chemscore.Internal.Correction>
0.4054

> <Gold.Rescore>
     Score         DG    S(hbond)    S(metal)    S(lipo)     H(rot)  DE(clash)    DE(int)     intcor
      9.94     -13.11       0.65        0.00     114.56       3.10       0.87       2.30       ----

> <Gold.Chemscore.Fitness>
9.9445

> <Gold.Chemscore.DG>
-13.1109

> <Gold.Chemscore.ZeroCoef>
-5.4800

> <Gold.Chemscore.Hbond>
0.6497

> <Gold.Chemscore.Metal>
0.0000

> <Gold.Chemscore.Lipo>
114.5593

> <Gold.Chemscore.Internal_Hbond>
0.0000

> <Gold.Chemscore.DEClash>
0.8653

> <Gold.Chemscore.DEInternal>
2.3011

> <Gold.Chemscore.Rot>
3.1026

> <Gold.Chemscore.Internal.Correction>
   9.000000E+99

> <Gold.Chemscore.Hbonds>
donor molecule, donor type, donor heavy atom, donor atom, acceptor molecule, acceptor atom, score
      P1  H  7989  7998       L1    14  0.07
      P1  H 10752 10764       L1    12  0.62

> <Gold.Chemscore.Hbond.Weighted>
-2.1701

> <Gold.Chemscore.Metal.Weighted>
-0.0000

> <Gold.Chemscore.Lipo.Weighted>
-13.4034

> <Gold.Chemscore.Internal_Hbond.Weighted>
0.0000

> <Gold.Chemscore.DEClash.Weighted>
0.8653

> <Gold.Chemscore.DEInternal.Weighted>
2.3011

> <Gold.Chemscore.Rot.Weighted>
7.9426

> <Gold.Chemscore.Internal.Correction.Weighted>
   9.000000E+99

> <Gold.Protein.RotatedTorsions>
[ 6907 6896 6895 6894 ] final  -31.40 input  -60.11 | X-H torsion
[ 7974 7965 7964 7962 ] final -118.40 input  175.53 | X-H torsion
[ 8008 7997 7996 7995 ] final  -58.17 input   59.86 | X-H torsion
[ 10167 10162 10161 10158 ] final  100.47 input  -65.29 | X-H torsion
[ 10718 10713 10712 10709 ] final  119.81 input   66.30 | X-H torsion
[ 10763 10752 10751 10750 ] final  -76.67 input  -60.55 | X-H torsion
[ 11005 11000 10999 10996 ] final  -37.55 input  -57.11 | X-H torsion

> <Gold.Protein.ActiveResidues>
 VAL166  LYS551  ARG553  GLY616  TRP617  ASP618  TYR619  PRO620  LYS621  CYS622 
 ASP623  PHE694  ASN695  SER759  ASP760  ASP761  ALA762  ILE779  LEU786  VAL792 
 PHE793  MET794  SER795  GLU796  ALA797  LYS798  CYS799  TRP800  GLU811  SER814 

> <Gold.Protein.RotatedAtoms>
  151.0926  134.9925  159.8409 H   0  0  0  0  0  0  0  0  0  0  0  0  # atno 6907 bound_to 6896
  152.5430  134.2047  159.8736 H   0  0  0  0  0  0  0  0  0  0  0  0  # atno 6908 bound_to 6896
  151.2084  133.4526  159.2631 H   0  0  0  0  0  0  0  0  0  0  0  0  # atno 6909 bound_to 6896
  145.0743  140.8381  143.4077 H   0  0  0  0  0  0  0  0  0  0  0  0  # atno 7974 bound_to 7965
  154.4297  140.1090  156.5914 H   0  0  0  0  0  0  0  0  0  0  0  0  # atno 8008 bound_to 7997
  155.6008  140.3493  155.4574 H   0  0  0  0  0  0  0  0  0  0  0  0  # atno 8009 bound_to 7997
  156.0175  140.1232  157.0381 H   0  0  0  0  0  0  0  0  0  0  0  0  # atno 8010 bound_to 7997
  139.7524  144.6980  151.0412 H   0  0  0  0  0  0  0  0  0  0  0  0  # atno 10167 bound_to 10162
  157.5936  131.1061  150.7947 H   0  0  0  0  0  0  0  0  0  0  0  0  # atno 10718 bound_to 10713
  154.5029  135.5790  153.6545 H   0  0  0  0  0  0  0  0  0  0  0  0  # atno 10763 bound_to 10752
  152.9882  135.6140  154.2979 H   0  0  0  0  0  0  0  0  0  0  0  0  # atno 10764 bound_to 10752
  154.2888  135.2849  155.2643 H   0  0  0  0  0  0  0  0  0  0  0  0  # atno 10765 bound_to 10752
  140.9960  133.6980  156.1936 H   0  0  0  0  0  0  0  0  0  0  0  0  # atno 11005 bound_to 11000
  145.1255  139.2666  143.5566 LP  0  0  0  0  0  0  0  0  0  0  0  0  # atno 17320 bound_to 7965
  146.3529  140.0891  142.8613 LP  0  0  0  0  0  0  0  0  0  0  0  0  # atno 17321 bound_to 7965
  140.7799  143.4793  151.0040 LP  0  0  0  0  0  0  0  0  0  0  0  0  # atno 17342 bound_to 10162
  139.8480  143.7475  152.3179 LP  0  0  0  0  0  0  0  0  0  0  0  0  # atno 17343 bound_to 10162
  156.8364  130.5033  149.5326 LP  0  0  0  0  0  0  0  0  0  0  0  0  # atno 17370 bound_to 10713
  156.0994  130.5957  150.9869 LP  0  0  0  0  0  0  0  0  0  0  0  0  # atno 17371 bound_to 10713
  140.6964  134.4610  157.5587 LP  0  0  0  0  0  0  0  0  0  0  0  0  # atno 17394 bound_to 11000
  139.9015  134.8545  156.1876 LP  0  0  0  0  0  0  0  0  0  0  0  0  # atno 17395 bound_to 11000

$$$$
