AV-unprocessed.smi:2379|AV-procd|sdf|9452|dock5
  -GOLD-   2272013 83D 1   1.00000     0.00000
 Structure written by MMmdl.
 53 55  0  0  0  0  0  0  0  0  2 V2000
  153.9977  140.8969  161.0938 C   0  0  0  0  0  0  0  0  0  0  0  0
  153.1585  141.4502  159.9611 C   0  0  0  0  0  0  0  0  0  0  0  0
  153.0572  142.8382  159.7476 C   0  0  0  0  0  0  0  0  0  0  0  0
  152.2604  143.2896  158.6771 C   0  0  0  0  0  0  0  0  0  0  0  0
  152.1112  144.7682  158.3860 C   0  0  0  0  0  0  0  0  0  0  0  0
  151.5890  142.4550  157.8554 N   0  0  0  0  0  0  0  0  0  0  0  0
  151.6769  141.1163  158.0531 C   0  0  0  0  0  0  0  0  0  0  0  0
  151.0122  140.1565  157.2442 N   0  0  0  0  0  0  0  0  0  0  0  0
  149.8081  140.2607  156.6543 C   0  0  0  0  0  0  0  0  0  0  0  0
  149.0534  141.2301  156.7389 O   0  0  0  0  0  0  0  0  0  0  0  0
  149.5123  139.1573  155.9514 N   0  0  0  0  0  0  0  0  0  0  0  0
  148.2667  138.9381  155.2212 C   0  0  2  0  0  0  0  0  0  0  0  0
  147.8589  137.4590  155.3119 C   0  0  0  0  0  0  0  0  0  0  0  0
  146.5905  137.1781  154.4878 C   0  0  0  0  0  0  0  0  0  0  0  0
  146.7670  137.5859  153.0695 N   0  3  1  0  0  0  0  0  0  0  0  0
  145.6134  137.2033  152.2132 C   0  0  0  0  0  0  0  0  0  0  0  0
  145.8536  135.8758  151.4675 C   0  0  1  0  0  0  0  0  0  0  0  0
  145.9881  134.6827  152.3934 C   0  0  0  0  0  0  0  0  0  0  0  0
  145.7557  133.5111  151.4449 C   0  0  0  0  0  0  0  0  0  0  0  0
  144.8576  133.9930  150.4509 O   0  0  0  0  0  0  0  0  0  0  0  0
  144.7085  135.4038  150.5687 C   0  0  0  0  0  0  0  0  0  0  0  0
  147.1234  139.0252  152.9606 C   0  0  0  0  0  0  0  0  0  0  0  0
  148.4098  139.3387  153.7413 C   0  0  0  0  0  0  0  0  0  0  0  0
  152.4600  140.5799  159.1000 C   0  0  0  0  0  0  0  0  0  0  0  0
  154.5616  141.6863  161.5917 H   0  0  0  0  0  0  0  0  0  0  0  0
  154.7062  140.1596  160.7157 H   0  0  0  0  0  0  0  0  0  0  0  0
  153.3601  140.4134  161.8340 H   0  0  0  0  0  0  0  0  0  0  0  0
  153.5764  143.5381  160.3861 H   0  0  0  0  0  0  0  0  0  0  0  0
  152.8040  145.3605  158.9842 H   0  0  0  0  0  0  0  0  0  0  0  0
  151.0965  145.0972  158.6113 H   0  0  0  0  0  0  0  0  0  0  0  0
  152.3131  144.9715  157.3340 H   0  0  0  0  0  0  0  0  0  0  0  0
  151.5091  139.2894  157.1048 H   0  0  0  0  0  0  0  0  0  0  0  0
  150.1898  138.4091  155.9349 H   0  0  0  0  0  0  0  0  0  0  0  0
  147.4789  139.5398  155.6790 H   0  0  0  0  0  0  0  0  0  0  0  0
  148.6715  136.8263  154.9511 H   0  0  0  0  0  0  0  0  0  0  0  0
  147.6896  137.1808  156.3530 H   0  0  0  0  0  0  0  0  0  0  0  0
  146.3654  136.1120  154.5395 H   0  0  0  0  0  0  0  0  0  0  0  0
  145.7368  137.7057  154.9165 H   0  0  0  0  0  0  0  0  0  0  0  0
  144.7320  137.0653  152.8411 H   0  0  0  0  0  0  0  0  0  0  0  0
  145.3575  138.0087  151.5229 H   0  0  0  0  0  0  0  0  0  0  0  0
  146.7665  135.9488  150.8736 H   0  0  0  0  0  0  0  0  0  0  0  0
  146.9557  134.6345  152.8943 H   0  0  0  0  0  0  0  0  0  0  0  0
  145.2095  134.7029  153.1578 H   0  0  0  0  0  0  0  0  0  0  0  0
  146.6885  133.2226  150.9591 H   0  0  0  0  0  0  0  0  0  0  0  0
  145.3541  132.6353  151.9550 H   0  0  0  0  0  0  0  0  0  0  0  0
  143.7421  135.6075  151.0318 H   0  0  0  0  0  0  0  0  0  0  0  0
  144.7231  135.8795  149.5880 H   0  0  0  0  0  0  0  0  0  0  0  0
  147.2635  139.3051  151.9181 H   0  0  0  0  0  0  0  0  0  0  0  0
  146.3008  139.6345  153.3390 H   0  0  0  0  0  0  0  0  0  0  0  0
  148.6360  140.4023  153.6560 H   0  0  0  0  0  0  0  0  0  0  0  0
  149.2490  138.8071  153.2899 H   0  0  0  0  0  0  0  0  0  0  0  0
  152.5235  139.5111  159.2466 H   0  0  0  0  0  0  0  0  0  0  0  0
  147.5583  137.0595  152.7274 H   0  0  0  0  0  0  0  0  0  0  0  0
  1  2  1  0  0  0  0
  1 25  1  0  0  0  0
  1 26  1  0  0  0  0
  1 27  1  0  0  0  0
  2 24  1  0  0  0  0
  2  3  2  0  0  0  0
  3  4  1  0  0  0  0
  3 28  1  0  0  0  0
  4  5  1  0  0  0  0
  4  6  2  0  0  0  0
  5 29  1  0  0  0  0
  5 30  1  0  0  0  0
  5 31  1  0  0  0  0
  6  7  1  0  0  0  0
  7  8  1  0  0  0  0
  7 24  2  0  0  0  0
  8  9  1  0  0  0  0
  8 32  1  0  0  0  0
  9 10  2  0  0  0  0
  9 11  1  0  0  0  0
 11 12  1  0  0  0  0
 11 33  1  0  0  0  0
 12 23  1  0  0  0  0
 12 13  1  0  0  0  0
 12 34  1  0  0  0  0
 13 14  1  0  0  0  0
 13 35  1  0  0  0  0
 13 36  1  0  0  0  0
 14 15  1  0  0  0  0
 14 37  1  0  0  0  0
 14 38  1  0  0  0  0
 15 16  1  0  0  0  0
 15 22  1  0  0  0  0
 15 53  1  0  0  0  0
 16 17  1  0  0  0  0
 16 39  1  0  0  0  0
 16 40  1  0  0  0  0
 17 21  1  0  0  0  0
 17 18  1  0  0  0  0
 17 41  1  0  0  0  0
 18 19  1  0  0  0  0
 18 42  1  0  0  0  0
 18 43  1  0  0  0  0
 19 20  1  0  0  0  0
 19 44  1  0  0  0  0
 19 45  1  0  0  0  0
 20 21  1  0  0  0  0
 21 46  1  0  0  0  0
 21 47  1  0  0  0  0
 22 23  1  0  0  0  0
 22 48  1  0  0  0  0
 22 49  1  0  0  0  0
 23 50  1  0  0  0  0
 23 51  1  0  0  0  0
 24 52  1  0  0  0  0
M  CHG  1  15   1
M  END
> <s_m_source_file>
AV-unprocessed.smi

> <i_m_source_file_index>
2379

> <i_lp_mmshare_version>
43012

> <i_f3d_flags>
0

> <s_epik_input>
W0NIM11jMVtjSF1jKFtDSDNdKW5jKFtjSF0xKVtOSF1DKD1PKVtOSF1bQ0hdMltDSDJdW0NIMl1OKFtDSDJdW0NIMl0yKVtDSDJdW0NAQEhdM1tDSDJdW0NIMl1PW0NIMl0z

> <s_epik_cmdline>
J2VwaWtfcHl0aG9uJywgJy1waCcsICc3LjAnLCAnLXRuJywgJzgnLCAnLW1hJywgJzIwMCcsICctbWV0YWxfYmluZGluZycsICctaW1hZScsICc8aW5maWxlLm1hZT4nLCAnLW9tYWUnLCAnPG91dGZpbGUubWFlPic=

> <r_epik_Ionization_Penalty>
0.00766556

> <r_epik_Ionization_Penalty_Charging>
0.00747775

> <r_epik_Ionization_Penalty_Neutral>
0.00018781

> <r_epik_State_Penalty>
0.00558817

> <r_epik_Charging_Adjusted_Penalty>
0.0130659

> <i_epik_Tot_Q>
1

> <i_epik_Tot_abs_Q>
1

> <r_epik_Metal_State_Penalty>
-0

> <b_epik_Metal_Only>
0

> <s_lp_Force_Field>
OPLS_2005

> <r_lp_Energy>
35.6798

> <b_lp_Chiralities_Consistent>
1

> <s_lp_Variant>
AV-unprocessed.smi:2379-2

> <Gold.Version>
5.8.1

> <Gold.Id.Protein>
6NUR|6NUR_protein|mol2

> <Gold.PLP.Fitness>
43.8903

> <Gold.PLP.PLP>
-40.1477

> <Gold.PLP.part.hbond>
-1.0000

> <Gold.PLP.part.metal>
0.0000

> <Gold.PLP.part.buried>
-2.8228

> <Gold.PLP.part.nonpolar>
-36.6520

> <Gold.PLP.part.repulsive>
0.3668

> <Gold.PLP.ligand.clash>
0.0000

> <Gold.PLP.ligand.torsion>
1.1547

> <Gold.PLP.Chemscore.Hbond>
2.0000

> <Gold.PLP.Chemscore.CHOScore>
0.0000

> <Gold.PLP.Chemscore.Metal>
0.0000

> <Gold.Chemscore.Hbonds>
donor molecule, donor type, donor heavy atom, donor atom, acceptor molecule, acceptor atom, score
      L1  H    15    53       P1  7948  2.00

> <Gold.PLP.Chemscore.Internal.Correction>
0.0520

> <Gold.Rescore>
     Score         DG    S(hbond)    S(metal)    S(lipo)     H(rot)  DE(clash)    DE(int)     intcor
     15.73     -18.22       1.00        0.00     110.34       1.37       0.60       1.89       ----

> <Gold.Chemscore.Fitness>
15.7270

> <Gold.Chemscore.DG>
-18.2160

> <Gold.Chemscore.ZeroCoef>
-5.4800

> <Gold.Chemscore.Hbond>
1.0000

> <Gold.Chemscore.Metal>
0.0000

> <Gold.Chemscore.Lipo>
110.3385

> <Gold.Chemscore.Internal_Hbond>
0.0000

> <Gold.Chemscore.DEClash>
0.5988

> <Gold.Chemscore.DEInternal>
1.8902

> <Gold.Chemscore.Rot>
1.3725

> <Gold.Chemscore.Internal.Correction>
   9.000000E+99

> <Gold.Chemscore.Hbonds>
donor molecule, donor type, donor heavy atom, donor atom, acceptor molecule, acceptor atom, score
      L1  H    15    53       P1  7948  1.00

> <Gold.Chemscore.Hbond.Weighted>
-3.3399

> <Gold.Chemscore.Metal.Weighted>
-0.0000

> <Gold.Chemscore.Lipo.Weighted>
-12.9096

> <Gold.Chemscore.Internal_Hbond.Weighted>
0.0000

> <Gold.Chemscore.DEClash.Weighted>
0.5988

> <Gold.Chemscore.DEInternal.Weighted>
1.8902

> <Gold.Chemscore.Rot.Weighted>
3.5136

> <Gold.Chemscore.Internal.Correction.Weighted>
   9.000000E+99

> <Gold.Protein.RotatedTorsions>
[ 6907 6896 6895 6894 ] final  140.93 input  -60.11 | X-H torsion
[ 7974 7965 7964 7962 ] final -113.57 input  175.53 | X-H torsion
[ 8008 7997 7996 7995 ] final  -40.05 input   59.86 | X-H torsion
[ 10167 10162 10161 10158 ] final  169.70 input  -65.29 | X-H torsion
[ 10718 10713 10712 10709 ] final   59.53 input   66.30 | X-H torsion
[ 10763 10752 10751 10750 ] final    2.99 input  -60.55 | X-H torsion
[ 11005 11000 10999 10996 ] final -128.82 input  -57.11 | X-H torsion

> <Gold.Protein.ActiveResidues>
 VAL166  LYS551  ARG553  GLY616  TRP617  ASP618  TYR619  PRO620  LYS621  CYS622 
 ASP623  PHE694  ASN695  SER759  ASP760  ASP761  ALA762  ILE779  LEU786  VAL792 
 PHE793  MET794  SER795  GLU796  ALA797  LYS798  CYS799  TRP800  GLU811  SER814 

> <Gold.Protein.RotatedAtoms>
  152.2371  133.5105  159.5248 H   0  0  0  0  0  0  0  0  0  0  0  0  # atno 6907 bound_to 6896
  150.7053  134.1139  159.4019 H   0  0  0  0  0  0  0  0  0  0  0  0  # atno 6908 bound_to 6896
  151.9060  135.0358  160.0561 H   0  0  0  0  0  0  0  0  0  0  0  0  # atno 6909 bound_to 6896
  145.1304  140.8721  143.3761 H   0  0  0  0  0  0  0  0  0  0  0  0  # atno 7974 bound_to 7965
  154.4016  140.1535  156.2964 H   0  0  0  0  0  0  0  0  0  0  0  0  # atno 8008 bound_to 7997
  155.8739  140.3447  155.5819 H   0  0  0  0  0  0  0  0  0  0  0  0  # atno 8009 bound_to 7997
  155.7743  140.0834  157.2082 H   0  0  0  0  0  0  0  0  0  0  0  0  # atno 8010 bound_to 7997
  139.4999  144.3677  151.9757 H   0  0  0  0  0  0  0  0  0  0  0  0  # atno 10167 bound_to 10162
  157.5683  130.8888  149.9224 H   0  0  0  0  0  0  0  0  0  0  0  0  # atno 10718 bound_to 10713
  153.2888  135.6947  153.7314 H   0  0  0  0  0  0  0  0  0  0  0  0  # atno 10763 bound_to 10752
  153.6273  135.3416  155.3031 H   0  0  0  0  0  0  0  0  0  0  0  0  # atno 10764 bound_to 10752
  154.8517  135.4400  154.1964 H   0  0  0  0  0  0  0  0  0  0  0  0  # atno 10765 bound_to 10752
  140.9484  134.1099  157.4085 H   0  0  0  0  0  0  0  0  0  0  0  0  # atno 11005 bound_to 11000
  145.0642  139.3082  143.5865 LP  0  0  0  0  0  0  0  0  0  0  0  0  # atno 17320 bound_to 7965
  146.3514  140.0094  142.8668 LP  0  0  0  0  0  0  0  0  0  0  0  0  # atno 17321 bound_to 7965
  140.3113  144.3534  150.6033 LP  0  0  0  0  0  0  0  0  0  0  0  0  # atno 17342 bound_to 10162
  140.5796  143.2174  151.7452 LP  0  0  0  0  0  0  0  0  0  0  0  0  # atno 17343 bound_to 10162
  156.0730  130.3682  150.0737 LP  0  0  0  0  0  0  0  0  0  0  0  0  # atno 17370 bound_to 10713
  156.8893  130.9583  151.3590 LP  0  0  0  0  0  0  0  0  0  0  0  0  # atno 17371 bound_to 10713
  139.8840  135.0058  156.6339 LP  0  0  0  0  0  0  0  0  0  0  0  0  # atno 17394 bound_to 11000
  140.7637  133.8796  155.8438 LP  0  0  0  0  0  0  0  0  0  0  0  0  # atno 17395 bound_to 11000

$$$$
