AV-unprocessed.smi:2031|AV-procd|sdf|8228|dock1
  -GOLD-   2272010493D 1   1.00000     0.00000
 Structure written by MMmdl.
 42 43  0  0  0  0  0  0  0  0  2 V2000
  153.6557  137.3399  156.8833 C   0  0  0  0  0  0  0  0  0  0  0  0
  152.6934  138.0360  155.9831 C   0  0  0  0  0  0  0  0  0  0  0  0
  151.6187  137.6027  155.2592 C   0  0  0  0  0  0  0  0  0  0  0  0
  151.1585  138.7944  154.6267 C   0  0  0  0  0  0  0  0  0  0  0  0
  150.0498  138.9058  153.7483 N   0  0  0  0  0  0  0  0  0  0  0  0
  148.7572  138.6383  153.9991 C   0  0  0  0  0  0  0  0  0  0  0  0
  148.3052  138.2378  155.0718 O   0  0  0  0  0  0  0  0  0  0  0  0
  147.9926  138.8700  152.9222 N   0  0  0  0  0  0  0  0  0  0  0  0
  146.5464  138.6858  152.8750 C   0  0  0  0  0  0  0  0  0  0  0  0
  146.1444  137.6711  151.7856 C   0  0  0  0  0  0  0  0  0  0  0  0
  146.3315  136.2562  152.2047 N   0  3  0  0  0  0  0  0  0  0  0  0
  145.5713  135.3076  151.3479 C   0  0  0  0  0  0  0  0  0  0  0  0
  146.4000  134.0445  151.0581 C   0  0  0  0  0  0  0  0  0  0  0  0
  146.4271  133.0233  152.2037 C   0  0  0  0  0  0  0  0  0  0  0  0
  146.9305  133.5883  153.5408 C   0  0  0  0  0  0  0  0  0  0  0  0
  145.9551  134.6086  154.1476 C   0  0  0  0  0  0  0  0  0  0  0  0
  146.1510  136.0630  153.6730 C   0  0  0  0  0  0  0  0  0  0  0  0
  151.8883  139.8497  154.9375 N   0  0  0  0  0  0  0  0  0  0  0  0
  152.8756  139.3725  155.8075 O   0  0  0  0  0  0  0  0  0  0  0  0
  153.2892  136.3491  157.1524 H   0  0  0  0  0  0  0  0  0  0  0  0
  153.8062  137.9055  157.8032 H   0  0  0  0  0  0  0  0  0  0  0  0
  154.6232  137.2216  156.3954 H   0  0  0  0  0  0  0  0  0  0  0  0
  151.2402  136.5935  155.2038 H   0  0  0  0  0  0  0  0  0  0  0  0
  150.2695  139.2343  152.8196 H   0  0  0  0  0  0  0  0  0  0  0  0
  148.4410  139.1957  152.0779 H   0  0  0  0  0  0  0  0  0  0  0  0
  146.2154  138.3345  153.8528 H   0  0  0  0  0  0  0  0  0  0  0  0
  146.0743  139.6558  152.7147 H   0  0  0  0  0  0  0  0  0  0  0  0
  145.1080  137.8190  151.4776 H   0  0  0  0  0  0  0  0  0  0  0  0
  146.7605  137.8724  150.9080 H   0  0  0  0  0  0  0  0  0  0  0  0
  144.5937  135.0742  151.7717 H   0  0  0  0  0  0  0  0  0  0  0  0
  145.3628  135.7710  150.3831 H   0  0  0  0  0  0  0  0  0  0  0  0
  145.9848  133.5499  150.1791 H   0  0  0  0  0  0  0  0  0  0  0  0
  147.4182  134.3252  150.7850 H   0  0  0  0  0  0  0  0  0  0  0  0
  145.4306  132.6006  152.3382 H   0  0  0  0  0  0  0  0  0  0  0  0
  147.0647  132.1887  151.9102 H   0  0  0  0  0  0  0  0  0  0  0  0
  147.0329  132.7550  154.2369 H   0  0  0  0  0  0  0  0  0  0  0  0
  147.9282  134.0168  153.4363 H   0  0  0  0  0  0  0  0  0  0  0  0
  144.9268  134.2881  153.9757 H   0  0  0  0  0  0  0  0  0  0  0  0
  146.0732  134.5995  155.2317 H   0  0  0  0  0  0  0  0  0  0  0  0
  147.0287  136.4699  154.1754 H   0  0  0  0  0  0  0  0  0  0  0  0
  145.2988  136.6517  154.0160 H   0  0  0  0  0  0  0  0  0  0  0  0
  147.3010  136.0470  152.0142 H   0  0  0  0  0  0  0  0  0  0  0  0
  1  2  1  0  0  0  0
  1 20  1  0  0  0  0
  1 21  1  0  0  0  0
  1 22  1  0  0  0  0
  2 19  1  0  0  0  0
  2  3  2  0  0  0  0
  3  4  1  0  0  0  0
  3 23  1  0  0  0  0
  4  5  1  0  0  0  0
  4 18  2  0  0  0  0
  5  6  1  0  0  0  0
  5 24  1  0  0  0  0
  6  7  2  0  0  0  0
  6  8  1  0  0  0  0
  8  9  1  0  0  0  0
  8 25  1  0  0  0  0
  9 10  1  0  0  0  0
  9 26  1  0  0  0  0
  9 27  1  0  0  0  0
 10 11  1  0  0  0  0
 10 28  1  0  0  0  0
 10 29  1  0  0  0  0
 11 17  1  0  0  0  0
 11 12  1  0  0  0  0
 11 42  1  0  0  0  0
 12 13  1  0  0  0  0
 12 30  1  0  0  0  0
 12 31  1  0  0  0  0
 13 14  1  0  0  0  0
 13 32  1  0  0  0  0
 13 33  1  0  0  0  0
 14 15  1  0  0  0  0
 14 34  1  0  0  0  0
 14 35  1  0  0  0  0
 15 16  1  0  0  0  0
 15 36  1  0  0  0  0
 15 37  1  0  0  0  0
 16 17  1  0  0  0  0
 16 38  1  0  0  0  0
 16 39  1  0  0  0  0
 17 40  1  0  0  0  0
 17 41  1  0  0  0  0
 18 19  1  0  0  0  0
M  CHG  1  11   1
M  END
> <s_m_source_file>
AV-unprocessed.smi

> <i_m_source_file_index>
2031

> <i_lp_mmshare_version>
43012

> <i_f3d_flags>
0

> <s_epik_input>
W0NIM11jMVtjSF1jKG5vMSlbTkhdQyg9TylbTkhdW0NIMl1bQ0gyXU4yW0NIMl1bQ0gyXVtDSDJdW0NIMl1bQ0gyXVtDSDJdMg==

> <s_epik_cmdline>
J2VwaWtfcHl0aG9uJywgJy1waCcsICc3LjAnLCAnLXRuJywgJzgnLCAnLW1hJywgJzIwMCcsICctbWV0YWxfYmluZGluZycsICctaW1hZScsICc8aW5maWxlLm1hZT4nLCAnLW9tYWUnLCAnPG91dGZpbGUubWFlPic=

> <r_epik_Ionization_Penalty>
0.00265971

> <r_epik_Ionization_Penalty_Charging>
0.00262393

> <r_epik_Ionization_Penalty_Neutral>
3.57846e-05

> <r_epik_State_Penalty>
0.00182566

> <r_epik_Charging_Adjusted_Penalty>
0.00444959

> <i_epik_Tot_Q>
1

> <i_epik_Tot_abs_Q>
1

> <r_epik_Metal_State_Penalty>
0.0216344

> <b_epik_Metal_Only>
0

> <s_lp_Force_Field>
OPLS_2005

> <r_lp_Energy>
20.9695

> <b_lp_Chiralities_Consistent>
1

> <s_lp_Variant>
AV-unprocessed.smi:2031-1

> <Gold.Version>
5.8.1

> <Gold.Id.Protein>
6NUR|6NUR_protein|mol2

> <Gold.PLP.Fitness>
46.1917

> <Gold.PLP.PLP>
-30.0726

> <Gold.PLP.part.hbond>
-5.9690

> <Gold.PLP.part.metal>
0.0000

> <Gold.PLP.part.buried>
-4.1464

> <Gold.PLP.part.nonpolar>
-20.9367

> <Gold.PLP.part.repulsive>
0.3210

> <Gold.PLP.ligand.clash>
0.0000

> <Gold.PLP.ligand.torsion>
0.9187

> <Gold.PLP.Chemscore.Hbond>
5.9600

> <Gold.PLP.Chemscore.CHOScore>
0.0000

> <Gold.PLP.Chemscore.Metal>
0.0000

> <Gold.Chemscore.Hbonds>
donor molecule, donor type, donor heavy atom, donor atom, acceptor molecule, acceptor atom, score
      L1  H     5    24       P1  7957  0.96
      L1  H     8    25       P1  7957  1.00
      L1  H    11    42       P1  7948  2.00
      P1  H  7989  7998       L1    18  0.94
      P1  H  7997  8010       L1    19  1.00

> <Gold.PLP.Chemscore.Internal.Correction>
0.0765

> <Gold.Rescore>
     Score         DG    S(hbond)    S(metal)    S(lipo)     H(rot)  DE(clash)    DE(int)     intcor
     23.22     -23.90       4.79        0.00      55.05       1.57       0.09       0.59       ----

> <Gold.Chemscore.Fitness>
23.2160

> <Gold.Chemscore.DG>
-23.8978

> <Gold.Chemscore.ZeroCoef>
-5.4800

> <Gold.Chemscore.Hbond>
4.7889

> <Gold.Chemscore.Metal>
0.0000

> <Gold.Chemscore.Lipo>
55.0535

> <Gold.Chemscore.Internal_Hbond>
0.0000

> <Gold.Chemscore.DEClash>
0.0927

> <Gold.Chemscore.DEInternal>
0.5891

> <Gold.Chemscore.Rot>
1.5697

> <Gold.Chemscore.Internal.Correction>
   9.000000E+99

> <Gold.Chemscore.Hbonds>
donor molecule, donor type, donor heavy atom, donor atom, acceptor molecule, acceptor atom, score
      L1  H     5    24       P1  7957  0.68
      L1  H     8    25       P1  7957  0.99
      L1  H    11    42       P1  7948  0.99
      P1  H  7989  7998       L1    18  0.32
      P1  H  7997  8010       L1    19  0.99

> <Gold.Chemscore.Hbond.Weighted>
-15.9950

> <Gold.Chemscore.Metal.Weighted>
-0.0000

> <Gold.Chemscore.Lipo.Weighted>
-6.4413

> <Gold.Chemscore.Internal_Hbond.Weighted>
0.0000

> <Gold.Chemscore.DEClash.Weighted>
0.0927

> <Gold.Chemscore.DEInternal.Weighted>
0.5891

> <Gold.Chemscore.Rot.Weighted>
4.0185

> <Gold.Chemscore.Internal.Correction.Weighted>
   9.000000E+99

> <Gold.Protein.RotatedTorsions>
[ 6907 6896 6895 6894 ] final  169.27 input  -60.11 | X-H torsion
[ 7974 7965 7964 7962 ] final   24.76 input  175.53 | X-H torsion
[ 8008 7997 7996 7995 ] final   88.39 input   59.86 | X-H torsion
[ 10167 10162 10161 10158 ] final -165.51 input  -65.29 | X-H torsion
[ 10718 10713 10712 10709 ] final  -68.50 input   66.30 | X-H torsion
[ 10763 10752 10751 10750 ] final -116.32 input  -60.55 | X-H torsion
[ 11005 11000 10999 10996 ] final  -86.57 input  -57.11 | X-H torsion

> <Gold.Protein.ActiveResidues>
 VAL166  LYS551  ARG553  GLY616  TRP617  ASP618  TYR619  PRO620  LYS621  CYS622 
 ASP623  PHE694  ASN695  SER759  ASP760  ASP761  ALA762  ILE779  LEU786  VAL792 
 PHE793  MET794  SER795  GLU796  ALA797  LYS798  CYS799  TRP800  GLU811  SER814 

> <Gold.Protein.RotatedAtoms>
  151.8345  133.3414  159.3623 H   0  0  0  0  0  0  0  0  0  0  0  0  # atno 6907 bound_to 6896
  150.7254  134.5450  159.5776 H   0  0  0  0  0  0  0  0  0  0  0  0  # atno 6908 bound_to 6896
  152.2911  134.7721  160.0429 H   0  0  0  0  0  0  0  0  0  0  0  0  # atno 6909 bound_to 6896
  146.1922  139.7560  142.8823 H   0  0  0  0  0  0  0  0  0  0  0  0  # atno 7974 bound_to 7965
  155.9871  140.3372  155.6718 H   0  0  0  0  0  0  0  0  0  0  0  0  # atno 8008 bound_to 7997
  155.6470  140.0701  157.2617 H   0  0  0  0  0  0  0  0  0  0  0  0  # atno 8009 bound_to 7997
  154.4208  140.1732  156.1621 H   0  0  0  0  0  0  0  0  0  0  0  0  # atno 8010 bound_to 7997
  139.6177  144.0687  152.1903 H   0  0  0  0  0  0  0  0  0  0  0  0  # atno 10167 bound_to 10162
  156.0502  130.4296  150.2010 H   0  0  0  0  0  0  0  0  0  0  0  0  # atno 10718 bound_to 10713
  154.8515  135.4350  154.1803 H   0  0  0  0  0  0  0  0  0  0  0  0  # atno 10763 bound_to 10752
  153.2895  135.6960  153.7313 H   0  0  0  0  0  0  0  0  0  0  0  0  # atno 10764 bound_to 10752
  153.6485  135.3455  155.3067 H   0  0  0  0  0  0  0  0  0  0  0  0  # atno 10765 bound_to 10752
  141.1628  133.7462  156.9180 H   0  0  0  0  0  0  0  0  0  0  0  0  # atno 11005 bound_to 11000
  145.3757  141.0350  143.3206 LP  0  0  0  0  0  0  0  0  0  0  0  0  # atno 17320 bound_to 7965
  144.8509  139.5324  143.6857 LP  0  0  0  0  0  0  0  0  0  0  0  0  # atno 17321 bound_to 7965
  140.0321  144.6073  150.7479 LP  0  0  0  0  0  0  0  0  0  0  0  0  # atno 17342 bound_to 10162
  140.7362  143.2750  151.3771 LP  0  0  0  0  0  0  0  0  0  0  0  0  # atno 17343 bound_to 10162
  157.0094  130.9946  151.3370 LP  0  0  0  0  0  0  0  0  0  0  0  0  # atno 17370 bound_to 10713
  157.5420  130.8126  149.8041 LP  0  0  0  0  0  0  0  0  0  0  0  0  # atno 17371 bound_to 10713
  140.1471  134.9255  157.2543 LP  0  0  0  0  0  0  0  0  0  0  0  0  # atno 17394 bound_to 11000
  140.2767  134.3397  155.7356 LP  0  0  0  0  0  0  0  0  0  0  0  0  # atno 17395 bound_to 11000

$$$$
