#       Name:                AV-unprocessed.smi:210
#       Creating user name   scv26
#       Creation time:       Thu Mar 26 19:53:34 2020


#       File generated by GOLD software.
#

@<TRIPOS>MOLECULE
AV-unprocessed.smi:210
    67    71     1
SMALL
NO_CHARGES


@<TRIPOS>ATOM
      1 ****        -5.2188  -4.3540   0.0293 C.3            1 S1                 0.0000
      2 ****        -3.9676  -3.6926  -0.0376 O.3            1 S1                 0.0000
      3 ****        -3.8105  -2.7114   0.9752 C.3            1 S1                 0.0000
      4 ****        -2.3732  -2.1907   1.0554 C.3            1 S1                 0.0000
      5 ****        -2.9787  -0.8160   1.3849 C.3            1 S1                 0.0000
      6 ****        -2.2498   0.3188   0.8095 N.3            1 S1                 0.0000
      7 ****        -2.8859   1.6275   0.9088 C.3            1 S1                 0.0000
      8 ****        -0.9270   0.4046   1.0936 C.ar           1 S1                 0.0000
      9 ****        -0.4585  -0.0030   2.3039 N.ar           1 S1                 0.0000
     10 ****         0.8427   0.1027   2.5897 C.ar           1 S1                 0.0000
     11 ****         1.8290   0.5796   1.8273 N.ar           1 S1                 0.0000
     12 ****         1.3628   0.9900   0.6127 C.ar           1 S1                 0.0000
     13 ****         0.0106   0.9446   0.1718 C.ar           1 S1                 0.0000
     14 ****        -0.0884   1.4617  -1.1140 N.2            1 S1                 0.0000
     15 ****         1.1359   1.8020  -1.4130 C.2            1 S1                 0.0000
     16 ****         2.0757   1.5293  -0.4439 N.pl3          1 S1                 0.0000
     17 ****         3.4758   1.8341  -0.4915 C.3            1 S1                 0.0000
     18 ****         4.2380   1.8859  -1.8203 C.3            1 S1                 0.0000
     19 ****         5.5045   1.3711  -1.0975 C.3            1 S1                 0.0000
     20 ****         6.3745   0.3564  -1.8658 C.3            1 S1                 0.0000
     21 ****         5.6163  -0.6989  -2.4224 O.3            1 S1                 0.0000
     22 ****         6.4417   2.4876  -0.5983 C.3            1 S1                 0.0000
     23 ****         7.3413   2.0114   0.3823 O.3            1 S1                 0.0000
     24 ****         4.5222   0.8094  -0.0434 C.3            1 S1                 0.0000
     25 ****        -4.2274  -1.2730   0.5924 C.3            1 S1                 0.0000
     26 ****        -5.6295  -0.7503   0.9285 C.3            1 S1                 0.0000
     27 ****        -5.9528  -0.7026  -0.5691 C.3            1 S1                 0.0000
     28 ****        -4.4653  -0.8900  -0.8835 C.3            1 S1                 0.0000
     29 ****        -5.2995  -5.0684  -0.7897 H              1 S1                 0.0000
     30 ****        -6.0490  -3.6534  -0.0525 H              1 S1                 0.0000
     31 ****        -5.3205  -4.9039   0.9657 H              1 S1                 0.0000
     32 ****        -4.1746  -3.0225   1.9573 H              1 S1                 0.0000
     33 ****        -1.7733  -2.6304   1.8524 H              1 S1                 0.0000
     34 ****        -1.8547  -2.2210   0.0948 H              1 S1                 0.0000
     35 ****        -3.1924  -0.7105   2.4504 H              1 S1                 0.0000
     36 ****        -2.3718   2.3682   0.2955 H              1 S1                 0.0000
     37 ****        -2.8815   1.9766   1.9421 H              1 S1                 0.0000
     38 ****        -3.9205   1.5892   0.5718 H              1 S1                 0.0000
     39 ****         1.1355  -0.2436   3.5699 H              1 S1                 0.0000
     40 ****         1.3873   2.2600  -2.3587 H              1 S1                 0.0000
     41 ****         3.5956   2.7690   0.0584 H              1 S1                 0.0000
     42 ****         3.8362   1.1865  -2.5552 H              1 S1                 0.0000
     43 ****         4.3289   2.8850  -2.2481 H              1 S1                 0.0000
     44 ****         6.9137   0.8447  -2.6783 H              1 S1                 0.0000
     45 ****         7.1256  -0.0899  -1.2135 H              1 S1                 0.0000
     46 ****         6.2056  -1.2919  -2.8633 H              1 S1                 0.0000
     47 ****         7.0150   2.9154  -1.4215 H              1 S1                 0.0000
     48 ****         5.8790   3.3121  -0.1596 H              1 S1                 0.0000
     49 ****         7.8757   2.7333   0.6765 H              1 S1                 0.0000
     50 ****         4.8419   0.9204   0.9932 H              1 S1                 0.0000
     51 ****         4.2065  -0.2164  -0.2418 H              1 S1                 0.0000
     52 ****        -6.2452  -1.4490   1.4958 H              1 S1                 0.0000
     53 ****        -5.6181   0.2372   1.3906 H              1 S1                 0.0000
     54 ****        -6.5658  -1.5409  -0.9008 H              1 S1                 0.0000
     55 ****        -6.3627   0.2500  -0.9062 H              1 S1                 0.0000
     56 ****        -3.9916   0.0423  -1.1892 H              1 S1                 0.0000
     57 ****        -4.2619  -1.6828  -1.6034 H              1 S1                 0.0000
     58 ****        -3.8889  -3.2470  -0.9293 LP             1 S1                 0.0000
     59 ****        -3.2410  -4.3725   0.0606 LP             1 S1                 0.0000
     60 ****        -2.3108   0.0509  -0.1520 LP             1 S1                 0.0000
     61 ****        -1.0890  -0.3824   2.9811 LP             1 S1                 0.0000
     62 ****         2.7868   0.6297   2.1102 LP             1 S1                 0.0000
     63 ****        -0.9081   1.5523  -1.6796 LP             1 S1                 0.0000
     64 ****         4.9559  -0.3309  -3.0770 LP             1 S1                 0.0000
     65 ****         5.1302  -1.1846  -1.6958 LP             1 S1                 0.0000
     66 ****         7.9232   1.2998  -0.0113 LP             1 S1                 0.0000
     67 ****         6.8296   1.6343   1.1544 LP             1 S1                 0.0000
@<TRIPOS>BOND
    1    1    2 1     
    2    1   29 1     
    3    1   30 1     
    4    1   31 1     
    5    2    3 1     
    6    3   25 1     
    7    3    4 1     
    8    3   32 1     
    9    4    5 1     
   10    4   33 1     
   11    4   34 1     
   12    5    6 1     
   13    5   25 1     
   14    5   35 1     
   15    6    7 1     
   16    6    8 1     
   17    7   36 1     
   18    7   37 1     
   19    7   38 1     
   20    8   13 ar    
   21    8    9 ar    
   22    9   10 ar    
   23   10   11 ar    
   24   10   39 1     
   25   11   12 ar    
   26   12   16 1     
   27   12   13 ar    
   28   13   14 1     
   29   14   15 2     
   30   15   16 1     
   31   15   40 1     
   32   16   17 1     
   33   17   24 1     
   34   17   18 1     
   35   17   41 1     
   36   18   19 1     
   37   18   42 1     
   38   18   43 1     
   39   19   20 1     
   40   19   22 1     
   41   19   24 1     
   42   20   21 1     
   43   20   44 1     
   44   20   45 1     
   45   21   46 1     
   46   22   23 1     
   47   22   47 1     
   48   22   48 1     
   49   23   49 1     
   50   24   50 1     
   51   24   51 1     
   52   25   28 1     
   53   25   26 1     
   54   26   27 1     
   55   26   52 1     
   56   26   53 1     
   57   27   28 1     
   58   27   54 1     
   59   27   55 1     
   60   28   56 1     
   61   28   57 1     
   62    2   58 1     
   63    2   59 1     
   64    6   60 1     
   65    9   61 1     
   66   11   62 1     
   67   14   63 1     
   68   21   64 1     
   69   21   65 1     
   70   23   66 1     
   71   23   67 1     
@<TRIPOS>SUBSTRUCTURE
      1 S1             1
@<TRIPOS>SET
LONE_PAIRS      STATIC     ATOMS    <user>   **** ""
10 58 59 60 61 62 63 64 65 66 67
DONOR_HYDROGENS      STATIC     ATOMS    <user>   **** ""
2 46 49
ATOM$BLUE        STATIC     ATOMS    COLORGROUP SYSTEM
10 58 59 60 61 62 63 64 65 66 67
ATOM$RED        STATIC     ATOMS    COLORGROUP SYSTEM
2 46 49
