AV-unprocessed.smi:2215|AV-procd|sdf|8960|dock4
  -GOLD-   2272012183D 1   1.00000     0.00000
 Structure written by MMmdl.
 40 41  0  0  0  0  0  0  0  0  1 V2000
  151.0892  142.4675  156.3411 C   0  0  0  0  0  0  0  0  0  0  0  0
  150.3869  141.3754  155.5618 C   0  0  0  0  0  0  0  0  0  0  0  0
  149.1508  141.6092  154.9301 C   0  0  0  0  0  0  0  0  0  0  0  0
  148.5416  140.5564  154.2204 C   0  0  0  0  0  0  0  0  0  0  0  0
  149.1799  139.2971  154.1600 C   0  0  0  0  0  0  0  0  0  0  0  0
  148.4788  138.3033  153.4263 N   0  0  0  0  0  0  0  0  0  0  0  0
  147.1506  138.1729  153.2609 C   0  0  0  0  0  0  0  0  0  0  0  0
  146.2947  138.9102  153.7508 O   0  0  0  0  0  0  0  0  0  0  0  0
  146.8607  137.1203  152.4826 N   0  0  0  0  0  0  0  0  0  0  0  0
  145.5141  136.7051  152.1012 C   0  0  0  0  0  0  0  0  0  0  0  0
  145.4962  135.3814  151.2986 C   0  0  2  0  0  0  0  0  0  0  0  0
  144.0990  135.1024  150.6958 C   0  0  0  0  0  0  0  0  0  0  0  0
  144.0550  133.7743  149.9246 C   0  0  0  0  0  0  0  0  0  0  0  0
  144.4924  132.6030  150.8139 C   0  0  0  0  0  0  0  0  0  0  0  0
  145.8915  132.8531  151.3927 C   0  0  0  0  0  0  0  0  0  0  0  0
  145.9502  134.1824  152.1679 C   0  0  1  0  0  0  0  0  0  0  0  0
  147.2813  134.3694  152.6056 O   0  0  0  0  0  0  0  0  0  0  0  0
  150.3724  139.0826  154.7696 N   0  0  0  0  0  0  0  0  0  0  0  0
  150.9560  140.0923  155.4486 C   0  0  0  0  0  0  0  0  0  0  0  0
  150.4489  143.3420  156.4609 H   0  0  0  0  0  0  0  0  0  0  0  0
  151.9976  142.7763  155.8236 H   0  0  0  0  0  0  0  0  0  0  0  0
  151.3637  142.1089  157.3335 H   0  0  0  0  0  0  0  0  0  0  0  0
  148.6737  142.5766  154.9861 H   0  0  0  0  0  0  0  0  0  0  0  0
  147.5924  140.7187  153.7308 H   0  0  0  0  0  0  0  0  0  0  0  0
  149.0572  137.6184  152.9632 H   0  0  0  0  0  0  0  0  0  0  0  0
  147.6251  136.5679  152.1227 H   0  0  0  0  0  0  0  0  0  0  0  0
  144.9023  136.6224  153.0009 H   0  0  0  0  0  0  0  0  0  0  0  0
  145.0716  137.5049  151.5070 H   0  0  0  0  0  0  0  0  0  0  0  0
  146.1999  135.4755  150.4696 H   0  0  0  0  0  0  0  0  0  0  0  0
  143.3533  135.0819  151.4918 H   0  0  0  0  0  0  0  0  0  0  0  0
  143.8068  135.9084  150.0221 H   0  0  0  0  0  0  0  0  0  0  0  0
  143.0477  133.5978  149.5467 H   0  0  0  0  0  0  0  0  0  0  0  0
  144.7064  133.8360  149.0518 H   0  0  0  0  0  0  0  0  0  0  0  0
  143.7765  132.4694  151.6260 H   0  0  0  0  0  0  0  0  0  0  0  0
  144.4868  131.6759  150.2397 H   0  0  0  0  0  0  0  0  0  0  0  0
  146.1709  132.0258  152.0464 H   0  0  0  0  0  0  0  0  0  0  0  0
  146.6195  132.8649  150.5801 H   0  0  0  0  0  0  0  0  0  0  0  0
  145.3127  134.1098  153.0500 H   0  0  0  0  0  0  0  0  0  0  0  0
  147.6892  135.0213  152.0561 H   0  0  0  0  0  0  0  0  0  0  0  0
  151.9039  139.8677  155.9156 H   0  0  0  0  0  0  0  0  0  0  0  0
  1  2  1  0  0  0  0
  1 20  1  0  0  0  0
  1 21  1  0  0  0  0
  1 22  1  0  0  0  0
  2 19  1  0  0  0  0
  2  3  2  0  0  0  0
  3  4  1  0  0  0  0
  3 23  1  0  0  0  0
  4  5  2  0  0  0  0
  4 24  1  0  0  0  0
  5  6  1  0  0  0  0
  5 18  1  0  0  0  0
  6  7  1  0  0  0  0
  6 25  1  0  0  0  0
  7  8  2  0  0  0  0
  7  9  1  0  0  0  0
  9 10  1  0  0  0  0
  9 26  1  0  0  0  0
 10 11  1  0  0  0  0
 10 27  1  0  0  0  0
 10 28  1  0  0  0  0
 11 16  1  0  0  0  0
 11 12  1  0  0  0  0
 11 29  1  0  0  0  0
 12 13  1  0  0  0  0
 12 30  1  0  0  0  0
 12 31  1  0  0  0  0
 13 14  1  0  0  0  0
 13 32  1  0  0  0  0
 13 33  1  0  0  0  0
 14 15  1  0  0  0  0
 14 34  1  0  0  0  0
 14 35  1  0  0  0  0
 15 16  1  0  0  0  0
 15 36  1  0  0  0  0
 15 37  1  0  0  0  0
 16 17  1  0  0  0  0
 16 38  1  0  0  0  0
 17 39  1  0  0  0  0
 18 19  2  0  0  0  0
 19 40  1  0  0  0  0
M  END
> <s_m_source_file>
AV-unprocessed.smi

> <i_m_source_file_index>
2215

> <i_lp_mmshare_version>
43012

> <i_f3d_flags>
0

> <s_epik_input>
W0NIM11jMVtjSF1bY0hdYyhuW2NIXTEpW05IXUMoPU8pW05IXVtDSDJdW0NAQEhdMltDSDJdW0NIMl1bQ0gyXVtDSDJdW0NASF0yW09IXQ==

> <s_epik_cmdline>
J2VwaWtfcHl0aG9uJywgJy1waCcsICc3LjAnLCAnLXRuJywgJzgnLCAnLW1hJywgJzIwMCcsICctbWV0YWxfYmluZGluZycsICctaW1hZScsICc8aW5maWxlLm1hZT4nLCAnLW9tYWUnLCAnPG91dGZpbGUubWFlPic=

> <r_lp_tautomer_probability>
1

> <r_epik_Ionization_Penalty>
6.08491e-05

> <r_epik_Ionization_Penalty_Charging>
0

> <r_epik_Ionization_Penalty_Neutral>
6.08491e-05

> <r_epik_State_Penalty>
-0

> <r_epik_Charging_Adjusted_Penalty>
0

> <i_epik_Tot_Q>
0

> <i_epik_Tot_abs_Q>
0

> <r_epik_Metal_State_Penalty>
-0

> <b_epik_Metal_Only>
0

> <s_lp_Force_Field>
OPLS_2005

> <r_lp_Energy>
13.8041

> <b_lp_Chiralities_Consistent>
1

> <s_lp_Variant>
AV-unprocessed.smi:2215-1

> <Gold.Version>
5.8.1

> <Gold.Id.Protein>
6NUR|6NUR_protein|mol2

> <Gold.PLP.Fitness>
40.7308

> <Gold.PLP.PLP>
-33.4649

> <Gold.PLP.part.hbond>
-3.0697

> <Gold.PLP.part.metal>
0.0000

> <Gold.PLP.part.buried>
-2.7839

> <Gold.PLP.part.nonpolar>
-29.4668

> <Gold.PLP.part.repulsive>
0.3562

> <Gold.PLP.ligand.clash>
0.0000

> <Gold.PLP.ligand.torsion>
0.2380

> <Gold.PLP.Chemscore.Hbond>
2.5790

> <Gold.PLP.Chemscore.CHOScore>
0.0000

> <Gold.PLP.Chemscore.Metal>
0.0000

> <Gold.Chemscore.Hbonds>
donor molecule, donor type, donor heavy atom, donor atom, acceptor molecule, acceptor atom, score
      L1  H     6    25       P1  7948  0.85
      L1  H     9    26       P1  7948  0.62
      L1  H    17    39       P1  7948  0.98

> <Gold.PLP.Chemscore.Internal.Correction>
0.0049

> <Gold.Rescore>
     Score         DG    S(hbond)    S(metal)    S(lipo)     H(rot)  DE(clash)    DE(int)     intcor
     16.21     -19.29       2.86        0.00      74.35       1.73       0.07       3.01       ----

> <Gold.Chemscore.Fitness>
16.2111

> <Gold.Chemscore.DG>
-19.2860

> <Gold.Chemscore.ZeroCoef>
-5.4800

> <Gold.Chemscore.Hbond>
2.8580

> <Gold.Chemscore.Metal>
0.0000

> <Gold.Chemscore.Lipo>
74.3514

> <Gold.Chemscore.Internal_Hbond>
0.0000

> <Gold.Chemscore.DEClash>
0.0672

> <Gold.Chemscore.DEInternal>
3.0078

> <Gold.Chemscore.Rot>
1.7339

> <Gold.Chemscore.Internal.Correction>
   9.000000E+99

> <Gold.Chemscore.Hbonds>
donor molecule, donor type, donor heavy atom, donor atom, acceptor molecule, acceptor atom, score
      L1  H     6    25       P1  7948  0.85
      L1  H     9    26       P1  7948  0.62
      L1  H    17    39       P1  7948  0.80

> <Gold.Chemscore.Hbond.Weighted>
-9.5456

> <Gold.Chemscore.Metal.Weighted>
-0.0000

> <Gold.Chemscore.Lipo.Weighted>
-8.6991

> <Gold.Chemscore.Internal_Hbond.Weighted>
0.0000

> <Gold.Chemscore.DEClash.Weighted>
0.0672

> <Gold.Chemscore.DEInternal.Weighted>
3.0078

> <Gold.Chemscore.Rot.Weighted>
4.4387

> <Gold.Chemscore.Internal.Correction.Weighted>
   9.000000E+99

> <Gold.Protein.RotatedTorsions>
[ 6907 6896 6895 6894 ] final -139.08 input  -60.11 | X-H torsion
[ 7974 7965 7964 7962 ] final -126.63 input  175.53 | X-H torsion
[ 8008 7997 7996 7995 ] final  105.92 input   59.86 | X-H torsion
[ 10167 10162 10161 10158 ] final  143.78 input  -65.29 | X-H torsion
[ 10718 10713 10712 10709 ] final   98.01 input   66.30 | X-H torsion
[ 10763 10752 10751 10750 ] final -178.84 input  -60.55 | X-H torsion
[ 11005 11000 10999 10996 ] final   56.32 input  -57.11 | X-H torsion

> <Gold.Protein.ActiveResidues>
 VAL166  LYS551  ARG553  GLY616  TRP617  ASP618  TYR619  PRO620  LYS621  CYS622 
 ASP623  PHE694  ASN695  SER759  ASP760  ASP761  ALA762  ILE779  LEU786  VAL792 
 PHE793  MET794  SER795  GLU796  ALA797  LYS798  CYS799  TRP800  GLU811  SER814 

> <Gold.Protein.RotatedAtoms>
  151.0432  133.5688  159.2648 H   0  0  0  0  0  0  0  0  0  0  0  0  # atno 6907 bound_to 6896
  151.2726  135.0688  159.9149 H   0  0  0  0  0  0  0  0  0  0  0  0  # atno 6908 bound_to 6896
  152.5368  134.0160  159.8014 H   0  0  0  0  0  0  0  0  0  0  0  0  # atno 6909 bound_to 6896
  144.9853  140.7680  143.4587 H   0  0  0  0  0  0  0  0  0  0  0  0  # atno 7974 bound_to 7965
  156.1700  140.3122  155.8957 H   0  0  0  0  0  0  0  0  0  0  0  0  # atno 8008 bound_to 7997
  155.3607  140.0476  157.3063 H   0  0  0  0  0  0  0  0  0  0  0  0  # atno 8009 bound_to 7997
  154.5231  140.2205  155.8950 H   0  0  0  0  0  0  0  0  0  0  0  0  # atno 8010 bound_to 7997
  139.4962  144.6017  151.6467 H   0  0  0  0  0  0  0  0  0  0  0  0  # atno 10167 bound_to 10162
  157.6903  131.0627  150.4731 H   0  0  0  0  0  0  0  0  0  0  0  0  # atno 10718 bound_to 10713
  154.5427  135.2807  155.1081 H   0  0  0  0  0  0  0  0  0  0  0  0  # atno 10763 bound_to 10752
  154.2558  135.6331  153.5260 H   0  0  0  0  0  0  0  0  0  0  0  0  # atno 10764 bound_to 10752
  152.9983  135.5593  154.5970 H   0  0  0  0  0  0  0  0  0  0  0  0  # atno 10765 bound_to 10752
  140.0538  134.5699  155.9232 H   0  0  0  0  0  0  0  0  0  0  0  0  # atno 11005 bound_to 11000
  145.2362  139.2092  143.5016 LP  0  0  0  0  0  0  0  0  0  0  0  0  # atno 17320 bound_to 7965
  146.3418  140.2249  142.8592 LP  0  0  0  0  0  0  0  0  0  0  0  0  # atno 17321 bound_to 7965
  140.5668  144.0176  150.6196 LP  0  0  0  0  0  0  0  0  0  0  0  0  # atno 17342 bound_to 10162
  140.3280  143.3095  152.0716 LP  0  0  0  0  0  0  0  0  0  0  0  0  # atno 17343 bound_to 10162
  156.5067  130.4130  149.6323 LP  0  0  0  0  0  0  0  0  0  0  0  0  # atno 17370 bound_to 10713
  156.3278  130.7315  151.2239 LP  0  0  0  0  0  0  0  0  0  0  0  0  # atno 17371 bound_to 10713
  141.1942  133.6582  156.5587 LP  0  0  0  0  0  0  0  0  0  0  0  0  # atno 17394 bound_to 11000
  140.3876  134.7469  157.4701 LP  0  0  0  0  0  0  0  0  0  0  0  0  # atno 17395 bound_to 11000

$$$$
