AV-unprocessed.smi:1099|AV-procd|sdf|4755|dock3
  -GOLD-   22720 3293D 1   1.00000     0.00000
 Structure written by MMmdl.
 41 43  0  0  0  0  0  0  0  0  1 V2000
  145.3036  145.2268  152.2128 C   0  0  0  0  0  0  0  0  0  0  0  0
  144.5882  144.7821  153.4927 C   0  0  0  0  0  0  0  0  0  0  0  0
  145.3548  143.7479  154.2473 C   0  0  0  0  0  0  0  0  0  0  0  0
  146.4815  143.1897  153.7962 N   0  0  0  0  0  0  0  0  0  0  0  0
  147.0299  142.2758  154.7019 C   0  0  0  0  0  0  0  0  0  0  0  0
  148.2900  141.5419  154.3573 C   0  0  0  0  0  0  0  0  0  0  0  0
  149.0429  141.0595  155.6084 C   0  0  0  0  0  0  0  0  0  0  0  0
  149.4719  142.1775  156.4410 N   0  0  0  0  0  0  0  0  0  0  0  0
  150.2879  142.0787  157.5020 C   0  0  0  0  0  0  0  0  0  0  0  0
  150.7718  141.0098  157.8755 O   0  0  0  0  0  0  0  0  0  0  0  0
  150.5948  143.3894  158.2483 C   0  0  2  0  0  0  0  0  0  0  0  0
  151.4164  144.3991  157.4087 C   0  0  0  0  0  0  0  0  0  0  0  0
  152.6376  144.6909  158.3029 C   0  0  1  0  0  0  0  0  0  0  0  0
  152.1886  145.4940  159.5388 C   0  0  0  0  0  0  0  0  0  0  0  0
  151.4310  144.4410  160.3709 C   0  0  0  0  0  0  0  0  0  0  0  0
  151.5133  143.1862  159.4802 C   0  0  2  0  0  0  0  0  0  0  0  0
  152.9234  143.3231  158.9069 C   0  0  0  0  0  0  0  0  0  0  0  0
  146.3007  142.1568  155.8588 C   0  0  0  0  0  0  0  0  0  0  0  0
  144.9003  143.1925  155.8544 S   0  0  0  0  0  0  0  0  0  0  0  0
  144.7218  145.9830  151.6853 H   0  0  0  0  0  0  0  0  0  0  0  0
  145.4533  144.3871  151.5333 H   0  0  0  0  0  0  0  0  0  0  0  0
  146.2810  145.6549  152.4374 H   0  0  0  0  0  0  0  0  0  0  0  0
  144.4258  145.6406  154.1448 H   0  0  0  0  0  0  0  0  0  0  0  0
  143.6024  144.3838  153.2496 H   0  0  0  0  0  0  0  0  0  0  0  0
  148.0589  140.6871  153.7205 H   0  0  0  0  0  0  0  0  0  0  0  0
  148.9389  142.1876  153.7643 H   0  0  0  0  0  0  0  0  0  0  0  0
  148.4195  140.3781  156.1901 H   0  0  0  0  0  0  0  0  0  0  0  0
  149.9292  140.4955  155.3161 H   0  0  0  0  0  0  0  0  0  0  0  0
  149.1191  143.0915  156.1962 H   0  0  0  0  0  0  0  0  0  0  0  0
  149.6511  143.8420  158.5583 H   0  0  0  0  0  0  0  0  0  0  0  0
  151.7386  143.9791  156.4546 H   0  0  0  0  0  0  0  0  0  0  0  0
  150.8488  145.3039  157.1880 H   0  0  0  0  0  0  0  0  0  0  0  0
  153.4733  145.1427  157.7677 H   0  0  0  0  0  0  0  0  0  0  0  0
  153.0488  145.8723  160.0923 H   0  0  0  0  0  0  0  0  0  0  0  0
  151.5609  146.3451  159.2723 H   0  0  0  0  0  0  0  0  0  0  0  0
  151.9344  144.2723  161.3237 H   0  0  0  0  0  0  0  0  0  0  0  0
  150.4037  144.7372  160.5857 H   0  0  0  0  0  0  0  0  0  0  0  0
  151.3326  142.2576  160.0236 H   0  0  0  0  0  0  0  0  0  0  0  0
  153.1830  142.5681  158.1647 H   0  0  0  0  0  0  0  0  0  0  0  0
  153.7010  143.3434  159.6725 H   0  0  0  0  0  0  0  0  0  0  0  0
  146.5037  141.5259  156.7115 H   0  0  0  0  0  0  0  0  0  0  0  0
  1  2  1  0  0  0  0
  1 20  1  0  0  0  0
  1 21  1  0  0  0  0
  1 22  1  0  0  0  0
  2  3  1  0  0  0  0
  2 23  1  0  0  0  0
  2 24  1  0  0  0  0
  3 19  1  0  0  0  0
  3  4  2  0  0  0  0
  4  5  1  0  0  0  0
  5  6  1  0  0  0  0
  5 18  2  0  0  0  0
  6  7  1  0  0  0  0
  6 25  1  0  0  0  0
  6 26  1  0  0  0  0
  7  8  1  0  0  0  0
  7 27  1  0  0  0  0
  7 28  1  0  0  0  0
  8  9  1  0  0  0  0
  8 29  1  0  0  0  0
  9 10  2  0  0  0  0
  9 11  1  0  0  0  0
 11 16  1  0  0  0  0
 11 12  1  0  0  0  0
 11 30  1  0  0  0  0
 12 13  1  0  0  0  0
 12 31  1  0  0  0  0
 12 32  1  0  0  0  0
 13 17  1  0  0  0  0
 13 14  1  0  0  0  0
 13 33  1  0  0  0  0
 14 15  1  0  0  0  0
 14 34  1  0  0  0  0
 14 35  1  0  0  0  0
 15 16  1  0  0  0  0
 15 36  1  0  0  0  0
 15 37  1  0  0  0  0
 16 17  1  0  0  0  0
 16 38  1  0  0  0  0
 17 39  1  0  0  0  0
 17 40  1  0  0  0  0
 18 19  1  0  0  0  0
 18 41  1  0  0  0  0
M  END
> <s_m_source_file>
AV-unprocessed.smi

> <i_m_source_file_index>
1099

> <i_lp_mmshare_version>
43012

> <i_f3d_flags>
0

> <s_epik_input>
W0NIM11bQ0gyXWMxbmMoW2NIXXMxKVtDSDJdW0NIMl1bTkhdQyg9TylbQ0BIXShbQ0gyXVtDQEBIXTIzKVtDQEBIXShbQ0gyXTMpW0NIMl1bQ0gyXTI=

> <s_epik_cmdline>
J2VwaWtfcHl0aG9uJywgJy1waCcsICc3LjAnLCAnLXRuJywgJzgnLCAnLW1hJywgJzIwMCcsICctbWV0YWxfYmluZGluZycsICctaW1hZScsICc8aW5maWxlLm1hZT4nLCAnLW9tYWUnLCAnPG91dGZpbGUubWFlPic=

> <r_epik_Ionization_Penalty>
0.00110131

> <r_epik_Ionization_Penalty_Charging>
0

> <r_epik_Ionization_Penalty_Neutral>
0.00110131

> <r_epik_State_Penalty>
0.00072257

> <r_epik_Charging_Adjusted_Penalty>
0.00072257

> <i_epik_Tot_Q>
0

> <i_epik_Tot_abs_Q>
0

> <r_epik_Metal_State_Penalty>
-0

> <b_epik_Metal_Only>
0

> <s_lp_Force_Field>
OPLS_2005

> <r_lp_Energy>
37.6271

> <b_lp_Chiralities_Consistent>
1

> <s_lp_Variant>
AV-unprocessed.smi:1099-1

> <Gold.Version>
5.8.1

> <Gold.Id.Protein>
6NUR|6NUR_protein|mol2

> <Gold.PLP.Fitness>
49.2602

> <Gold.PLP.PLP>
-47.1362

> <Gold.PLP.part.hbond>
-1.6474

> <Gold.PLP.part.metal>
0.0000

> <Gold.PLP.part.buried>
-3.1460

> <Gold.PLP.part.nonpolar>
-42.1629

> <Gold.PLP.part.repulsive>
0.2721

> <Gold.PLP.ligand.clash>
0.0000

> <Gold.PLP.ligand.torsion>
0.4615

> <Gold.PLP.Chemscore.Hbond>
1.0000

> <Gold.PLP.Chemscore.CHOScore>
0.0000

> <Gold.PLP.Chemscore.Metal>
0.0000

> <Gold.Chemscore.Hbonds>
donor molecule, donor type, donor heavy atom, donor atom, acceptor molecule, acceptor atom, score
      L1  H     8    29       P1  8028  1.00

> <Gold.PLP.Chemscore.Internal.Correction>
0.0471

> <Gold.Rescore>
     Score         DG    S(hbond)    S(metal)    S(lipo)     H(rot)  DE(clash)    DE(int)     intcor
     20.12     -20.61       1.00        0.00     131.81       1.42       0.08       0.42       ----

> <Gold.Chemscore.Fitness>
20.1154

> <Gold.Chemscore.DG>
-20.6146

> <Gold.Chemscore.ZeroCoef>
-5.4800

> <Gold.Chemscore.Hbond>
0.9995

> <Gold.Chemscore.Metal>
0.0000

> <Gold.Chemscore.Lipo>
131.8145

> <Gold.Chemscore.Internal_Hbond>
0.0000

> <Gold.Chemscore.DEClash>
0.0801

> <Gold.Chemscore.DEInternal>
0.4191

> <Gold.Chemscore.Rot>
1.4165

> <Gold.Chemscore.Internal.Correction>
   9.000000E+99

> <Gold.Chemscore.Hbonds>
donor molecule, donor type, donor heavy atom, donor atom, acceptor molecule, acceptor atom, score
      L1  H     8    29       P1  8028  1.00

> <Gold.Chemscore.Hbond.Weighted>
-3.3384

> <Gold.Chemscore.Metal.Weighted>
-0.0000

> <Gold.Chemscore.Lipo.Weighted>
-15.4223

> <Gold.Chemscore.Internal_Hbond.Weighted>
0.0000

> <Gold.Chemscore.DEClash.Weighted>
0.0801

> <Gold.Chemscore.DEInternal.Weighted>
0.4191

> <Gold.Chemscore.Rot.Weighted>
3.6262

> <Gold.Chemscore.Internal.Correction.Weighted>
   9.000000E+99

> <Gold.Protein.RotatedTorsions>
[ 6907 6896 6895 6894 ] final  -46.15 input  -60.11 | X-H torsion
[ 7974 7965 7964 7962 ] final  131.08 input  175.53 | X-H torsion
[ 8008 7997 7996 7995 ] final  -35.06 input   59.86 | X-H torsion
[ 10167 10162 10161 10158 ] final  135.24 input  -65.29 | X-H torsion
[ 10718 10713 10712 10709 ] final  -70.39 input   66.30 | X-H torsion
[ 10763 10752 10751 10750 ] final  143.43 input  -60.55 | X-H torsion
[ 11005 11000 10999 10996 ] final -115.59 input  -57.11 | X-H torsion

> <Gold.Protein.ActiveResidues>
 VAL166  LYS551  ARG553  GLY616  TRP617  ASP618  TYR619  PRO620  LYS621  CYS622 
 ASP623  PHE694  ASN695  SER759  ASP760  ASP761  ALA762  ILE779  LEU786  VAL792 
 PHE793  MET794  SER795  GLU796  ALA797  LYS798  CYS799  TRP800  GLU811  SER814 

> <Gold.Protein.RotatedAtoms>
  150.9144  134.8561  159.7446 H   0  0  0  0  0  0  0  0  0  0  0  0  # atno 6907 bound_to 6896
  152.4961  134.4312  159.9522 H   0  0  0  0  0  0  0  0  0  0  0  0  # atno 6908 bound_to 6896
  151.4351  133.3619  159.2809 H   0  0  0  0  0  0  0  0  0  0  0  0  # atno 6909 bound_to 6896
  145.0111  139.4219  143.5244 H   0  0  0  0  0  0  0  0  0  0  0  0  # atno 7974 bound_to 7965
  154.4105  140.1667  156.2150 H   0  0  0  0  0  0  0  0  0  0  0  0  # atno 8008 bound_to 7997
  155.9412  140.3408  155.6306 H   0  0  0  0  0  0  0  0  0  0  0  0  # atno 8009 bound_to 7997
  155.6987  140.0742  157.2410 H   0  0  0  0  0  0  0  0  0  0  0  0  # atno 8010 bound_to 7997
  139.5225  144.6527  151.5254 H   0  0  0  0  0  0  0  0  0  0  0  0  # atno 10167 bound_to 10162
  156.0410  130.4330  150.2289 H   0  0  0  0  0  0  0  0  0  0  0  0  # atno 10718 bound_to 10713
  153.9722  135.2949  155.3426 H   0  0  0  0  0  0  0  0  0  0  0  0  # atno 10763 bound_to 10752
  154.7316  135.5065  153.8976 H   0  0  0  0  0  0  0  0  0  0  0  0  # atno 10764 bound_to 10752
  153.0894  135.6703  153.9996 H   0  0  0  0  0  0  0  0  0  0  0  0  # atno 10765 bound_to 10752
  141.0478  133.9735  157.2888 H   0  0  0  0  0  0  0  0  0  0  0  0  # atno 11005 bound_to 11000
  146.3470  139.9556  142.8723 LP  0  0  0  0  0  0  0  0  0  0  0  0  # atno 17320 bound_to 7965
  145.2021  140.9859  143.4149 LP  0  0  0  0  0  0  0  0  0  0  0  0  # atno 17321 bound_to 7965
  140.6339  143.9022  150.6630 LP  0  0  0  0  0  0  0  0  0  0  0  0  # atno 17342 bound_to 10162
  140.2335  143.3717  152.1546 LP  0  0  0  0  0  0  0  0  0  0  0  0  # atno 17343 bound_to 10162
  157.0384  131.0028  151.3291 LP  0  0  0  0  0  0  0  0  0  0  0  0  # atno 17370 bound_to 10713
  157.5227  130.8008  149.7827 LP  0  0  0  0  0  0  0  0  0  0  0  0  # atno 17371 bound_to 10713
  139.9325  135.0199  156.8449 LP  0  0  0  0  0  0  0  0  0  0  0  0  # atno 17394 bound_to 11000
  140.6114  134.0079  155.7578 LP  0  0  0  0  0  0  0  0  0  0  0  0  # atno 17395 bound_to 11000

$$$$
