AV-unprocessed.smi:1430|AV-procd|sdf|5828|dock1
  -GOLD-   22720 5483D 1   1.00000     0.00000
 Structure written by MMmdl.
 47 48  0  0  0  0  0  0  0  0  2 V2000
  151.1409  143.0234  157.8140 C   0  0  0  0  0  0  0  0  0  0  0  0
  151.6965  141.8186  157.2983 O   0  0  0  0  0  0  0  0  0  0  0  0
  150.9917  141.1343  156.3296 C   0  0  0  0  0  0  0  0  0  0  0  0
  151.5717  139.9846  155.7591 C   0  0  0  0  0  0  0  0  0  0  0  0
  150.8544  139.2821  154.7729 C   0  0  0  0  0  0  0  0  0  0  0  0
  149.5797  139.7428  154.3851 C   0  0  0  0  0  0  0  0  0  0  0  0
  148.8934  139.0081  153.3786 N   0  0  0  0  0  0  0  0  0  0  0  0
  147.6833  139.2310  152.8365 C   0  0  0  0  0  0  0  0  0  0  0  0
  146.9189  140.1472  153.1364 O   0  0  0  0  0  0  0  0  0  0  0  0
  147.3925  138.3094  151.9074 N   0  0  0  0  0  0  0  0  0  0  0  0
  146.1562  138.2658  151.1345 C   0  0  0  0  0  0  0  0  0  0  0  0
  145.9369  136.8782  150.5018 C   0  0  0  0  0  0  0  0  0  0  0  0
  146.1818  135.7705  151.4633 N   0  3  1  0  0  0  0  0  0  0  0  0
  145.2434  135.7655  152.6123 C   0  0  0  0  0  0  0  0  0  0  0  0
  143.8678  135.1944  152.2107 C   0  0  2  0  0  0  0  0  0  0  0  0
  142.9121  135.0987  153.4051 C   0  0  0  0  0  0  0  0  0  0  0  0
  144.0488  133.8846  151.6834 O   0  0  0  0  0  0  0  0  0  0  0  0
  144.8583  133.8655  150.5125 C   0  0  2  0  0  0  0  0  0  0  0  0
  144.9176  132.4219  150.0014 C   0  0  0  0  0  0  0  0  0  0  0  0
  146.2592  134.4175  150.8549 C   0  0  0  0  0  0  0  0  0  0  0  0
  149.0880  140.9149  155.0119 C   0  0  0  0  0  0  0  0  0  0  0  0
  149.7707  141.5925  155.9593 N   0  0  0  0  0  0  0  0  0  0  0  0
  151.8131  143.4375  158.5652 H   0  0  0  0  0  0  0  0  0  0  0  0
  150.1778  142.8451  158.2944 H   0  0  0  0  0  0  0  0  0  0  0  0
  151.0175  143.7735  157.0315 H   0  0  0  0  0  0  0  0  0  0  0  0
  152.5490  139.6481  156.0723 H   0  0  0  0  0  0  0  0  0  0  0  0
  151.2814  138.3981  154.3215 H   0  0  0  0  0  0  0  0  0  0  0  0
  149.3772  138.1861  153.0480 H   0  0  0  0  0  0  0  0  0  0  0  0
  148.0722  137.5851  151.7251 H   0  0  0  0  0  0  0  0  0  0  0  0
  145.3432  138.5163  151.8144 H   0  0  0  0  0  0  0  0  0  0  0  0
  146.1679  139.0398  150.3652 H   0  0  0  0  0  0  0  0  0  0  0  0
  144.9021  136.8191  150.1617 H   0  0  0  0  0  0  0  0  0  0  0  0
  146.5553  136.7628  149.6117 H   0  0  0  0  0  0  0  0  0  0  0  0
  145.6768  135.1495  153.4017 H   0  0  0  0  0  0  0  0  0  0  0  0
  145.1438  136.7680  153.0300 H   0  0  0  0  0  0  0  0  0  0  0  0
  143.4047  135.8275  151.4520 H   0  0  0  0  0  0  0  0  0  0  0  0
  142.7260  136.0815  153.8390 H   0  0  0  0  0  0  0  0  0  0  0  0
  143.3200  134.4584  154.1877 H   0  0  0  0  0  0  0  0  0  0  0  0
  141.9508  134.6826  153.1024 H   0  0  0  0  0  0  0  0  0  0  0  0
  144.3882  134.4778  149.7420 H   0  0  0  0  0  0  0  0  0  0  0  0
  145.5213  132.3498  149.0964 H   0  0  0  0  0  0  0  0  0  0  0  0
  143.9199  132.0511  149.7648 H   0  0  0  0  0  0  0  0  0  0  0  0
  145.3510  131.7553  150.7475 H   0  0  0  0  0  0  0  0  0  0  0  0
  146.9005  134.4165  149.9746 H   0  0  0  0  0  0  0  0  0  0  0  0
  146.7398  133.7551  151.5763 H   0  0  0  0  0  0  0  0  0  0  0  0
  148.1354  141.3511  154.7595 H   0  0  0  0  0  0  0  0  0  0  0  0
  147.0925  135.9631  151.8558 H   0  0  0  0  0  0  0  0  0  0  0  0
  1  2  1  0  0  0  0
  1 23  1  0  0  0  0
  1 24  1  0  0  0  0
  1 25  1  0  0  0  0
  2  3  1  0  0  0  0
  3 22  1  0  0  0  0
  3  4  2  0  0  0  0
  4  5  1  0  0  0  0
  4 26  1  0  0  0  0
  5  6  2  0  0  0  0
  5 27  1  0  0  0  0
  6  7  1  0  0  0  0
  6 21  1  0  0  0  0
  7  8  1  0  0  0  0
  7 28  1  0  0  0  0
  8  9  2  0  0  0  0
  8 10  1  0  0  0  0
 10 11  1  0  0  0  0
 10 29  1  0  0  0  0
 11 12  1  0  0  0  0
 11 30  1  0  0  0  0
 11 31  1  0  0  0  0
 12 13  1  0  0  0  0
 12 32  1  0  0  0  0
 12 33  1  0  0  0  0
 13 20  1  0  0  0  0
 13 14  1  0  0  0  0
 13 47  1  0  0  0  0
 14 15  1  0  0  0  0
 14 34  1  0  0  0  0
 14 35  1  0  0  0  0
 15 16  1  0  0  0  0
 15 17  1  0  0  0  0
 15 36  1  0  0  0  0
 16 37  1  0  0  0  0
 16 38  1  0  0  0  0
 16 39  1  0  0  0  0
 17 18  1  0  0  0  0
 18 19  1  0  0  0  0
 18 20  1  0  0  0  0
 18 40  1  0  0  0  0
 19 41  1  0  0  0  0
 19 42  1  0  0  0  0
 19 43  1  0  0  0  0
 20 44  1  0  0  0  0
 20 45  1  0  0  0  0
 21 22  2  0  0  0  0
 21 46  1  0  0  0  0
M  CHG  1  13   1
M  END
> <s_m_source_file>
AV-unprocessed.smi

> <i_m_source_file_index>
1430

> <i_lp_mmshare_version>
43012

> <i_f3d_flags>
0

> <s_epik_input>
W0NIM11PYzFbY0hdW2NIXWMoW2NIXW4xKVtOSF1DKD1PKVtOSF1bQ0gyXVtDSDJdTjJbQ0gyXVtDQEBIXShbQ0gzXSlPW0NAQEhdKFtDSDNdKVtDSDJdMg==

> <s_epik_cmdline>
J2VwaWtfcHl0aG9uJywgJy1waCcsICc3LjAnLCAnLXRuJywgJzgnLCAnLW1hJywgJzIwMCcsICctbWV0YWxfYmluZGluZycsICctaW1hZScsICc8aW5maWxlLm1hZT4nLCAnLW9tYWUnLCAnPG91dGZpbGUubWFlPic=

> <r_lp_tautomer_probability>
1

> <r_epik_Ionization_Penalty>
0.602607

> <r_epik_Ionization_Penalty_Charging>
0.602531

> <r_epik_Ionization_Penalty_Neutral>
7.66983e-05

> <r_epik_State_Penalty>
0.617039

> <r_epik_Charging_Adjusted_Penalty>
1.21957

> <i_epik_Tot_Q>
1

> <i_epik_Tot_abs_Q>
1

> <r_epik_Metal_State_Penalty>
0.617043

> <b_epik_Metal_Only>
0

> <s_lp_Force_Field>
OPLS_2005

> <r_lp_Energy>
19.3268

> <b_lp_Chiralities_Consistent>
1

> <s_lp_Variant>
AV-unprocessed.smi:1430-7

> <Gold.Version>
5.8.1

> <Gold.Id.Protein>
6NUR|6NUR_protein|mol2

> <Gold.PLP.Fitness>
47.0044

> <Gold.PLP.PLP>
-36.9122

> <Gold.PLP.part.hbond>
-4.7966

> <Gold.PLP.part.metal>
0.0000

> <Gold.PLP.part.buried>
4.5165

> <Gold.PLP.part.nonpolar>
-38.0614

> <Gold.PLP.part.repulsive>
0.8812

> <Gold.PLP.ligand.clash>
0.0000

> <Gold.PLP.ligand.torsion>
0.2245

> <Gold.PLP.Chemscore.Hbond>
3.4272

> <Gold.PLP.Chemscore.CHOScore>
0.0000

> <Gold.PLP.Chemscore.Metal>
0.0000

> <Gold.Chemscore.Hbonds>
donor molecule, donor type, donor heavy atom, donor atom, acceptor molecule, acceptor atom, score
      L1  H     7    28       P1  7948  0.29
      L1  H    10    29       P1  7948  1.00
      L1  H    13    47       P1  7948  2.00

> <Gold.PLP.Chemscore.Internal.Correction>
0.2597

> <Gold.Rescore>
     Score         DG    S(hbond)    S(metal)    S(lipo)     H(rot)  DE(clash)    DE(int)     intcor
     14.67     -20.60       2.63        0.00      92.69       1.76       4.48       1.45       ----

> <Gold.Chemscore.Fitness>
14.6664

> <Gold.Chemscore.DG>
-20.6025

> <Gold.Chemscore.ZeroCoef>
-5.4800

> <Gold.Chemscore.Hbond>
2.6303

> <Gold.Chemscore.Metal>
0.0000

> <Gold.Chemscore.Lipo>
92.6891

> <Gold.Chemscore.Internal_Hbond>
0.0000

> <Gold.Chemscore.DEClash>
4.4828

> <Gold.Chemscore.DEInternal>
1.4533

> <Gold.Chemscore.Rot>
1.7606

> <Gold.Chemscore.Internal.Correction>
   9.000000E+99

> <Gold.Chemscore.Hbonds>
donor molecule, donor type, donor heavy atom, donor atom, acceptor molecule, acceptor atom, score
      L1  H     7    28       P1  7948  0.27
      L1  H    10    29       P1  7948  0.98
      L1  H    13    47       P1  7948  0.98

> <Gold.Chemscore.Hbond.Weighted>
-8.7851

> <Gold.Chemscore.Metal.Weighted>
-0.0000

> <Gold.Chemscore.Lipo.Weighted>
-10.8446

> <Gold.Chemscore.Internal_Hbond.Weighted>
0.0000

> <Gold.Chemscore.DEClash.Weighted>
4.4828

> <Gold.Chemscore.DEInternal.Weighted>
1.4533

> <Gold.Chemscore.Rot.Weighted>
4.5072

> <Gold.Chemscore.Internal.Correction.Weighted>
   9.000000E+99

> <Gold.Protein.RotatedTorsions>
[ 6907 6896 6895 6894 ] final  145.94 input  -60.11 | X-H torsion
[ 7974 7965 7964 7962 ] final  139.99 input  175.53 | X-H torsion
[ 8008 7997 7996 7995 ] final -110.72 input   59.86 | X-H torsion
[ 10167 10162 10161 10158 ] final   62.48 input  -65.29 | X-H torsion
[ 10718 10713 10712 10709 ] final  152.69 input   66.30 | X-H torsion
[ 10763 10752 10751 10750 ] final   34.13 input  -60.55 | X-H torsion
[ 11005 11000 10999 10996 ] final  -69.89 input  -57.11 | X-H torsion

> <Gold.Protein.ActiveResidues>
 VAL166  LYS551  ARG553  GLY616  TRP617  ASP618  TYR619  PRO620  LYS621  CYS622 
 ASP623  PHE694  ASN695  SER759  ASP760  ASP761  ALA762  ILE779  LEU786  VAL792 
 PHE793  MET794  SER795  GLU796  ALA797  LYS798  CYS799  TRP800  GLU811  SER814 

> <Gold.Protein.RotatedAtoms>
  152.1743  133.4664  159.4925 H   0  0  0  0  0  0  0  0  0  0  0  0  # atno 6907 bound_to 6896
  150.6924  134.1913  159.4295 H   0  0  0  0  0  0  0  0  0  0  0  0  # atno 6908 bound_to 6896
  151.9822  135.0022  160.0608 H   0  0  0  0  0  0  0  0  0  0  0  0  # atno 6909 bound_to 6896
  144.9228  139.5146  143.5655 H   0  0  0  0  0  0  0  0  0  0  0  0  # atno 7974 bound_to 7965
  154.9788  140.0396  157.2268 H   0  0  0  0  0  0  0  0  0  0  0  0  # atno 8008 bound_to 7997
  154.7733  140.2806  155.6098 H   0  0  0  0  0  0  0  0  0  0  0  0  # atno 8009 bound_to 7997
  156.2924  140.2606  156.2541 H   0  0  0  0  0  0  0  0  0  0  0  0  # atno 8010 bound_to 7997
  140.1435  144.4531  150.6798 H   0  0  0  0  0  0  0  0  0  0  0  0  # atno 10167 bound_to 10162
  157.2545  131.0785  151.1708 H   0  0  0  0  0  0  0  0  0  0  0  0  # atno 10718 bound_to 10713
  153.0178  135.6368  154.1621 H   0  0  0  0  0  0  0  0  0  0  0  0  # atno 10763 bound_to 10752
  154.1358  135.2837  155.3175 H   0  0  0  0  0  0  0  0  0  0  0  0  # atno 10764 bound_to 10752
  154.6161  135.5540  153.7586 H   0  0  0  0  0  0  0  0  0  0  0  0  # atno 10765 bound_to 10752
  141.1563  133.6776  156.6669 H   0  0  0  0  0  0  0  0  0  0  0  0  # atno 11005 bound_to 11000
  146.3212  139.8120  142.8944 LP  0  0  0  0  0  0  0  0  0  0  0  0  # atno 17320 bound_to 7965
  145.3268  141.0257  143.3469 LP  0  0  0  0  0  0  0  0  0  0  0  0  # atno 17321 bound_to 7965
  140.6746  143.2300  151.5540 LP  0  0  0  0  0  0  0  0  0  0  0  0  # atno 17342 bound_to 10162
  139.5460  144.2519  152.1443 LP  0  0  0  0  0  0  0  0  0  0  0  0  # atno 17343 bound_to 10162
  157.3242  130.6952  149.6287 LP  0  0  0  0  0  0  0  0  0  0  0  0  # atno 17370 bound_to 10713
  155.9665  130.4326  150.4971 LP  0  0  0  0  0  0  0  0  0  0  0  0  # atno 17371 bound_to 10713
  140.3204  134.8012  157.4248 LP  0  0  0  0  0  0  0  0  0  0  0  0  # atno 17394 bound_to 11000
  140.1101  134.5356  155.8273 LP  0  0  0  0  0  0  0  0  0  0  0  0  # atno 17395 bound_to 11000

$$$$
