#       Name:                AV-unprocessed.smi:1494
#       Creating user name   scv26
#       Creation time:       Fri Mar 27 06:16:57 2020


#       File generated by GOLD software.
#

@<TRIPOS>MOLECULE
AV-unprocessed.smi:1494
    33    34     1
SMALL
NO_CHARGES


@<TRIPOS>ATOM
      1 ****         0.2873   1.4617   0.6748 O.2            1 S1                 0.0000
      2 ****        -0.2362   0.3530   0.7811 C.2            1 S1                 0.0000
      3 ****         0.4621  -0.7864   0.8840 N.am           1 S1                 0.0000
      4 ****         1.9169  -0.8829   0.8724 C.3            1 S1                 0.0000
      5 ****         2.4624  -0.8706  -0.5530 C.3            1 S1                 0.0000
      6 ****         2.1372  -2.0305  -1.5069 C.3            1 S1                 0.0000
      7 ****         3.5340  -1.8636  -2.1105 C.3            1 S1                 0.0000
      8 ****         3.9452  -1.1841  -0.8014 C.3            1 S1                 0.0000
      9 ****        -1.5582   0.1140   0.8233 N.am           1 S1                 0.0000
     10 ****        -2.6351   1.0406   0.7724 C.ar           1 S1                 0.0000
     11 ****        -2.5307   2.3679   0.2892 C.ar           1 S1                 0.0000
     12 ****        -3.6803   3.1812   0.2839 C.ar           1 S1                 0.0000
     13 ****        -4.8918   2.6382   0.7538 C.ar           1 S1                 0.0000
     14 ****        -5.0091   1.3712   1.2036 N.ar           1 S1                 0.0000
     15 ****        -3.9028   0.5974   1.2055 C.ar           1 S1                 0.0000
     16 ****        -0.0497  -1.6523   0.9707 H              1 S1                 0.0000
     17 ****         2.3526  -0.0725   1.4587 H              1 S1                 0.0000
     18 ****         2.1958  -1.8077   1.3780 H              1 S1                 0.0000
     19 ****         2.2220   0.0706  -1.0524 H              1 S1                 0.0000
     20 ****         2.0128  -2.9833  -0.9894 H              1 S1                 0.0000
     21 ****         1.3140  -1.8364  -2.1951 H              1 S1                 0.0000
     22 ****         4.0543  -2.7975  -2.3257 H              1 S1                 0.0000
     23 ****         3.5479  -1.1831  -2.9635 H              1 S1                 0.0000
     24 ****         4.5836  -0.3083  -0.9213 H              1 S1                 0.0000
     25 ****         4.3588  -1.8865  -0.0755 H              1 S1                 0.0000
     26 ****        -1.8267  -0.8477   0.9724 H              1 S1                 0.0000
     27 ****        -1.6054   2.7753  -0.0864 H              1 S1                 0.0000
     28 ****        -3.6343   4.1984  -0.0758 H              1 S1                 0.0000
     29 ****        -5.7914   3.2357   0.7638 H              1 S1                 0.0000
     30 ****        -4.0346  -0.4110   1.5706 H              1 S1                 0.0000
     31 ****         1.2837   1.5450   0.6619 LP             1 S1                 0.0000
     32 ****        -0.2838   2.2793   0.6013 LP             1 S1                 0.0000
     33 ****        -5.8872   1.0169   1.5251 LP             1 S1                 0.0000
@<TRIPOS>BOND
    1    1    2 2     
    2    2    3 am    
    3    2    9 am    
    4    3    4 1     
    5    3   16 1     
    6    4    5 1     
    7    4   17 1     
    8    4   18 1     
    9    5    8 1     
   10    5    6 1     
   11    5   19 1     
   12    6    7 1     
   13    6   20 1     
   14    6   21 1     
   15    7    8 1     
   16    7   22 1     
   17    7   23 1     
   18    8   24 1     
   19    8   25 1     
   20    9   10 1     
   21    9   26 1     
   22   10   15 ar    
   23   10   11 ar    
   24   11   12 ar    
   25   11   27 1     
   26   12   13 ar    
   27   12   28 1     
   28   13   14 ar    
   29   13   29 1     
   30   14   15 ar    
   31   15   30 1     
   32    1   31 1     
   33    1   32 1     
   34   14   33 1     
@<TRIPOS>SUBSTRUCTURE
      1 S1             1
@<TRIPOS>SET
LONE_PAIRS      STATIC     ATOMS    <user>   **** ""
3 31 32 33
DONOR_HYDROGENS      STATIC     ATOMS    <user>   **** ""
2 16 26
ATOM$BLUE        STATIC     ATOMS    COLORGROUP SYSTEM
3 31 32 33
ATOM$RED        STATIC     ATOMS    COLORGROUP SYSTEM
2 16 26
