#       Name:                AV-unprocessed.smi:834
#       Creating user name   scv26
#       Creation time:       Fri Mar 27 01:34:07 2020


#       File generated by GOLD software.
#

@<TRIPOS>MOLECULE
AV-unprocessed.smi:834
    45    46     1
SMALL
NO_CHARGES


@<TRIPOS>ATOM
      1 ****        -8.0999   3.2694  -1.3488 C.3            1 S1                 0.0000
      2 ****        -6.6879   2.7948  -1.4046 C.2            1 S1                 0.0000
      3 ****        -5.6400   3.6162  -1.2663 N.2            1 S1                 0.0000
      4 ****        -4.4290   2.9443  -1.3572 N.2            1 S1                 0.0000
      5 ****        -4.6004   1.6313  -1.5635 C.2            1 S1                 0.0000
      6 ****        -3.5310   0.7073  -1.7003 N.am           1 S1                 0.0000
      7 ****        -2.2091   0.9479  -1.6467 C.2            1 S1                 0.0000
      8 ****        -1.6923   2.0465  -1.4417 O.2            1 S1                 0.0000
      9 ****        -1.5038  -0.1750  -1.8449 N.am           1 S1                 0.0000
     10 ****        -0.0476  -0.2584  -1.8546 C.3            1 S1                 0.0000
     11 ****         0.5252  -0.3272  -0.4253 C.3            1 S1                 0.0000
     12 ****         2.0325  -0.5989  -0.3973 C.2            1 S1                 0.0000
     13 ****         2.7563  -0.2196  -1.3185 O.2            1 S1                 0.0000
     14 ****         2.4951  -1.2584   0.6760 N.am           1 S1                 0.0000
     15 ****         3.8897  -1.6327   0.8974 C.3            1 S1                 0.0000
     16 ****         3.9955  -2.7531   1.9499 C.3            1 S1                 0.0000
     17 ****         5.0821  -2.3123   2.9320 C.3            1 S1                 0.0000
     18 ****         5.0189  -0.7887   2.9056 C.3            1 S1                 0.0000
     19 ****         4.7163  -0.4515   1.4450 C.3            1 S1                 0.0000
     20 ****        -6.2721   1.1050  -1.6633 S.3            1 S1                 0.0000
     21 ****        -8.1484   4.2901  -0.9682 H              1 S1                 0.0000
     22 ****        -8.6850   2.6249  -0.6926 H              1 S1                 0.0000
     23 ****        -8.5392   3.2464  -2.3460 H              1 S1                 0.0000
     24 ****        -3.8055  -0.2494  -1.8677 H              1 S1                 0.0000
     25 ****        -2.0091  -1.0342  -2.0057 H              1 S1                 0.0000
     26 ****         0.2288  -1.1533  -2.4135 H              1 S1                 0.0000
     27 ****         0.3703   0.5898  -2.4004 H              1 S1                 0.0000
     28 ****         0.3332   0.6072   0.1035 H              1 S1                 0.0000
     29 ****         0.0148  -1.1139   0.1329 H              1 S1                 0.0000
     30 ****         1.8328  -1.5276   1.3890 H              1 S1                 0.0000
     31 ****         4.3275  -1.9773  -0.0415 H              1 S1                 0.0000
     32 ****         3.0542  -2.8634   2.4914 H              1 S1                 0.0000
     33 ****         4.2221  -3.7204   1.5003 H              1 S1                 0.0000
     34 ****         4.9357  -2.7220   3.9319 H              1 S1                 0.0000
     35 ****         6.0575  -2.6453   2.5748 H              1 S1                 0.0000
     36 ****         4.2014  -0.4436   3.5403 H              1 S1                 0.0000
     37 ****         5.9382  -0.3233   3.2627 H              1 S1                 0.0000
     38 ****         5.6530  -0.3844   0.8898 H              1 S1                 0.0000
     39 ****         4.2177   0.5138   1.3450 H              1 S1                 0.0000
     40 ****        -5.7205   4.6013  -1.1148 LP             1 S1                 0.0000
     41 ****        -3.5357   3.3868  -1.2782 LP             1 S1                 0.0000
     42 ****        -2.2684   2.8512  -1.2984 LP             1 S1                 0.0000
     43 ****        -0.6964   2.1340  -1.4185 LP             1 S1                 0.0000
     44 ****         2.3614   0.2711  -2.0951 LP             1 S1                 0.0000
     45 ****         3.7391  -0.4024  -1.2899 LP             1 S1                 0.0000
@<TRIPOS>BOND
    1    1    2 1     
    2    1   21 1     
    3    1   22 1     
    4    1   23 1     
    5    2   20 1     
    6    2    3 2     
    7    3    4 1     
    8    4    5 2     
    9    5    6 1     
   10    5   20 1     
   11    6    7 am    
   12    6   24 1     
   13    7    8 2     
   14    7    9 am    
   15    9   10 1     
   16    9   25 1     
   17   10   11 1     
   18   10   26 1     
   19   10   27 1     
   20   11   12 1     
   21   11   28 1     
   22   11   29 1     
   23   12   13 2     
   24   12   14 am    
   25   14   15 1     
   26   14   30 1     
   27   15   19 1     
   28   15   16 1     
   29   15   31 1     
   30   16   17 1     
   31   16   32 1     
   32   16   33 1     
   33   17   18 1     
   34   17   34 1     
   35   17   35 1     
   36   18   19 1     
   37   18   36 1     
   38   18   37 1     
   39   19   38 1     
   40   19   39 1     
   41    3   40 1     
   42    4   41 1     
   43    8   42 1     
   44    8   43 1     
   45   13   44 1     
   46   13   45 1     
@<TRIPOS>SUBSTRUCTURE
      1 S1             1
@<TRIPOS>SET
LONE_PAIRS      STATIC     ATOMS    <user>   **** ""
6 40 41 42 43 44 45
DONOR_HYDROGENS      STATIC     ATOMS    <user>   **** ""
3 24 25 30
ATOM$BLUE        STATIC     ATOMS    COLORGROUP SYSTEM
6 40 41 42 43 44 45
ATOM$RED        STATIC     ATOMS    COLORGROUP SYSTEM
3 24 25 30
