AV-unprocessed.smi:1593|AV-procd|sdf|6411|dock8
  -GOLD-   22720 7 43D 1   1.00000     0.00000
 Structure written by MMmdl.
 35 36  0  0  0  0  0  0  0  0  2 V2000
  146.6823  136.5379  162.6457 C   0  0  0  0  0  0  0  0  0  0  0  0
  147.4270  136.1712  161.4077 C   0  0  0  0  0  0  0  0  0  0  0  0
  147.5599  134.9995  160.7181 C   0  0  0  0  0  0  0  0  0  0  0  0
  148.4160  135.3527  159.6393 C   0  0  0  0  0  0  0  0  0  0  0  0
  148.8363  134.5345  158.6622 N   0  5  0  0  0  0  0  0  0  0  0  0
  147.9495  133.7697  157.9839 C   0  0  0  0  0  0  0  0  0  0  0  0
  146.7736  133.5634  158.2932 O   0  0  0  0  0  0  0  0  0  0  0  0
  148.4558  133.2074  156.8787 N   0  0  0  0  0  0  0  0  0  0  0  0
  147.7302  132.3216  155.9765 C   0  0  0  0  0  0  0  0  0  0  0  0
  148.5429  132.0499  154.6981 C   0  0  0  0  0  0  0  0  0  0  0  0
  149.3726  130.8443  154.7237 N   0  0  0  0  0  0  0  0  0  0  0  0
  150.2573  130.7915  155.8853 C   0  0  0  0  0  0  0  0  0  0  0  0
  151.1040  129.5067  155.9026 C   0  0  0  0  0  0  0  0  0  0  0  0
  150.2503  128.3677  155.8575 O   0  0  0  0  0  0  0  0  0  0  0  0
  149.4066  128.3614  154.7104 C   0  0  0  0  0  0  0  0  0  0  0  0
  148.5509  129.6396  154.6952 C   0  0  0  0  0  0  0  0  0  0  0  0
  148.7577  136.6301  159.6626 N   0  0  0  0  0  0  0  0  0  0  0  0
  148.1330  137.1608  160.7976 O   0  0  0  0  0  0  0  0  0  0  0  0
  145.6292  136.2717  162.5550 H   0  0  0  0  0  0  0  0  0  0  0  0
  146.7440  137.6091  162.8395 H   0  0  0  0  0  0  0  0  0  0  0  0
  147.0913  136.0140  163.5096 H   0  0  0  0  0  0  0  0  0  0  0  0
  147.1197  134.0413  160.9495 H   0  0  0  0  0  0  0  0  0  0  0  0
  149.4241  133.3916  156.6601 H   0  0  0  0  0  0  0  0  0  0  0  0
  147.4809  131.3897  156.4851 H   0  0  0  0  0  0  0  0  0  0  0  0
  146.7826  132.7918  155.7109 H   0  0  0  0  0  0  0  0  0  0  0  0
  147.8643  132.0085  153.8450 H   0  0  0  0  0  0  0  0  0  0  0  0
  149.1842  132.9152  154.5252 H   0  0  0  0  0  0  0  0  0  0  0  0
  150.9296  131.6491  155.8884 H   0  0  0  0  0  0  0  0  0  0  0  0
  149.6688  130.8497  156.8022 H   0  0  0  0  0  0  0  0  0  0  0  0
  151.7924  129.4876  155.0564 H   0  0  0  0  0  0  0  0  0  0  0  0
  151.7091  129.4636  156.8083 H   0  0  0  0  0  0  0  0  0  0  0  0
  150.0114  128.2905  153.8049 H   0  0  0  0  0  0  0  0  0  0  0  0
  148.7693  127.4777  154.7409 H   0  0  0  0  0  0  0  0  0  0  0  0
  147.8765  129.6320  155.5528 H   0  0  0  0  0  0  0  0  0  0  0  0
  147.9228  129.6411  153.8036 H   0  0  0  0  0  0  0  0  0  0  0  0
  1  2  1  0  0  0  0
  1 19  1  0  0  0  0
  1 20  1  0  0  0  0
  1 21  1  0  0  0  0
  2 18  1  0  0  0  0
  2  3  2  0  0  0  0
  3  4  1  0  0  0  0
  3 22  1  0  0  0  0
  4  5  1  0  0  0  0
  4 17  2  0  0  0  0
  5  6  1  0  0  0  0
  6  7  2  0  0  0  0
  6  8  1  0  0  0  0
  8  9  1  0  0  0  0
  8 23  1  0  0  0  0
  9 10  1  0  0  0  0
  9 24  1  0  0  0  0
  9 25  1  0  0  0  0
 10 11  1  0  0  0  0
 10 26  1  0  0  0  0
 10 27  1  0  0  0  0
 11 16  1  0  0  0  0
 11 12  1  0  0  0  0
 12 13  1  0  0  0  0
 12 28  1  0  0  0  0
 12 29  1  0  0  0  0
 13 14  1  0  0  0  0
 13 30  1  0  0  0  0
 13 31  1  0  0  0  0
 14 15  1  0  0  0  0
 15 16  1  0  0  0  0
 15 32  1  0  0  0  0
 15 33  1  0  0  0  0
 16 34  1  0  0  0  0
 16 35  1  0  0  0  0
 17 18  1  0  0  0  0
M  CHG  1   5  -1
M  END
> <s_m_source_file>
AV-unprocessed.smi

> <i_m_source_file_index>
1593

> <i_lp_mmshare_version>
43012

> <i_f3d_flags>
0

> <s_epik_input>
W0NIM11jMVtjSF1jKG5vMSlbTkhdQyg9TylbTkhdW0NIMl1bQ0gyXU4yW0NIMl1bQ0gyXU9bQ0gyXVtDSDJdMg==

> <s_epik_cmdline>
J2VwaWtfcHl0aG9uJywgJy1waCcsICc3LjAnLCAnLXRuJywgJzgnLCAnLW1hJywgJzIwMCcsICctbWV0YWxfYmluZGluZycsICctaW1hZScsICc8aW5maWxlLm1hZT4nLCAnLW9tYWUnLCAnPG91dGZpbGUubWFlPic=

> <r_epik_Ionization_Penalty>
6.88366

> <r_epik_Ionization_Penalty_Charging>
6.57198

> <r_epik_Ionization_Penalty_Neutral>
0.311678

> <r_epik_State_Penalty>
6.77619

> <r_epik_Charging_Adjusted_Penalty>
13.3482

> <i_epik_Tot_Q>
-1

> <i_epik_Tot_abs_Q>
1

> <r_epik_Metal_State_Penalty>
2.70533

> <b_epik_Metal_Only>
1

> <s_lp_Force_Field>
OPLS_2005

> <r_lp_Energy>
18.6523

> <b_lp_Chiralities_Consistent>
1

> <s_lp_Variant>
AV-unprocessed.smi:1593-3

> <Gold.Version>
5.8.1

> <Gold.Id.Protein>
6NUR|6NUR_protein|mol2

> <Gold.PLP.Fitness>
33.4415

> <Gold.PLP.PLP>
-23.9076

> <Gold.PLP.part.hbond>
-3.6203

> <Gold.PLP.part.metal>
0.0000

> <Gold.PLP.part.buried>
-2.9238

> <Gold.PLP.part.nonpolar>
-17.7264

> <Gold.PLP.part.repulsive>
0.1301

> <Gold.PLP.ligand.clash>
0.0000

> <Gold.PLP.ligand.torsion>
0.7797

> <Gold.PLP.Chemscore.Hbond>
3.6880

> <Gold.PLP.Chemscore.CHOScore>
0.0000

> <Gold.PLP.Chemscore.Metal>
0.0000

> <Gold.Chemscore.Hbonds>
donor molecule, donor type, donor heavy atom, donor atom, acceptor molecule, acceptor atom, score
      P1  H  6896  6909       L1     5  1.40
      P1  H  6931  6943       L1    18  0.88
      P1  H  6934  6947       L1    18  0.59

> <Gold.PLP.Chemscore.Internal.Correction>
0.0292

> <Gold.Rescore>
     Score         DG    S(hbond)    S(metal)    S(lipo)     H(rot)  DE(clash)    DE(int)     intcor
     10.82     -12.89       1.82        0.00      45.72       1.57       0.02       2.05       ----

> <Gold.Chemscore.Fitness>
10.8172

> <Gold.Chemscore.DG>
-12.8896

> <Gold.Chemscore.ZeroCoef>
-5.4800

> <Gold.Chemscore.Hbond>
1.8226

> <Gold.Chemscore.Metal>
0.0000

> <Gold.Chemscore.Lipo>
45.7192

> <Gold.Chemscore.Internal_Hbond>
0.0000

> <Gold.Chemscore.DEClash>
0.0174

> <Gold.Chemscore.DEInternal>
2.0550

> <Gold.Chemscore.Rot>
1.5731

> <Gold.Chemscore.Internal.Correction>
   9.000000E+99

> <Gold.Chemscore.Hbonds>
donor molecule, donor type, donor heavy atom, donor atom, acceptor molecule, acceptor atom, score
      P1  H  6896  6909       L1     5  0.07
      P1  H  6931  6943       L1    18  0.78
      P1  H  6934  6947       L1    18  0.50

> <Gold.Chemscore.Hbond.Weighted>
-6.0875

> <Gold.Chemscore.Metal.Weighted>
-0.0000

> <Gold.Chemscore.Lipo.Weighted>
-5.3491

> <Gold.Chemscore.Internal_Hbond.Weighted>
0.0000

> <Gold.Chemscore.DEClash.Weighted>
0.0174

> <Gold.Chemscore.DEInternal.Weighted>
2.0550

> <Gold.Chemscore.Rot.Weighted>
4.0271

> <Gold.Chemscore.Internal.Correction.Weighted>
   9.000000E+99

> <Gold.Protein.RotatedTorsions>
[ 6907 6896 6895 6894 ] final   33.45 input  -60.11 | X-H torsion
[ 7974 7965 7964 7962 ] final   38.25 input  175.53 | X-H torsion
[ 8008 7997 7996 7995 ] final  179.79 input   59.86 | X-H torsion
[ 10167 10162 10161 10158 ] final  168.47 input  -65.29 | X-H torsion
[ 10718 10713 10712 10709 ] final   56.67 input   66.30 | X-H torsion
[ 10763 10752 10751 10750 ] final  -36.18 input  -60.55 | X-H torsion
[ 11005 11000 10999 10996 ] final  -84.56 input  -57.11 | X-H torsion

> <Gold.Protein.ActiveResidues>
 VAL166  LYS551  ARG553  GLY616  TRP617  ASP618  TYR619  PRO620  LYS621  CYS622 
 ASP623  PHE694  ASN695  SER759  ASP760  ASP761  ALA762  ILE779  LEU786  VAL792 
 PHE793  MET794  SER795  GLU796  ALA797  LYS798  CYS799  TRP800  GLU811  SER814 

> <Gold.Protein.RotatedAtoms>
  152.0887  134.9422  160.0572 H   0  0  0  0  0  0  0  0  0  0  0  0  # atno 6907 bound_to 6896
  152.0682  133.4089  159.4455 H   0  0  0  0  0  0  0  0  0  0  0  0  # atno 6908 bound_to 6896
  150.6836  134.3043  159.4763 H   0  0  0  0  0  0  0  0  0  0  0  0  # atno 6909 bound_to 6896
  146.1076  139.5795  142.9373 H   0  0  0  0  0  0  0  0  0  0  0  0  # atno 7974 bound_to 7965
  156.0393  140.1300  157.0173 H   0  0  0  0  0  0  0  0  0  0  0  0  # atno 8008 bound_to 7997
  154.4384  140.1033  156.6284 H   0  0  0  0  0  0  0  0  0  0  0  0  # atno 8009 bound_to 7997
  155.5690  140.3466  155.4512 H   0  0  0  0  0  0  0  0  0  0  0  0  # atno 8010 bound_to 7997
  139.4968  144.3811  151.9621 H   0  0  0  0  0  0  0  0  0  0  0  0  # atno 10167 bound_to 10162
  157.5450  130.8725  149.8878 H   0  0  0  0  0  0  0  0  0  0  0  0  # atno 10718 bound_to 10713
  153.8755  135.6827  153.4771 H   0  0  0  0  0  0  0  0  0  0  0  0  # atno 10763 bound_to 10752
  153.1263  135.4717  154.9275 H   0  0  0  0  0  0  0  0  0  0  0  0  # atno 10764 bound_to 10752
  154.7693  135.3234  154.8172 H   0  0  0  0  0  0  0  0  0  0  0  0  # atno 10765 bound_to 10752
  141.1649  133.7352  156.8886 H   0  0  0  0  0  0  0  0  0  0  0  0  # atno 11005 bound_to 11000
  145.5729  141.0392  143.2164 LP  0  0  0  0  0  0  0  0  0  0  0  0  # atno 17320 bound_to 7965
  144.7484  139.7258  143.7283 LP  0  0  0  0  0  0  0  0  0  0  0  0  # atno 17321 bound_to 7965
  140.3248  144.3386  150.6001 LP  0  0  0  0  0  0  0  0  0  0  0  0  # atno 17342 bound_to 10162
  140.5693  143.2182  151.7627 LP  0  0  0  0  0  0  0  0  0  0  0  0  # atno 17343 bound_to 10162
  156.0528  130.3714  150.1160 LP  0  0  0  0  0  0  0  0  0  0  0  0  # atno 17370 bound_to 10713
  156.9337  130.9722  151.3528 LP  0  0  0  0  0  0  0  0  0  0  0  0  # atno 17371 bound_to 10713
  140.1665  134.9130  157.2780 LP  0  0  0  0  0  0  0  0  0  0  0  0  # atno 17394 bound_to 11000
  140.2551  134.3637  155.7427 LP  0  0  0  0  0  0  0  0  0  0  0  0  # atno 17395 bound_to 11000

$$$$
