AV-unprocessed.smi:33|AV-procd|sdf|214|dock1
  -GOLD-   2262015523D 1   1.00000     0.00000
 Structure written by MMmdl.
 67 72  0  0  0  0  0  0  0  0  1 V2000
  154.8061  139.7683  158.9954 O   0  0  0  0  0  0  0  0  0  0  0  0
  153.6311  140.1023  158.8308 C   0  0  0  0  0  0  0  0  0  0  0  0
  152.7530  139.4015  158.0934 O   0  0  0  0  0  0  0  0  0  0  0  0
  153.1917  138.3459  157.2550 C   0  0  0  0  0  0  0  0  0  0  0  0
  151.9551  137.7751  156.5559 C   0  0  1  0  0  0  0  0  0  0  0  0
  150.7791  138.0671  157.3030 O   0  0  0  0  0  0  0  0  0  0  0  0
  149.6643  137.9836  156.4680 C   0  0  2  0  0  0  0  0  0  0  0  0
  148.8554  136.7638  156.8121 N   0  0  0  0  0  0  0  0  0  0  0  0
  149.1534  135.8364  157.7864 C   0  0  0  0  0  0  0  0  0  0  0  0
  148.3084  134.8490  157.9043 N   0  0  0  0  0  0  0  0  0  0  0  0
  147.3545  135.1106  156.9314 C   0  0  0  0  0  0  0  0  0  0  0  0
  146.1699  134.4483  156.5142 C   0  0  0  0  0  0  0  0  0  0  0  0
  145.7417  133.2978  157.0788 N   0  0  0  0  0  0  0  0  0  0  0  0
  144.5741  133.3906  157.9660 C   0  0  0  0  0  0  0  0  0  0  0  0
  144.3218  134.4563  158.5315 O   0  0  0  0  0  0  0  0  0  0  0  0
  143.7118  132.1868  158.2178 C   0  0  0  0  0  0  0  0  0  0  0  0
  142.8793  132.1382  159.3574 C   0  0  0  0  0  0  0  0  0  0  0  0
  142.0575  131.0180  159.5880 C   0  0  0  0  0  0  0  0  0  0  0  0
  142.0481  129.9495  158.6711 C   0  0  0  0  0  0  0  0  0  0  0  0
  142.8546  130.0046  157.5185 C   0  0  0  0  0  0  0  0  0  0  0  0
  143.6782  131.1231  157.2882 C   0  0  0  0  0  0  0  0  0  0  0  0
  146.4775  132.0710  156.7408 C   0  0  0  0  0  0  0  0  0  0  0  0
  146.4275  131.1033  157.5025 O   0  0  0  0  0  0  0  0  0  0  0  0
  147.3294  132.0056  155.5049 C   0  0  0  0  0  0  0  0  0  0  0  0
  148.5730  131.3374  155.5405 C   0  0  0  0  0  0  0  0  0  0  0  0
  149.3725  131.2624  154.3834 C   0  0  0  0  0  0  0  0  0  0  0  0
  148.9249  131.8375  153.1789 C   0  0  0  0  0  0  0  0  0  0  0  0
  147.6728  132.4793  153.1289 C   0  0  0  0  0  0  0  0  0  0  0  0
  146.8732  132.5562  154.2859 C   0  0  0  0  0  0  0  0  0  0  0  0
  145.4461  134.9970  155.5063 N   0  0  0  0  0  0  0  0  0  0  0  0
  145.8678  136.1270  154.9333 C   0  0  0  0  0  0  0  0  0  0  0  0
  146.9550  136.8485  155.2142 N   0  0  0  0  0  0  0  0  0  0  0  0
  147.6822  136.3071  156.2354 C   0  0  0  0  0  0  0  0  0  0  0  0
  150.1780  137.9773  155.0092 C   0  0  2  0  0  0  0  0  0  0  0  0
  150.0678  136.7258  154.3527 O   0  0  0  0  0  0  0  0  0  0  0  0
  151.6396  138.3604  155.1826 C   0  0  1  0  0  0  0  0  0  0  0  0
  151.7576  139.6898  155.1994 F   0  0  0  0  0  0  0  0  0  0  0  0
  153.0272  141.3282  159.4286 C   0  0  0  0  0  0  0  0  0  0  0  0
  152.0802  142.0705  158.6855 C   0  0  0  0  0  0  0  0  0  0  0  0
  151.4935  143.2305  159.2279 C   0  0  0  0  0  0  0  0  0  0  0  0
  151.8455  143.6616  160.5205 C   0  0  0  0  0  0  0  0  0  0  0  0
  152.7848  142.9306  161.2709 C   0  0  0  0  0  0  0  0  0  0  0  0
  153.3726  141.7709  160.7298 C   0  0  0  0  0  0  0  0  0  0  0  0
  153.9190  138.7038  156.5251 H   0  0  0  0  0  0  0  0  0  0  0  0
  153.6730  137.5785  157.8624 H   0  0  0  0  0  0  0  0  0  0  0  0
  152.0668  136.6960  156.4460 H   0  0  0  0  0  0  0  0  0  0  0  0
  148.9947  138.8174  156.6815 H   0  0  0  0  0  0  0  0  0  0  0  0
  150.0278  135.9182  158.4156 H   0  0  0  0  0  0  0  0  0  0  0  0
  142.8786  132.9529  160.0673 H   0  0  0  0  0  0  0  0  0  0  0  0
  141.4329  130.9790  160.4683 H   0  0  0  0  0  0  0  0  0  0  0  0
  141.4174  129.0910  158.8483 H   0  0  0  0  0  0  0  0  0  0  0  0
  142.8410  129.1899  156.8098 H   0  0  0  0  0  0  0  0  0  0  0  0
  144.2895  131.1576  156.3975 H   0  0  0  0  0  0  0  0  0  0  0  0
  148.9268  130.8928  156.4596 H   0  0  0  0  0  0  0  0  0  0  0  0
  150.3290  130.7624  154.4205 H   0  0  0  0  0  0  0  0  0  0  0  0
  149.5389  131.7806  152.2923 H   0  0  0  0  0  0  0  0  0  0  0  0
  147.3252  132.9128  152.2028 H   0  0  0  0  0  0  0  0  0  0  0  0
  145.9125  133.0483  154.2348 H   0  0  0  0  0  0  0  0  0  0  0  0
  145.2464  136.5077  154.1362 H   0  0  0  0  0  0  0  0  0  0  0  0
  149.6309  138.7189  154.4258 H   0  0  0  0  0  0  0  0  0  0  0  0
  149.8492  136.8802  153.4464 H   0  0  0  0  0  0  0  0  0  0  0  0
  152.2910  137.9860  154.3916 H   0  0  0  0  0  0  0  0  0  0  0  0
  151.7941  141.7585  157.6913 H   0  0  0  0  0  0  0  0  0  0  0  0
  150.7721  143.7901  158.6511 H   0  0  0  0  0  0  0  0  0  0  0  0
  151.3945  144.5504  160.9361 H   0  0  0  0  0  0  0  0  0  0  0  0
  153.0546  143.2575  162.2645 H   0  0  0  0  0  0  0  0  0  0  0  0
  154.0863  141.2308  161.3341 H   0  0  0  0  0  0  0  0  0  0  0  0
  1  2  2  0  0  0  0
  2  3  1  0  0  0  0
  2 38  1  0  0  0  0
  3  4  1  0  0  0  0
  4  5  1  0  0  0  0
  4 44  1  0  0  0  0
  4 45  1  0  0  0  0
  5 36  1  0  0  0  0
  5  6  1  0  0  0  0
  5 46  1  0  0  0  0
  6  7  1  0  0  0  0
  7  8  1  0  0  0  0
  7 34  1  0  0  0  0
  7 47  1  0  0  0  0
  8 33  1  0  0  0  0
  8  9  1  0  0  0  0
  9 10  2  0  0  0  0
  9 48  1  0  0  0  0
 10 11  1  0  0  0  0
 11 33  2  0  0  0  0
 11 12  1  0  0  0  0
 12 13  1  0  0  0  0
 12 30  2  0  0  0  0
 13 14  1  0  0  0  0
 13 22  1  0  0  0  0
 14 15  2  0  0  0  0
 14 16  1  0  0  0  0
 16 21  1  0  0  0  0
 16 17  2  0  0  0  0
 17 18  1  0  0  0  0
 17 49  1  0  0  0  0
 18 19  2  0  0  0  0
 18 50  1  0  0  0  0
 19 20  1  0  0  0  0
 19 51  1  0  0  0  0
 20 21  2  0  0  0  0
 20 52  1  0  0  0  0
 21 53  1  0  0  0  0
 22 23  2  0  0  0  0
 22 24  1  0  0  0  0
 24 29  1  0  0  0  0
 24 25  2  0  0  0  0
 25 26  1  0  0  0  0
 25 54  1  0  0  0  0
 26 27  2  0  0  0  0
 26 55  1  0  0  0  0
 27 28  1  0  0  0  0
 27 56  1  0  0  0  0
 28 29  2  0  0  0  0
 28 57  1  0  0  0  0
 29 58  1  0  0  0  0
 30 31  1  0  0  0  0
 31 32  2  0  0  0  0
 31 59  1  0  0  0  0
 32 33  1  0  0  0  0
 34 35  1  0  0  0  0
 34 36  1  0  0  0  0
 34 60  1  0  0  0  0
 35 61  1  0  0  0  0
 36 37  1  0  0  0  0
 36 62  1  0  0  0  0
 38 43  1  0  0  0  0
 38 39  2  0  0  0  0
 39 40  1  0  0  0  0
 39 63  1  0  0  0  0
 40 41  2  0  0  0  0
 40 64  1  0  0  0  0
 41 42  1  0  0  0  0
 41 65  1  0  0  0  0
 42 43  2  0  0  0  0
 42 66  1  0  0  0  0
 43 67  1  0  0  0  0
M  END
> <s_m_source_file>
AV-unprocessed.smi

> <i_m_source_file_index>
33

> <i_lp_mmshare_version>
43012

> <i_f3d_flags>
0

> <s_epik_input>
W2NIXTFbY0hdW2NIXVtjSF1bY0hdYzFDKD1PKU9bQ0gyXVtDQEBIXTJPW0NASF0oW0NAQEhdKFtPSF0pW0NAQEhdMkYpbihbY0hdbjMpYyhjMzQpbltjSF1uYzROKEMoPU8pYzVbY0hdW2NIXVtjSF1bY0hdW2NIXTUpQyg9TyljNltjSF1bY0hdW2NIXVtjSF1bY0hdNg==

> <s_epik_cmdline>
J2VwaWtfcHl0aG9uJywgJy1waCcsICc3LjAnLCAnLXRuJywgJzgnLCAnLW1hJywgJzIwMCcsICctbWV0YWxfYmluZGluZycsICctaW1hZScsICc8aW5maWxlLm1hZT4nLCAnLW9tYWUnLCAnPG91dGZpbGUubWFlPic=

> <r_lp_tautomer_probability>
1

> <r_epik_Ionization_Penalty>
0.00067664

> <r_epik_Ionization_Penalty_Charging>
0

> <r_epik_Ionization_Penalty_Neutral>
0.00067664

> <r_epik_State_Penalty>
0.000428095

> <r_epik_Charging_Adjusted_Penalty>
0.000428095

> <i_epik_Tot_Q>
0

> <i_epik_Tot_abs_Q>
0

> <r_epik_Metal_State_Penalty>
-0

> <b_epik_Metal_Only>
0

> <s_epik_Chemistry_Notes>
This compound has an ester and may undergo hydrolysis at high or low pH. This compound contains an acetal/aminal-like group ( X-CH(R)-Y where X, Y are N, S, or O) that may be acid/base labile, releasing an aldehyde.

> <s_lp_Force_Field>
OPLS_2005

> <r_lp_Energy>
71.2242

> <b_lp_Chiralities_Consistent>
1

> <s_lp_Variant>
AV-unprocessed.smi:33-16

> <Gold.Version>
5.8.1

> <Gold.Id.Protein>
6NUR|6NUR_protein|mol2

> <Gold.PLP.Fitness>
50.4273

> <Gold.PLP.PLP>
-47.7712

> <Gold.PLP.part.hbond>
-2.0000

> <Gold.PLP.part.metal>
0.0000

> <Gold.PLP.part.buried>
-4.7406

> <Gold.PLP.part.nonpolar>
-40.3292

> <Gold.PLP.part.repulsive>
0.1136

> <Gold.PLP.ligand.clash>
0.0000

> <Gold.PLP.ligand.torsion>
3.7935

> <Gold.PLP.Chemscore.Hbond>
2.0000

> <Gold.PLP.Chemscore.CHOScore>
0.0000

> <Gold.PLP.Chemscore.Metal>
0.0000

> <Gold.Chemscore.Hbonds>
donor molecule, donor type, donor heavy atom, donor atom, acceptor molecule, acceptor atom, score
      L1  H    35    61       P1  7948  0.96
      P1  H  7997  8010       L1     1  0.90

> <Gold.PLP.Chemscore.Internal.Correction>
4.2431

> <Gold.Rescore>
     Score         DG    S(hbond)    S(metal)    S(lipo)     H(rot)  DE(clash)    DE(int)     intcor
     11.15     -19.49       1.73        0.00     125.70       2.52       0.19       8.16       ----

> <Gold.Chemscore.Fitness>
11.1467

> <Gold.Chemscore.DG>
-19.4924

> <Gold.Chemscore.ZeroCoef>
-5.4800

> <Gold.Chemscore.Hbond>
1.7272

> <Gold.Chemscore.Metal>
0.0000

> <Gold.Chemscore.Lipo>
125.6991

> <Gold.Chemscore.Internal_Hbond>
0.0000

> <Gold.Chemscore.DEClash>
0.1867

> <Gold.Chemscore.DEInternal>
8.1590

> <Gold.Chemscore.Rot>
2.5247

> <Gold.Chemscore.Internal.Correction>
   9.000000E+99

> <Gold.Chemscore.Hbonds>
donor molecule, donor type, donor heavy atom, donor atom, acceptor molecule, acceptor atom, score
      L1  H    35    61       P1  7948  0.37
      P1  H  7997  8010       L1     1  0.17

> <Gold.Chemscore.Hbond.Weighted>
-5.7688

> <Gold.Chemscore.Metal.Weighted>
-0.0000

> <Gold.Chemscore.Lipo.Weighted>
-14.7068

> <Gold.Chemscore.Internal_Hbond.Weighted>
0.0000

> <Gold.Chemscore.DEClash.Weighted>
0.1867

> <Gold.Chemscore.DEInternal.Weighted>
8.1590

> <Gold.Chemscore.Rot.Weighted>
6.4633

> <Gold.Chemscore.Internal.Correction.Weighted>
   9.000000E+99

> <Gold.Protein.RotatedTorsions>
[ 6907 6896 6895 6894 ] final  -35.72 input  -60.11 | X-H torsion
[ 7974 7965 7964 7962 ] final  112.30 input  175.53 | X-H torsion
[ 8008 7997 7996 7995 ] final  -16.03 input   59.86 | X-H torsion
[ 10167 10162 10161 10158 ] final -154.32 input  -65.29 | X-H torsion
[ 10718 10713 10712 10709 ] final -167.43 input   66.30 | X-H torsion
[ 10763 10752 10751 10750 ] final   99.10 input  -60.55 | X-H torsion
[ 11005 11000 10999 10996 ] final   30.95 input  -57.11 | X-H torsion

> <Gold.Protein.ActiveResidues>
 VAL166  LYS551  ARG553  GLY616  TRP617  ASP618  TYR619  PRO620  LYS621  CYS622 
 ASP623  PHE694  ASN695  SER759  ASP760  ASP761  ALA762  ILE779  LEU786  VAL792 
 PHE793  MET794  SER795  GLU796  ALA797  LYS798  CYS799  TRP800  GLU811  SER814 

> <Gold.Protein.RotatedAtoms>
  151.0362  134.9574  159.8137 H   0  0  0  0  0  0  0  0  0  0  0  0  # atno 6907 bound_to 6896
  152.5355  134.2717  159.8984 H   0  0  0  0  0  0  0  0  0  0  0  0  # atno 6908 bound_to 6896
  151.2727  133.4205  159.2656 H   0  0  0  0  0  0  0  0  0  0  0  0  # atno 6909 bound_to 6896
  145.2313  139.2818  143.4166 H   0  0  0  0  0  0  0  0  0  0  0  0  # atno 7974 bound_to 7965
  154.5084  140.2180  155.9205 H   0  0  0  0  0  0  0  0  0  0  0  0  # atno 8008 bound_to 7997
  156.1522  140.3159  155.8633 H   0  0  0  0  0  0  0  0  0  0  0  0  # atno 8009 bound_to 7997
  155.3916  140.0478  157.3031 H   0  0  0  0  0  0  0  0  0  0  0  0  # atno 8010 bound_to 7997
  139.7023  143.9243  152.2434 H   0  0  0  0  0  0  0  0  0  0  0  0  # atno 10167 bound_to 10162
  156.6823  130.9126  151.3058 H   0  0  0  0  0  0  0  0  0  0  0  0  # atno 10718 bound_to 10713
  153.2973  135.4125  155.1221 H   0  0  0  0  0  0  0  0  0  0  0  0  # atno 10763 bound_to 10752
  154.8538  135.3533  154.5900 H   0  0  0  0  0  0  0  0  0  0  0  0  # atno 10764 bound_to 10752
  153.6324  135.7060  153.5329 H   0  0  0  0  0  0  0  0  0  0  0  0  # atno 10765 bound_to 10752
  140.2890  134.2886  155.7781 H   0  0  0  0  0  0  0  0  0  0  0  0  # atno 11005 bound_to 11000
  146.3352  140.2649  142.8603 LP  0  0  0  0  0  0  0  0  0  0  0  0  # atno 17320 bound_to 7965
  144.9674  140.8335  143.5476 LP  0  0  0  0  0  0  0  0  0  0  0  0  # atno 17321 bound_to 7965
  139.9089  144.6868  150.8584 LP  0  0  0  0  0  0  0  0  0  0  0  0  # atno 17342 bound_to 10162
  140.7713  143.3458  151.2114 LP  0  0  0  0  0  0  0  0  0  0  0  0  # atno 17343 bound_to 10162
  157.7039  130.9363  150.0870 LP  0  0  0  0  0  0  0  0  0  0  0  0  # atno 17370 bound_to 10713
  156.1859  130.3652  149.8974 LP  0  0  0  0  0  0  0  0  0  0  0  0  # atno 17371 bound_to 10713
  141.2149  133.7573  156.9596 LP  0  0  0  0  0  0  0  0  0  0  0  0  # atno 17394 bound_to 11000
  140.1213  134.9415  157.2207 LP  0  0  0  0  0  0  0  0  0  0  0  0  # atno 17395 bound_to 11000

$$$$
