AV-unprocessed.smi:1405|AV-procd|sdf|5707|dock6
  -GOLD-   22720 5343D 1   1.00000     0.00000
 Structure written by MMmdl.
 49 52  0  0  0  0  0  0  0  0  1 V2000
  149.5768  139.6790  154.7644 O   0  0  0  0  0  0  0  0  0  0  0  0
  148.6694  140.4884  154.9539 C   0  0  0  0  0  0  0  0  0  0  0  0
  147.4638  140.4965  153.9977 C   0  0  0  0  0  0  0  0  0  0  0  0
  146.7036  139.2363  153.9486 N   0  0  0  0  0  0  0  0  0  0  0  0
  146.5131  138.5817  152.7397 C   0  0  0  0  0  0  0  0  0  0  0  0
  145.8303  137.4183  152.6212 C   0  0  0  0  0  0  0  0  0  0  0  0
  145.2461  136.7815  153.7966 C   0  0  0  0  0  0  0  0  0  0  0  0
  144.6114  135.7291  153.7914 O   0  0  0  0  0  0  0  0  0  0  0  0
  145.4601  137.4694  154.9939 N   0  0  0  0  0  0  0  0  0  0  0  0
  146.1634  138.6680  155.1235 C   0  0  0  0  0  0  0  0  0  0  0  0
  146.3007  139.1878  156.2302 O   0  0  0  0  0  0  0  0  0  0  0  0
  148.6866  141.3747  155.9641 N   0  0  0  0  0  0  0  0  0  0  0  0
  149.7593  141.5213  156.9394 C   0  0  0  0  0  0  0  0  0  0  0  0
  149.3563  142.4968  158.0648 C   0  0  0  0  0  0  0  0  0  0  0  0
  150.5151  143.2374  158.7802 C   0  0  0  0  0  0  0  0  0  0  0  0
  151.4205  143.9959  157.7717 C   0  0  0  0  0  0  0  0  0  0  0  0
  152.5309  144.7669  158.5185 C   0  0  2  0  0  0  0  0  0  0  0  0
  153.3968  143.7745  159.3231 C   0  0  0  0  0  0  0  0  0  0  0  0
  152.5082  143.0382  160.3482 C   0  0  1  0  0  0  0  0  0  0  0  0
  151.8725  144.0614  161.3113 C   0  0  0  0  0  0  0  0  0  0  0  0
  151.0116  145.0513  160.5004 C   0  0  1  0  0  0  0  0  0  0  0  0
  151.8951  145.7941  159.4774 C   0  0  0  0  0  0  0  0  0  0  0  0
  149.9026  144.2784  159.7564 C   0  0  0  0  0  0  0  0  0  0  0  0
  151.3977  142.2626  159.6064 C   0  0  0  0  0  0  0  0  0  0  0  0
  145.0748  137.0655  155.8354 H   0  0  0  0  0  0  0  0  0  0  0  0
  146.8064  141.3236  154.2727 H   0  0  0  0  0  0  0  0  0  0  0  0
  147.8291  140.7480  153.0009 H   0  0  0  0  0  0  0  0  0  0  0  0
  146.9315  139.0156  151.8425 H   0  0  0  0  0  0  0  0  0  0  0  0
  145.7163  136.9559  151.6514 H   0  0  0  0  0  0  0  0  0  0  0  0
  147.9030  142.0056  156.0503 H   0  0  0  0  0  0  0  0  0  0  0  0
  149.9639  140.5310  157.3445 H   0  0  0  0  0  0  0  0  0  0  0  0
  150.6686  141.8477  156.4344 H   0  0  0  0  0  0  0  0  0  0  0  0
  148.6702  143.2393  157.6545 H   0  0  0  0  0  0  0  0  0  0  0  0
  148.7788  141.9443  158.8077 H   0  0  0  0  0  0  0  0  0  0  0  0
  151.8837  143.3029  157.0697 H   0  0  0  0  0  0  0  0  0  0  0  0
  150.8252  144.6865  157.1726 H   0  0  0  0  0  0  0  0  0  0  0  0
  153.1578  145.2883  157.7946 H   0  0  0  0  0  0  0  0  0  0  0  0
  153.8737  143.0585  158.6525 H   0  0  0  0  0  0  0  0  0  0  0  0
  154.2033  144.3034  159.8327 H   0  0  0  0  0  0  0  0  0  0  0  0
  153.1186  142.3372  160.9184 H   0  0  0  0  0  0  0  0  0  0  0  0
  151.2617  143.5502  162.0566 H   0  0  0  0  0  0  0  0  0  0  0  0
  152.6476  144.5965  161.8615 H   0  0  0  0  0  0  0  0  0  0  0  0
  150.5567  145.7744  161.1783 H   0  0  0  0  0  0  0  0  0  0  0  0
  152.6707  146.3644  159.9903 H   0  0  0  0  0  0  0  0  0  0  0  0
  151.3001  146.5166  158.9173 H   0  0  0  0  0  0  0  0  0  0  0  0
  149.2683  144.9801  159.2128 H   0  0  0  0  0  0  0  0  0  0  0  0
  149.2537  143.7821  160.4796 H   0  0  0  0  0  0  0  0  0  0  0  0
  150.7859  141.7118  160.3221 H   0  0  0  0  0  0  0  0  0  0  0  0
  151.8602  141.5168  158.9598 H   0  0  0  0  0  0  0  0  0  0  0  0
  1  2  2  0  0  0  0
  2  3  1  0  0  0  0
  2 12  1  0  0  0  0
  3  4  1  0  0  0  0
  3 26  1  0  0  0  0
  3 27  1  0  0  0  0
  4 10  1  0  0  0  0
  4  5  1  0  0  0  0
  5  6  2  0  0  0  0
  5 28  1  0  0  0  0
  6  7  1  0  0  0  0
  6 29  1  0  0  0  0
  7  8  2  0  0  0  0
  7  9  1  0  0  0  0
  9 25  1  0  0  0  0
  9 10  1  0  0  0  0
 10 11  2  0  0  0  0
 12 13  1  0  0  0  0
 12 30  1  0  0  0  0
 13 14  1  0  0  0  0
 13 31  1  0  0  0  0
 13 32  1  0  0  0  0
 14 15  1  0  0  0  0
 14 33  1  0  0  0  0
 14 34  1  0  0  0  0
 15 23  1  0  0  0  0
 15 24  1  0  0  0  0
 15 16  1  0  0  0  0
 16 17  1  0  0  0  0
 16 35  1  0  0  0  0
 16 36  1  0  0  0  0
 17 22  1  0  0  0  0
 17 18  1  0  0  0  0
 17 37  1  0  0  0  0
 18 19  1  0  0  0  0
 18 38  1  0  0  0  0
 18 39  1  0  0  0  0
 19 20  1  0  0  0  0
 19 24  1  0  0  0  0
 19 40  1  0  0  0  0
 20 21  1  0  0  0  0
 20 41  1  0  0  0  0
 20 42  1  0  0  0  0
 21 22  1  0  0  0  0
 21 23  1  0  0  0  0
 21 43  1  0  0  0  0
 22 44  1  0  0  0  0
 22 45  1  0  0  0  0
 23 46  1  0  0  0  0
 23 47  1  0  0  0  0
 24 48  1  0  0  0  0
 24 49  1  0  0  0  0
M  END
> <s_m_source_file>
AV-unprocessed.smi

> <i_m_source_file_index>
1405

> <i_lp_mmshare_version>
43012

> <i_f3d_flags>
0

> <s_epik_input>
Tz1jMVtuSF1jKD1PKVtjSF1bY0hdbjFbQ0gyXUMoPU8pW05IXVtDSDJdW0NIMl1DMjNbQ0gyXVtDQEBIXTRbQ0gyXVtDQEhdKFtDSDJdMylbQ0gyXVtDQEBIXShbQ0gyXTQpW0NIMl0y

> <s_epik_cmdline>
J2VwaWtfcHl0aG9uJywgJy1waCcsICc3LjAnLCAnLXRuJywgJzgnLCAnLW1hJywgJzIwMCcsICctbWV0YWxfYmluZGluZycsICctaW1hZScsICc8aW5maWxlLm1hZT4nLCAnLW9tYWUnLCAnPG91dGZpbGUubWFlPic=

> <r_lp_tautomer_probability>
0.999537

> <r_epik_Ionization_Penalty>
0.00301971

> <r_epik_Ionization_Penalty_Charging>
0.00301969

> <r_epik_Ionization_Penalty_Neutral>
2.18059e-08

> <r_epik_State_Penalty>
0.00212114

> <r_epik_Charging_Adjusted_Penalty>
0.00514083

> <i_epik_Tot_Q>
0

> <i_epik_Tot_abs_Q>
0

> <r_epik_Metal_State_Penalty>
0.361473

> <b_epik_Metal_Only>
0

> <s_lp_Force_Field>
OPLS_2005

> <r_lp_Energy>
33.2851

> <b_lp_Chiralities_Consistent>
1

> <s_lp_Variant>
AV-unprocessed.smi:1405-1

> <Gold.Version>
5.8.1

> <Gold.Id.Protein>
6NUR|6NUR_protein|mol2

> <Gold.PLP.Fitness>
53.1827

> <Gold.PLP.PLP>
-48.6612

> <Gold.PLP.part.hbond>
-1.6600

> <Gold.PLP.part.metal>
0.0000

> <Gold.PLP.part.buried>
1.3813

> <Gold.PLP.part.nonpolar>
-48.8635

> <Gold.PLP.part.repulsive>
1.6042

> <Gold.PLP.ligand.clash>
0.0000

> <Gold.PLP.ligand.torsion>
0.2324

> <Gold.PLP.Chemscore.Hbond>
0.8892

> <Gold.PLP.Chemscore.CHOScore>
0.7671

> <Gold.PLP.Chemscore.Metal>
0.0000

> <Gold.Chemscore.Hbonds>
donor molecule, donor type, donor heavy atom, donor atom, acceptor molecule, acceptor atom, score
      L1  C     5    28       P1  7957  0.06

> <Gold.PLP.Chemscore.Internal.Correction>
0.0174

> <Gold.Rescore>
     Score         DG    S(hbond)    S(metal)    S(lipo)     H(rot)  DE(clash)    DE(int)     intcor
     17.34     -19.64       0.90        0.00     143.01       2.18       0.52       1.77       ----

> <Gold.Chemscore.Fitness>
17.3396

> <Gold.Chemscore.DG>
-19.6370

> <Gold.Chemscore.ZeroCoef>
-5.4800

> <Gold.Chemscore.Hbond>
0.8996

> <Gold.Chemscore.Metal>
0.0000

> <Gold.Chemscore.Lipo>
143.0110

> <Gold.Chemscore.Internal_Hbond>
0.0000

> <Gold.Chemscore.DEClash>
0.5229

> <Gold.Chemscore.DEInternal>
1.7745

> <Gold.Chemscore.Rot>
2.1797

> <Gold.Chemscore.Internal.Correction>
   9.000000E+99

> <Gold.Chemscore.Hbond.Weighted>
-3.0046

> <Gold.Chemscore.Metal.Weighted>
-0.0000

> <Gold.Chemscore.Lipo.Weighted>
-16.7323

> <Gold.Chemscore.Internal_Hbond.Weighted>
0.0000

> <Gold.Chemscore.DEClash.Weighted>
0.5229

> <Gold.Chemscore.DEInternal.Weighted>
1.7745

> <Gold.Chemscore.Rot.Weighted>
5.5799

> <Gold.Chemscore.Internal.Correction.Weighted>
   9.000000E+99

> <Gold.Protein.RotatedTorsions>
[ 6907 6896 6895 6894 ] final -105.93 input  -60.11 | X-H torsion
[ 7974 7965 7964 7962 ] final   18.50 input  175.53 | X-H torsion
[ 8008 7997 7996 7995 ] final   18.93 input   59.86 | X-H torsion
[ 10167 10162 10161 10158 ] final -169.59 input  -65.29 | X-H torsion
[ 10718 10713 10712 10709 ] final    6.36 input   66.30 | X-H torsion
[ 10763 10752 10751 10750 ] final  -82.07 input  -60.55 | X-H torsion
[ 11005 11000 10999 10996 ] final  -76.06 input  -57.11 | X-H torsion

> <Gold.Protein.ActiveResidues>
 VAL166  LYS551  ARG553  GLY616  TRP617  ASP618  TYR619  PRO620  LYS621  CYS622 
 ASP623  PHE694  ASN695  SER759  ASP760  ASP761  ALA762  ILE779  LEU786  VAL792 
 PHE793  MET794  SER795  GLU796  ALA797  LYS798  CYS799  TRP800  GLU811  SER814 

> <Gold.Protein.RotatedAtoms>
  150.7362  134.0052  159.3651 H   0  0  0  0  0  0  0  0  0  0  0  0  # atno 6907 bound_to 6896
  151.8009  135.0707  160.0409 H   0  0  0  0  0  0  0  0  0  0  0  0  # atno 6908 bound_to 6896
  152.3141  133.5748  159.5737 H   0  0  0  0  0  0  0  0  0  0  0  0  # atno 6909 bound_to 6896
  146.2182  139.8448  142.8634 H   0  0  0  0  0  0  0  0  0  0  0  0  # atno 7974 bound_to 7965
  154.9133  140.3017  155.5254 H   0  0  0  0  0  0  0  0  0  0  0  0  # atno 8008 bound_to 7997
  156.3014  140.2385  156.4110 H   0  0  0  0  0  0  0  0  0  0  0  0  # atno 8009 bound_to 7997
  154.8403  140.0414  157.1526 H   0  0  0  0  0  0  0  0  0  0  0  0  # atno 8010 bound_to 7997
  139.5913  144.1206  152.1638 H   0  0  0  0  0  0  0  0  0  0  0  0  # atno 10167 bound_to 10162
  156.9210  130.5791  149.5648 H   0  0  0  0  0  0  0  0  0  0  0  0  # atno 10718 bound_to 10713
  154.5713  135.5604  153.7098 H   0  0  0  0  0  0  0  0  0  0  0  0  # atno 10763 bound_to 10752
  153.0049  135.6297  154.2110 H   0  0  0  0  0  0  0  0  0  0  0  0  # atno 10764 bound_to 10752
  154.2050  135.2876  155.2958 H   0  0  0  0  0  0  0  0  0  0  0  0  # atno 10765 bound_to 10752
  141.1651  133.6969  156.7611 H   0  0  0  0  0  0  0  0  0  0  0  0  # atno 11005 bound_to 11000
  145.2862  141.0153  143.3689 LP  0  0  0  0  0  0  0  0  0  0  0  0  # atno 17320 bound_to 7965
  144.9112  139.4526  143.6586 LP  0  0  0  0  0  0  0  0  0  0  0  0  # atno 17321 bound_to 7965
  140.0781  144.5723  150.7142 LP  0  0  0  0  0  0  0  0  0  0  0  0  # atno 17342 bound_to 10162
  140.7176  143.2558  151.4385 LP  0  0  0  0  0  0  0  0  0  0  0  0  # atno 17343 bound_to 10162
  156.0491  130.5563  150.8948 LP  0  0  0  0  0  0  0  0  0  0  0  0  # atno 17370 bound_to 10713
  157.5907  131.0944  150.9123 LP  0  0  0  0  0  0  0  0  0  0  0  0  # atno 17371 bound_to 10713
  140.2533  134.8524  157.3688 LP  0  0  0  0  0  0  0  0  0  0  0  0  # atno 17394 bound_to 11000
  140.1682  134.4643  155.7849 LP  0  0  0  0  0  0  0  0  0  0  0  0  # atno 17395 bound_to 11000

$$$$
