AV-unprocessed.smi:1809|AV-procd|sdf|7326|dock8
  -GOLD-   22720 8583D 1   1.00000     0.00000
 Structure written by MMmdl.
 39 41  0  0  0  0  0  0  0  0  3 V2000
  148.5174  140.4793  154.6646 C   0  0  0  0  0  0  0  0  0  0  0  0
  149.4843  139.3453  154.6471 C   0  0  0  0  0  0  0  0  0  0  0  0
  150.7862  139.5099  154.4017 N   0  0  0  0  0  0  0  0  0  0  0  0
  151.4805  138.3093  154.4367 N   0  0  0  0  0  0  0  0  0  0  0  0
  150.6956  137.2548  154.6984 C   0  0  0  0  0  0  0  0  0  0  0  0
  151.1773  136.0033  154.7803 N   0  5  0  0  0  0  0  0  0  0  0  0
  150.3844  134.9993  155.2159 C   0  0  0  0  0  0  0  0  0  0  0  0
  150.5152  134.3665  156.2664 O   0  0  0  0  0  0  0  0  0  0  0  0
  149.3801  134.7039  154.3788 N   0  0  0  0  0  0  0  0  0  0  0  0
  148.3892  133.6518  154.5765 C   0  0  0  0  0  0  0  0  0  0  0  0
  147.1641  133.8546  153.6690 C   0  0  1  0  0  0  0  0  0  0  0  0
  146.0810  132.7877  153.9153 C   0  0  0  0  0  0  0  0  0  0  0  0
  144.8520  133.0597  153.1336 N   0  3  2  0  0  0  0  0  0  0  0  0
  144.8708  132.6483  151.7122 C   0  0  0  0  0  0  0  0  0  0  0  0
  143.9805  133.6505  150.9602 C   0  0  0  0  0  0  0  0  0  0  0  0
  143.3883  134.5602  152.0411 C   0  0  0  0  0  0  0  0  0  0  0  0
  144.3841  134.4602  153.1975 C   0  0  2  0  0  0  0  0  0  0  0  0
  145.5567  135.4564  153.0461 C   0  0  0  0  0  0  0  0  0  0  0  0
  146.5996  135.1300  153.9525 O   0  0  0  0  0  0  0  0  0  0  0  0
  149.0026  137.6836  154.9458 S   0  0  0  0  0  0  0  0  0  0  0  0
  148.2031  140.7155  153.6480 H   0  0  0  0  0  0  0  0  0  0  0  0
  148.9790  141.3637  155.1045 H   0  0  0  0  0  0  0  0  0  0  0  0
  147.6376  140.2170  155.2524 H   0  0  0  0  0  0  0  0  0  0  0  0
  149.3080  135.2479  153.5314 H   0  0  0  0  0  0  0  0  0  0  0  0
  148.8462  132.6788  154.3886 H   0  0  0  0  0  0  0  0  0  0  0  0
  148.0875  133.6537  155.6242 H   0  0  0  0  0  0  0  0  0  0  0  0
  147.4840  133.8165  152.6264 H   0  0  0  0  0  0  0  0  0  0  0  0
  146.4538  131.7888  153.6846 H   0  0  0  0  0  0  0  0  0  0  0  0
  145.8107  132.7848  154.9721 H   0  0  0  0  0  0  0  0  0  0  0  0
  145.8829  132.6682  151.3063 H   0  0  0  0  0  0  0  0  0  0  0  0
  144.4982  131.6275  151.6218 H   0  0  0  0  0  0  0  0  0  0  0  0
  144.5887  134.2375  150.2708 H   0  0  0  0  0  0  0  0  0  0  0  0
  143.2047  133.1573  150.3737 H   0  0  0  0  0  0  0  0  0  0  0  0
  143.2292  135.5827  151.6966 H   0  0  0  0  0  0  0  0  0  0  0  0
  142.4221  134.1653  152.3585 H   0  0  0  0  0  0  0  0  0  0  0  0
  143.8915  134.6320  154.1554 H   0  0  0  0  0  0  0  0  0  0  0  0
  145.9483  135.4658  152.0277 H   0  0  0  0  0  0  0  0  0  0  0  0
  145.2132  136.4697  153.2550 H   0  0  0  0  0  0  0  0  0  0  0  0
  144.1170  132.5071  153.5513 H   0  0  0  0  0  0  0  0  0  0  0  0
  1  2  1  0  0  0  0
  1 21  1  0  0  0  0
  1 22  1  0  0  0  0
  1 23  1  0  0  0  0
  2 20  1  0  0  0  0
  2  3  2  0  0  0  0
  3  4  1  0  0  0  0
  4  5  2  0  0  0  0
  5  6  1  0  0  0  0
  5 20  1  0  0  0  0
  6  7  1  0  0  0  0
  7  8  2  0  0  0  0
  7  9  1  0  0  0  0
  9 10  1  0  0  0  0
  9 24  1  0  0  0  0
 10 11  1  0  0  0  0
 10 25  1  0  0  0  0
 10 26  1  0  0  0  0
 11 19  1  0  0  0  0
 11 12  1  0  0  0  0
 11 27  1  0  0  0  0
 12 13  1  0  0  0  0
 12 28  1  0  0  0  0
 12 29  1  0  0  0  0
 13 17  1  0  0  0  0
 13 14  1  0  0  0  0
 13 39  1  0  0  0  0
 14 15  1  0  0  0  0
 14 30  1  0  0  0  0
 14 31  1  0  0  0  0
 15 16  1  0  0  0  0
 15 32  1  0  0  0  0
 15 33  1  0  0  0  0
 16 17  1  0  0  0  0
 16 34  1  0  0  0  0
 16 35  1  0  0  0  0
 17 18  1  0  0  0  0
 17 36  1  0  0  0  0
 18 19  1  0  0  0  0
 18 37  1  0  0  0  0
 18 38  1  0  0  0  0
M  CHG  1   6  -1
M  CHG  1  13   1
M  END
> <s_m_source_file>
AV-unprocessed.smi

> <i_m_source_file_index>
1809

> <i_lp_mmshare_version>
43012

> <i_f3d_flags>
0

> <s_epik_input>
W0NIM11jMW5uYyhzMSlbTkhdQyg9TylbTkhdW0NIMl1bQ0BIXShbQ0gyXTIpT1tDSDJdW0NAQEhdKE4yMylbQ0gyXVtDSDJdW0NIMl0z

> <s_epik_cmdline>
J2VwaWtfcHl0aG9uJywgJy1waCcsICc3LjAnLCAnLXRuJywgJzgnLCAnLW1hJywgJzIwMCcsICctbWV0YWxfYmluZGluZycsICctaW1hZScsICc8aW5maWxlLm1hZT4nLCAnLW9tYWUnLCAnPG91dGZpbGUubWFlPic=

> <r_lp_tautomer_probability>
1

> <r_epik_Ionization_Penalty>
3.2601

> <r_epik_Ionization_Penalty_Charging>
3.1406

> <r_epik_Ionization_Penalty_Neutral>
0.119497

> <r_epik_State_Penalty>
3.08894

> <r_epik_Charging_Adjusted_Penalty>
6.22954

> <i_epik_Tot_Q>
0

> <i_epik_Tot_abs_Q>
2

> <r_epik_Metal_State_Penalty>
0.510807

> <b_epik_Metal_Only>
1

> <s_lp_Force_Field>
OPLS_2005

> <r_lp_Energy>
28.762

> <b_lp_Chiralities_Consistent>
1

> <s_lp_Variant>
AV-unprocessed.smi:1809-18

> <Gold.Version>
5.8.1

> <Gold.Id.Protein>
6NUR|6NUR_protein|mol2

> <Gold.PLP.Fitness>
41.8292

> <Gold.PLP.PLP>
-25.5076

> <Gold.PLP.part.hbond>
-4.0000

> <Gold.PLP.part.metal>
0.0000

> <Gold.PLP.part.buried>
-7.1445

> <Gold.PLP.part.nonpolar>
-17.6788

> <Gold.PLP.part.repulsive>
0.5672

> <Gold.PLP.ligand.clash>
0.0000

> <Gold.PLP.ligand.torsion>
0.7695

> <Gold.PLP.Chemscore.Hbond>
5.9500

> <Gold.PLP.Chemscore.CHOScore>
0.0000

> <Gold.PLP.Chemscore.Metal>
0.0000

> <Gold.Chemscore.Hbonds>
donor molecule, donor type, donor heavy atom, donor atom, acceptor molecule, acceptor atom, score
      L1  H     9    24       P1  7948  0.95
      L1  H    13    39       P1 10957  2.00
      P1  H  7989  7998       L1     3  1.00
      P1  H 10752 10765       L1     6  2.00

> <Gold.PLP.Chemscore.Internal.Correction>
0.0105

> <Gold.Rescore>
     Score         DG    S(hbond)    S(metal)    S(lipo)     H(rot)  DE(clash)    DE(int)     intcor
     18.12     -18.97       3.47        0.00      45.12       1.32       0.00       0.84       ----

> <Gold.Chemscore.Fitness>
18.1239

> <Gold.Chemscore.DG>
-18.9694

> <Gold.Chemscore.ZeroCoef>
-5.4800

> <Gold.Chemscore.Hbond>
3.4735

> <Gold.Chemscore.Metal>
0.0000

> <Gold.Chemscore.Lipo>
45.1178

> <Gold.Chemscore.Internal_Hbond>
0.0000

> <Gold.Chemscore.DEClash>
0.0038

> <Gold.Chemscore.DEInternal>
0.8417

> <Gold.Chemscore.Rot>
1.3246

> <Gold.Chemscore.Internal.Correction>
   9.000000E+99

> <Gold.Chemscore.Hbonds>
donor molecule, donor type, donor heavy atom, donor atom, acceptor molecule, acceptor atom, score
      L1  H     9    24       P1  7948  0.21
      L1  H    13    39       P1 10957  0.28
      P1  H  7989  7998       L1     3  0.91
      P1  H 10752 10765       L1     6  0.95

> <Gold.Chemscore.Hbond.Weighted>
-11.6016

> <Gold.Chemscore.Metal.Weighted>
-0.0000

> <Gold.Chemscore.Lipo.Weighted>
-5.2788

> <Gold.Chemscore.Internal_Hbond.Weighted>
0.0000

> <Gold.Chemscore.DEClash.Weighted>
0.0038

> <Gold.Chemscore.DEInternal.Weighted>
0.8417

> <Gold.Chemscore.Rot.Weighted>
3.3910

> <Gold.Chemscore.Internal.Correction.Weighted>
   9.000000E+99

> <Gold.Protein.RotatedTorsions>
[ 6907 6896 6895 6894 ] final  -44.05 input  -60.11 | X-H torsion
[ 7974 7965 7964 7962 ] final  -31.61 input  175.53 | X-H torsion
[ 8008 7997 7996 7995 ] final -158.50 input   59.86 | X-H torsion
[ 10167 10162 10161 10158 ] final  -96.17 input  -65.29 | X-H torsion
[ 10718 10713 10712 10709 ] final -117.48 input   66.30 | X-H torsion
[ 10763 10752 10751 10750 ] final  170.36 input  -60.55 | X-H torsion
[ 11005 11000 10999 10996 ] final  -78.54 input  -57.11 | X-H torsion

> <Gold.Protein.ActiveResidues>
 VAL166  LYS551  ARG553  GLY616  TRP617  ASP618  TYR619  PRO620  LYS621  CYS622 
 ASP623  PHE694  ASN695  SER759  ASP760  ASP761  ALA762  ILE779  LEU786  VAL792 
 PHE793  MET794  SER795  GLU796  ALA797  LYS798  CYS799  TRP800  GLU811  SER814 

> <Gold.Protein.RotatedAtoms>
  150.9371  134.8782  159.7588 H   0  0  0  0  0  0  0  0  0  0  0  0  # atno 6907 bound_to 6896
  152.5064  134.3996  159.9422 H   0  0  0  0  0  0  0  0  0  0  0  0  # atno 6908 bound_to 6896
  151.4019  133.3715  159.2768 H   0  0  0  0  0  0  0  0  0  0  0  0  # atno 6909 bound_to 6896
  146.1054  140.5688  142.8802 H   0  0  0  0  0  0  0  0  0  0  0  0  # atno 7974 bound_to 7965
  155.7485  140.0823  157.2212 H   0  0  0  0  0  0  0  0  0  0  0  0  # atno 8008 bound_to 7997
  154.4014  140.1565  156.2752 H   0  0  0  0  0  0  0  0  0  0  0  0  # atno 8009 bound_to 7997
  155.8953  140.3413  155.5989 H   0  0  0  0  0  0  0  0  0  0  0  0  # atno 8010 bound_to 7997
  140.2966  143.3188  152.0291 H   0  0  0  0  0  0  0  0  0  0  0  0  # atno 10167 bound_to 10162
  156.1037  130.6193  150.9169 H   0  0  0  0  0  0  0  0  0  0  0  0  # atno 10718 bound_to 10713
  154.3964  135.2754  155.2123 H   0  0  0  0  0  0  0  0  0  0  0  0  # atno 10763 bound_to 10752
  154.4167  135.6009  153.5989 H   0  0  0  0  0  0  0  0  0  0  0  0  # atno 10764 bound_to 10752
  152.9831  135.5962  154.4226 H   0  0  0  0  0  0  0  0  0  0  0  0  # atno 10765 bound_to 10752
  141.1665  133.7067  156.7987 H   0  0  0  0  0  0  0  0  0  0  0  0  # atno 11005 bound_to 11000
  144.7467  140.5085  143.6831 LP  0  0  0  0  0  0  0  0  0  0  0  0  # atno 17320 bound_to 7965
  145.5771  139.1486  143.3256 LP  0  0  0  0  0  0  0  0  0  0  0  0  # atno 17321 bound_to 7965
  139.4925  144.6486  151.6724 LP  0  0  0  0  0  0  0  0  0  0  0  0  # atno 17342 bound_to 10162
  140.5687  144.0146  150.6205 LP  0  0  0  0  0  0  0  0  0  0  0  0  # atno 17343 bound_to 10162
  157.6211  131.0929  150.8621 LP  0  0  0  0  0  0  0  0  0  0  0  0  # atno 17370 bound_to 10713
  156.8744  130.5157  149.5294 LP  0  0  0  0  0  0  0  0  0  0  0  0  # atno 17371 bound_to 10713
  140.2272  134.8713  157.3439 LP  0  0  0  0  0  0  0  0  0  0  0  0  # atno 17394 bound_to 11000
  140.1928  134.4351  155.7706 LP  0  0  0  0  0  0  0  0  0  0  0  0  # atno 17395 bound_to 11000

$$$$
