AV-unprocessed.smi:2083|AV-procd|sdf|8510|dock10
  -GOLD-   2272011223D 1   1.00000     0.00000
 Structure written by MMmdl.
 44 45  0  0  0  0  0  0  0  0  3 V2000
  147.3586  135.1533  162.6532 C   0  0  0  0  0  0  0  0  0  0  0  0
  147.7620  135.6027  161.2911 C   0  0  0  0  0  0  0  0  0  0  0  0
  148.0458  134.9312  160.1355 C   0  0  0  0  0  0  0  0  0  0  0  0
  148.3536  135.9760  159.2238 C   0  0  0  0  0  0  0  0  0  0  0  0
  148.7064  135.6833  157.8798 N   0  0  0  0  0  0  0  0  0  0  0  0
  149.1449  134.5233  157.3569 C   0  0  0  0  0  0  0  0  0  0  0  0
  149.2726  133.5237  158.0740 O   0  0  0  0  0  0  0  0  0  0  0  0
  149.4023  134.6247  156.0241 N   0  5  0  0  0  0  0  0  0  0  0  0
  148.4128  135.0052  155.0175 C   0  0  0  0  0  0  0  0  0  0  0  0
  148.1396  133.8246  154.0489 C   0  0  2  0  0  0  0  0  0  0  0  0
  149.4166  133.1420  153.4960 C   0  0  0  0  0  0  0  0  0  0  0  0
  147.1913  134.2437  152.9694 N   0  3  1  0  0  0  0  0  0  0  0  0
  146.9638  133.2579  151.8717 C   0  0  0  0  0  0  0  0  0  0  0  0
  146.1938  133.9038  150.7103 C   0  0  0  0  0  0  0  0  0  0  0  0
  144.8633  134.4955  151.1976 C   0  0  0  0  0  0  0  0  0  0  0  0
  145.0771  135.4579  152.3810 C   0  0  2  0  0  0  0  0  0  0  0  0
  145.6821  136.8057  151.9490 C   0  0  0  0  0  0  0  0  0  0  0  0
  145.9052  134.7801  153.4928 C   0  0  0  0  0  0  0  0  0  0  0  0
  148.2661  137.1774  159.7755 N   0  0  0  0  0  0  0  0  0  0  0  0
  147.8864  136.9443  161.1025 O   0  0  0  0  0  0  0  0  0  0  0  0
  147.3840  134.0661  162.7286 H   0  0  0  0  0  0  0  0  0  0  0  0
  146.3464  135.4848  162.8840 H   0  0  0  0  0  0  0  0  0  0  0  0
  148.0298  135.5605  163.4095 H   0  0  0  0  0  0  0  0  0  0  0  0
  148.0336  133.8642  159.9697 H   0  0  0  0  0  0  0  0  0  0  0  0
  148.6236  136.4516  157.2311 H   0  0  0  0  0  0  0  0  0  0  0  0
  147.4691  135.2898  155.4857 H   0  0  0  0  0  0  0  0  0  0  0  0
  148.7289  135.8759  154.4417 H   0  0  0  0  0  0  0  0  0  0  0  0
  147.6220  133.0732  154.6476 H   0  0  0  0  0  0  0  0  0  0  0  0
  150.0185  132.7016  154.2927 H   0  0  0  0  0  0  0  0  0  0  0  0
  150.0617  133.8304  152.9474 H   0  0  0  0  0  0  0  0  0  0  0  0
  149.1580  132.3271  152.8195 H   0  0  0  0  0  0  0  0  0  0  0  0
  147.9126  132.8734  151.4965 H   0  0  0  0  0  0  0  0  0  0  0  0
  146.4019  132.4022  152.2483 H   0  0  0  0  0  0  0  0  0  0  0  0
  146.8046  134.6809  150.2498 H   0  0  0  0  0  0  0  0  0  0  0  0
  146.0057  133.1629  149.9328 H   0  0  0  0  0  0  0  0  0  0  0  0
  144.3506  135.0017  150.3789 H   0  0  0  0  0  0  0  0  0  0  0  0
  144.2076  133.6822  151.5114 H   0  0  0  0  0  0  0  0  0  0  0  0
  144.0946  135.6832  152.7974 H   0  0  0  0  0  0  0  0  0  0  0  0
  146.6872  136.6905  151.5428 H   0  0  0  0  0  0  0  0  0  0  0  0
  145.7470  137.4930  152.7930 H   0  0  0  0  0  0  0  0  0  0  0  0
  145.0686  137.2843  151.1853 H   0  0  0  0  0  0  0  0  0  0  0  0
  145.3342  133.9650  153.9400 H   0  0  0  0  0  0  0  0  0  0  0  0
  146.0903  135.5035  154.2880 H   0  0  0  0  0  0  0  0  0  0  0  0
  147.6456  135.0363  152.5381 H   0  0  0  0  0  0  0  0  0  0  0  0
  1  2  1  0  0  0  0
  1 21  1  0  0  0  0
  1 22  1  0  0  0  0
  1 23  1  0  0  0  0
  2 20  1  0  0  0  0
  2  3  2  0  0  0  0
  3  4  1  0  0  0  0
  3 24  1  0  0  0  0
  4  5  1  0  0  0  0
  4 19  2  0  0  0  0
  5  6  1  0  0  0  0
  5 25  1  0  0  0  0
  6  7  2  0  0  0  0
  6  8  1  0  0  0  0
  8  9  1  0  0  0  0
  9 10  1  0  0  0  0
  9 26  1  0  0  0  0
  9 27  1  0  0  0  0
 10 11  1  0  0  0  0
 10 12  1  0  0  0  0
 10 28  1  0  0  0  0
 11 29  1  0  0  0  0
 11 30  1  0  0  0  0
 11 31  1  0  0  0  0
 12 18  1  0  0  0  0
 12 13  1  0  0  0  0
 12 44  1  0  0  0  0
 13 14  1  0  0  0  0
 13 32  1  0  0  0  0
 13 33  1  0  0  0  0
 14 15  1  0  0  0  0
 14 34  1  0  0  0  0
 14 35  1  0  0  0  0
 15 16  1  0  0  0  0
 15 36  1  0  0  0  0
 15 37  1  0  0  0  0
 16 17  1  0  0  0  0
 16 18  1  0  0  0  0
 16 38  1  0  0  0  0
 17 39  1  0  0  0  0
 17 40  1  0  0  0  0
 17 41  1  0  0  0  0
 18 42  1  0  0  0  0
 18 43  1  0  0  0  0
 19 20  1  0  0  0  0
M  CHG  1   8  -1
M  CHG  1  12   1
M  END
> <s_m_source_file>
AV-unprocessed.smi

> <i_m_source_file_index>
2083

> <i_lp_mmshare_version>
43012

> <i_f3d_flags>
0

> <s_epik_input>
W0NIM11jMVtjSF1jKG5vMSlbTkhdQyg9TylbTkhdW0NIMl1bQ0BIXShbQ0gzXSlOMltDSDJdW0NIMl1bQ0gyXVtDQEBIXShbQ0gzXSlbQ0gyXTI=

> <s_epik_cmdline>
J2VwaWtfcHl0aG9uJywgJy1waCcsICc3LjAnLCAnLXRuJywgJzgnLCAnLW1hJywgJzIwMCcsICctbWV0YWxfYmluZGluZycsICctaW1hZScsICc8aW5maWxlLm1hZT4nLCAnLW9tYWUnLCAnPG91dGZpbGUubWFlPic=

> <r_epik_Ionization_Penalty>
6.76934

> <r_epik_Ionization_Penalty_Charging>
6.76934

> <r_epik_Ionization_Penalty_Neutral>
5.77849e-06

> <r_epik_State_Penalty>
6.79457

> <r_epik_Charging_Adjusted_Penalty>
13.5639

> <i_epik_Tot_Q>
0

> <i_epik_Tot_abs_Q>
2

> <r_epik_Metal_State_Penalty>
2.72837

> <b_epik_Metal_Only>
1

> <s_lp_Force_Field>
OPLS_2005

> <r_lp_Energy>
20.9735

> <b_lp_Chiralities_Consistent>
1

> <s_lp_Variant>
AV-unprocessed.smi:2083-21

> <Gold.Version>
5.8.1

> <Gold.Id.Protein>
6NUR|6NUR_protein|mol2

> <Gold.PLP.Fitness>
43.9749

> <Gold.PLP.PLP>
-32.9893

> <Gold.PLP.part.hbond>
-5.9189

> <Gold.PLP.part.metal>
0.0000

> <Gold.PLP.part.buried>
-4.1206

> <Gold.PLP.part.nonpolar>
-23.5415

> <Gold.PLP.part.repulsive>
0.0867

> <Gold.PLP.ligand.clash>
0.0000

> <Gold.PLP.ligand.torsion>
0.7770

> <Gold.PLP.Chemscore.Hbond>
4.1264

> <Gold.PLP.Chemscore.CHOScore>
0.0000

> <Gold.PLP.Chemscore.Metal>
0.0000

> <Gold.Chemscore.Hbonds>
donor molecule, donor type, donor heavy atom, donor atom, acceptor molecule, acceptor atom, score
      L1  H    12    44       P1  7948  2.00
      P1  H  6896  6909       L1     7  1.00
      P1  H  6931  6943       L1    20  0.85
      P1  H  6934  6947       L1    20  0.05

> <Gold.PLP.Chemscore.Internal.Correction>
0.1605

> <Gold.Rescore>
     Score         DG    S(hbond)    S(metal)    S(lipo)     H(rot)  DE(clash)    DE(int)     intcor
     16.29     -18.48       2.72        0.00      66.66       1.52       0.05       2.14       ----

> <Gold.Chemscore.Fitness>
16.2886

> <Gold.Chemscore.DG>
-18.4801

> <Gold.Chemscore.ZeroCoef>
-5.4800

> <Gold.Chemscore.Hbond>
2.7213

> <Gold.Chemscore.Metal>
0.0000

> <Gold.Chemscore.Lipo>
66.6636

> <Gold.Chemscore.Internal_Hbond>
0.0000

> <Gold.Chemscore.DEClash>
0.0550

> <Gold.Chemscore.DEInternal>
2.1366

> <Gold.Chemscore.Rot>
1.5190

> <Gold.Chemscore.Internal.Correction>
   9.000000E+99

> <Gold.Chemscore.Hbonds>
donor molecule, donor type, donor heavy atom, donor atom, acceptor molecule, acceptor atom, score
      L1  H    12    44       P1  7948  0.98
      P1  H  6896  6909       L1     7  0.39
      P1  H  6931  6943       L1    20  0.14

> <Gold.Chemscore.Hbond.Weighted>
-9.0891

> <Gold.Chemscore.Metal.Weighted>
-0.0000

> <Gold.Chemscore.Lipo.Weighted>
-7.7996

> <Gold.Chemscore.Internal_Hbond.Weighted>
0.0000

> <Gold.Chemscore.DEClash.Weighted>
0.0550

> <Gold.Chemscore.DEInternal.Weighted>
2.1366

> <Gold.Chemscore.Rot.Weighted>
3.8886

> <Gold.Chemscore.Internal.Correction.Weighted>
   9.000000E+99

> <Gold.Protein.RotatedTorsions>
[ 6907 6896 6895 6894 ] final   21.04 input  -60.11 | X-H torsion
[ 7974 7965 7964 7962 ] final -163.24 input  175.53 | X-H torsion
[ 8008 7997 7996 7995 ] final   74.52 input   59.86 | X-H torsion
[ 10167 10162 10161 10158 ] final  148.91 input  -65.29 | X-H torsion
[ 10718 10713 10712 10709 ] final  -19.60 input   66.30 | X-H torsion
[ 10763 10752 10751 10750 ] final  144.48 input  -60.55 | X-H torsion
[ 11005 11000 10999 10996 ] final -108.40 input  -57.11 | X-H torsion

> <Gold.Protein.ActiveResidues>
 VAL166  LYS551  ARG553  GLY616  TRP617  ASP618  TYR619  PRO620  LYS621  CYS622 
 ASP623  PHE694  ASN695  SER759  ASP760  ASP761  ALA762  ILE779  LEU786  VAL792 
 PHE793  MET794  SER795  GLU796  ALA797  LYS798  CYS799  TRP800  GLU811  SER814 

> <Gold.Protein.RotatedAtoms>
  151.9057  135.0360  160.0509 H   0  0  0  0  0  0  0  0  0  0  0  0  # atno 6907 bound_to 6896
  152.2321  133.5062  159.5230 H   0  0  0  0  0  0  0  0  0  0  0  0  # atno 6908 bound_to 6896
  150.7028  134.1119  159.4046 H   0  0  0  0  0  0  0  0  0  0  0  0  # atno 6909 bound_to 6896
  144.7332  140.3136  143.6183 H   0  0  0  0  0  0  0  0  0  0  0  0  # atno 7974 bound_to 7965
  155.7996  140.3477  155.5395 H   0  0  0  0  0  0  0  0  0  0  0  0  # atno 8008 bound_to 7997
  155.8551  140.0962  157.1670 H   0  0  0  0  0  0  0  0  0  0  0  0  # atno 8009 bound_to 7997
  154.4009  140.1369  156.3880 H   0  0  0  0  0  0  0  0  0  0  0  0  # atno 8010 bound_to 7997
  139.4868  144.5643  151.7174 H   0  0  0  0  0  0  0  0  0  0  0  0  # atno 10167 bound_to 10162
  156.5434  130.4684  149.6487 H   0  0  0  0  0  0  0  0  0  0  0  0  # atno 10718 bound_to 10713
  153.9895  135.2933  155.3413 H   0  0  0  0  0  0  0  0  0  0  0  0  # atno 10763 bound_to 10752
  154.7223  135.5104  153.8834 H   0  0  0  0  0  0  0  0  0  0  0  0  # atno 10764 bound_to 10752
  153.0816  135.6681  154.0149 H   0  0  0  0  0  0  0  0  0  0  0  0  # atno 10765 bound_to 10752
  141.0903  133.9066  157.2090 H   0  0  0  0  0  0  0  0  0  0  0  0  # atno 11005 bound_to 11000
  145.7639  139.1834  143.2251 LP  0  0  0  0  0  0  0  0  0  0  0  0  # atno 17320 bound_to 7965
  146.0964  140.7595  142.9570 LP  0  0  0  0  0  0  0  0  0  0  0  0  # atno 17321 bound_to 7965
  140.5218  144.0867  150.6025 LP  0  0  0  0  0  0  0  0  0  0  0  0  # atno 17342 bound_to 10162
  140.3827  143.2794  152.0151 LP  0  0  0  0  0  0  0  0  0  0  0  0  # atno 17343 bound_to 10162
  156.2950  130.7145  151.2004 LP  0  0  0  0  0  0  0  0  0  0  0  0  # atno 17370 bound_to 10713
  157.7401  131.0521  150.5188 LP  0  0  0  0  0  0  0  0  0  0  0  0  # atno 17371 bound_to 10713
  139.9728  135.0123  156.9556 LP  0  0  0  0  0  0  0  0  0  0  0  0  # atno 17394 bound_to 11000
  140.5266  134.0854  155.7305 LP  0  0  0  0  0  0  0  0  0  0  0  0  # atno 17395 bound_to 11000

$$$$
