#       Name:                AV-unprocessed.smi:931
#       Creating user name   scv26
#       Creation time:       Fri Mar 27 02:10:30 2020


#       File generated by GOLD software.
#

@<TRIPOS>MOLECULE
AV-unprocessed.smi:931
    39    40     1
SMALL
NO_CHARGES


@<TRIPOS>ATOM
      1 ****        -4.3068   2.9203  -1.8344 C.3            1 S1                 0.0000
      2 ****        -4.5260   1.7808  -0.8291 C.3            1 S1                 0.0000
      3 ****        -4.5845   2.2647   0.6271 C.3            1 S1                 0.0000
      4 ****        -3.5415   0.6691  -1.0149 C.2            1 S1                 0.0000
      5 ****        -2.2258   0.8015  -0.8189 N.2            1 S1                 0.0000
      6 ****        -1.5211  -0.3813  -1.0624 C.2            1 S1                 0.0000
      7 ****        -0.0345  -0.4192  -0.8795 C.3            1 S1                 0.0000
      8 ****         0.3610  -0.5904   0.5968 C.3            1 S1                 0.0000
      9 ****         1.8087  -0.6127   0.7717 N.am           1 S1                 0.0000
     10 ****         2.5955  -1.6758   0.5420 C.2            1 S1                 0.0000
     11 ****         2.1810  -2.7549   0.1192 O.2            1 S1                 0.0000
     12 ****         3.8980  -1.4199   0.7438 N.am           1 S1                 0.0000
     13 ****         4.5539  -0.5142   1.6826 C.3            1 S1                 0.0000
     14 ****         5.8580  -1.2101   1.3003 C.3            1 S1                 0.0000
     15 ****         5.0323  -2.3333   0.6776 C.3            1 S1                 0.0000
     16 ****        -2.3283  -1.4222  -1.4476 C.2            1 S1                 0.0000
     17 ****        -4.0040  -0.9525  -1.5208 S.3            1 S1                 0.0000
     18 ****        -4.3539   2.5525  -2.8597 H              1 S1                 0.0000
     19 ****        -3.3341   3.3926  -1.6935 H              1 S1                 0.0000
     20 ****        -5.0694   3.6918  -1.7256 H              1 S1                 0.0000
     21 ****        -5.5075   1.3605  -1.0516 H              1 S1                 0.0000
     22 ****        -4.8302   1.4450   1.3028 H              1 S1                 0.0000
     23 ****        -5.3444   3.0362   0.7543 H              1 S1                 0.0000
     24 ****        -3.6291   2.6840   0.9446 H              1 S1                 0.0000
     25 ****         0.3868  -1.2331  -1.4706 H              1 S1                 0.0000
     26 ****         0.4113   0.4955  -1.2726 H              1 S1                 0.0000
     27 ****        -0.0378   0.2352   1.1868 H              1 S1                 0.0000
     28 ****        -0.0761  -1.5033   1.0048 H              1 S1                 0.0000
     29 ****         2.2445   0.2398   1.0921 H              1 S1                 0.0000
     30 ****         4.5201   0.5392   1.4024 H              1 S1                 0.0000
     31 ****         4.2625  -0.6710   2.7225 H              1 S1                 0.0000
     32 ****         6.4371  -0.6514   0.5632 H              1 S1                 0.0000
     33 ****         6.4707  -1.5180   2.1482 H              1 S1                 0.0000
     34 ****         4.9300  -3.2099   1.3194 H              1 S1                 0.0000
     35 ****         5.3434  -2.6012  -0.3327 H              1 S1                 0.0000
     36 ****        -2.0393  -2.4346  -1.6883 H              1 S1                 0.0000
     37 ****        -1.7922   1.6548  -0.5293 LP             1 S1                 0.0000
     38 ****         1.2071  -2.8758  -0.0731 LP             1 S1                 0.0000
     39 ****         2.8181  -3.5107  -0.0320 LP             1 S1                 0.0000
@<TRIPOS>BOND
    1    1    2 1     
    2    1   18 1     
    3    1   19 1     
    4    1   20 1     
    5    2    3 1     
    6    2    4 1     
    7    2   21 1     
    8    3   22 1     
    9    3   23 1     
   10    3   24 1     
   11    4   17 1     
   12    4    5 2     
   13    5    6 1     
   14    6    7 1     
   15    6   16 2     
   16    7    8 1     
   17    7   25 1     
   18    7   26 1     
   19    8    9 1     
   20    8   27 1     
   21    8   28 1     
   22    9   10 am    
   23    9   29 1     
   24   10   11 2     
   25   10   12 am    
   26   12   15 1     
   27   12   13 1     
   28   13   14 1     
   29   13   30 1     
   30   13   31 1     
   31   14   15 1     
   32   14   32 1     
   33   14   33 1     
   34   15   34 1     
   35   15   35 1     
   36   16   17 1     
   37   16   36 1     
   38    5   37 1     
   39   11   38 1     
   40   11   39 1     
@<TRIPOS>SUBSTRUCTURE
      1 S1             1
@<TRIPOS>SET
LONE_PAIRS      STATIC     ATOMS    <user>   **** ""
3 37 38 39
DONOR_HYDROGENS      STATIC     ATOMS    <user>   **** ""
1 29
ATOM$BLUE        STATIC     ATOMS    COLORGROUP SYSTEM
3 37 38 39
ATOM$RED        STATIC     ATOMS    COLORGROUP SYSTEM
1 29
