#       Name:                AV-unprocessed.smi:873
#       Creating user name   scv26
#       Creation time:       Fri Mar 27 01:50:24 2020


#       File generated by GOLD software.
#

@<TRIPOS>MOLECULE
AV-unprocessed.smi:873
    50    53     1
SMALL
NO_CHARGES


@<TRIPOS>ATOM
      1 ****         1.1830   1.5550  -0.1804 O.2            1 S1                 0.0000
      2 ****         0.8205   0.3797  -0.1429 C.2            1 S1                 0.0000
      3 ****         1.6398  -0.6853  -0.1454 N.am           1 S1                 0.0000
      4 ****         3.0603  -0.7063  -0.1324 C.ar           1 S1                 0.0000
      5 ****         3.7294  -1.8943  -0.4948 C.ar           1 S1                 0.0000
      6 ****         5.0759  -1.9911  -0.4823 N.ar           1 S1                 0.0000
      7 ****         5.7540  -0.9089  -0.0907 C.ar           1 S1                 0.0000
      8 ****         7.2479  -1.0069  -0.1077 C.3            1 S1                 0.0000
      9 ****         7.9636  -2.1128   0.6415 C.3            1 S1                 0.0000
     10 ****         8.0570  -0.6962   1.1350 C.3            1 S1                 0.0000
     11 ****         5.2353   0.2679   0.2700 N.ar           1 S1                 0.0000
     12 ****         3.8890   0.3748   0.2578 C.ar           1 S1                 0.0000
     13 ****        -0.4653  -0.0011  -0.1152 N.am           1 S1                 0.0000
     14 ****        -1.6218   0.8919  -0.1230 C.3            1 S1                 0.0000
     15 ****        -2.4790   0.6554   1.1319 C.3            1 S1                 0.0000
     16 ****        -3.7658   1.5020   1.0946 C.3            1 S1                 0.0000
     17 ****        -4.5548   1.2671  -0.1422 N.4            1 S1                 1.0000
     18 ****        -5.2716  -0.0298  -0.1437 C.3            1 S1                 0.0000
     19 ****        -6.5791   0.0014  -0.9001 C.3            1 S1                 0.0000
     20 ****        -6.5796  -0.0010   0.6121 C.3            1 S1                 0.0000
     21 ****        -3.7511   1.4968  -1.3705 C.3            1 S1                 0.0000
     22 ****        -2.4628   0.6519  -1.3882 C.3            1 S1                 0.0000
     23 ****         1.1950  -1.5904  -0.1942 H              1 S1                 0.0000
     24 ****         3.1820  -2.7742  -0.8004 H              1 S1                 0.0000
     25 ****         7.6541  -0.6966  -1.0686 H              1 S1                 0.0000
     26 ****         7.3603  -2.8063   1.2244 H              1 S1                 0.0000
     27 ****         8.8483  -2.5423   0.1761 H              1 S1                 0.0000
     28 ****         9.0029  -0.1762   0.9992 H              1 S1                 0.0000
     29 ****         7.5154  -0.4478   2.0457 H              1 S1                 0.0000
     30 ****         3.4960   1.3252   0.5828 H              1 S1                 0.0000
     31 ****        -0.6599  -0.9915  -0.0912 H              1 S1                 0.0000
     32 ****        -1.3001   1.9350  -0.1215 H              1 S1                 0.0000
     33 ****        -2.7343  -0.4016   1.2179 H              1 S1                 0.0000
     34 ****        -1.9045   0.9034   2.0252 H              1 S1                 0.0000
     35 ****        -4.3797   1.3002   1.9731 H              1 S1                 0.0000
     36 ****        -3.5058   2.5603   1.1398 H              1 S1                 0.0000
     37 ****        -4.6600  -0.9299  -0.1444 H              1 S1                 0.0000
     38 ****        -6.8658   0.9251  -1.3997 H              1 S1                 0.0000
     39 ****        -6.8925  -0.9134  -1.3992 H              1 S1                 0.0000
     40 ****        -6.8926  -0.9174   1.1084 H              1 S1                 0.0000
     41 ****        -6.8665   0.9211   1.1145 H              1 S1                 0.0000
     42 ****        -4.3545   1.2897  -2.2550 H              1 S1                 0.0000
     43 ****        -3.4917   2.5551  -1.4175 H              1 S1                 0.0000
     44 ****        -1.8771   0.8978  -2.2750 H              1 S1                 0.0000
     45 ****        -2.7162  -0.4056  -1.4743 H              1 S1                 0.0000
     46 ****        -5.2798   1.9703  -0.1478 H              1 S1                 0.0000
     47 ****         2.1575   1.7768  -0.2163 LP             1 S1                 0.0000
     48 ****         0.5032   2.2883  -0.1750 LP             1 S1                 0.0000
     49 ****         5.5433  -2.8326  -0.7533 LP             1 S1                 0.0000
     50 ****         5.8178   1.0356   0.5371 LP             1 S1                 0.0000
@<TRIPOS>BOND
    1    1    2 2     
    2    2    3 am    
    3    2   13 am    
    4    3    4 1     
    5    3   23 1     
    6    4   12 ar    
    7    4    5 ar    
    8    5    6 ar    
    9    5   24 1     
   10    6    7 ar    
   11    7    8 1     
   12    7   11 ar    
   13    8   10 1     
   14    8    9 1     
   15    8   25 1     
   16    9   10 1     
   17    9   26 1     
   18    9   27 1     
   19   10   28 1     
   20   10   29 1     
   21   11   12 ar    
   22   12   30 1     
   23   13   14 1     
   24   13   31 1     
   25   14   22 1     
   26   14   15 1     
   27   14   32 1     
   28   15   16 1     
   29   15   33 1     
   30   15   34 1     
   31   16   17 1     
   32   16   35 1     
   33   16   36 1     
   34   17   18 1     
   35   17   21 1     
   36   17   46 1     
   37   18   20 1     
   38   18   19 1     
   39   18   37 1     
   40   19   20 1     
   41   19   38 1     
   42   19   39 1     
   43   20   40 1     
   44   20   41 1     
   45   21   22 1     
   46   21   42 1     
   47   21   43 1     
   48   22   44 1     
   49   22   45 1     
   50    1   47 1     
   51    1   48 1     
   52    6   49 1     
   53   11   50 1     
@<TRIPOS>SUBSTRUCTURE
      1 S1             1
@<TRIPOS>SET
LONE_PAIRS      STATIC     ATOMS    <user>   **** ""
4 47 48 49 50
DONOR_HYDROGENS      STATIC     ATOMS    <user>   **** ""
3 23 31 46
ATOM$BLUE        STATIC     ATOMS    COLORGROUP SYSTEM
4 47 48 49 50
ATOM$RED        STATIC     ATOMS    COLORGROUP SYSTEM
3 23 31 46
