AV-unprocessed.smi:1565|AV-procd|sdf|6298|dock2
  -GOLD-   22720 6493D 1   1.00000     0.00000
 Structure written by MMmdl.
 40 41  0  0  0  0  0  0  0  0  1 V2000
  151.4195  145.3710  159.2246 C   0  0  0  0  0  0  0  0  0  0  0  0
  151.8558  144.0572  158.5678 C   0  0  1  0  0  0  0  0  0  0  0  0
  152.5401  143.1091  159.5706 C   0  0  0  0  0  0  0  0  0  0  0  0
  152.8318  141.8242  158.9408 N   0  0  0  0  0  0  0  0  0  0  0  0
  153.6986  140.9755  159.6625 C   0  0  0  0  0  0  0  0  0  0  0  0
  154.0113  141.2603  161.0127 C   0  0  0  0  0  0  0  0  0  0  0  0
  154.8759  140.3993  161.7150 C   0  0  0  0  0  0  0  0  0  0  0  0
  155.4184  139.2774  161.0507 C   0  0  0  0  0  0  0  0  0  0  0  0
  156.3252  138.3066  161.7498 C   0  0  0  0  0  0  0  0  0  0  0  0
  156.7280  137.2945  161.1766 O   0  0  0  0  0  0  0  0  0  0  0  0
  156.6942  138.6512  162.9938 N   0  0  0  0  0  0  0  0  0  0  0  0
  157.5731  137.8694  163.8571 C   0  0  0  0  0  0  0  0  0  0  0  0
  156.8150  137.2551  165.0462 C   0  0  0  0  0  0  0  0  0  0  0  0
  156.3057  138.2344  165.7922 F   0  0  0  0  0  0  0  0  0  0  0  0
  155.8160  136.4877  164.6098 F   0  0  0  0  0  0  0  0  0  0  0  0
  157.6310  136.5238  165.8050 F   0  0  0  0  0  0  0  0  0  0  0  0
  155.0434  139.0708  159.7061 C   0  0  0  0  0  0  0  0  0  0  0  0
  154.2168  139.8949  159.0283 N   0  0  0  0  0  0  0  0  0  0  0  0
  151.6679  141.2228  158.2936 C   0  0  0  0  0  0  0  0  0  0  0  0
  151.0134  142.2248  157.3246 C   0  0  1  0  0  0  0  0  0  0  0  0
  149.7214  141.6733  156.7127 C   0  0  0  0  0  0  0  0  0  0  0  0
  150.6987  143.4203  158.0328 O   0  0  0  0  0  0  0  0  0  0  0  0
  152.2740  145.9046  159.6417 H   0  0  0  0  0  0  0  0  0  0  0  0
  150.7093  145.1916  160.0323 H   0  0  0  0  0  0  0  0  0  0  0  0
  150.9393  146.0279  158.4991 H   0  0  0  0  0  0  0  0  0  0  0  0
  152.5449  144.2895  157.7537 H   0  0  0  0  0  0  0  0  0  0  0  0
  153.4434  143.5853  159.9494 H   0  0  0  0  0  0  0  0  0  0  0  0
  151.8894  142.9368  160.4291 H   0  0  0  0  0  0  0  0  0  0  0  0
  153.6095  142.1294  161.5115 H   0  0  0  0  0  0  0  0  0  0  0  0
  155.1113  140.6076  162.7485 H   0  0  0  0  0  0  0  0  0  0  0  0
  156.3298  139.5115  163.3762 H   0  0  0  0  0  0  0  0  0  0  0  0
  158.0794  137.0900  163.2846 H   0  0  0  0  0  0  0  0  0  0  0  0
  158.3548  138.5345  164.2252 H   0  0  0  0  0  0  0  0  0  0  0  0
  155.4180  138.2242  159.1489 H   0  0  0  0  0  0  0  0  0  0  0  0
  151.9649  140.3289  157.7435 H   0  0  0  0  0  0  0  0  0  0  0  0
  150.9518  140.9141  159.0567 H   0  0  0  0  0  0  0  0  0  0  0  0
  151.7072  142.4600  156.5156 H   0  0  0  0  0  0  0  0  0  0  0  0
  149.9129  140.7600  156.1490 H   0  0  0  0  0  0  0  0  0  0  0  0
  149.2737  142.3969  156.0310 H   0  0  0  0  0  0  0  0  0  0  0  0
  148.9863  141.4431  157.4843 H   0  0  0  0  0  0  0  0  0  0  0  0
  1  2  1  0  0  0  0
  1 23  1  0  0  0  0
  1 24  1  0  0  0  0
  1 25  1  0  0  0  0
  2 22  1  0  0  0  0
  2  3  1  0  0  0  0
  2 26  1  0  0  0  0
  3  4  1  0  0  0  0
  3 27  1  0  0  0  0
  3 28  1  0  0  0  0
  4  5  1  0  0  0  0
  4 19  1  0  0  0  0
  5 18  1  0  0  0  0
  5  6  2  0  0  0  0
  6  7  1  0  0  0  0
  6 29  1  0  0  0  0
  7  8  2  0  0  0  0
  7 30  1  0  0  0  0
  8  9  1  0  0  0  0
  8 17  1  0  0  0  0
  9 10  2  0  0  0  0
  9 11  1  0  0  0  0
 11 12  1  0  0  0  0
 11 31  1  0  0  0  0
 12 13  1  0  0  0  0
 12 32  1  0  0  0  0
 12 33  1  0  0  0  0
 13 14  1  0  0  0  0
 13 15  1  0  0  0  0
 13 16  1  0  0  0  0
 17 18  2  0  0  0  0
 17 34  1  0  0  0  0
 19 20  1  0  0  0  0
 19 35  1  0  0  0  0
 19 36  1  0  0  0  0
 20 21  1  0  0  0  0
 20 22  1  0  0  0  0
 20 37  1  0  0  0  0
 21 38  1  0  0  0  0
 21 39  1  0  0  0  0
 21 40  1  0  0  0  0
M  END
> <s_m_source_file>
AV-unprocessed.smi

> <i_m_source_file_index>
1565

> <i_lp_mmshare_version>
43012

> <i_f3d_flags>
0

> <s_epik_input>
W0NIM11bQ0BASF0xW0NIMl1OKFtDSDJdW0NASF0oTzEpW0NIM10pYzJbY0hdW2NIXWMoW2NIXW4yKUMoPU8pW05IXVtDSDJdQyhGKShGKUY=

> <s_epik_cmdline>
J2VwaWtfcHl0aG9uJywgJy1waCcsICc3LjAnLCAnLXRuJywgJzgnLCAnLW1hJywgJzIwMCcsICctbWV0YWxfYmluZGluZycsICctaW1hZScsICc8aW5maWxlLm1hZT4nLCAnLW9tYWUnLCAnPG91dGZpbGUubWFlPic=

> <r_lp_tautomer_probability>
1

> <r_epik_Ionization_Penalty>
1.48031e-05

> <r_epik_Ionization_Penalty_Charging>
0

> <r_epik_Ionization_Penalty_Neutral>
1.48031e-05

> <r_epik_State_Penalty>
-0

> <r_epik_Charging_Adjusted_Penalty>
0

> <i_epik_Tot_Q>
0

> <i_epik_Tot_abs_Q>
0

> <r_epik_Metal_State_Penalty>
0.00620302

> <b_epik_Metal_Only>
0

> <s_lp_Force_Field>
OPLS_2005

> <r_lp_Energy>
16.2805

> <b_lp_Chiralities_Consistent>
1

> <s_lp_Variant>
AV-unprocessed.smi:1565-2

> <Gold.Version>
5.8.1

> <Gold.Id.Protein>
6NUR|6NUR_protein|mol2

> <Gold.PLP.Fitness>
37.5186

> <Gold.PLP.PLP>
-34.6509

> <Gold.PLP.part.hbond>
-1.0000

> <Gold.PLP.part.metal>
0.0000

> <Gold.PLP.part.buried>
-4.1321

> <Gold.PLP.part.nonpolar>
-29.8764

> <Gold.PLP.part.repulsive>
0.1570

> <Gold.PLP.ligand.clash>
0.0000

> <Gold.PLP.ligand.torsion>
0.2314

> <Gold.PLP.Chemscore.Hbond>
1.0000

> <Gold.PLP.Chemscore.CHOScore>
0.0000

> <Gold.PLP.Chemscore.Metal>
0.0000

> <Gold.Chemscore.Hbonds>
donor molecule, donor type, donor heavy atom, donor atom, acceptor molecule, acceptor atom, score
      P1  H  7997  8010       L1    18  1.00

> <Gold.PLP.Chemscore.Internal.Correction>
0.3305

> <Gold.Rescore>
     Score         DG    S(hbond)    S(metal)    S(lipo)     H(rot)  DE(clash)    DE(int)     intcor
     15.72     -15.99       0.83        0.00      94.60       1.31       0.02       0.25       ----

> <Gold.Chemscore.Fitness>
15.7186

> <Gold.Chemscore.DG>
-15.9875

> <Gold.Chemscore.ZeroCoef>
-5.4800

> <Gold.Chemscore.Hbond>
0.8327

> <Gold.Chemscore.Metal>
0.0000

> <Gold.Chemscore.Lipo>
94.5962

> <Gold.Chemscore.Internal_Hbond>
0.0000

> <Gold.Chemscore.DEClash>
0.0228

> <Gold.Chemscore.DEInternal>
0.2461

> <Gold.Chemscore.Rot>
1.3052

> <Gold.Chemscore.Internal.Correction>
   9.000000E+99

> <Gold.Chemscore.Hbonds>
donor molecule, donor type, donor heavy atom, donor atom, acceptor molecule, acceptor atom, score
      P1  H  7997  8010       L1    18  0.48

> <Gold.Chemscore.Hbond.Weighted>
-2.7812

> <Gold.Chemscore.Metal.Weighted>
-0.0000

> <Gold.Chemscore.Lipo.Weighted>
-11.0678

> <Gold.Chemscore.Internal_Hbond.Weighted>
0.0000

> <Gold.Chemscore.DEClash.Weighted>
0.0228

> <Gold.Chemscore.DEInternal.Weighted>
0.2461

> <Gold.Chemscore.Rot.Weighted>
3.3414

> <Gold.Chemscore.Internal.Correction.Weighted>
   9.000000E+99

> <Gold.Protein.RotatedTorsions>
[ 6907 6896 6895 6894 ] final  176.43 input  -60.11 | X-H torsion
[ 7974 7965 7964 7962 ] final   77.17 input  175.53 | X-H torsion
[ 8008 7997 7996 7995 ] final    8.95 input   59.86 | X-H torsion
[ 10167 10162 10161 10158 ] final -102.23 input  -65.29 | X-H torsion
[ 10718 10713 10712 10709 ] final   46.34 input   66.30 | X-H torsion
[ 10763 10752 10751 10750 ] final -109.63 input  -60.55 | X-H torsion
[ 11005 11000 10999 10996 ] final  100.15 input  -57.11 | X-H torsion

> <Gold.Protein.ActiveResidues>
 VAL166  LYS551  ARG553  GLY616  TRP617  ASP618  TYR619  PRO620  LYS621  CYS622 
 ASP623  PHE694  ASN695  SER759  ASP760  ASP761  ALA762  ILE779  LEU786  VAL792 
 PHE793  MET794  SER795  GLU796  ALA797  LYS798  CYS799  TRP800  GLU811  SER814 

> <Gold.Protein.RotatedAtoms>
  151.7202  133.3314  159.3313 H   0  0  0  0  0  0  0  0  0  0  0  0  # atno 6907 bound_to 6896
  150.7656  134.6455  159.6269 H   0  0  0  0  0  0  0  0  0  0  0  0  # atno 6908 bound_to 6896
  152.3657  134.6811  160.0244 H   0  0  0  0  0  0  0  0  0  0  0  0  # atno 6909 bound_to 6896
  145.6935  139.2560  143.1746 H   0  0  0  0  0  0  0  0  0  0  0  0  # atno 7974 bound_to 7965
  154.7735  140.2806  155.6119 H   0  0  0  0  0  0  0  0  0  0  0  0  # atno 8008 bound_to 7997
  156.2938  140.2637  156.2472 H   0  0  0  0  0  0  0  0  0  0  0  0  # atno 8009 bound_to 7997
  154.9870  140.0374  157.2292 H   0  0  0  0  0  0  0  0  0  0  0  0  # atno 8010 bound_to 7997
  140.2329  143.3593  152.0870 H   0  0  0  0  0  0  0  0  0  0  0  0  # atno 10167 bound_to 10162
  157.4471  130.8116  149.7751 H   0  0  0  0  0  0  0  0  0  0  0  0  # atno 10718 bound_to 10713
  154.8204  135.4594  154.0762 H   0  0  0  0  0  0  0  0  0  0  0  0  # atno 10763 bound_to 10752
  153.2120  135.6883  153.8109 H   0  0  0  0  0  0  0  0  0  0  0  0  # atno 10764 bound_to 10752
  153.7556  135.3291  155.3305 H   0  0  0  0  0  0  0  0  0  0  0  0  # atno 10765 bound_to 10752
  139.8771  134.9127  156.4712 H   0  0  0  0  0  0  0  0  0  0  0  0  # atno 11005 bound_to 11000
  146.0861  140.7709  142.9618 LP  0  0  0  0  0  0  0  0  0  0  0  0  # atno 17320 bound_to 7965
  144.6989  140.3565  143.7172 LP  0  0  0  0  0  0  0  0  0  0  0  0  # atno 17321 bound_to 7965
  139.5103  144.6883  151.5829 LP  0  0  0  0  0  0  0  0  0  0  0  0  # atno 17342 bound_to 10162
  140.6171  143.9327  150.6497 LP  0  0  0  0  0  0  0  0  0  0  0  0  # atno 17343 bound_to 10162
  155.9971  130.3901  150.2751 LP  0  0  0  0  0  0  0  0  0  0  0  0  # atno 17370 bound_to 10713
  157.0920  131.0172  151.3118 LP  0  0  0  0  0  0  0  0  0  0  0  0  # atno 17371 bound_to 10713
  140.8794  133.7929  155.9450 LP  0  0  0  0  0  0  0  0  0  0  0  0  # atno 17394 bound_to 11000
  140.8870  134.2542  157.5115 LP  0  0  0  0  0  0  0  0  0  0  0  0  # atno 17395 bound_to 11000

$$$$
