AV-unprocessed.smi:790|AV-procd|sdf|3743|dock10
  -GOLD-   22720 1173D 1   1.00000     0.00000
 Structure written by MMmdl.
 38 40  0  0  0  0  0  0  0  0  1 V2000
  145.1452  137.6593  153.5413 O   0  0  0  0  0  0  0  0  0  0  0  0
  146.1652  137.1978  153.0311 C   0  0  0  0  0  0  0  0  0  0  0  0
  147.3816  137.7687  153.0644 N   0  0  0  0  0  0  0  0  0  0  0  0
  147.7689  139.0081  153.6431 C   0  0  0  0  0  0  0  0  0  0  0  0
  149.0641  139.1005  154.1931 C   0  0  0  0  0  0  0  0  0  0  0  0
  149.4855  140.3183  154.7596 C   0  0  0  0  0  0  0  0  0  0  0  0
  148.5923  141.4066  154.7474 C   0  0  0  0  0  0  0  0  0  0  0  0
  147.3544  141.3409  154.2139 N   0  0  0  0  0  0  0  0  0  0  0  0
  146.9562  140.1691  153.6726 C   0  0  0  0  0  0  0  0  0  0  0  0
  146.2011  136.0263  152.3808 N   0  0  0  0  0  0  0  0  0  0  0  0
  145.0514  135.1509  152.1441 C   0  0  1  0  0  0  0  0  0  0  0  0
  145.0932  134.4921  150.7426 C   0  0  1  0  0  0  0  0  0  0  0  0
  146.4574  133.8209  150.4753 C   0  0  0  0  0  0  0  0  0  0  0  0
  146.4310  132.6156  151.4319 C   0  0  0  0  0  0  0  0  0  0  0  0
  145.0428  132.7313  152.0960 C   0  0  2  0  0  0  0  0  0  0  0  0
  144.2056  133.2677  150.9409 C   0  0  0  0  0  0  0  0  0  0  0  0
  144.9698  133.9168  153.0897 C   0  0  1  0  0  0  0  0  0  0  0  0
  145.9526  133.8619  154.2813 C   0  0  0  0  0  0  0  0  0  0  0  0
  145.6815  132.7363  155.0896 O   0  0  0  0  0  0  0  0  0  0  0  0
  148.1336  137.2288  152.6616 H   0  0  0  0  0  0  0  0  0  0  0  0
  149.7283  138.2486  154.1852 H   0  0  0  0  0  0  0  0  0  0  0  0
  150.4700  140.4165  155.1925 H   0  0  0  0  0  0  0  0  0  0  0  0
  148.8813  142.3558  155.1735 H   0  0  0  0  0  0  0  0  0  0  0  0
  145.9679  140.1899  153.2416 H   0  0  0  0  0  0  0  0  0  0  0  0
  147.0861  135.7191  152.0052 H   0  0  0  0  0  0  0  0  0  0  0  0
  144.1280  135.7277  152.2279 H   0  0  0  0  0  0  0  0  0  0  0  0
  144.7755  135.1590  149.9405 H   0  0  0  0  0  0  0  0  0  0  0  0
  146.5153  133.4785  149.4412 H   0  0  0  0  0  0  0  0  0  0  0  0
  147.3126  134.4748  150.6448 H   0  0  0  0  0  0  0  0  0  0  0  0
  146.5070  131.6854  150.8673 H   0  0  0  0  0  0  0  0  0  0  0  0
  147.2536  132.6264  152.1456 H   0  0  0  0  0  0  0  0  0  0  0  0
  144.6819  131.7913  152.5149 H   0  0  0  0  0  0  0  0  0  0  0  0
  143.1811  133.5165  151.2240 H   0  0  0  0  0  0  0  0  0  0  0  0
  144.1826  132.6027  150.0755 H   0  0  0  0  0  0  0  0  0  0  0  0
  143.9664  133.9132  153.5202 H   0  0  0  0  0  0  0  0  0  0  0  0
  146.9926  133.8311  153.9587 H   0  0  0  0  0  0  0  0  0  0  0  0
  145.8400  134.7525  154.8996 H   0  0  0  0  0  0  0  0  0  0  0  0
  144.8487  132.3729  154.8295 H   0  0  0  0  0  0  0  0  0  0  0  0
  1  2  2  0  0  0  0
  2  3  1  0  0  0  0
  2 10  1  0  0  0  0
  3  4  1  0  0  0  0
  3 20  1  0  0  0  0
  4  9  1  0  0  0  0
  4  5  2  0  0  0  0
  5  6  1  0  0  0  0
  5 21  1  0  0  0  0
  6  7  2  0  0  0  0
  6 22  1  0  0  0  0
  7  8  1  0  0  0  0
  7 23  1  0  0  0  0
  8  9  2  0  0  0  0
  9 24  1  0  0  0  0
 10 11  1  0  0  0  0
 10 25  1  0  0  0  0
 11 17  1  0  0  0  0
 11 12  1  0  0  0  0
 11 26  1  0  0  0  0
 12 16  1  0  0  0  0
 12 13  1  0  0  0  0
 12 27  1  0  0  0  0
 13 14  1  0  0  0  0
 13 28  1  0  0  0  0
 13 29  1  0  0  0  0
 14 15  1  0  0  0  0
 14 30  1  0  0  0  0
 14 31  1  0  0  0  0
 15 16  1  0  0  0  0
 15 17  1  0  0  0  0
 15 32  1  0  0  0  0
 16 33  1  0  0  0  0
 16 34  1  0  0  0  0
 17 18  1  0  0  0  0
 17 35  1  0  0  0  0
 18 19  1  0  0  0  0
 18 36  1  0  0  0  0
 18 37  1  0  0  0  0
 19 38  1  0  0  0  0
M  END
> <s_m_source_file>
AV-unprocessed.smi

> <i_m_source_file_index>
790

> <i_lp_mmshare_version>
43012

> <i_f3d_flags>
0

> <s_epik_input>
W0NIMl0xW0NIMl1bQ0BASF0oW0NIMl0yKVtDQEBIXShbQ0gyXVtPSF0pW0NAQEhdKFtDQEhdMTIpW05IXUMoPU8pW05IXWMzW2NIXVtjSF1bY0hdbltjSF0z

> <s_epik_cmdline>
J2VwaWtfcHl0aG9uJywgJy1waCcsICc3LjAnLCAnLXRuJywgJzgnLCAnLW1hJywgJzIwMCcsICctbWV0YWxfYmluZGluZycsICctaW1hZScsICc8aW5maWxlLm1hZT4nLCAnLW9tYWUnLCAnPG91dGZpbGUubWFlPic=

> <r_epik_Ionization_Penalty>
0.00497582

> <r_epik_Ionization_Penalty_Charging>
0

> <r_epik_Ionization_Penalty_Neutral>
0.00497582

> <r_epik_State_Penalty>
0.00358602

> <r_epik_Charging_Adjusted_Penalty>
0.00358602

> <i_epik_Tot_Q>
0

> <i_epik_Tot_abs_Q>
0

> <r_epik_Metal_State_Penalty>
-0

> <b_epik_Metal_Only>
0

> <s_lp_Force_Field>
OPLS_2005

> <r_lp_Energy>
55.7442

> <b_lp_Chiralities_Consistent>
1

> <s_lp_Variant>
AV-unprocessed.smi:790-4

> <Gold.Version>
5.8.1

> <Gold.Id.Protein>
6NUR|6NUR_protein|mol2

> <Gold.PLP.Fitness>
42.2756

> <Gold.PLP.PLP>
-28.7180

> <Gold.PLP.part.hbond>
-2.9241

> <Gold.PLP.part.metal>
0.0000

> <Gold.PLP.part.buried>
-2.2986

> <Gold.PLP.part.nonpolar>
-23.3198

> <Gold.PLP.part.repulsive>
0.7767

> <Gold.PLP.ligand.clash>
0.0000

> <Gold.PLP.ligand.torsion>
0.5215

> <Gold.PLP.Chemscore.Hbond>
2.8640

> <Gold.PLP.Chemscore.CHOScore>
2.0000

> <Gold.PLP.Chemscore.Metal>
0.0000

> <Gold.Chemscore.Hbonds>
donor molecule, donor type, donor heavy atom, donor atom, acceptor molecule, acceptor atom, score
      L1  H     3    20       P1  7948  0.94
      L1  H    10    25       P1  7948  0.88
      L1  H    19    38       P1 10957  0.47
      L1  C     7    23       P1  8028  1.00
      L1  C     9    24       P1 10175  1.00

> <Gold.PLP.Chemscore.Internal.Correction>
0.0087

> <Gold.Rescore>
     Score         DG    S(hbond)    S(metal)    S(lipo)     H(rot)  DE(clash)    DE(int)     intcor
     18.07     -18.77       2.79        0.00      72.90       1.78       0.13       0.57       ----

> <Gold.Chemscore.Fitness>
18.0707

> <Gold.Chemscore.DG>
-18.7739

> <Gold.Chemscore.ZeroCoef>
-5.4800

> <Gold.Chemscore.Hbond>
2.7896

> <Gold.Chemscore.Metal>
0.0000

> <Gold.Chemscore.Lipo>
72.8982

> <Gold.Chemscore.Internal_Hbond>
0.0000

> <Gold.Chemscore.DEClash>
0.1308

> <Gold.Chemscore.DEInternal>
0.5724

> <Gold.Chemscore.Rot>
1.7783

> <Gold.Chemscore.Internal.Correction>
   9.000000E+99

> <Gold.Chemscore.Hbonds>
donor molecule, donor type, donor heavy atom, donor atom, acceptor molecule, acceptor atom, score
      L1  H     3    20       P1  7948  0.90
      L1  H    10    25       P1  7948  0.86
      L1  H    19    38       P1 10957  0.35

> <Gold.Chemscore.Hbond.Weighted>
-9.3173

> <Gold.Chemscore.Metal.Weighted>
-0.0000

> <Gold.Chemscore.Lipo.Weighted>
-8.5291

> <Gold.Chemscore.Internal_Hbond.Weighted>
0.0000

> <Gold.Chemscore.DEClash.Weighted>
0.1308

> <Gold.Chemscore.DEInternal.Weighted>
0.5724

> <Gold.Chemscore.Rot.Weighted>
4.5525

> <Gold.Chemscore.Internal.Correction.Weighted>
   9.000000E+99

> <Gold.Protein.RotatedTorsions>
[ 6907 6896 6895 6894 ] final   54.85 input  -60.11 | X-H torsion
[ 7974 7965 7964 7962 ] final   99.11 input  175.53 | X-H torsion
[ 8008 7997 7996 7995 ] final   -8.42 input   59.86 | X-H torsion
[ 10167 10162 10161 10158 ] final   70.77 input  -65.29 | X-H torsion
[ 10718 10713 10712 10709 ] final  179.23 input   66.30 | X-H torsion
[ 10763 10752 10751 10750 ] final  103.47 input  -60.55 | X-H torsion
[ 11005 11000 10999 10996 ] final -175.87 input  -57.11 | X-H torsion

> <Gold.Protein.ActiveResidues>
 VAL166  LYS551  ARG553  GLY616  TRP617  ASP618  TYR619  PRO620  LYS621  CYS622 
 ASP623  PHE694  ASN695  SER759  ASP760  ASP761  ALA762  ILE779  LEU786  VAL792 
 PHE793  MET794  SER795  GLU796  ALA797  LYS798  CYS799  TRP800  GLU811  SER814 

> <Gold.Protein.RotatedAtoms>
  152.3480  134.7044  160.0244 H   0  0  0  0  0  0  0  0  0  0  0  0  # atno 6907 bound_to 6896
  151.7407  133.3316  159.3373 H   0  0  0  0  0  0  0  0  0  0  0  0  # atno 6908 bound_to 6896
  150.7522  134.6213  159.6182 H   0  0  0  0  0  0  0  0  0  0  0  0  # atno 6909 bound_to 6896
  145.4032  139.2344  143.3288 H   0  0  0  0  0  0  0  0  0  0  0  0  # atno 7974 bound_to 7965
  154.5743  140.2381  155.8145 H   0  0  0  0  0  0  0  0  0  0  0  0  # atno 8008 bound_to 7997
  156.2131  140.3020  155.9735 H   0  0  0  0  0  0  0  0  0  0  0  0  # atno 8009 bound_to 7997
  155.2655  140.0416  157.2992 H   0  0  0  0  0  0  0  0  0  0  0  0  # atno 8010 bound_to 7997
  140.0534  144.5293  150.7347 H   0  0  0  0  0  0  0  0  0  0  0  0  # atno 10167 bound_to 10162
  156.8789  130.9809  151.3064 H   0  0  0  0  0  0  0  0  0  0  0  0  # atno 10718 bound_to 10713
  153.3531  135.3975  155.1662 H   0  0  0  0  0  0  0  0  0  0  0  0  # atno 10763 bound_to 10752
  154.8666  135.3661  154.5196 H   0  0  0  0  0  0  0  0  0  0  0  0  # atno 10764 bound_to 10752
  153.5649  135.7080  153.5590 H   0  0  0  0  0  0  0  0  0  0  0  0  # atno 10765 bound_to 10752
  140.4584  134.6277  157.4832 H   0  0  0  0  0  0  0  0  0  0  0  0  # atno 11005 bound_to 11000
  146.2741  140.4733  142.8802 LP  0  0  0  0  0  0  0  0  0  0  0  0  # atno 17320 bound_to 7965
  144.8359  140.6781  143.6260 LP  0  0  0  0  0  0  0  0  0  0  0  0  # atno 17321 bound_to 7965
  140.7206  143.2585  151.4290 LP  0  0  0  0  0  0  0  0  0  0  0  0  # atno 17342 bound_to 10162
  139.5939  144.1439  152.2121 LP  0  0  0  0  0  0  0  0  0  0  0  0  # atno 17343 bound_to 10162
  157.6152  130.8613  149.9016 LP  0  0  0  0  0  0  0  0  0  0  0  0  # atno 17370 bound_to 10713
  156.0687  130.3688  150.0821 LP  0  0  0  0  0  0  0  0  0  0  0  0  # atno 17371 bound_to 10713
  139.9961  134.6909  155.9607 LP  0  0  0  0  0  0  0  0  0  0  0  0  # atno 17394 bound_to 11000
  141.1632  133.6538  156.4390 LP  0  0  0  0  0  0  0  0  0  0  0  0  # atno 17395 bound_to 11000

$$$$
