#       Name:                AV-unprocessed.smi:742
#       Creating user name   scv26
#       Creation time:       Fri Mar 27 00:55:51 2020


#       File generated by GOLD software.
#

@<TRIPOS>MOLECULE
AV-unprocessed.smi:742
    28    28     1
SMALL
NO_CHARGES


@<TRIPOS>ATOM
      1 ****        -3.7228   0.5853  -0.6732 N.4            1 S1                 1.0000
      2 ****        -2.2953   0.4668  -0.3405 C.3            1 S1                 0.0000
      3 ****        -1.7391  -0.8896  -0.7993 C.3            1 S1                 0.0000
      4 ****        -0.3111  -0.9775  -0.5459 N.pl3          1 S1                -1.0000
      5 ****         0.2361  -1.2336   0.9617 S.o2           1 S1                 0.0000
      6 ****         0.0367  -0.0696   1.8407 O.2            1 S1                 0.0000
      7 ****        -0.1786  -2.5458   1.4837 O.2            1 S1                 0.0000
      8 ****         2.0537  -1.3661   0.6579 C.3            1 S1                 0.0000
      9 ****         2.6762  -0.0004   0.5532 C.2            1 S1                 0.0000
     10 ****         2.5937   0.9306  -0.5196 C.2            1 S1                 0.0000
     11 ****         3.3404   1.9870  -0.0844 C.2            1 S1                 0.0000
     12 ****         3.8496   1.7336   1.1474 O.3            1 S1                 0.0000
     13 ****         3.4231   0.4613   1.5446 N.2            1 S1                 0.0000
     14 ****        -4.0670   1.4836  -0.3665 H              1 S1                 0.0000
     15 ****        -4.2330  -0.1519  -0.2081 H              1 S1                 0.0000
     16 ****        -1.7564   1.2858  -0.8186 H              1 S1                 0.0000
     17 ****        -2.1913   0.5928   0.7367 H              1 S1                 0.0000
     18 ****        -2.2920  -1.6917  -0.3096 H              1 S1                 0.0000
     19 ****        -1.9467  -1.0037  -1.8639 H              1 S1                 0.0000
     20 ****         2.4850  -1.9210   1.4916 H              1 S1                 0.0000
     21 ****         2.2192  -1.9564  -0.2431 H              1 S1                 0.0000
     22 ****         2.0649   0.8379  -1.4565 H              1 S1                 0.0000
     23 ****         3.5934   2.9444  -0.5153 H              1 S1                 0.0000
     24 ****        -3.8396   0.4978  -1.6724 H              1 S1                 0.0000
     25 ****         0.3365  -0.8800  -1.3017 LP             1 S1                 0.0000
     26 ****         3.5206   2.4189   1.7971 LP             1 S1                 0.0000
     27 ****         4.8487   1.7600   1.1125 LP             1 S1                 0.0000
     28 ****         3.6386  -0.0046   2.4028 LP             1 S1                 0.0000
@<TRIPOS>BOND
    1    1    2 1     
    2    1   14 1     
    3    1   15 1     
    4    1   24 1     
    5    2    3 1     
    6    2   16 1     
    7    2   17 1     
    8    3    4 1     
    9    3   18 1     
   10    3   19 1     
   11    4    5 1     
   12    5    6 2     
   13    5    7 2     
   14    5    8 1     
   15    8    9 1     
   16    8   20 1     
   17    8   21 1     
   18    9   13 2     
   19    9   10 1     
   20   10   11 2     
   21   10   22 1     
   22   11   12 1     
   23   11   23 1     
   24   12   13 1     
   25    4   25 1     
   26   12   26 1     
   27   12   27 1     
   28   13   28 1     
@<TRIPOS>SUBSTRUCTURE
      1 S1             1
@<TRIPOS>SET
LONE_PAIRS      STATIC     ATOMS    <user>   **** ""
6 25 6 7 26 27 28
DONOR_HYDROGENS      STATIC     ATOMS    <user>   **** ""
3 14 15 24
ATOM$BLUE        STATIC     ATOMS    COLORGROUP SYSTEM
6 25 6 7 26 27 28
ATOM$RED        STATIC     ATOMS    COLORGROUP SYSTEM
3 14 15 24
