AV-unprocessed.smi:2336|AV-procd|sdf|9328|dock6
  -GOLD-   2272012543D 1   1.00000     0.00000
 Structure written by MMmdl.
 50 51  0  0  0  0  0  0  0  0  2 V2000
  147.9482  137.6029  157.1553 C   0  0  0  0  0  0  0  0  0  0  0  0
  146.8267  137.5146  156.1057 C   0  0  0  0  0  0  0  0  0  0  0  0
  146.4321  136.0507  155.8448 C   0  0  0  0  0  0  0  0  0  0  0  0
  147.0757  138.2985  154.7823 C   0  0  1  0  0  0  0  0  0  0  0  0
  146.0071  138.0776  153.6800 C   0  0  0  0  0  0  0  0  0  0  0  0
  146.3217  136.9230  152.8490 N   0  0  0  0  0  0  0  0  0  0  0  0
  145.4345  135.9827  152.4994 C   0  0  0  0  0  0  0  0  0  0  0  0
  144.2540  136.0128  152.8451 O   0  0  0  0  0  0  0  0  0  0  0  0
  146.0080  135.0371  151.7350 N   0  0  0  0  0  0  0  0  0  0  0  0
  145.4378  133.8732  151.1467 C   0  0  0  0  0  0  0  0  0  0  0  0
  144.0785  133.7394  150.7692 C   0  0  0  0  0  0  0  0  0  0  0  0
  143.6515  132.5220  150.2018 C   0  0  0  0  0  0  0  0  0  0  0  0
  144.4687  131.4673  149.9990 N   0  0  0  0  0  0  0  0  0  0  0  0
  145.7614  131.5950  150.3645 C   0  0  0  0  0  0  0  0  0  0  0  0
  146.2907  132.7679  150.9392 C   0  0  0  0  0  0  0  0  0  0  0  0
  147.5996  132.8274  151.2846 F   0  0  0  0  0  0  0  0  0  0  0  0
  147.3848  139.7186  155.0344 N   0  0  0  0  0  0  0  0  0  0  0  0
  146.3499  140.4671  155.7608 C   0  0  0  0  0  0  0  0  0  0  0  0
  146.8791  141.8676  156.1261 C   0  0  0  0  0  0  0  0  0  0  0  0
  147.2708  142.6269  154.9144 N   0  3  0  0  0  0  0  0  0  0  0  0
  146.1241  143.1687  154.1490 C   0  0  0  0  0  0  0  0  0  0  0  0
  148.2201  141.8381  154.0934 C   0  0  0  0  0  0  0  0  0  0  0  0
  147.6707  140.4299  153.7846 C   0  0  0  0  0  0  0  0  0  0  0  0
  148.8270  137.0326  156.8571 H   0  0  0  0  0  0  0  0  0  0  0  0
  147.6130  137.1901  158.1071 H   0  0  0  0  0  0  0  0  0  0  0  0
  148.2514  138.6324  157.3425 H   0  0  0  0  0  0  0  0  0  0  0  0
  145.9515  137.9676  156.5720 H   0  0  0  0  0  0  0  0  0  0  0  0
  147.2583  135.4816  155.4180 H   0  0  0  0  0  0  0  0  0  0  0  0
  145.5905  135.9858  155.1547 H   0  0  0  0  0  0  0  0  0  0  0  0
  146.1354  135.5546  156.7695 H   0  0  0  0  0  0  0  0  0  0  0  0
  147.9918  137.8550  154.3888 H   0  0  0  0  0  0  0  0  0  0  0  0
  145.0166  137.9317  154.1125 H   0  0  0  0  0  0  0  0  0  0  0  0
  145.9447  138.9548  153.0345 H   0  0  0  0  0  0  0  0  0  0  0  0
  147.2735  136.8336  152.5247 H   0  0  0  0  0  0  0  0  0  0  0  0
  146.9853  135.1791  151.5243 H   0  0  0  0  0  0  0  0  0  0  0  0
  143.3549  134.5273  150.9023 H   0  0  0  0  0  0  0  0  0  0  0  0
  142.6214  132.3916  149.9047 H   0  0  0  0  0  0  0  0  0  0  0  0
  146.3938  130.7362  150.1947 H   0  0  0  0  0  0  0  0  0  0  0  0
  145.4439  140.5571  155.1612 H   0  0  0  0  0  0  0  0  0  0  0  0
  146.0641  139.9488  156.6728 H   0  0  0  0  0  0  0  0  0  0  0  0
  146.1299  142.4250  156.6894 H   0  0  0  0  0  0  0  0  0  0  0  0
  147.7484  141.7738  156.7787 H   0  0  0  0  0  0  0  0  0  0  0  0
  145.5006  142.3778  153.7325 H   0  0  0  0  0  0  0  0  0  0  0  0
  146.4757  143.7906  153.3255 H   0  0  0  0  0  0  0  0  0  0  0  0
  145.4985  143.7921  154.7884 H   0  0  0  0  0  0  0  0  0  0  0  0
  148.4488  142.3710  153.1697 H   0  0  0  0  0  0  0  0  0  0  0  0
  149.1613  141.7505  154.6381 H   0  0  0  0  0  0  0  0  0  0  0  0
  148.4232  139.8847  153.2136 H   0  0  0  0  0  0  0  0  0  0  0  0
  146.7789  140.4854  153.1594 H   0  0  0  0  0  0  0  0  0  0  0  0
  147.7801  143.4366  155.2388 H   0  0  0  0  0  0  0  0  0  0  0  0
  1  2  1  0  0  0  0
  1 24  1  0  0  0  0
  1 25  1  0  0  0  0
  1 26  1  0  0  0  0
  2  3  1  0  0  0  0
  2  4  1  0  0  0  0
  2 27  1  0  0  0  0
  3 28  1  0  0  0  0
  3 29  1  0  0  0  0
  3 30  1  0  0  0  0
  4  5  1  0  0  0  0
  4 17  1  0  0  0  0
  4 31  1  0  0  0  0
  5  6  1  0  0  0  0
  5 32  1  0  0  0  0
  5 33  1  0  0  0  0
  6  7  1  0  0  0  0
  6 34  1  0  0  0  0
  7  8  2  0  0  0  0
  7  9  1  0  0  0  0
  9 10  1  0  0  0  0
  9 35  1  0  0  0  0
 10 15  1  0  0  0  0
 10 11  2  0  0  0  0
 11 12  1  0  0  0  0
 11 36  1  0  0  0  0
 12 13  2  0  0  0  0
 12 37  1  0  0  0  0
 13 14  1  0  0  0  0
 14 15  2  0  0  0  0
 14 38  1  0  0  0  0
 15 16  1  0  0  0  0
 17 23  1  0  0  0  0
 17 18  1  0  0  0  0
 18 19  1  0  0  0  0
 18 39  1  0  0  0  0
 18 40  1  0  0  0  0
 19 20  1  0  0  0  0
 19 41  1  0  0  0  0
 19 42  1  0  0  0  0
 20 21  1  0  0  0  0
 20 22  1  0  0  0  0
 20 50  1  0  0  0  0
 21 43  1  0  0  0  0
 21 44  1  0  0  0  0
 21 45  1  0  0  0  0
 22 23  1  0  0  0  0
 22 46  1  0  0  0  0
 22 47  1  0  0  0  0
 23 48  1  0  0  0  0
 23 49  1  0  0  0  0
M  CHG  1  20   1
M  END
> <s_m_source_file>
AV-unprocessed.smi

> <i_m_source_file_index>
2336

> <i_lp_mmshare_version>
43012

> <i_f3d_flags>
0

> <s_epik_input>
W0NIMl0xW0NIMl1OKFtDSDNdKVtDSDJdW0NIMl1OMVtDQEhdKFtDSF0oW0NIM10pW0NIM10pW0NIMl1bTkhdQyg9TylbTkhdYzJbY0hdW2NIXW5bY0hdYzJG

> <s_epik_cmdline>
J2VwaWtfcHl0aG9uJywgJy1waCcsICc3LjAnLCAnLXRuJywgJzgnLCAnLW1hJywgJzIwMCcsICctbWV0YWxfYmluZGluZycsICctaW1hZScsICc8aW5maWxlLm1hZT4nLCAnLW9tYWUnLCAnPG91dGZpbGUubWFlPic=

> <r_epik_Ionization_Penalty>
0.0313013

> <r_epik_Ionization_Penalty_Charging>
0.0272987

> <r_epik_Ionization_Penalty_Neutral>
0.00400259

> <r_epik_State_Penalty>
0.0776825

> <r_epik_Charging_Adjusted_Penalty>
0.104981

> <i_epik_Tot_Q>
1

> <i_epik_Tot_abs_Q>
1

> <r_epik_Metal_State_Penalty>
0.0776139

> <b_epik_Metal_Only>
0

> <s_lp_Force_Field>
OPLS_2005

> <r_lp_Energy>
31.1795

> <b_lp_Chiralities_Consistent>
1

> <s_lp_Variant>
AV-unprocessed.smi:2336-2

> <Gold.Version>
5.8.1

> <Gold.Id.Protein>
6NUR|6NUR_protein|mol2

> <Gold.PLP.Fitness>
43.6553

> <Gold.PLP.PLP>
-27.4599

> <Gold.PLP.part.hbond>
-3.6956

> <Gold.PLP.part.metal>
0.0000

> <Gold.PLP.part.buried>
0.2719

> <Gold.PLP.part.nonpolar>
-24.9487

> <Gold.PLP.part.repulsive>
0.4736

> <Gold.PLP.ligand.clash>
0.0000

> <Gold.PLP.ligand.torsion>
0.8287

> <Gold.PLP.Chemscore.Hbond>
3.8983

> <Gold.PLP.Chemscore.CHOScore>
1.9323

> <Gold.PLP.Chemscore.Metal>
0.0000

> <Gold.Chemscore.Hbonds>
donor molecule, donor type, donor heavy atom, donor atom, acceptor molecule, acceptor atom, score
      L1  H     6    34       P1  7948  1.00
      L1  H     9    35       P1  7948  0.55
      L1  H    20    50       P1  8028  2.00
      P1  H 10785 10796       L1    13  0.27
      L1  C    12    37       P1 10186  0.68
      L1  C    12    37       P1 10952  0.48
      L1  C    14    38       P1 10747  0.78

> <Gold.PLP.Chemscore.Internal.Correction>
0.3611

> <Gold.Rescore>
     Score         DG    S(hbond)    S(metal)    S(lipo)     H(rot)  DE(clash)    DE(int)     intcor
     17.09     -18.97       2.80        0.00      72.04       1.67       0.87       1.01       ----

> <Gold.Chemscore.Fitness>
17.0901

> <Gold.Chemscore.DG>
-18.9704

> <Gold.Chemscore.ZeroCoef>
-5.4800

> <Gold.Chemscore.Hbond>
2.7984

> <Gold.Chemscore.Metal>
0.0000

> <Gold.Chemscore.Lipo>
72.0424

> <Gold.Chemscore.Internal_Hbond>
0.0000

> <Gold.Chemscore.DEClash>
0.8699

> <Gold.Chemscore.DEInternal>
1.0104

> <Gold.Chemscore.Rot>
1.6739

> <Gold.Chemscore.Internal.Correction>
   9.000000E+99

> <Gold.Chemscore.Hbonds>
donor molecule, donor type, donor heavy atom, donor atom, acceptor molecule, acceptor atom, score
      L1  H     6    34       P1  7948  1.00
      L1  H     9    35       P1  7948  0.50
      L1  H    20    50       P1  8028  0.35
      P1  H 10785 10796       L1    13  0.10

> <Gold.Chemscore.Hbond.Weighted>
-9.3465

> <Gold.Chemscore.Metal.Weighted>
-0.0000

> <Gold.Chemscore.Lipo.Weighted>
-8.4290

> <Gold.Chemscore.Internal_Hbond.Weighted>
0.0000

> <Gold.Chemscore.DEClash.Weighted>
0.8699

> <Gold.Chemscore.DEInternal.Weighted>
1.0104

> <Gold.Chemscore.Rot.Weighted>
4.2851

> <Gold.Chemscore.Internal.Correction.Weighted>
   9.000000E+99

> <Gold.Protein.RotatedTorsions>
[ 6907 6896 6895 6894 ] final   84.09 input  -60.11 | X-H torsion
[ 7974 7965 7964 7962 ] final    2.38 input  175.53 | X-H torsion
[ 8008 7997 7996 7995 ] final   27.42 input   59.86 | X-H torsion
[ 10167 10162 10161 10158 ] final  -92.40 input  -65.29 | X-H torsion
[ 10718 10713 10712 10709 ] final   59.23 input   66.30 | X-H torsion
[ 10763 10752 10751 10750 ] final   50.88 input  -60.55 | X-H torsion
[ 11005 11000 10999 10996 ] final   27.89 input  -57.11 | X-H torsion

> <Gold.Protein.ActiveResidues>
 VAL166  LYS551  ARG553  GLY616  TRP617  ASP618  TYR619  PRO620  LYS621  CYS622 
 ASP623  PHE694  ASN695  SER759  ASP760  ASP761  ALA762  ILE779  LEU786  VAL792 
 PHE793  MET794  SER795  GLU796  ALA797  LYS798  CYS799  TRP800  GLU811  SER814 

> <Gold.Protein.RotatedAtoms>
  152.5344  134.2795  159.9001 H   0  0  0  0  0  0  0  0  0  0  0  0  # atno 6907 bound_to 6896
  151.2749  133.4231  159.2631 H   0  0  0  0  0  0  0  0  0  0  0  0  # atno 6908 bound_to 6896
  151.0335  134.9571  159.8180 H   0  0  0  0  0  0  0  0  0  0  0  0  # atno 6909 bound_to 6896
  146.2443  140.0845  142.8355 H   0  0  0  0  0  0  0  0  0  0  0  0  # atno 7974 bound_to 7965
  155.0427  140.3171  155.4719 H   0  0  0  0  0  0  0  0  0  0  0  0  # atno 8008 bound_to 7997
  156.2851  140.2160  156.5494 H   0  0  0  0  0  0  0  0  0  0  0  0  # atno 8009 bound_to 7997
  154.7277  140.0484  157.0685 H   0  0  0  0  0  0  0  0  0  0  0  0  # atno 8010 bound_to 7997
  140.3351  143.2973  151.9898 H   0  0  0  0  0  0  0  0  0  0  0  0  # atno 10167 bound_to 10162
  157.5659  130.8870  149.9186 H   0  0  0  0  0  0  0  0  0  0  0  0  # atno 10718 bound_to 10713
  152.9784  135.5864  154.4324 H   0  0  0  0  0  0  0  0  0  0  0  0  # atno 10763 bound_to 10752
  154.3935  135.2768  155.2142 H   0  0  0  0  0  0  0  0  0  0  0  0  # atno 10764 bound_to 10752
  154.4004  135.6105  153.5948 H   0  0  0  0  0  0  0  0  0  0  0  0  # atno 10765 bound_to 10752
  140.3215  134.2538  155.7716 H   0  0  0  0  0  0  0  0  0  0  0  0  # atno 11005 bound_to 11000
  145.0704  140.9151  143.4885 LP  0  0  0  0  0  0  0  0  0  0  0  0  # atno 17320 bound_to 7965
  145.0978  139.2844  143.5702 LP  0  0  0  0  0  0  0  0  0  0  0  0  # atno 17321 bound_to 7965
  139.4849  144.6203  151.7268 LP  0  0  0  0  0  0  0  0  0  0  0  0  # atno 17342 bound_to 10162
  140.5361  144.0654  150.6071 LP  0  0  0  0  0  0  0  0  0  0  0  0  # atno 17343 bound_to 10162
  156.0707  130.3685  150.0781 LP  0  0  0  0  0  0  0  0  0  0  0  0  # atno 17370 bound_to 10713
  156.8940  130.9598  151.3585 LP  0  0  0  0  0  0  0  0  0  0  0  0  # atno 17371 bound_to 10713
  141.2085  133.7775  157.0053 LP  0  0  0  0  0  0  0  0  0  0  0  0  # atno 17394 bound_to 11000
  140.0938  134.9576  157.1817 LP  0  0  0  0  0  0  0  0  0  0  0  0  # atno 17395 bound_to 11000

$$$$
