#       Name:                AV-unprocessed.smi:652
#       Creating user name   scv26
#       Creation time:       Fri Mar 27 00:13:09 2020


#       File generated by GOLD software.
#

@<TRIPOS>MOLECULE
AV-unprocessed.smi:652
    54    55     1
SMALL
NO_CHARGES


@<TRIPOS>ATOM
      1 ****         8.5471  -1.8830   5.3139 C.3            1 S1                 0.0000
      2 ****         7.0579  -1.7601   5.6635 C.3            1 S1                 0.0000
      3 ****         6.5371  -3.0215   6.3708 C.3            1 S1                 0.0000
      4 ****         6.2934  -1.5039   4.4459 N.am           1 S1                 0.0000
      5 ****         5.1027  -0.8866   4.3899 C.2            1 S1                 0.0000
      6 ****         4.5182  -0.4568   5.3847 O.2            1 S1                 0.0000
      7 ****         4.4850  -0.7369   2.9952 C.3            1 S1                 0.0000
      8 ****         2.9459  -0.6308   3.0246 C.3            1 S1                 0.0000
      9 ****         2.3650  -0.4158   1.6720 N.4            1 S1                 1.0000
     10 ****         1.0194   0.2088   1.6986 C.3            1 S1                 0.0000
     11 ****        -0.0628  -0.8171   2.0807 C.3            1 S1                 0.0000
     12 ****        -0.0330  -1.9033   1.1624 O.3            1 S1                 0.0000
     13 ****         1.2150  -2.5896   1.1650 C.3            1 S1                 0.0000
     14 ****         1.1108  -3.8058   0.2279 C.3            1 S1                 0.0000
     15 ****         0.8170  -3.4286  -1.1481 N.pl3          1 S1                 0.0000
     16 ****         0.5665  -4.4105  -2.1159 C.ar           1 S1                 0.0000
     17 ****         0.2759  -4.1327  -3.4719 C.ar           1 S1                 0.0000
     18 ****         0.0475  -5.2146  -4.3393 C.ar           1 S1                 0.0000
     19 ****         0.1228  -6.5105  -3.7986 C.ar           1 S1                 0.0000
     20 ****         0.4015  -6.7551  -2.4987 N.ar           1 S1                 0.0000
     21 ****         0.6153  -5.6992  -1.6942 N.pl3          1 S1                 1.0000
     22 ****         2.3592  -1.6152   0.7942 C.3            1 S1                 0.0000
     23 ****         9.1468  -2.0457   6.2099 H              1 S1                 0.0000
     24 ****         8.9153  -0.9760   4.8329 H              1 S1                 0.0000
     25 ****         8.7294  -2.7182   4.6363 H              1 S1                 0.0000
     26 ****         6.9449  -0.9102   6.3394 H              1 S1                 0.0000
     27 ****         7.1008  -3.2186   7.2832 H              1 S1                 0.0000
     28 ****         6.6243  -3.9001   5.7307 H              1 S1                 0.0000
     29 ****         5.4889  -2.9157   6.6518 H              1 S1                 0.0000
     30 ****         6.7040  -1.8222   3.5799 H              1 S1                 0.0000
     31 ****         4.9097   0.1541   2.5308 H              1 S1                 0.0000
     32 ****         4.7981  -1.5865   2.3884 H              1 S1                 0.0000
     33 ****         2.5080  -1.5090   3.4994 H              1 S1                 0.0000
     34 ****         2.6746   0.2203   3.6514 H              1 S1                 0.0000
     35 ****         1.0022   1.0621   2.3779 H              1 S1                 0.0000
     36 ****         0.8043   0.6065   0.7059 H              1 S1                 0.0000
     37 ****         0.0748  -1.1789   3.1008 H              1 S1                 0.0000
     38 ****        -1.0482  -0.3526   2.0411 H              1 S1                 0.0000
     39 ****         1.3868  -2.9788   2.1695 H              1 S1                 0.0000
     40 ****         2.0469  -4.3652   0.2514 H              1 S1                 0.0000
     41 ****         0.3283  -4.4747   0.5884 H              1 S1                 0.0000
     42 ****         0.5837  -2.4659  -1.3459 H              1 S1                 0.0000
     43 ****         0.2250  -3.1228  -3.8509 H              1 S1                 0.0000
     44 ****        -0.1786  -5.0579  -5.3838 H              1 S1                 0.0000
     45 ****        -0.0454  -7.3752  -4.4238 H              1 S1                 0.0000
     46 ****         2.2289  -1.2665  -0.2308 H              1 S1                 0.0000
     47 ****         3.3213  -2.1254   0.8174 H              1 S1                 0.0000
     48 ****         2.9719   0.2622   1.2330 H              1 S1                 0.0000
     49 ****         0.8275  -5.8774  -0.7122 H              1 S1                 0.0000
     50 ****         4.9299  -0.5604   6.2901 LP             1 S1                 0.0000
     51 ****         3.6318  -0.0043   5.2872 LP             1 S1                 0.0000
     52 ****        -0.2018  -1.5495   0.2424 LP             1 S1                 0.0000
     53 ****        -0.7547  -2.5504   1.4084 LP             1 S1                 0.0000
     54 ****         0.4472  -7.6901  -2.1471 LP             1 S1                 0.0000
@<TRIPOS>BOND
    1    1    2 1     
    2    1   23 1     
    3    1   24 1     
    4    1   25 1     
    5    2    3 1     
    6    2    4 1     
    7    2   26 1     
    8    3   27 1     
    9    3   28 1     
   10    3   29 1     
   11    4    5 am    
   12    4   30 1     
   13    5    6 2     
   14    5    7 1     
   15    7    8 1     
   16    7   31 1     
   17    7   32 1     
   18    8    9 1     
   19    8   33 1     
   20    8   34 1     
   21    9   22 1     
   22    9   10 1     
   23    9   48 1     
   24   10   11 1     
   25   10   35 1     
   26   10   36 1     
   27   11   12 1     
   28   11   37 1     
   29   11   38 1     
   30   12   13 1     
   31   13   14 1     
   32   13   22 1     
   33   13   39 1     
   34   14   15 1     
   35   14   40 1     
   36   14   41 1     
   37   15   16 1     
   38   15   42 1     
   39   16   21 ar    
   40   16   17 ar    
   41   17   18 ar    
   42   17   43 1     
   43   18   19 ar    
   44   18   44 1     
   45   19   20 ar    
   46   19   45 1     
   47   20   21 ar    
   48   21   49 1     
   49   22   46 1     
   50   22   47 1     
   51    6   50 1     
   52    6   51 1     
   53   12   52 1     
   54   12   53 1     
   55   20   54 1     
@<TRIPOS>SUBSTRUCTURE
      1 S1             1
@<TRIPOS>SET
LONE_PAIRS      STATIC     ATOMS    <user>   **** ""
5 50 51 52 53 54
DONOR_HYDROGENS      STATIC     ATOMS    <user>   **** ""
4 30 48 42 49
ATOM$BLUE        STATIC     ATOMS    COLORGROUP SYSTEM
5 50 51 52 53 54
ATOM$RED        STATIC     ATOMS    COLORGROUP SYSTEM
4 30 48 42 49
