AV-unprocessed.smi:2753|AV-procd|sdf|10610|dock10
  -GOLD-   2272015 63D 1   1.00000     0.00000
 Structure written by MMmdl.
 28 29  0  0  0  0  0  0  0  0  2 V2000
  148.5477  132.8747  155.8829 F   0  0  0  0  0  0  0  0  0  0  0  0
  149.0126  133.2824  154.7028 C   0  0  0  0  0  0  0  0  0  0  0  0
  149.9247  134.2274  154.9334 F   0  0  0  0  0  0  0  0  0  0  0  0
  149.6359  132.2509  154.1351 F   0  0  0  0  0  0  0  0  0  0  0  0
  147.8982  133.7824  153.8304 C   0  0  0  0  0  0  0  0  0  0  0  0
  146.9784  134.7703  154.1023 C   0  0  0  0  0  0  0  0  0  0  0  0
  146.1720  134.8461  152.9807 N   0  0  0  0  0  0  0  0  0  0  0  0
  146.6085  133.9391  152.0983 C   0  0  0  0  0  0  0  0  0  0  0  0
  145.9672  133.7441  150.7590 C   0  0  1  0  0  0  0  0  0  0  0  0
  145.9042  132.2570  150.3603 C   0  0  0  0  0  0  0  0  0  0  0  0
  145.2256  132.0935  148.9916 C   0  0  0  0  0  0  0  0  0  0  0  0
  143.8438  132.7682  148.9787 C   0  0  0  0  0  0  0  0  0  0  0  0
  143.9544  134.1931  149.3598 N   0  3  0  0  0  0  0  0  0  0  0  0
  144.5677  134.3898  150.6920 C   0  0  0  0  0  0  0  0  0  0  0  0
  147.6556  133.2587  152.5567 N   0  0  0  0  0  0  0  0  0  0  0  0
  145.3930  135.4763  152.8521 H   0  0  0  0  0  0  0  0  0  0  0  0
  146.8389  135.4006  154.9682 H   0  0  0  0  0  0  0  0  0  0  0  0
  146.5965  134.2513  150.0252 H   0  0  0  0  0  0  0  0  0  0  0  0
  146.9073  131.8299  150.3317 H   0  0  0  0  0  0  0  0  0  0  0  0
  145.3468  131.6934  151.1101 H   0  0  0  0  0  0  0  0  0  0  0  0
  145.8555  132.5313  148.2160 H   0  0  0  0  0  0  0  0  0  0  0  0
  145.1264  131.0351  148.7484 H   0  0  0  0  0  0  0  0  0  0  0  0
  143.3975  132.6986  147.9865 H   0  0  0  0  0  0  0  0  0  0  0  0
  143.1669  132.2627  149.6690 H   0  0  0  0  0  0  0  0  0  0  0  0
  144.5219  134.6665  148.6715 H   0  0  0  0  0  0  0  0  0  0  0  0
  143.9104  133.9624  151.4506 H   0  0  0  0  0  0  0  0  0  0  0  0
  144.6331  135.4595  150.8937 H   0  0  0  0  0  0  0  0  0  0  0  0
  143.0321  134.6051  149.3600 H   0  0  0  0  0  0  0  0  0  0  0  0
  1  2  1  0  0  0  0
  2  3  1  0  0  0  0
  2  4  1  0  0  0  0
  2  5  1  0  0  0  0
  5 15  1  0  0  0  0
  5  6  2  0  0  0  0
  6  7  1  0  0  0  0
  6 17  1  0  0  0  0
  7 16  1  0  0  0  0
  7  8  1  0  0  0  0
  8  9  1  0  0  0  0
  8 15  2  0  0  0  0
  9 14  1  0  0  0  0
  9 10  1  0  0  0  0
  9 18  1  0  0  0  0
 10 11  1  0  0  0  0
 10 19  1  0  0  0  0
 10 20  1  0  0  0  0
 11 12  1  0  0  0  0
 11 21  1  0  0  0  0
 11 22  1  0  0  0  0
 12 13  1  0  0  0  0
 12 23  1  0  0  0  0
 12 24  1  0  0  0  0
 13 14  1  0  0  0  0
 13 25  1  0  0  0  0
 13 28  1  0  0  0  0
 14 26  1  0  0  0  0
 14 27  1  0  0  0  0
M  CHG  1  13   1
M  END
> <s_m_source_file>
AV-unprocessed.smi

> <i_m_source_file_index>
2753

> <i_lp_mmshare_version>
43012

> <i_f3d_flags>
0

> <s_epik_input>
RkMoRikoRiljMVtjSF1bbkhdYyhuMSlbQ0BASF0yW0NIMl1bQ0gyXVtDSDJdW05IXVtDSDJdMg==

> <s_epik_cmdline>
J2VwaWtfcHl0aG9uJywgJy1waCcsICc3LjAnLCAnLXRuJywgJzgnLCAnLW1hJywgJzIwMCcsICctbWV0YWxfYmluZGluZycsICctaW1hZScsICc8aW5maWxlLm1hZT4nLCAnLW9tYWUnLCAnPG91dGZpbGUubWFlPic=

> <r_lp_tautomer_probability>
0.5

> <r_epik_Ionization_Penalty>
0.00052307

> <r_epik_Ionization_Penalty_Charging>
0.000431517

> <r_epik_Ionization_Penalty_Neutral>
9.15529e-05

> <r_epik_State_Penalty>
0.103148

> <r_epik_Charging_Adjusted_Penalty>
0.103579

> <i_epik_Tot_Q>
1

> <i_epik_Tot_abs_Q>
1

> <r_epik_Metal_State_Penalty>
0.166025

> <b_epik_Metal_Only>
0

> <s_lp_Force_Field>
OPLS_2005

> <r_lp_Energy>
16.8068

> <b_lp_Chiralities_Consistent>
1

> <s_lp_Variant>
AV-unprocessed.smi:2753-2

> <Gold.Version>
5.8.1

> <Gold.Id.Protein>
6NUR|6NUR_protein|mol2

> <Gold.PLP.Fitness>
36.3071

> <Gold.PLP.PLP>
-28.3962

> <Gold.PLP.part.hbond>
-2.1658

> <Gold.PLP.part.metal>
0.0000

> <Gold.PLP.part.buried>
-3.0042

> <Gold.PLP.part.nonpolar>
-23.7250

> <Gold.PLP.part.repulsive>
0.2950

> <Gold.PLP.ligand.clash>
0.0000

> <Gold.PLP.ligand.torsion>
0.5581

> <Gold.PLP.Chemscore.Hbond>
3.0000

> <Gold.PLP.Chemscore.CHOScore>
0.0000

> <Gold.PLP.Chemscore.Metal>
0.0000

> <Gold.Chemscore.Hbonds>
donor molecule, donor type, donor heavy atom, donor atom, acceptor molecule, acceptor atom, score
      L1  H    13    25       P1  7921  1.00
      L1  H    13    28       P1 10186  2.00

> <Gold.PLP.Chemscore.Internal.Correction>
0.0273

> <Gold.Rescore>
     Score         DG    S(hbond)    S(metal)    S(lipo)     H(rot)  DE(clash)    DE(int)     intcor
     16.43     -16.78       1.94        0.00      63.11       1.00       0.00       0.35       ----

> <Gold.Chemscore.Fitness>
16.4283

> <Gold.Chemscore.DG>
-16.7800

> <Gold.Chemscore.ZeroCoef>
-5.4800

> <Gold.Chemscore.Hbond>
1.9389

> <Gold.Chemscore.Metal>
0.0000

> <Gold.Chemscore.Lipo>
63.1134

> <Gold.Chemscore.Internal_Hbond>
0.0000

> <Gold.Chemscore.DEClash>
0.0025

> <Gold.Chemscore.DEInternal>
0.3492

> <Gold.Chemscore.Rot>
1.0000

> <Gold.Chemscore.Internal.Correction>
   9.000000E+99

> <Gold.Chemscore.Hbonds>
donor molecule, donor type, donor heavy atom, donor atom, acceptor molecule, acceptor atom, score
      L1  H    13    25       P1  7921  0.96
      L1  H    13    28       P1 10186  0.87

> <Gold.Chemscore.Hbond.Weighted>
-6.4758

> <Gold.Chemscore.Metal.Weighted>
-0.0000

> <Gold.Chemscore.Lipo.Weighted>
-7.3843

> <Gold.Chemscore.Internal_Hbond.Weighted>
0.0000

> <Gold.Chemscore.DEClash.Weighted>
0.0025

> <Gold.Chemscore.DEInternal.Weighted>
0.3492

> <Gold.Chemscore.Rot.Weighted>
2.5600

> <Gold.Chemscore.Internal.Correction.Weighted>
   9.000000E+99

> <Gold.Protein.RotatedTorsions>
[ 6907 6896 6895 6894 ] final   85.48 input  -60.11 | X-H torsion
[ 7974 7965 7964 7962 ] final  -72.46 input  175.53 | X-H torsion
[ 8008 7997 7996 7995 ] final  133.42 input   59.86 | X-H torsion
[ 10167 10162 10161 10158 ] final -163.12 input  -65.29 | X-H torsion
[ 10718 10713 10712 10709 ] final  -10.30 input   66.30 | X-H torsion
[ 10763 10752 10751 10750 ] final -131.42 input  -60.55 | X-H torsion
[ 11005 11000 10999 10996 ] final  -75.35 input  -57.11 | X-H torsion

> <Gold.Protein.ActiveResidues>
 VAL166  LYS551  ARG553  GLY616  TRP617  ASP618  TYR619  PRO620  LYS621  CYS622 
 ASP623  PHE694  ASN695  SER759  ASP760  ASP761  ALA762  ILE779  LEU786  VAL792 
 PHE793  MET794  SER795  GLU796  ALA797  LYS798  CYS799  TRP800  GLU811  SER814 

> <Gold.Protein.RotatedAtoms>
  152.5375  134.2579  159.8923 H   0  0  0  0  0  0  0  0  0  0  0  0  # atno 6907 bound_to 6896
  151.2540  133.4329  159.2620 H   0  0  0  0  0  0  0  0  0  0  0  0  # atno 6908 bound_to 6896
  151.0513  134.9689  159.8269 H   0  0  0  0  0  0  0  0  0  0  0  0  # atno 6909 bound_to 6896
  145.6648  140.9240  143.0914 H   0  0  0  0  0  0  0  0  0  0  0  0  # atno 7974 bound_to 7965
  156.2992  140.2522  156.3250 H   0  0  0  0  0  0  0  0  0  0  0  0  # atno 8008 bound_to 7997
  154.9199  140.0401  157.2011 H   0  0  0  0  0  0  0  0  0  0  0  0  # atno 8009 bound_to 7997
  154.8321  140.2877  155.5719 H   0  0  0  0  0  0  0  0  0  0  0  0  # atno 8010 bound_to 7997
  139.6343  144.0379  152.2042 H   0  0  0  0  0  0  0  0  0  0  0  0  # atno 10167 bound_to 10162
  156.6754  130.5021  149.5987 H   0  0  0  0  0  0  0  0  0  0  0  0  # atno 10718 bound_to 10713
  154.8751  135.3830  154.4244 H   0  0  0  0  0  0  0  0  0  0  0  0  # atno 10763 bound_to 10752
  153.4944  135.7030  153.5871 H   0  0  0  0  0  0  0  0  0  0  0  0  # atno 10764 bound_to 10752
  153.4231  135.3897  155.2090 H   0  0  0  0  0  0  0  0  0  0  0  0  # atno 10765 bound_to 10752
  141.1644  133.6943  156.7503 H   0  0  0  0  0  0  0  0  0  0  0  0  # atno 11005 bound_to 11000
  144.7076  139.8496  143.7425 LP  0  0  0  0  0  0  0  0  0  0  0  0  # atno 17320 bound_to 7965
  146.1095  139.4098  143.0297 LP  0  0  0  0  0  0  0  0  0  0  0  0  # atno 17321 bound_to 7965
  140.0052  144.6264  150.7695 LP  0  0  0  0  0  0  0  0  0  0  0  0  # atno 17342 bound_to 10162
  140.7457  143.2879  151.3412 LP  0  0  0  0  0  0  0  0  0  0  0  0  # atno 17343 bound_to 10162
  156.1907  130.6558  151.1058 LP  0  0  0  0  0  0  0  0  0  0  0  0  # atno 17370 bound_to 10713
  157.7062  131.0755  150.6657 LP  0  0  0  0  0  0  0  0  0  0  0  0  # atno 17371 bound_to 10713
  140.2609  134.8467  157.3757 LP  0  0  0  0  0  0  0  0  0  0  0  0  # atno 17394 bound_to 11000
  140.1612  134.4726  155.7893 LP  0  0  0  0  0  0  0  0  0  0  0  0  # atno 17395 bound_to 11000

$$$$
