AV-unprocessed.smi:1584|AV-procd|sdf|6368|dock4
  -GOLD-   22720 6593D 1   1.00000     0.00000
 Structure written by MMmdl.
 39 40  0  0  0  0  0  0  0  0  1 V2000
  150.5988  137.3165  156.8283 C   0  0  0  0  0  0  0  0  0  0  0  0
  151.6535  138.3790  156.4871 C   0  0  1  0  0  0  0  0  0  0  0  0
  151.5722  138.8101  155.0099 C   0  0  0  0  0  0  0  0  0  0  0  0
  150.3672  139.5687  154.7235 N   0  0  0  0  0  0  0  0  0  0  0  0
  149.2201  139.1469  154.0843 C   0  0  0  0  0  0  0  0  0  0  0  0
  148.3559  140.2038  154.0613 C   0  0  0  0  0  0  0  0  0  0  0  0
  149.0747  141.2419  154.7171 C   0  0  0  0  0  0  0  0  0  0  0  0
  150.2783  140.8589  155.1121 N   0  0  0  0  0  0  0  0  0  0  0  0
  151.4772  139.5424  157.3542 N   0  0  0  0  0  0  0  0  0  0  0  0
  152.4114  140.0666  158.1622 C   0  0  0  0  0  0  0  0  0  0  0  0
  153.5347  139.5824  158.3039 O   0  0  0  0  0  0  0  0  0  0  0  0
  152.0137  141.3391  158.9213 C   0  0  1  0  0  0  0  0  0  0  0  0
  153.1480  141.8067  159.8412 C   0  0  0  0  0  0  0  0  0  0  0  0
  152.7011  143.0383  160.6396 C   0  0  0  0  0  0  0  0  0  0  0  0
  152.0597  144.0736  159.8163 N   0  0  0  0  0  0  0  0  0  0  0  0
  151.9676  145.3927  160.4444 C   0  0  0  0  0  0  0  0  0  0  0  0
  151.5114  143.8556  158.5962 C   0  0  0  0  0  0  0  0  0  0  0  0
  150.9278  144.7388  157.9674 O   0  0  0  0  0  0  0  0  0  0  0  0
  151.6422  142.4701  157.9418 C   0  0  0  0  0  0  0  0  0  0  0  0
  150.7206  136.4301  156.2055 H   0  0  0  0  0  0  0  0  0  0  0  0
  149.5881  137.6958  156.6739 H   0  0  0  0  0  0  0  0  0  0  0  0
  150.6818  137.0004  157.8687 H   0  0  0  0  0  0  0  0  0  0  0  0
  152.6383  137.9379  156.6535 H   0  0  0  0  0  0  0  0  0  0  0  0
  152.4336  139.4264  154.7483 H   0  0  0  0  0  0  0  0  0  0  0  0
  151.6018  137.9397  154.3529 H   0  0  0  0  0  0  0  0  0  0  0  0
  149.1136  138.1400  153.7086 H   0  0  0  0  0  0  0  0  0  0  0  0
  147.3616  140.2311  153.6410 H   0  0  0  0  0  0  0  0  0  0  0  0
  148.7594  142.2550  154.9176 H   0  0  0  0  0  0  0  0  0  0  0  0
  150.5816  140.0063  157.3100 H   0  0  0  0  0  0  0  0  0  0  0  0
  151.1413  141.1154  159.5387 H   0  0  0  0  0  0  0  0  0  0  0  0
  153.4465  141.0115  160.5257 H   0  0  0  0  0  0  0  0  0  0  0  0
  154.0317  142.0588  159.2519 H   0  0  0  0  0  0  0  0  0  0  0  0
  151.9900  142.7343  161.4088 H   0  0  0  0  0  0  0  0  0  0  0  0
  153.5644  143.4551  161.1603 H   0  0  0  0  0  0  0  0  0  0  0  0
  150.9291  145.7229  160.5023 H   0  0  0  0  0  0  0  0  0  0  0  0
  152.5293  146.1295  159.8687 H   0  0  0  0  0  0  0  0  0  0  0  0
  152.3634  145.3940  161.4606 H   0  0  0  0  0  0  0  0  0  0  0  0
  152.3960  142.5587  157.1577 H   0  0  0  0  0  0  0  0  0  0  0  0
  150.7042  142.2287  157.4397 H   0  0  0  0  0  0  0  0  0  0  0  0
  1  2  1  0  0  0  0
  1 20  1  0  0  0  0
  1 21  1  0  0  0  0
  1 22  1  0  0  0  0
  2  3  1  0  0  0  0
  2  9  1  0  0  0  0
  2 23  1  0  0  0  0
  3  4  1  0  0  0  0
  3 24  1  0  0  0  0
  3 25  1  0  0  0  0
  4  8  1  0  0  0  0
  4  5  1  0  0  0  0
  5  6  2  0  0  0  0
  5 26  1  0  0  0  0
  6  7  1  0  0  0  0
  6 27  1  0  0  0  0
  7  8  2  0  0  0  0
  7 28  1  0  0  0  0
  9 10  1  0  0  0  0
  9 29  1  0  0  0  0
 10 11  2  0  0  0  0
 10 12  1  0  0  0  0
 12 19  1  0  0  0  0
 12 13  1  0  0  0  0
 12 30  1  0  0  0  0
 13 14  1  0  0  0  0
 13 31  1  0  0  0  0
 13 32  1  0  0  0  0
 14 15  1  0  0  0  0
 14 33  1  0  0  0  0
 14 34  1  0  0  0  0
 15 16  1  0  0  0  0
 15 17  1  0  0  0  0
 16 35  1  0  0  0  0
 16 36  1  0  0  0  0
 16 37  1  0  0  0  0
 17 18  2  0  0  0  0
 17 19  1  0  0  0  0
 19 38  1  0  0  0  0
 19 39  1  0  0  0  0
M  END
> <s_m_source_file>
AV-unprocessed.smi

> <i_m_source_file_index>
1584

> <i_lp_mmshare_version>
43012

> <i_f3d_flags>
0

> <s_epik_input>
bjFbY0hdW2NIXVtjSF1uMVtDSDJdW0NAQEhdKFtDSDNdKVtOSF1DKD1PKVtDQEBIXTJbQ0gyXVtDSDJdTihbQ0gzXSlDKD1PKVtDSDJdMg==

> <s_epik_cmdline>
J2VwaWtfcHl0aG9uJywgJy1waCcsICc3LjAnLCAnLXRuJywgJzgnLCAnLW1hJywgJzIwMCcsICctbWV0YWxfYmluZGluZycsICctaW1hZScsICc8aW5maWxlLm1hZT4nLCAnLW9tYWUnLCAnPG91dGZpbGUubWFlPic=

> <r_lp_tautomer_probability>
1

> <r_epik_Ionization_Penalty>
0.000299422

> <r_epik_Ionization_Penalty_Charging>
0

> <r_epik_Ionization_Penalty_Neutral>
0.000299422

> <r_epik_State_Penalty>
-0

> <r_epik_Charging_Adjusted_Penalty>
0

> <i_epik_Tot_Q>
0

> <i_epik_Tot_abs_Q>
0

> <r_epik_Metal_State_Penalty>
-0

> <b_epik_Metal_Only>
0

> <s_lp_Force_Field>
OPLS_2005

> <r_lp_Energy>
13.2703

> <b_lp_Chiralities_Consistent>
1

> <s_lp_Variant>
AV-unprocessed.smi:1584-4

> <Gold.Version>
5.8.1

> <Gold.Id.Protein>
6NUR|6NUR_protein|mol2

> <Gold.PLP.Fitness>
47.6378

> <Gold.PLP.PLP>
-40.0539

> <Gold.PLP.part.hbond>
-2.0000

> <Gold.PLP.part.metal>
0.0000

> <Gold.PLP.part.buried>
-2.5942

> <Gold.PLP.part.nonpolar>
-35.7665

> <Gold.PLP.part.repulsive>
0.6599

> <Gold.PLP.ligand.clash>
0.0000

> <Gold.PLP.ligand.torsion>
0.2775

> <Gold.PLP.Chemscore.Hbond>
1.0000

> <Gold.PLP.Chemscore.CHOScore>
1.7050

> <Gold.PLP.Chemscore.Metal>
0.0000

> <Gold.Chemscore.Hbonds>
donor molecule, donor type, donor heavy atom, donor atom, acceptor molecule, acceptor atom, score
      P1  H  7997  8009       L1    11  1.00
      L1  C     5    26       P1  7948  0.73
      L1  C     7    28       P1  8028  0.92

> <Gold.PLP.Chemscore.Internal.Correction>
0.0240

> <Gold.Rescore>
     Score         DG    S(hbond)    S(metal)    S(lipo)     H(rot)  DE(clash)    DE(int)     intcor
     14.16     -14.64       0.98        0.00      86.83       1.67       0.28       0.21       ----

> <Gold.Chemscore.Fitness>
14.1590

> <Gold.Chemscore.DG>
-14.6411

> <Gold.Chemscore.ZeroCoef>
-5.4800

> <Gold.Chemscore.Hbond>
0.9839

> <Gold.Chemscore.Metal>
0.0000

> <Gold.Chemscore.Lipo>
86.8277

> <Gold.Chemscore.Internal_Hbond>
0.0000

> <Gold.Chemscore.DEClash>
0.2764

> <Gold.Chemscore.DEInternal>
0.2057

> <Gold.Chemscore.Rot>
1.6734

> <Gold.Chemscore.Internal.Correction>
   9.000000E+99

> <Gold.Chemscore.Hbonds>
donor molecule, donor type, donor heavy atom, donor atom, acceptor molecule, acceptor atom, score
      P1  H  7997  8009       L1    11  0.69

> <Gold.Chemscore.Hbond.Weighted>
-3.2863

> <Gold.Chemscore.Metal.Weighted>
-0.0000

> <Gold.Chemscore.Lipo.Weighted>
-10.1588

> <Gold.Chemscore.Internal_Hbond.Weighted>
0.0000

> <Gold.Chemscore.DEClash.Weighted>
0.2764

> <Gold.Chemscore.DEInternal.Weighted>
0.2057

> <Gold.Chemscore.Rot.Weighted>
4.2840

> <Gold.Chemscore.Internal.Correction.Weighted>
   9.000000E+99

> <Gold.Protein.RotatedTorsions>
[ 6907 6896 6895 6894 ] final   24.80 input  -60.11 | X-H torsion
[ 7974 7965 7964 7962 ] final   88.75 input  175.53 | X-H torsion
[ 8008 7997 7996 7995 ] final  160.98 input   59.86 | X-H torsion
[ 10167 10162 10161 10158 ] final -137.13 input  -65.29 | X-H torsion
[ 10718 10713 10712 10709 ] final  -29.36 input   66.30 | X-H torsion
[ 10763 10752 10751 10750 ] final  -72.28 input  -60.55 | X-H torsion
[ 11005 11000 10999 10996 ] final  123.20 input  -57.11 | X-H torsion

> <Gold.Protein.ActiveResidues>
 VAL166  LYS551  ARG553  GLY616  TRP617  ASP618  TYR619  PRO620  LYS621  CYS622 
 ASP623  PHE694  ASN695  SER759  ASP760  ASP761  ALA762  ILE779  LEU786  VAL792 
 PHE793  MET794  SER795  GLU796  ALA797  LYS798  CYS799  TRP800  GLU811  SER814 

> <Gold.Protein.RotatedAtoms>
  151.9630  135.0114  160.0548 H   0  0  0  0  0  0  0  0  0  0  0  0  # atno 6907 bound_to 6896
  152.1852  133.4730  159.4987 H   0  0  0  0  0  0  0  0  0  0  0  0  # atno 6908 bound_to 6896
  150.6924  134.1700  159.4251 H   0  0  0  0  0  0  0  0  0  0  0  0  # atno 6909 bound_to 6896
  145.5416  139.2289  143.2563 H   0  0  0  0  0  0  0  0  0  0  0  0  # atno 7974 bound_to 7965
  156.2135  140.1789  156.7642 H   0  0  0  0  0  0  0  0  0  0  0  0  # atno 8008 bound_to 7997
  154.5756  140.0675  156.9059 H   0  0  0  0  0  0  0  0  0  0  0  0  # atno 8009 bound_to 7997
  155.2593  140.3334  155.4277 H   0  0  0  0  0  0  0  0  0  0  0  0  # atno 8010 bound_to 7997
  139.8609  143.7079  152.2650 H   0  0  0  0  0  0  0  0  0  0  0  0  # atno 10167 bound_to 10162
  156.4134  130.4412  149.7235 H   0  0  0  0  0  0  0  0  0  0  0  0  # atno 10718 bound_to 10713
  154.4435  135.5935  153.6145 H   0  0  0  0  0  0  0  0  0  0  0  0  # atno 10763 bound_to 10752
  152.9807  135.6004  154.3693 H   0  0  0  0  0  0  0  0  0  0  0  0  # atno 10764 bound_to 10752
  154.3546  135.2841  155.2332 H   0  0  0  0  0  0  0  0  0  0  0  0  # atno 10765 bound_to 10752
  139.9302  134.9641  156.8224 H   0  0  0  0  0  0  0  0  0  0  0  0  # atno 11005 bound_to 11000
  146.1977  140.6236  142.9116 LP  0  0  0  0  0  0  0  0  0  0  0  0  # atno 17320 bound_to 7965
  144.7574  140.5341  143.6759 LP  0  0  0  0  0  0  0  0  0  0  0  0  # atno 17321 bound_to 7965
  139.7375  144.7568  151.0705 LP  0  0  0  0  0  0  0  0  0  0  0  0  # atno 17342 bound_to 10162
  140.7775  143.5013  150.9768 LP  0  0  0  0  0  0  0  0  0  0  0  0  # atno 17343 bound_to 10162
  156.4205  130.7766  151.2783 LP  0  0  0  0  0  0  0  0  0  0  0  0  # atno 17370 bound_to 10713
  157.7507  131.0184  150.3626 LP  0  0  0  0  0  0  0  0  0  0  0  0  # atno 17371 bound_to 10713
  140.6223  133.9982  155.7624 LP  0  0  0  0  0  0  0  0  0  0  0  0  # atno 17394 bound_to 11000
  141.0886  133.9952  157.3274 LP  0  0  0  0  0  0  0  0  0  0  0  0  # atno 17395 bound_to 11000

$$$$
