AV-unprocessed.smi:176|AV-procd|sdf|1433|dock10
  -GOLD-   2262019213D 1   1.00000     0.00000
 Structure written by MMmdl.
 57 61  0  0  0  0  0  0  0  0  1 V2000
  147.5501  134.4255  153.2707 O   0  0  0  0  0  0  0  0  0  0  0  0
  148.0237  133.1508  153.6535 C   0  0  0  0  0  0  0  0  0  0  0  0
  149.1387  133.2465  154.7097 C   0  0  0  0  0  0  0  0  0  0  0  0
  149.7519  131.8471  154.9309 C   0  0  0  0  0  0  0  0  0  0  0  0
  148.7974  130.9094  155.3844 O   0  0  0  0  0  0  0  0  0  0  0  0
  150.1854  134.3511  154.4386 C   0  0  0  0  0  0  0  0  0  0  0  0
  150.2055  134.6865  155.9317 C   0  0  0  0  0  0  0  0  0  0  0  0
  150.4492  136.0258  156.3802 N   0  0  0  0  0  0  0  0  0  0  0  0
  150.5057  136.4690  157.6829 C   0  0  0  0  0  0  0  0  0  0  0  0
  150.7851  137.7355  157.8278 N   0  0  0  0  0  0  0  0  0  0  0  0
  150.9642  138.1949  156.5282 C   0  0  0  0  0  0  0  0  0  0  0  0
  151.3019  139.4558  155.9606 C   0  0  0  0  0  0  0  0  0  0  0  0
  151.4990  140.5678  156.7131 N   0  0  0  0  0  0  0  0  0  0  0  0
  150.6817  141.7451  156.4146 C   0  0  0  0  0  0  0  0  0  0  0  0
  151.2597  143.0073  157.0833 C   0  0  0  0  0  0  0  0  0  0  0  0
  151.4838  142.8077  158.5974 C   0  0  2  0  0  0  0  0  0  0  0  0
  150.2089  142.6586  159.2013 O   0  0  0  0  0  0  0  0  0  0  0  0
  152.1645  144.0357  159.2424 C   0  0  0  0  0  0  0  0  0  0  0  0
  152.4905  143.8091  160.7314 C   0  0  0  0  0  0  0  0  0  0  0  0
  153.3195  142.5320  160.9434 C   0  0  0  0  0  0  0  0  0  0  0  0
  152.6367  141.3041  160.3182 C   0  0  0  0  0  0  0  0  0  0  0  0
  152.3440  141.5366  158.8233 C   0  0  1  0  0  0  0  0  0  0  0  0
  151.7234  140.3063  158.1346 C   0  0  0  0  0  0  0  0  0  0  0  0
  151.4262  139.5192  154.6075 N   0  0  0  0  0  0  0  0  0  0  0  0
  151.2248  138.4304  153.8594 C   0  0  0  0  0  0  0  0  0  0  0  0
  150.8961  137.1978  154.2507 N   0  0  0  0  0  0  0  0  0  0  0  0
  150.7749  137.1261  155.6072 C   0  0  0  0  0  0  0  0  0  0  0  0
  148.8080  134.0653  155.9791 C   0  0  0  0  0  0  0  0  0  0  0  0
  148.1362  134.7822  152.6210 H   0  0  0  0  0  0  0  0  0  0  0  0
  147.1849  132.5540  154.0130 H   0  0  0  0  0  0  0  0  0  0  0  0
  148.3860  132.6560  152.7520 H   0  0  0  0  0  0  0  0  0  0  0  0
  150.2048  131.4673  154.0147 H   0  0  0  0  0  0  0  0  0  0  0  0
  150.5527  131.8807  155.6697 H   0  0  0  0  0  0  0  0  0  0  0  0
  148.3547  130.5437  154.6340 H   0  0  0  0  0  0  0  0  0  0  0  0
  151.1383  133.9970  154.0435 H   0  0  0  0  0  0  0  0  0  0  0  0
  149.7986  135.1750  153.8358 H   0  0  0  0  0  0  0  0  0  0  0  0
  150.9238  134.0575  156.4604 H   0  0  0  0  0  0  0  0  0  0  0  0
  150.3281  135.8227  158.5302 H   0  0  0  0  0  0  0  0  0  0  0  0
  150.6321  141.9004  155.3360 H   0  0  0  0  0  0  0  0  0  0  0  0
  149.6614  141.5722  156.7601 H   0  0  0  0  0  0  0  0  0  0  0  0
  152.2098  143.2522  156.6059 H   0  0  0  0  0  0  0  0  0  0  0  0
  150.6008  143.8575  156.9025 H   0  0  0  0  0  0  0  0  0  0  0  0
  149.7024  143.4365  159.0247 H   0  0  0  0  0  0  0  0  0  0  0  0
  153.0912  144.2561  158.7107 H   0  0  0  0  0  0  0  0  0  0  0  0
  151.5354  144.9202  159.1319 H   0  0  0  0  0  0  0  0  0  0  0  0
  153.0318  144.6698  161.1250 H   0  0  0  0  0  0  0  0  0  0  0  0
  151.5660  143.7429  161.3059 H   0  0  0  0  0  0  0  0  0  0  0  0
  154.3071  142.6628  160.4994 H   0  0  0  0  0  0  0  0  0  0  0  0
  153.4805  142.3661  162.0090 H   0  0  0  0  0  0  0  0  0  0  0  0
  153.2782  140.4306  160.4395 H   0  0  0  0  0  0  0  0  0  0  0  0
  151.7127  141.0813  160.8532 H   0  0  0  0  0  0  0  0  0  0  0  0
  153.3084  141.7059  158.3404 H   0  0  0  0  0  0  0  0  0  0  0  0
  150.7709  140.0498  158.6004 H   0  0  0  0  0  0  0  0  0  0  0  0
  152.3777  139.4470  158.2768 H   0  0  0  0  0  0  0  0  0  0  0  0
  151.3438  138.5671  152.7948 H   0  0  0  0  0  0  0  0  0  0  0  0
  148.0158  134.7976  155.8112 H   0  0  0  0  0  0  0  0  0  0  0  0
  148.6080  133.4742  156.8732 H   0  0  0  0  0  0  0  0  0  0  0  0
  1  2  1  0  0  0  0
  1 29  1  0  0  0  0
  2  3  1  0  0  0  0
  2 30  1  0  0  0  0
  2 31  1  0  0  0  0
  3 28  1  0  0  0  0
  3  4  1  0  0  0  0
  3  6  1  0  0  0  0
  4  5  1  0  0  0  0
  4 32  1  0  0  0  0
  4 33  1  0  0  0  0
  5 34  1  0  0  0  0
  6  7  1  0  0  0  0
  6 35  1  0  0  0  0
  6 36  1  0  0  0  0
  7  8  1  0  0  0  0
  7 28  1  0  0  0  0
  7 37  1  0  0  0  0
  8 27  1  0  0  0  0
  8  9  1  0  0  0  0
  9 10  2  0  0  0  0
  9 38  1  0  0  0  0
 10 11  1  0  0  0  0
 11 27  2  0  0  0  0
 11 12  1  0  0  0  0
 12 13  1  0  0  0  0
 12 24  2  0  0  0  0
 13 23  1  0  0  0  0
 13 14  1  0  0  0  0
 14 15  1  0  0  0  0
 14 39  1  0  0  0  0
 14 40  1  0  0  0  0
 15 16  1  0  0  0  0
 15 41  1  0  0  0  0
 15 42  1  0  0  0  0
 16 22  1  0  0  0  0
 16 17  1  0  0  0  0
 16 18  1  0  0  0  0
 17 43  1  0  0  0  0
 18 19  1  0  0  0  0
 18 44  1  0  0  0  0
 18 45  1  0  0  0  0
 19 20  1  0  0  0  0
 19 46  1  0  0  0  0
 19 47  1  0  0  0  0
 20 21  1  0  0  0  0
 20 48  1  0  0  0  0
 20 49  1  0  0  0  0
 21 22  1  0  0  0  0
 21 50  1  0  0  0  0
 21 51  1  0  0  0  0
 22 23  1  0  0  0  0
 22 52  1  0  0  0  0
 23 53  1  0  0  0  0
 23 54  1  0  0  0  0
 24 25  1  0  0  0  0
 25 26  2  0  0  0  0
 25 55  1  0  0  0  0
 26 27  1  0  0  0  0
 28 56  1  0  0  0  0
 28 57  1  0  0  0  0
M  END
> <s_m_source_file>
AV-unprocessed.smi

> <i_m_source_file_index>
176

> <i_lp_mmshare_version>
43012

> <i_f3d_flags>
0

> <s_epik_input>
W09IXVtDSDJdQzEoW0NIMl1bT0hdKVtDSDJdW0NIXShbQ0gyXTEpbihbY0hdbjIpYyhjMjMpbltjSF1uYzNOKFtDSDJdW0NIMl00KVtDSDJdW0NAQEhdKFtDQF00NVtPSF0pW0NIMl1bQ0gyXVtDSDJdW0NIMl01

> <s_epik_cmdline>
J2VwaWtfcHl0aG9uJywgJy1waCcsICc3LjAnLCAnLXRuJywgJzgnLCAnLW1hJywgJzIwMCcsICctbWV0YWxfYmluZGluZycsICctaW1hZScsICc8aW5maWxlLm1hZT4nLCAnLW9tYWUnLCAnPG91dGZpbGUubWFlPic=

> <r_lp_tautomer_probability>
1

> <r_epik_Ionization_Penalty>
0.00642876

> <r_epik_Ionization_Penalty_Charging>
0

> <r_epik_Ionization_Penalty_Neutral>
0.00642876

> <r_epik_State_Penalty>
0.00467813

> <r_epik_Charging_Adjusted_Penalty>
0.00467813

> <i_epik_Tot_Q>
0

> <i_epik_Tot_abs_Q>
0

> <r_epik_Metal_State_Penalty>
-0

> <b_epik_Metal_Only>
0

> <s_lp_Force_Field>
OPLS_2005

> <r_lp_Energy>
51.6301

> <b_lp_Chiralities_Consistent>
1

> <s_lp_Variant>
AV-unprocessed.smi:176-1

> <Gold.Version>
5.8.1

> <Gold.Id.Protein>
6NUR|6NUR_protein|mol2

> <Gold.PLP.Fitness>
51.0413

> <Gold.PLP.PLP>
-44.5849

> <Gold.PLP.part.hbond>
-3.0000

> <Gold.PLP.part.metal>
0.0000

> <Gold.PLP.part.buried>
-7.9186

> <Gold.PLP.part.nonpolar>
-35.5187

> <Gold.PLP.part.repulsive>
0.9754

> <Gold.PLP.ligand.clash>
0.0000

> <Gold.PLP.ligand.torsion>
0.5537

> <Gold.PLP.Chemscore.Hbond>
2.0000

> <Gold.PLP.Chemscore.CHOScore>
0.2241

> <Gold.PLP.Chemscore.Metal>
0.0000

> <Gold.Chemscore.Hbonds>
donor molecule, donor type, donor heavy atom, donor atom, acceptor molecule, acceptor atom, score
      L1  H     1    29       P1  7948  1.00
      P1  H  7989  7998       L1    24  1.00
      L1  C    25    55       P1  7949  0.07
      L1  C    25    55       P1  7957  0.15

> <Gold.PLP.Chemscore.Internal.Correction>
0.8913

> <Gold.Rescore>
     Score         DG    S(hbond)    S(metal)    S(lipo)     H(rot)  DE(clash)    DE(int)     intcor
     11.46     -15.08       1.54        0.00     119.38       3.71       0.45       3.17       ----

> <Gold.Chemscore.Fitness>
11.4600

> <Gold.Chemscore.DG>
-15.0764

> <Gold.Chemscore.ZeroCoef>
-5.4800

> <Gold.Chemscore.Hbond>
1.5357

> <Gold.Chemscore.Metal>
0.0000

> <Gold.Chemscore.Lipo>
119.3761

> <Gold.Chemscore.Internal_Hbond>
0.0000

> <Gold.Chemscore.DEClash>
0.4457

> <Gold.Chemscore.DEInternal>
3.1707

> <Gold.Chemscore.Rot>
3.7109

> <Gold.Chemscore.Internal.Correction>
   9.000000E+99

> <Gold.Chemscore.Hbonds>
donor molecule, donor type, donor heavy atom, donor atom, acceptor molecule, acceptor atom, score
      L1  H     1    29       P1  7948  0.62
      P1  H  7989  7998       L1    24  0.55

> <Gold.Chemscore.Hbond.Weighted>
-5.1294

> <Gold.Chemscore.Metal.Weighted>
-0.0000

> <Gold.Chemscore.Lipo.Weighted>
-13.9670

> <Gold.Chemscore.Internal_Hbond.Weighted>
0.0000

> <Gold.Chemscore.DEClash.Weighted>
0.4457

> <Gold.Chemscore.DEInternal.Weighted>
3.1707

> <Gold.Chemscore.Rot.Weighted>
9.5000

> <Gold.Chemscore.Internal.Correction.Weighted>
   9.000000E+99

> <Gold.Protein.RotatedTorsions>
[ 6907 6896 6895 6894 ] final -132.29 input  -60.11 | X-H torsion
[ 7974 7965 7964 7962 ] final   18.41 input  175.53 | X-H torsion
[ 8008 7997 7996 7995 ] final  164.15 input   59.86 | X-H torsion
[ 10167 10162 10161 10158 ] final -124.41 input  -65.29 | X-H torsion
[ 10718 10713 10712 10709 ] final  -80.08 input   66.30 | X-H torsion
[ 10763 10752 10751 10750 ] final  -83.03 input  -60.55 | X-H torsion
[ 11005 11000 10999 10996 ] final  -92.47 input  -57.11 | X-H torsion

> <Gold.Protein.ActiveResidues>
 VAL166  LYS551  ARG553  GLY616  TRP617  ASP618  TYR619  PRO620  LYS621  CYS622 
 ASP623  PHE694  ASN695  SER759  ASP760  ASP761  ALA762  ILE779  LEU786  VAL792 
 PHE793  MET794  SER795  GLU796  ALA797  LYS798  CYS799  TRP800  GLU811  SER814 

> <Gold.Protein.RotatedAtoms>
  150.9607  133.6448  159.2754 H   0  0  0  0  0  0  0  0  0  0  0  0  # atno 6907 bound_to 6896
  151.3771  135.0932  159.9494 H   0  0  0  0  0  0  0  0  0  0  0  0  # atno 6908 bound_to 6896
  152.5146  133.9149  159.7561 H   0  0  0  0  0  0  0  0  0  0  0  0  # atno 6909 bound_to 6896
  146.2186  139.8462  142.8631 H   0  0  0  0  0  0  0  0  0  0  0  0  # atno 7974 bound_to 7965
  156.1902  140.1704  156.8106 H   0  0  0  0  0  0  0  0  0  0  0  0  # atno 8008 bound_to 7997
  154.5462  140.0726  156.8625 H   0  0  0  0  0  0  0  0  0  0  0  0  # atno 8009 bound_to 7997
  155.3117  140.3368  155.4246 H   0  0  0  0  0  0  0  0  0  0  0  0  # atno 8010 bound_to 7997
  139.9930  143.5620  152.2334 H   0  0  0  0  0  0  0  0  0  0  0  0  # atno 10167 bound_to 10162
  156.0078  130.4564  150.3746 H   0  0  0  0  0  0  0  0  0  0  0  0  # atno 10718 bound_to 10713
  154.5828  135.5570  153.7202 H   0  0  0  0  0  0  0  0  0  0  0  0  # atno 10763 bound_to 10752
  153.0088  135.6324  154.1958 H   0  0  0  0  0  0  0  0  0  0  0  0  # atno 10764 bound_to 10752
  154.1899  135.2883  155.3005 H   0  0  0  0  0  0  0  0  0  0  0  0  # atno 10765 bound_to 10752
  141.1521  133.7823  157.0025 H   0  0  0  0  0  0  0  0  0  0  0  0  # atno 11005 bound_to 11000
  145.2848  141.0149  143.3696 LP  0  0  0  0  0  0  0  0  0  0  0  0  # atno 17320 bound_to 7965
  144.9122  139.4514  143.6581 LP  0  0  0  0  0  0  0  0  0  0  0  0  # atno 17321 bound_to 7965
  139.6326  144.7646  151.2505 LP  0  0  0  0  0  0  0  0  0  0  0  0  # atno 17342 bound_to 10162
  140.7447  143.6453  150.8297 LP  0  0  0  0  0  0  0  0  0  0  0  0  # atno 17343 bound_to 10162
  157.1829  131.0396  151.2739 LP  0  0  0  0  0  0  0  0  0  0  0  0  # atno 17370 bound_to 10713
  157.4129  130.7395  149.6853 LP  0  0  0  0  0  0  0  0  0  0  0  0  # atno 17371 bound_to 10713
  140.0931  134.9581  157.1807 LP  0  0  0  0  0  0  0  0  0  0  0  0  # atno 17394 bound_to 11000
  140.3419  134.2694  155.7211 LP  0  0  0  0  0  0  0  0  0  0  0  0  # atno 17395 bound_to 11000

$$$$
