AV-unprocessed.smi:2747|AV-procd|sdf|10578|dock8
  -GOLD-   2272015 33D 1   1.00000     0.00000
 Structure written by MMmdl.
 24 25  0  0  0  0  0  0  0  0  1 V2000
  149.8348  139.8383  154.0424 O   0  0  0  0  0  0  0  0  0  0  0  0
  149.2948  140.3926  155.2280 C   0  0  1  0  0  0  0  0  0  0  0  0
  150.2235  141.5089  155.7468 C   0  0  0  0  0  0  0  0  0  0  0  0
  151.1324  141.0399  156.7775 N   0  0  0  0  0  0  0  0  0  0  0  0
  151.7149  139.8146  156.6476 N   0  0  0  0  0  0  0  0  0  0  0  0
  152.4858  139.6095  157.6735 N   0  0  0  0  0  0  0  0  0  0  0  0
  152.4105  140.7215  158.4954 C   0  0  0  0  0  0  0  0  0  0  0  0
  153.0352  141.0289  159.7246 C   0  0  0  0  0  0  0  0  0  0  0  0
  152.7831  142.2618  160.3654 C   0  0  0  0  0  0  0  0  0  0  0  0
  153.5678  142.6018  161.8666 Cl  0  0  0  0  0  0  0  0  0  0  0  0
  151.9005  143.2028  159.7819 C   0  0  0  0  0  0  0  0  0  0  0  0
  151.5829  144.7171  160.5507 Cl  0  0  0  0  0  0  0  0  0  0  0  0
  151.2689  142.9088  158.5569 C   0  0  0  0  0  0  0  0  0  0  0  0
  151.5334  141.6761  157.9363 C   0  0  0  0  0  0  0  0  0  0  0  0
  147.8624  140.8869  154.9510 C   0  0  0  0  0  0  0  0  0  0  0  0
  147.8742  141.8192  153.9980 F   0  0  0  0  0  0  0  0  0  0  0  0
  147.1184  139.8682  154.5203 F   0  0  0  0  0  0  0  0  0  0  0  0
  147.3054  141.3841  156.0560 F   0  0  0  0  0  0  0  0  0  0  0  0
  149.2308  139.9980  153.3334 H   0  0  0  0  0  0  0  0  0  0  0  0
  149.2493  139.5945  155.9703 H   0  0  0  0  0  0  0  0  0  0  0  0
  150.8134  141.9247  154.9291 H   0  0  0  0  0  0  0  0  0  0  0  0
  149.6364  142.3329  156.1544 H   0  0  0  0  0  0  0  0  0  0  0  0
  153.7102  140.3157  160.1747 H   0  0  0  0  0  0  0  0  0  0  0  0
  150.5945  143.6184  158.1008 H   0  0  0  0  0  0  0  0  0  0  0  0
  1  2  1  0  0  0  0
  1 19  1  0  0  0  0
  2  3  1  0  0  0  0
  2 15  1  0  0  0  0
  2 20  1  0  0  0  0
  3  4  1  0  0  0  0
  3 21  1  0  0  0  0
  3 22  1  0  0  0  0
  4 14  1  0  0  0  0
  4  5  1  0  0  0  0
  5  6  2  0  0  0  0
  6  7  1  0  0  0  0
  7 14  2  0  0  0  0
  7  8  1  0  0  0  0
  8  9  2  0  0  0  0
  8 23  1  0  0  0  0
  9 10  1  0  0  0  0
  9 11  1  0  0  0  0
 11 12  1  0  0  0  0
 11 13  2  0  0  0  0
 13 14  1  0  0  0  0
 13 24  1  0  0  0  0
 15 16  1  0  0  0  0
 15 17  1  0  0  0  0
 15 18  1  0  0  0  0
M  END
> <s_m_source_file>
AV-unprocessed.smi

> <i_m_source_file_index>
2747

> <i_lp_mmshare_version>
43012

> <i_f3d_flags>
0

> <s_epik_input>
RkMoRikoRilbQ0BIXShbT0hdKVtDSDJdbihubjEpYyhjMTIpW2NIXWMoQ2wpYyhDbClbY0hdMg==

> <s_epik_cmdline>
J2VwaWtfcHl0aG9uJywgJy1waCcsICc3LjAnLCAnLXRuJywgJzgnLCAnLW1hJywgJzIwMCcsICctbWV0YWxfYmluZGluZycsICctaW1hZScsICc8aW5maWxlLm1hZT4nLCAnLW9tYWUnLCAnPG91dGZpbGUubWFlPic=

> <r_lp_tautomer_probability>
1

> <r_epik_Ionization_Penalty>
0.0735676

> <r_epik_Ionization_Penalty_Charging>
0

> <r_epik_Ionization_Penalty_Neutral>
0.0735676

> <r_epik_State_Penalty>
0.0647209

> <r_epik_Charging_Adjusted_Penalty>
0.0647209

> <i_epik_Tot_Q>
0

> <i_epik_Tot_abs_Q>
0

> <r_epik_Metal_State_Penalty>
0.0647209

> <b_epik_Metal_Only>
0

> <s_lp_Force_Field>
OPLS_2005

> <r_lp_Energy>
9.1287

> <b_lp_Chiralities_Consistent>
1

> <s_lp_Variant>
AV-unprocessed.smi:2747-2

> <Gold.Version>
5.8.1

> <Gold.Id.Protein>
6NUR|6NUR_protein|mol2

> <Gold.PLP.Fitness>
45.4446

> <Gold.PLP.PLP>
-38.6590

> <Gold.PLP.part.hbond>
-3.0000

> <Gold.PLP.part.metal>
0.0000

> <Gold.PLP.part.buried>
-4.1200

> <Gold.PLP.part.nonpolar>
-29.7507

> <Gold.PLP.part.repulsive>
0.0000

> <Gold.PLP.ligand.clash>
0.0000

> <Gold.PLP.ligand.torsion>
0.7988

> <Gold.PLP.Chemscore.Hbond>
2.7920

> <Gold.PLP.Chemscore.CHOScore>
0.0000

> <Gold.PLP.Chemscore.Metal>
0.0000

> <Gold.Chemscore.Hbonds>
donor molecule, donor type, donor heavy atom, donor atom, acceptor molecule, acceptor atom, score
      L1  H     1    19       P1  7957  0.32
      P1  H  7989  7998       L1     1  0.69
      P1  H  7997  8009       L1     6  0.35

> <Gold.PLP.Chemscore.Internal.Correction>
0.0072

> <Gold.Rescore>
     Score         DG    S(hbond)    S(metal)    S(lipo)     H(rot)  DE(clash)    DE(int)     intcor
     16.60     -17.46       1.81        0.00      92.85       1.92       0.01       0.85       ----

> <Gold.Chemscore.Fitness>
16.6048

> <Gold.Chemscore.DG>
-17.4608

> <Gold.Chemscore.ZeroCoef>
-5.4800

> <Gold.Chemscore.Hbond>
1.8089

> <Gold.Chemscore.Metal>
0.0000

> <Gold.Chemscore.Lipo>
92.8494

> <Gold.Chemscore.Internal_Hbond>
0.0000

> <Gold.Chemscore.DEClash>
0.0071

> <Gold.Chemscore.DEInternal>
0.8489

> <Gold.Chemscore.Rot>
1.9235

> <Gold.Chemscore.Internal.Correction>
   9.000000E+99

> <Gold.Chemscore.Hbonds>
donor molecule, donor type, donor heavy atom, donor atom, acceptor molecule, acceptor atom, score
      L1  H     1    19       P1  7957  0.33
      P1  H  7989  7998       L1     1  0.24
      P1  H  7997  8009       L1     6  0.02

> <Gold.Chemscore.Hbond.Weighted>
-6.0416

> <Gold.Chemscore.Metal.Weighted>
-0.0000

> <Gold.Chemscore.Lipo.Weighted>
-10.8634

> <Gold.Chemscore.Internal_Hbond.Weighted>
0.0000

> <Gold.Chemscore.DEClash.Weighted>
0.0071

> <Gold.Chemscore.DEInternal.Weighted>
0.8489

> <Gold.Chemscore.Rot.Weighted>
4.9242

> <Gold.Chemscore.Internal.Correction.Weighted>
   9.000000E+99

> <Gold.Protein.RotatedTorsions>
[ 6907 6896 6895 6894 ] final -113.19 input  -60.11 | X-H torsion
[ 7974 7965 7964 7962 ] final  -27.03 input  175.53 | X-H torsion
[ 8008 7997 7996 7995 ] final  155.64 input   59.86 | X-H torsion
[ 10167 10162 10161 10158 ] final -107.97 input  -65.29 | X-H torsion
[ 10718 10713 10712 10709 ] final   41.77 input   66.30 | X-H torsion
[ 10763 10752 10751 10750 ] final  -98.38 input  -60.55 | X-H torsion
[ 11005 11000 10999 10996 ] final   24.36 input  -57.11 | X-H torsion

> <Gold.Protein.ActiveResidues>
 VAL166  LYS551  ARG553  GLY616  TRP617  ASP618  TYR619  PRO620  LYS621  CYS622 
 ASP623  PHE694  ASN695  SER759  ASP760  ASP761  ALA762  ILE779  LEU786  VAL792 
 PHE793  MET794  SER795  GLU796  ALA797  LYS798  CYS799  TRP800  GLU811  SER814 

> <Gold.Protein.RotatedAtoms>
  150.7811  133.8981  159.3332 H   0  0  0  0  0  0  0  0  0  0  0  0  # atno 6907 bound_to 6896
  151.6843  135.0955  160.0231 H   0  0  0  0  0  0  0  0  0  0  0  0  # atno 6908 bound_to 6896
  152.3863  133.6577  159.6236 H   0  0  0  0  0  0  0  0  0  0  0  0  # atno 6909 bound_to 6896
  146.1386  140.5098  142.8662 H   0  0  0  0  0  0  0  0  0  0  0  0  # atno 7974 bound_to 7965
  156.2467  140.1934  156.6832 H   0  0  0  0  0  0  0  0  0  0  0  0  # atno 8008 bound_to 7997
  154.6306  140.0596  156.9754 H   0  0  0  0  0  0  0  0  0  0  0  0  # atno 8009 bound_to 7997
  155.1716  140.3268  155.4394 H   0  0  0  0  0  0  0  0  0  0  0  0  # atno 8010 bound_to 7997
  140.1712  143.4041  152.1353 H   0  0  0  0  0  0  0  0  0  0  0  0  # atno 10167 bound_to 10162
  157.3973  130.7840  149.7319 H   0  0  0  0  0  0  0  0  0  0  0  0  # atno 10718 bound_to 10713
  154.7409  135.5011  153.9121 H   0  0  0  0  0  0  0  0  0  0  0  0  # atno 10763 bound_to 10752
  153.1042  135.6693  153.9624 H   0  0  0  0  0  0  0  0  0  0  0  0  # atno 10764 bound_to 10752
  153.9402  135.3068  155.3422 H   0  0  0  0  0  0  0  0  0  0  0  0  # atno 10765 bound_to 10752
  140.3596  134.2140  155.7673 H   0  0  0  0  0  0  0  0  0  0  0  0  # atno 11005 bound_to 11000
  144.7767  140.5754  143.6633 LP  0  0  0  0  0  0  0  0  0  0  0  0  # atno 17320 bound_to 7965
  145.5100  139.1480  143.3610 LP  0  0  0  0  0  0  0  0  0  0  0  0  # atno 17321 bound_to 7965
  139.5337  144.7187  151.4967 LP  0  0  0  0  0  0  0  0  0  0  0  0  # atno 17342 bound_to 10162
  140.6580  143.8558  150.6857 LP  0  0  0  0  0  0  0  0  0  0  0  0  # atno 17343 bound_to 10162
  155.9814  130.4020  150.3476 LP  0  0  0  0  0  0  0  0  0  0  0  0  # atno 17370 bound_to 10713
  157.1599  131.0342  151.2846 LP  0  0  0  0  0  0  0  0  0  0  0  0  # atno 17371 bound_to 10713
  141.1988  133.8027  157.0566 LP  0  0  0  0  0  0  0  0  0  0  0  0  # atno 17394 bound_to 11000
  140.0637  134.9740  157.1349 LP  0  0  0  0  0  0  0  0  0  0  0  0  # atno 17395 bound_to 11000

$$$$
