AV-unprocessed.smi:2045|AV-procd|sdf|8309|dock1
  -GOLD-   2272010573D 1   1.00000     0.00000
 Structure written by MMmdl.
 38 39  0  0  0  0  0  0  0  0  3 V2000
  150.5869  140.9902  156.3041 C   0  0  0  0  0  0  0  0  0  0  0  0
  151.0898  139.6882  155.7822 C   0  0  0  0  0  0  0  0  0  0  0  0
  150.5290  138.4464  155.6809 C   0  0  0  0  0  0  0  0  0  0  0  0
  151.5612  137.6720  155.0845 C   0  0  0  0  0  0  0  0  0  0  0  0
  151.4949  136.3644  154.7894 N   0  5  0  0  0  0  0  0  0  0  0  0
  150.4964  135.6034  155.2915 C   0  0  0  0  0  0  0  0  0  0  0  0
  150.2886  135.3590  156.4825 O   0  0  0  0  0  0  0  0  0  0  0  0
  149.6883  135.0875  154.3541 N   0  0  0  0  0  0  0  0  0  0  0  0
  148.5380  134.2279  154.6056 C   0  0  0  0  0  0  0  0  0  0  0  0
  148.2414  133.3219  153.3960 C   0  0  0  0  0  0  0  0  0  0  0  0
  147.1871  133.8840  152.5160 N   0  3  0  0  0  0  0  0  0  0  0  0
  146.0800  134.5312  153.2708 C   0  0  0  0  0  0  0  0  0  0  0  0
  145.0805  135.2082  152.3179 C   0  0  0  0  0  0  0  0  0  0  0  0
  144.5275  134.2048  151.2977 C   0  0  0  0  0  0  0  0  0  0  0  0
  145.6836  133.5209  150.5566 C   0  0  0  0  0  0  0  0  0  0  0  0
  146.6723  132.8818  151.5466 C   0  0  0  0  0  0  0  0  0  0  0  0
  152.6566  138.3776  154.8581 N   0  0  0  0  0  0  0  0  0  0  0  0
  152.3601  139.6736  155.2969 O   0  0  0  0  0  0  0  0  0  0  0  0
  149.6120  140.8703  156.7766 H   0  0  0  0  0  0  0  0  0  0  0  0
  150.4849  141.7150  155.4964 H   0  0  0  0  0  0  0  0  0  0  0  0
  151.2732  141.4013  157.0446 H   0  0  0  0  0  0  0  0  0  0  0  0
  149.5386  138.1407  155.9828 H   0  0  0  0  0  0  0  0  0  0  0  0
  149.8904  135.3160  153.3915 H   0  0  0  0  0  0  0  0  0  0  0  0
  148.7177  133.6484  155.5113 H   0  0  0  0  0  0  0  0  0  0  0  0
  147.6781  134.8656  154.8114 H   0  0  0  0  0  0  0  0  0  0  0  0
  149.1660  133.2119  152.8274 H   0  0  0  0  0  0  0  0  0  0  0  0
  147.9554  132.3176  153.7120 H   0  0  0  0  0  0  0  0  0  0  0  0
  145.5688  133.7841  153.8802 H   0  0  0  0  0  0  0  0  0  0  0  0
  146.4724  135.2800  153.9578 H   0  0  0  0  0  0  0  0  0  0  0  0
  144.2621  135.6490  152.8881 H   0  0  0  0  0  0  0  0  0  0  0  0
  145.5716  136.0304  151.7957 H   0  0  0  0  0  0  0  0  0  0  0  0
  143.9221  133.4547  151.8084 H   0  0  0  0  0  0  0  0  0  0  0  0
  143.8698  134.7094  150.5890 H   0  0  0  0  0  0  0  0  0  0  0  0
  145.2935  132.7620  149.8777 H   0  0  0  0  0  0  0  0  0  0  0  0
  146.2058  134.2515  149.9375 H   0  0  0  0  0  0  0  0  0  0  0  0
  147.5024  132.4473  150.9883 H   0  0  0  0  0  0  0  0  0  0  0  0
  146.1909  132.0650  152.0870 H   0  0  0  0  0  0  0  0  0  0  0  0
  147.6320  134.6050  151.9662 H   0  0  0  0  0  0  0  0  0  0  0  0
  1  2  1  0  0  0  0
  1 19  1  0  0  0  0
  1 20  1  0  0  0  0
  1 21  1  0  0  0  0
  2 18  1  0  0  0  0
  2  3  2  0  0  0  0
  3  4  1  0  0  0  0
  3 22  1  0  0  0  0
  4  5  1  0  0  0  0
  4 17  2  0  0  0  0
  5  6  1  0  0  0  0
  6  7  2  0  0  0  0
  6  8  1  0  0  0  0
  8  9  1  0  0  0  0
  8 23  1  0  0  0  0
  9 10  1  0  0  0  0
  9 24  1  0  0  0  0
  9 25  1  0  0  0  0
 10 11  1  0  0  0  0
 10 26  1  0  0  0  0
 10 27  1  0  0  0  0
 11 16  1  0  0  0  0
 11 12  1  0  0  0  0
 11 38  1  0  0  0  0
 12 13  1  0  0  0  0
 12 28  1  0  0  0  0
 12 29  1  0  0  0  0
 13 14  1  0  0  0  0
 13 30  1  0  0  0  0
 13 31  1  0  0  0  0
 14 15  1  0  0  0  0
 14 32  1  0  0  0  0
 14 33  1  0  0  0  0
 15 16  1  0  0  0  0
 15 34  1  0  0  0  0
 15 35  1  0  0  0  0
 16 36  1  0  0  0  0
 16 37  1  0  0  0  0
 17 18  1  0  0  0  0
M  CHG  1   5  -1
M  CHG  1  11   1
M  END
> <s_m_source_file>
AV-unprocessed.smi

> <i_m_source_file_index>
2045

> <i_lp_mmshare_version>
43012

> <i_f3d_flags>
0

> <s_epik_input>
W0NIM11jMVtjSF1jKG5vMSlbTkhdQyg9TylbTkhdW0NIMl1bQ0gyXU4yW0NIMl1bQ0gyXVtDSDJdW0NIMl1bQ0gyXTI=

> <s_epik_cmdline>
J2VwaWtfcHl0aG9uJywgJy1waCcsICc3LjAnLCAnLXRuJywgJzgnLCAnLW1hJywgJzIwMCcsICctbWV0YWxfYmluZGluZycsICctaW1hZScsICc8aW5maWxlLm1hZT4nLCAnLW9tYWUnLCAnPG91dGZpbGUubWFlPic=

> <r_epik_Ionization_Penalty>
6.22371

> <r_epik_Ionization_Penalty_Charging>
6.22362

> <r_epik_Ionization_Penalty_Neutral>
9.36972e-05

> <r_epik_State_Penalty>
6.22363

> <r_epik_Charging_Adjusted_Penalty>
12.4472

> <i_epik_Tot_Q>
0

> <i_epik_Tot_abs_Q>
2

> <r_epik_Metal_State_Penalty>
2.16675

> <b_epik_Metal_Only>
1

> <s_lp_Force_Field>
OPLS_2005

> <r_lp_Energy>
2.90895

> <b_lp_Chiralities_Consistent>
1

> <s_lp_Variant>
AV-unprocessed.smi:2045-2

> <Gold.Version>
5.8.1

> <Gold.Id.Protein>
6NUR|6NUR_protein|mol2

> <Gold.PLP.Fitness>
43.6983

> <Gold.PLP.PLP>
-30.8963

> <Gold.PLP.part.hbond>
-5.4349

> <Gold.PLP.part.metal>
0.0000

> <Gold.PLP.part.buried>
-3.5751

> <Gold.PLP.part.nonpolar>
-22.5755

> <Gold.PLP.part.repulsive>
0.2380

> <Gold.PLP.ligand.clash>
0.0000

> <Gold.PLP.ligand.torsion>
1.2197

> <Gold.PLP.Chemscore.Hbond>
5.0387

> <Gold.PLP.Chemscore.CHOScore>
0.0000

> <Gold.PLP.Chemscore.Metal>
0.0000

> <Gold.Chemscore.Hbonds>
donor molecule, donor type, donor heavy atom, donor atom, acceptor molecule, acceptor atom, score
      L1  H     8    23       P1  7948  0.16
      L1  H    11    38       P1  7948  1.92
      P1  H  7989  7998       L1    18  0.16
      P1  H  7997  8009       L1    18  0.30
      P1  H 10752 10765       L1     5  2.00

> <Gold.PLP.Chemscore.Internal.Correction>
0.1254

> <Gold.Rescore>
     Score         DG    S(hbond)    S(metal)    S(lipo)     H(rot)  DE(clash)    DE(int)     intcor
     14.54     -15.82       2.56        0.00      49.20       1.55       0.01       1.26       ----

> <Gold.Chemscore.Fitness>
14.5415

> <Gold.Chemscore.DG>
-15.8164

> <Gold.Chemscore.ZeroCoef>
-5.4800

> <Gold.Chemscore.Hbond>
2.5625

> <Gold.Chemscore.Metal>
0.0000

> <Gold.Chemscore.Lipo>
49.2050

> <Gold.Chemscore.Internal_Hbond>
0.0000

> <Gold.Chemscore.DEClash>
0.0149

> <Gold.Chemscore.DEInternal>
1.2601

> <Gold.Chemscore.Rot>
1.5544

> <Gold.Chemscore.Internal.Correction>
   9.000000E+99

> <Gold.Chemscore.Hbonds>
donor molecule, donor type, donor heavy atom, donor atom, acceptor molecule, acceptor atom, score
      L1  H    11    38       P1  7948  0.43
      P1  H  7997  8009       L1    18  0.04
      P1  H 10752 10765       L1     5  0.87

> <Gold.Chemscore.Hbond.Weighted>
-8.5588

> <Gold.Chemscore.Metal.Weighted>
-0.0000

> <Gold.Chemscore.Lipo.Weighted>
-5.7570

> <Gold.Chemscore.Internal_Hbond.Weighted>
0.0000

> <Gold.Chemscore.DEClash.Weighted>
0.0149

> <Gold.Chemscore.DEInternal.Weighted>
1.2601

> <Gold.Chemscore.Rot.Weighted>
3.9794

> <Gold.Chemscore.Internal.Correction.Weighted>
   9.000000E+99

> <Gold.Protein.RotatedTorsions>
[ 6907 6896 6895 6894 ] final -149.34 input  -60.11 | X-H torsion
[ 7974 7965 7964 7962 ] final  -37.82 input  175.53 | X-H torsion
[ 8008 7997 7996 7995 ] final -128.89 input   59.86 | X-H torsion
[ 10167 10162 10161 10158 ] final  -78.32 input  -65.29 | X-H torsion
[ 10718 10713 10712 10709 ] final  144.80 input   66.30 | X-H torsion
[ 10763 10752 10751 10750 ] final  171.98 input  -60.55 | X-H torsion
[ 11005 11000 10999 10996 ] final  106.98 input  -57.11 | X-H torsion

> <Gold.Protein.ActiveResidues>
 VAL166  LYS551  ARG553  GLY616  TRP617  ASP618  TYR619  PRO620  LYS621  CYS622 
 ASP623  PHE694  ASN695  SER759  ASP760  ASP761  ALA762  ILE779  LEU786  VAL792 
 PHE793  MET794  SER795  GLU796  ALA797  LYS798  CYS799  TRP800  GLU811  SER814 

> <Gold.Protein.RotatedAtoms>
  151.1828  133.4714  159.2593 H   0  0  0  0  0  0  0  0  0  0  0  0  # atno 6907 bound_to 6896
  151.1242  135.0095  159.8562 H   0  0  0  0  0  0  0  0  0  0  0  0  # atno 6908 bound_to 6896
  152.5457  134.1736  159.8660 H   0  0  0  0  0  0  0  0  0  0  0  0  # atno 6909 bound_to 6896
  146.0541  140.6440  142.9028 H   0  0  0  0  0  0  0  0  0  0  0  0  # atno 7974 bound_to 7965
  155.2701  140.0439  157.3006 H   0  0  0  0  0  0  0  0  0  0  0  0  # atno 8008 bound_to 7997
  154.5658  140.2359  155.8234 H   0  0  0  0  0  0  0  0  0  0  0  0  # atno 8009 bound_to 7997
  156.2084  140.3006  155.9686 H   0  0  0  0  0  0  0  0  0  0  0  0  # atno 8010 bound_to 7997
  140.4693  143.2431  151.8230 H   0  0  0  0  0  0  0  0  0  0  0  0  # atno 10167 bound_to 10162
  157.3529  131.0953  151.0984 H   0  0  0  0  0  0  0  0  0  0  0  0  # atno 10718 bound_to 10713
  154.4196  135.2757  155.1984 H   0  0  0  0  0  0  0  0  0  0  0  0  # atno 10763 bound_to 10752
  154.3936  135.6060  153.5860 H   0  0  0  0  0  0  0  0  0  0  0  0  # atno 10764 bound_to 10752
  152.9832  135.5909  154.4490 H   0  0  0  0  0  0  0  0  0  0  0  0  # atno 10765 bound_to 10752
  139.8821  134.9386  156.5749 H   0  0  0  0  0  0  0  0  0  0  0  0  # atno 11005 bound_to 11000
  144.7138  140.4138  143.7060 LP  0  0  0  0  0  0  0  0  0  0  0  0  # atno 17320 bound_to 7965
  145.6673  139.1592  143.2774 LP  0  0  0  0  0  0  0  0  0  0  0  0  # atno 17321 bound_to 7965
  139.4816  144.4912  151.9183 LP  0  0  0  0  0  0  0  0  0  0  0  0  # atno 17342 bound_to 10162
  140.3997  144.2509  150.5894 LP  0  0  0  0  0  0  0  0  0  0  0  0  # atno 17343 bound_to 10162
  157.2153  130.6456  149.5790 LP  0  0  0  0  0  0  0  0  0  0  0  0  # atno 17370 bound_to 10713
  155.9724  130.4647  150.6226 LP  0  0  0  0  0  0  0  0  0  0  0  0  # atno 17371 bound_to 10713
  140.8070  133.8459  155.8777 LP  0  0  0  0  0  0  0  0  0  0  0  0  # atno 17394 bound_to 11000
  140.9541  134.1741  157.4705 LP  0  0  0  0  0  0  0  0  0  0  0  0  # atno 17395 bound_to 11000

$$$$
