AV-unprocessed.smi:799|AV-procd|sdf|3786|dock9
  -GOLD-   22720 1223D 1   1.00000     0.00000
 Structure written by MMmdl.
 47 48  0  0  0  0  0  0  0  0  1 V2000
  144.3450  143.7366  162.6567 C   0  0  0  0  0  0  0  0  0  0  0  0
  145.3405  143.8577  161.5410 C   0  0  0  0  0  0  0  0  0  0  0  0
  145.2938  143.2488  160.2535 C   0  0  0  0  0  0  0  0  0  0  0  0
  146.4414  143.7028  159.6631 C   0  0  0  0  0  0  0  0  0  0  0  0
  146.9228  143.4256  158.4224 N   0  0  0  0  0  0  0  0  0  0  0  0
  146.7605  142.3084  157.6927 C   0  0  0  0  0  0  0  0  0  0  0  0
  146.1090  141.3235  158.0403 O   0  0  0  0  0  0  0  0  0  0  0  0
  147.3981  142.4117  156.5136 N   0  0  0  0  0  0  0  0  0  0  0  0
  147.4313  141.4514  155.3967 C   0  0  2  0  0  0  0  0  0  0  0  0
  147.5020  142.2957  154.1027 C   0  0  0  0  0  0  0  0  0  0  0  0
  146.1111  140.6257  155.3852 C   0  0  0  0  0  0  0  0  0  0  0  0
  146.0046  139.7943  154.2444 O   0  0  0  0  0  0  0  0  0  0  0  0
  148.6801  140.5034  155.5202 C   0  0  0  0  0  0  0  0  0  0  0  0
  149.9699  141.2074  156.0216 C   0  0  0  0  0  0  0  0  0  0  0  0
  151.1185  140.2093  156.2396 C   0  0  0  0  0  0  0  0  0  0  0  0
  151.4181  139.4162  154.9606 C   0  0  0  0  0  0  0  0  0  0  0  0
  150.1567  138.7078  154.4495 C   0  0  0  0  0  0  0  0  0  0  0  0
  149.0061  139.7040  154.2316 C   0  0  0  0  0  0  0  0  0  0  0  0
  147.1119  144.5110  160.5565 N   0  0  0  0  0  0  0  0  0  0  0  0
  148.3663  145.2255  160.4160 C   0  0  0  0  0  0  0  0  0  0  0  0
  146.4231  144.6073  161.7140 N   0  0  0  0  0  0  0  0  0  0  0  0
  143.5450  143.0429  162.3971 H   0  0  0  0  0  0  0  0  0  0  0  0
  143.8882  144.7006  162.8814 H   0  0  0  0  0  0  0  0  0  0  0  0
  144.8184  143.3703  163.5678 H   0  0  0  0  0  0  0  0  0  0  0  0
  144.5394  142.5891  159.8519 H   0  0  0  0  0  0  0  0  0  0  0  0
  147.4391  144.1732  157.9830 H   0  0  0  0  0  0  0  0  0  0  0  0
  147.8976  143.2729  156.3485 H   0  0  0  0  0  0  0  0  0  0  0  0
  147.4471  141.6760  153.2081 H   0  0  0  0  0  0  0  0  0  0  0  0
  148.4183  142.8821  154.0439 H   0  0  0  0  0  0  0  0  0  0  0  0
  146.6743  143.0035  154.0435 H   0  0  0  0  0  0  0  0  0  0  0  0
  146.0485  139.9764  156.2576 H   0  0  0  0  0  0  0  0  0  0  0  0
  145.2363  141.2752  155.4217 H   0  0  0  0  0  0  0  0  0  0  0  0
  145.1833  139.9780  153.8150 H   0  0  0  0  0  0  0  0  0  0  0  0
  148.4322  139.7540  156.2723 H   0  0  0  0  0  0  0  0  0  0  0  0
  150.2916  141.9623  155.3045 H   0  0  0  0  0  0  0  0  0  0  0  0
  149.7929  141.7317  156.9602 H   0  0  0  0  0  0  0  0  0  0  0  0
  152.0143  140.7385  156.5653 H   0  0  0  0  0  0  0  0  0  0  0  0
  150.8571  139.5213  157.0447 H   0  0  0  0  0  0  0  0  0  0  0  0
  151.7975  140.0901  154.1915 H   0  0  0  0  0  0  0  0  0  0  0  0
  152.2050  138.6857  155.1502 H   0  0  0  0  0  0  0  0  0  0  0  0
  150.3774  138.1869  153.5175 H   0  0  0  0  0  0  0  0  0  0  0  0
  149.8501  137.9434  155.1647 H   0  0  0  0  0  0  0  0  0  0  0  0
  148.1371  139.1457  153.8873 H   0  0  0  0  0  0  0  0  0  0  0  0
  149.2800  140.3821  153.4234 H   0  0  0  0  0  0  0  0  0  0  0  0
  148.8388  144.9926  159.4618 H   0  0  0  0  0  0  0  0  0  0  0  0
  149.0437  144.9421  161.2218 H   0  0  0  0  0  0  0  0  0  0  0  0
  148.1831  146.2994  160.4654 H   0  0  0  0  0  0  0  0  0  0  0  0
  1  2  1  0  0  0  0
  1 22  1  0  0  0  0
  1 23  1  0  0  0  0
  1 24  1  0  0  0  0
  2 21  2  0  0  0  0
  2  3  1  0  0  0  0
  3  4  2  0  0  0  0
  3 25  1  0  0  0  0
  4  5  1  0  0  0  0
  4 19  1  0  0  0  0
  5  6  1  0  0  0  0
  5 26  1  0  0  0  0
  6  7  2  0  0  0  0
  6  8  1  0  0  0  0
  8  9  1  0  0  0  0
  8 27  1  0  0  0  0
  9 10  1  0  0  0  0
  9 11  1  0  0  0  0
  9 13  1  0  0  0  0
 10 28  1  0  0  0  0
 10 29  1  0  0  0  0
 10 30  1  0  0  0  0
 11 12  1  0  0  0  0
 11 31  1  0  0  0  0
 11 32  1  0  0  0  0
 12 33  1  0  0  0  0
 13 18  1  0  0  0  0
 13 14  1  0  0  0  0
 13 34  1  0  0  0  0
 14 15  1  0  0  0  0
 14 35  1  0  0  0  0
 14 36  1  0  0  0  0
 15 16  1  0  0  0  0
 15 37  1  0  0  0  0
 15 38  1  0  0  0  0
 16 17  1  0  0  0  0
 16 39  1  0  0  0  0
 16 40  1  0  0  0  0
 17 18  1  0  0  0  0
 17 41  1  0  0  0  0
 17 42  1  0  0  0  0
 18 43  1  0  0  0  0
 18 44  1  0  0  0  0
 19 20  1  0  0  0  0
 19 21  1  0  0  0  0
 20 45  1  0  0  0  0
 20 46  1  0  0  0  0
 20 47  1  0  0  0  0
M  END
> <s_m_source_file>
AV-unprocessed.smi

> <i_m_source_file_index>
799

> <i_lp_mmshare_version>
43012

> <i_f3d_flags>
0

> <s_epik_input>
W0NIM11jMVtjSF1jKG4objEpW0NIM10pW05IXUMoPU8pW05IXVtDQEBdKFtDSDNdKShbQ0gyXVtPSF0pW0NIXTJbQ0gyXVtDSDJdW0NIMl1bQ0gyXVtDSDJdMg==

> <s_epik_cmdline>
J2VwaWtfcHl0aG9uJywgJy1waCcsICc3LjAnLCAnLXRuJywgJzgnLCAnLW1hJywgJzIwMCcsICctbWV0YWxfYmluZGluZycsICctaW1hZScsICc8aW5maWxlLm1hZT4nLCAnLW9tYWUnLCAnPG91dGZpbGUubWFlPic=

> <r_lp_tautomer_probability>
1

> <r_epik_Ionization_Penalty>
9.86025e-05

> <r_epik_Ionization_Penalty_Charging>
0

> <r_epik_Ionization_Penalty_Neutral>
9.86025e-05

> <r_epik_State_Penalty>
-0

> <r_epik_Charging_Adjusted_Penalty>
0

> <i_epik_Tot_Q>
0

> <i_epik_Tot_abs_Q>
0

> <r_epik_Metal_State_Penalty>
-0

> <b_epik_Metal_Only>
0

> <s_lp_Force_Field>
OPLS_2005

> <r_lp_Energy>
22.5502

> <b_lp_Chiralities_Consistent>
1

> <s_lp_Variant>
AV-unprocessed.smi:799-2

> <Gold.Version>
5.8.1

> <Gold.Id.Protein>
6NUR|6NUR_protein|mol2

> <Gold.PLP.Fitness>
43.4433

> <Gold.PLP.PLP>
-37.3501

> <Gold.PLP.part.hbond>
-3.6298

> <Gold.PLP.part.metal>
0.0000

> <Gold.PLP.part.buried>
-4.1242

> <Gold.PLP.part.nonpolar>
-29.4321

> <Gold.PLP.part.repulsive>
0.1857

> <Gold.PLP.ligand.clash>
0.1714

> <Gold.PLP.ligand.torsion>
1.1769

> <Gold.PLP.Chemscore.Hbond>
2.8500

> <Gold.PLP.Chemscore.CHOScore>
0.0000

> <Gold.PLP.Chemscore.Metal>
0.0000

> <Gold.Chemscore.Hbonds>
donor molecule, donor type, donor heavy atom, donor atom, acceptor molecule, acceptor atom, score
      L1  H     5    26       P1  8029  0.95
      L1  H     8    27       P1  8028  0.85
      L1  H    12    33       P1 10175  0.89

> <Gold.PLP.Chemscore.Internal.Correction>
0.0686

> <Gold.Rescore>
     Score         DG    S(hbond)    S(metal)    S(lipo)     H(rot)  DE(clash)    DE(int)     intcor
     10.82     -14.09       1.51        0.00      74.64       2.01       0.32       2.95       ----

> <Gold.Chemscore.Fitness>
10.8178

> <Gold.Chemscore.DG>
-14.0938

> <Gold.Chemscore.ZeroCoef>
-5.4800

> <Gold.Chemscore.Hbond>
1.5083

> <Gold.Chemscore.Metal>
0.0000

> <Gold.Chemscore.Lipo>
74.6397

> <Gold.Chemscore.Internal_Hbond>
0.0000

> <Gold.Chemscore.DEClash>
0.3227

> <Gold.Chemscore.DEInternal>
2.9533

> <Gold.Chemscore.Rot>
2.0144

> <Gold.Chemscore.Internal.Correction>
   9.000000E+99

> <Gold.Chemscore.Hbonds>
donor molecule, donor type, donor heavy atom, donor atom, acceptor molecule, acceptor atom, score
      L1  H     5    26       P1  8029  0.21
      L1  H     8    27       P1  8028  0.15
      L1  H    12    33       P1 10175  0.87

> <Gold.Chemscore.Hbond.Weighted>
-5.0378

> <Gold.Chemscore.Metal.Weighted>
-0.0000

> <Gold.Chemscore.Lipo.Weighted>
-8.7328

> <Gold.Chemscore.Internal_Hbond.Weighted>
0.0000

> <Gold.Chemscore.DEClash.Weighted>
0.3227

> <Gold.Chemscore.DEInternal.Weighted>
2.9533

> <Gold.Chemscore.Rot.Weighted>
5.1568

> <Gold.Chemscore.Internal.Correction.Weighted>
   9.000000E+99

> <Gold.Protein.RotatedTorsions>
[ 6907 6896 6895 6894 ] final  -45.07 input  -60.11 | X-H torsion
[ 7974 7965 7964 7962 ] final   42.07 input  175.53 | X-H torsion
[ 8008 7997 7996 7995 ] final -123.19 input   59.86 | X-H torsion
[ 10167 10162 10161 10158 ] final  175.26 input  -65.29 | X-H torsion
[ 10718 10713 10712 10709 ] final  139.24 input   66.30 | X-H torsion
[ 10763 10752 10751 10750 ] final    6.48 input  -60.55 | X-H torsion
[ 11005 11000 10999 10996 ] final -119.52 input  -57.11 | X-H torsion

> <Gold.Protein.ActiveResidues>
 VAL166  LYS551  ARG553  GLY616  TRP617  ASP618  TYR619  PRO620  LYS621  CYS622 
 ASP623  PHE694  ASN695  SER759  ASP760  ASP761  ALA762  ILE779  LEU786  VAL792 
 PHE793  MET794  SER795  GLU796  ALA797  LYS798  CYS799  TRP800  GLU811  SER814 

> <Gold.Protein.RotatedAtoms>
  150.9259  134.8675  159.7519 H   0  0  0  0  0  0  0  0  0  0  0  0  # atno 6907 bound_to 6896
  152.5015  134.4150  159.9471 H   0  0  0  0  0  0  0  0  0  0  0  0  # atno 6908 bound_to 6896
  151.4181  133.3667  159.2787 H   0  0  0  0  0  0  0  0  0  0  0  0  # atno 6909 bound_to 6896
  146.0771  139.5343  142.9560 H   0  0  0  0  0  0  0  0  0  0  0  0  # atno 7974 bound_to 7965
  155.1764  140.0409  157.2873 H   0  0  0  0  0  0  0  0  0  0  0  0  # atno 8008 bound_to 7997
  154.6234  140.2506  155.7494 H   0  0  0  0  0  0  0  0  0  0  0  0  # atno 8009 bound_to 7997
  156.2446  140.2890  156.0552 H   0  0  0  0  0  0  0  0  0  0  0  0  # atno 8010 bound_to 7997
  139.5171  144.3052  152.0342 H   0  0  0  0  0  0  0  0  0  0  0  0  # atno 10167 bound_to 10162
  157.4166  131.1034  151.0398 H   0  0  0  0  0  0  0  0  0  0  0  0  # atno 10718 bound_to 10713
  153.2473  135.6910  153.7717 H   0  0  0  0  0  0  0  0  0  0  0  0  # atno 10763 bound_to 10752
  153.6825  135.3326  155.3182 H   0  0  0  0  0  0  0  0  0  0  0  0  # atno 10764 bound_to 10752
  154.8380  135.4526  154.1417 H   0  0  0  0  0  0  0  0  0  0  0  0  # atno 10765 bound_to 10752
  141.0210  134.0125  157.3283 H   0  0  0  0  0  0  0  0  0  0  0  0  # atno 11005 bound_to 11000
  145.6285  141.0309  143.1876 LP  0  0  0  0  0  0  0  0  0  0  0  0  # atno 17320 bound_to 7965
  144.7269  139.7848  143.7361 LP  0  0  0  0  0  0  0  0  0  0  0  0  # atno 17321 bound_to 7965
  140.2498  144.4181  150.6226 LP  0  0  0  0  0  0  0  0  0  0  0  0  # atno 17342 bound_to 10162
  140.6232  143.2178  151.6650 LP  0  0  0  0  0  0  0  0  0  0  0  0  # atno 17343 bound_to 10162
  157.1344  130.6116  149.5538 LP  0  0  0  0  0  0  0  0  0  0  0  0  # atno 17370 bound_to 10713
  155.9867  130.4903  150.7091 LP  0  0  0  0  0  0  0  0  0  0  0  0  # atno 17371 bound_to 10713
  139.9146  135.0195  156.7829 LP  0  0  0  0  0  0  0  0  0  0  0  0  # atno 17394 bound_to 11000
  140.6573  133.9677  155.7786 LP  0  0  0  0  0  0  0  0  0  0  0  0  # atno 17395 bound_to 11000

$$$$
