#       Name:                AV-unprocessed.smi:2197
#       Creating user name   scv26
#       Creation time:       Fri Mar 27 12:12:45 2020


#       File generated by GOLD software.
#

@<TRIPOS>MOLECULE
AV-unprocessed.smi:2197
    34    34     1
SMALL
NO_CHARGES


@<TRIPOS>ATOM
      1 ****        -4.3739   1.2280  -1.2266 C.3            1 S1                 0.0000
      2 ****        -2.8504   1.0697  -1.1834 C.3            1 S1                 0.0000
      3 ****        -2.3910  -0.3285  -1.6275 C.3            1 S1                 0.0000
      4 ****        -0.9376  -0.4443  -1.6051 N.am           1 S1                 0.0000
      5 ****        -0.2006  -0.6984  -0.5130 C.2            1 S1                 0.0000
      6 ****        -0.6904  -0.8910   0.6008 O.2            1 S1                 0.0000
      7 ****         1.3194  -0.7591  -0.7234 C.3            1 S1                 0.0000
      8 ****         2.0817  -0.4911   0.5050 N.am           1 S1                 0.0000
      9 ****         2.6137  -1.5390   1.2430 C.2            1 S1                 0.0000
     10 ****         3.3173  -1.3637   2.3866 C.2            1 S1                 0.0000
     11 ****         3.5541  -0.0227   2.9103 C.2            1 S1                 0.0000
     12 ****         4.1799   0.2384   3.9353 O.2            1 S1                 0.0000
     13 ****         3.0009   1.0046   2.1414 N.am           1 S1                 0.0000
     14 ****         2.2742   0.8310   0.9624 C.2            1 S1                 0.0000
     15 ****         1.8271   1.8077   0.3622 O.2            1 S1                 0.0000
     16 ****         3.1360   1.9509   2.4664 H              1 S1                 0.0000
     17 ****        -4.6691   2.2301  -0.9149 H              1 S1                 0.0000
     18 ****        -4.8621   0.5155  -0.5614 H              1 S1                 0.0000
     19 ****        -4.7581   1.0659  -2.2339 H              1 S1                 0.0000
     20 ****        -2.3927   1.8254  -1.8228 H              1 S1                 0.0000
     21 ****        -2.5006   1.2706  -0.1698 H              1 S1                 0.0000
     22 ****        -2.8405  -1.0985  -0.9978 H              1 S1                 0.0000
     23 ****        -2.7293  -0.5240  -2.6454 H              1 S1                 0.0000
     24 ****        -0.4553  -0.3061  -2.4814 H              1 S1                 0.0000
     25 ****         1.5669  -1.7461  -1.1168 H              1 S1                 0.0000
     26 ****         1.6140  -0.0550  -1.5047 H              1 S1                 0.0000
     27 ****         2.4597  -2.5508   0.8957 H              1 S1                 0.0000
     28 ****         3.7060  -2.2208   2.9175 H              1 S1                 0.0000
     29 ****        -1.6825  -0.8617   0.7226 LP             1 S1                 0.0000
     30 ****        -0.0958  -1.0766   1.3832 LP             1 S1                 0.0000
     31 ****         4.5741  -0.5001   4.4823 LP             1 S1                 0.0000
     32 ****         4.2949   1.1894   4.2224 LP             1 S1                 0.0000
     33 ****         1.3061   1.6805  -0.4817 LP             1 S1                 0.0000
     34 ****         1.9848   2.7287   0.7185 LP             1 S1                 0.0000
@<TRIPOS>BOND
    1    1    2 1     
    2    1   17 1     
    3    1   18 1     
    4    1   19 1     
    5    2    3 1     
    6    2   20 1     
    7    2   21 1     
    8    3    4 1     
    9    3   22 1     
   10    3   23 1     
   11    4    5 am    
   12    4   24 1     
   13    5    6 2     
   14    5    7 1     
   15    7    8 1     
   16    7   25 1     
   17    7   26 1     
   18    8   14 1     
   19    8    9 1     
   20    9   10 2     
   21    9   27 1     
   22   10   11 1     
   23   10   28 1     
   24   11   12 2     
   25   11   13 1     
   26   13   16 1     
   27   13   14 1     
   28   14   15 2     
   29    6   29 1     
   30    6   30 1     
   31   12   31 1     
   32   12   32 1     
   33   15   33 1     
   34   15   34 1     
@<TRIPOS>SUBSTRUCTURE
      1 S1             1
@<TRIPOS>SET
LONE_PAIRS      STATIC     ATOMS    <user>   **** ""
6 29 30 31 32 33 34
DONOR_HYDROGENS      STATIC     ATOMS    <user>   **** ""
2 24 16
ATOM$BLUE        STATIC     ATOMS    COLORGROUP SYSTEM
6 29 30 31 32 33 34
ATOM$RED        STATIC     ATOMS    COLORGROUP SYSTEM
2 24 16
