AV-unprocessed.smi:1703|AV-procd|sdf|6876|dock6
  -GOLD-   22720 8 73D 1   1.00000     0.00000
 Structure written by MMmdl.
 50 52  0  0  0  0  0  0  0  0  3 V2000
  148.6494  141.6252  154.4695 C   0  0  0  0  0  0  0  0  0  0  0  0
  149.1724  140.2460  154.8847 C   0  0  1  0  0  0  0  0  0  0  0  0
  148.6274  139.1255  153.9731 C   0  0  0  0  0  0  0  0  0  0  0  0
  149.2273  137.8063  154.3030 N   0  3  2  0  0  0  0  0  0  0  0  0
  148.6756  137.1546  155.5217 C   0  0  0  0  0  0  0  0  0  0  0  0
  147.5776  136.1130  155.2074 C   0  0  1  0  0  0  0  0  0  0  0  0
  147.3603  135.3074  156.3477 O   0  0  0  0  0  0  0  0  0  0  0  0
  146.2244  136.7419  154.8192 C   0  0  0  0  0  0  0  0  0  0  0  0
  145.2681  135.7596  154.2780 N   0  0  0  0  0  0  0  0  0  0  0  0
  144.4471  134.8865  154.9321 C   0  0  0  0  0  0  0  0  0  0  0  0
  144.3276  134.6929  156.4078 C   0  0  0  0  0  0  0  0  0  0  0  0
  143.2674  133.8256  156.7478 O   0  0  0  0  0  0  0  0  0  0  0  0
  143.7581  134.1912  153.9846 N   0  3  0  0  0  0  0  0  0  0  0  0
  144.1376  134.6202  152.7130 C   0  0  0  0  0  0  0  0  0  0  0  0
  143.7149  134.2087  151.4528 C   0  0  0  0  0  0  0  0  0  0  0  0
  144.3088  134.8487  150.3458 C   0  0  0  0  0  0  0  0  0  0  0  0
  145.2839  135.8522  150.5157 C   0  0  0  0  0  0  0  0  0  0  0  0
  145.7048  136.2609  151.7985 C   0  0  0  0  0  0  0  0  0  0  0  0
  145.1095  135.6272  152.8909 C   0  0  0  0  0  0  0  0  0  0  0  0
  150.7072  137.9045  154.3063 C   0  0  0  0  0  0  0  0  0  0  0  0
  151.1916  139.0448  155.2262 C   0  0  1  0  0  0  0  0  0  0  0  0
  152.7133  139.2180  155.1773 C   0  0  0  0  0  0  0  0  0  0  0  0
  150.5936  140.2656  154.8025 O   0  0  0  0  0  0  0  0  0  0  0  0
  147.5612  141.6650  154.5278 H   0  0  0  0  0  0  0  0  0  0  0  0
  148.9393  141.8671  153.4465 H   0  0  0  0  0  0  0  0  0  0  0  0
  149.0451  142.4047  155.1208 H   0  0  0  0  0  0  0  0  0  0  0  0
  148.8761  140.0730  155.9201 H   0  0  0  0  0  0  0  0  0  0  0  0
  147.5401  139.0917  154.0185 H   0  0  0  0  0  0  0  0  0  0  0  0
  148.8760  139.3544  152.9359 H   0  0  0  0  0  0  0  0  0  0  0  0
  149.4763  136.6545  156.0689 H   0  0  0  0  0  0  0  0  0  0  0  0
  148.2988  137.9250  156.1920 H   0  0  0  0  0  0  0  0  0  0  0  0
  147.8875  135.4582  154.3952 H   0  0  0  0  0  0  0  0  0  0  0  0
  147.1289  135.8611  157.0777 H   0  0  0  0  0  0  0  0  0  0  0  0
  145.7590  137.1974  155.6942 H   0  0  0  0  0  0  0  0  0  0  0  0
  146.3651  137.5514  154.1043 H   0  0  0  0  0  0  0  0  0  0  0  0
  145.2600  134.2934  156.8069 H   0  0  0  0  0  0  0  0  0  0  0  0
  144.1637  135.6591  156.8857 H   0  0  0  0  0  0  0  0  0  0  0  0
  143.3649  133.0251  156.2539 H   0  0  0  0  0  0  0  0  0  0  0  0
  142.9693  133.4382  151.3198 H   0  0  0  0  0  0  0  0  0  0  0  0
  144.0112  134.5633  149.3468 H   0  0  0  0  0  0  0  0  0  0  0  0
  145.7175  136.3197  149.6432 H   0  0  0  0  0  0  0  0  0  0  0  0
  146.4541  137.0304  151.9065 H   0  0  0  0  0  0  0  0  0  0  0  0
  151.1526  136.9520  154.5963 H   0  0  0  0  0  0  0  0  0  0  0  0
  151.0378  138.0959  153.2844 H   0  0  0  0  0  0  0  0  0  0  0  0
  150.9040  138.8425  156.2591 H   0  0  0  0  0  0  0  0  0  0  0  0
  153.2227  138.3104  155.5021 H   0  0  0  0  0  0  0  0  0  0  0  0
  153.0345  140.0301  155.8301 H   0  0  0  0  0  0  0  0  0  0  0  0
  153.0529  139.4495  154.1674 H   0  0  0  0  0  0  0  0  0  0  0  0
  148.9955  137.1833  153.5425 H   0  0  0  0  0  0  0  0  0  0  0  0
  143.0779  133.4722  154.1963 H   0  0  0  0  0  0  0  0  0  0  0  0
  1  2  1  0  0  0  0
  1 24  1  0  0  0  0
  1 25  1  0  0  0  0
  1 26  1  0  0  0  0
  2 23  1  0  0  0  0
  2  3  1  0  0  0  0
  2 27  1  0  0  0  0
  3  4  1  0  0  0  0
  3 28  1  0  0  0  0
  3 29  1  0  0  0  0
  4  5  1  0  0  0  0
  4 20  1  0  0  0  0
  4 49  1  0  0  0  0
  5  6  1  0  0  0  0
  5 30  1  0  0  0  0
  5 31  1  0  0  0  0
  6  7  1  0  0  0  0
  6  8  1  0  0  0  0
  6 32  1  0  0  0  0
  7 33  1  0  0  0  0
  8  9  1  0  0  0  0
  8 34  1  0  0  0  0
  8 35  1  0  0  0  0
  9 19  1  0  0  0  0
  9 10  1  0  0  0  0
 10 11  1  0  0  0  0
 10 13  2  0  0  0  0
 11 12  1  0  0  0  0
 11 36  1  0  0  0  0
 11 37  1  0  0  0  0
 12 38  1  0  0  0  0
 13 14  1  0  0  0  0
 13 50  1  0  0  0  0
 14 19  2  0  0  0  0
 14 15  1  0  0  0  0
 15 16  2  0  0  0  0
 15 39  1  0  0  0  0
 16 17  1  0  0  0  0
 16 40  1  0  0  0  0
 17 18  2  0  0  0  0
 17 41  1  0  0  0  0
 18 19  1  0  0  0  0
 18 42  1  0  0  0  0
 20 21  1  0  0  0  0
 20 43  1  0  0  0  0
 20 44  1  0  0  0  0
 21 22  1  0  0  0  0
 21 23  1  0  0  0  0
 21 45  1  0  0  0  0
 22 46  1  0  0  0  0
 22 47  1  0  0  0  0
 22 48  1  0  0  0  0
M  CHG  1   4   1
M  CHG  1  13   1
M  END
> <s_m_source_file>
AV-unprocessed.smi

> <i_m_source_file_index>
1703

> <i_lp_mmshare_version>
43012

> <i_f3d_flags>
0

> <s_epik_input>
W0NIM11bQ0BASF0xW0NIMl1OKFtDSDJdW0NASF0oTzEpW0NIM10pW0NIMl1bQ0BIXShbT0hdKVtDSDJdbihjKG4yKVtDSDJdW09IXSljKGMyMylbY0hdW2NIXVtjSF1bY0hdMw==

> <s_epik_cmdline>
J2VwaWtfcHl0aG9uJywgJy1waCcsICc3LjAnLCAnLXRuJywgJzgnLCAnLW1hJywgJzIwMCcsICctbWV0YWxfYmluZGluZycsICctaW1hZScsICc8aW5maWxlLm1hZT4nLCAnLW9tYWUnLCAnPG91dGZpbGUubWFlPic=

> <r_epik_Ionization_Penalty>
2.22579

> <r_epik_Ionization_Penalty_Charging>
2.22492

> <r_epik_Ionization_Penalty_Neutral>
0.000870007

> <r_epik_State_Penalty>
2.3141

> <r_epik_Charging_Adjusted_Penalty>
4.53902

> <i_epik_Tot_Q>
2

> <i_epik_Tot_abs_Q>
2

> <r_epik_Metal_State_Penalty>
6.36517

> <b_epik_Metal_Only>
0

> <s_lp_Force_Field>
OPLS_2005

> <r_lp_Energy>
31.3011

> <b_lp_Chiralities_Consistent>
1

> <s_lp_Variant>
AV-unprocessed.smi:1703-24

> <Gold.Version>
5.8.1

> <Gold.Id.Protein>
6NUR|6NUR_protein|mol2

> <Gold.PLP.Fitness>
52.4210

> <Gold.PLP.PLP>
-33.9514

> <Gold.PLP.part.hbond>
-5.0000

> <Gold.PLP.part.metal>
0.0000

> <Gold.PLP.part.buried>
-0.5251

> <Gold.PLP.part.nonpolar>
-28.0046

> <Gold.PLP.part.repulsive>
0.0783

> <Gold.PLP.ligand.clash>
0.0000

> <Gold.PLP.ligand.torsion>
1.1068

> <Gold.PLP.Chemscore.Hbond>
6.8720

> <Gold.PLP.Chemscore.CHOScore>
0.0000

> <Gold.PLP.Chemscore.Metal>
0.0000

> <Gold.Chemscore.Hbonds>
donor molecule, donor type, donor heavy atom, donor atom, acceptor molecule, acceptor atom, score
      L1  H     4    49       P1  7948  2.00
      L1  H    12    38       P1 10957  0.99
      L1  H    13    50       P1 10957  2.00
      P1  H  7989  7998       L1    23  1.00
      P1  H 11000 11005       L1    12  0.80

> <Gold.PLP.Chemscore.Internal.Correction>
0.0673

> <Gold.Rescore>
     Score         DG    S(hbond)    S(metal)    S(lipo)     H(rot)  DE(clash)    DE(int)     intcor
     19.42     -21.44       4.19        0.00      83.32       3.04       0.87       1.15       ----

> <Gold.Chemscore.Fitness>
19.4195

> <Gold.Chemscore.DG>
-21.4360

> <Gold.Chemscore.ZeroCoef>
-5.4800

> <Gold.Chemscore.Hbond>
4.1869

> <Gold.Chemscore.Metal>
0.0000

> <Gold.Chemscore.Lipo>
83.3196

> <Gold.Chemscore.Internal_Hbond>
0.0000

> <Gold.Chemscore.DEClash>
0.8695

> <Gold.Chemscore.DEInternal>
1.1469

> <Gold.Chemscore.Rot>
3.0378

> <Gold.Chemscore.Internal.Correction>
   9.000000E+99

> <Gold.Chemscore.Hbonds>
donor molecule, donor type, donor heavy atom, donor atom, acceptor molecule, acceptor atom, score
      L1  H     4    49       P1  7948  1.00
      L1  H    12    38       P1 10957  0.87
      L1  H    13    50       P1 10957  0.95
      P1  H  7989  7998       L1    23  0.55
      P1  H 11000 11005       L1    12  0.19

> <Gold.Chemscore.Hbond.Weighted>
-13.9842

> <Gold.Chemscore.Metal.Weighted>
-0.0000

> <Gold.Chemscore.Lipo.Weighted>
-9.7484

> <Gold.Chemscore.Internal_Hbond.Weighted>
0.0000

> <Gold.Chemscore.DEClash.Weighted>
0.8695

> <Gold.Chemscore.DEInternal.Weighted>
1.1469

> <Gold.Chemscore.Rot.Weighted>
7.7767

> <Gold.Chemscore.Internal.Correction.Weighted>
   9.000000E+99

> <Gold.Protein.RotatedTorsions>
[ 6907 6896 6895 6894 ] final   88.55 input  -60.11 | X-H torsion
[ 7974 7965 7964 7962 ] final -153.75 input  175.53 | X-H torsion
[ 8008 7997 7996 7995 ] final -155.70 input   59.86 | X-H torsion
[ 10167 10162 10161 10158 ] final  140.30 input  -65.29 | X-H torsion
[ 10718 10713 10712 10709 ] final  179.08 input   66.30 | X-H torsion
[ 10763 10752 10751 10750 ] final   49.67 input  -60.55 | X-H torsion
[ 11005 11000 10999 10996 ] final  -95.49 input  -57.11 | X-H torsion

> <Gold.Protein.ActiveResidues>
 VAL166  LYS551  ARG553  GLY616  TRP617  ASP618  TYR619  PRO620  LYS621  CYS622 
 ASP623  PHE694  ASN695  SER759  ASP760  ASP761  ALA762  ILE779  LEU786  VAL792 
 PHE793  MET794  SER795  GLU796  ALA797  LYS798  CYS799  TRP800  GLU811  SER814 

> <Gold.Protein.RotatedAtoms>
  152.5426  134.2104  159.8747 H   0  0  0  0  0  0  0  0  0  0  0  0  # atno 6907 bound_to 6896
  151.2087  133.4561  159.2605 H   0  0  0  0  0  0  0  0  0  0  0  0  # atno 6908 bound_to 6896
  151.0918  134.9933  159.8462 H   0  0  0  0  0  0  0  0  0  0  0  0  # atno 6909 bound_to 6896
  144.7724  140.4482  143.5897 H   0  0  0  0  0  0  0  0  0  0  0  0  # atno 7974 bound_to 7965
  155.7059  140.0772  157.2391 H   0  0  0  0  0  0  0  0  0  0  0  0  # atno 8008 bound_to 7997
  154.4066  140.1639  156.2296 H   0  0  0  0  0  0  0  0  0  0  0  0  # atno 8009 bound_to 7997
  155.9326  140.3390  155.6264 H   0  0  0  0  0  0  0  0  0  0  0  0  # atno 8010 bound_to 7997
  139.5053  144.6243  151.5976 H   0  0  0  0  0  0  0  0  0  0  0  0  # atno 10167 bound_to 10162
  156.8810  130.9816  151.3062 H   0  0  0  0  0  0  0  0  0  0  0  0  # atno 10718 bound_to 10713
  152.9786  135.5904  154.4127 H   0  0  0  0  0  0  0  0  0  0  0  0  # atno 10763 bound_to 10752
  154.3760  135.2767  155.2241 H   0  0  0  0  0  0  0  0  0  0  0  0  # atno 10764 bound_to 10752
  154.4175  135.6067  153.6044 H   0  0  0  0  0  0  0  0  0  0  0  0  # atno 10765 bound_to 10752
  141.1440  133.8030  157.0442 H   0  0  0  0  0  0  0  0  0  0  0  0  # atno 11005 bound_to 11000
  145.6284  139.1533  143.2983 LP  0  0  0  0  0  0  0  0  0  0  0  0  # atno 17320 bound_to 7965
  146.1881  140.6389  142.9158 LP  0  0  0  0  0  0  0  0  0  0  0  0  # atno 17321 bound_to 7965
  140.5954  143.9704  150.6351 LP  0  0  0  0  0  0  0  0  0  0  0  0  # atno 17342 bound_to 10162
  140.2899  143.3331  152.1072 LP  0  0  0  0  0  0  0  0  0  0  0  0  # atno 17343 bound_to 10162
  157.6140  130.8604  149.8998 LP  0  0  0  0  0  0  0  0  0  0  0  0  # atno 17370 bound_to 10713
  156.0677  130.3690  150.0843 LP  0  0  0  0  0  0  0  0  0  0  0  0  # atno 17371 bound_to 10713
  140.0673  134.9722  157.1407 LP  0  0  0  0  0  0  0  0  0  0  0  0  # atno 17394 bound_to 11000
  140.3762  134.2337  155.7174 LP  0  0  0  0  0  0  0  0  0  0  0  0  # atno 17395 bound_to 11000

$$$$
