AV-unprocessed.smi:788|AV-procd|sdf|3732|dock9
  -GOLD-   22720 1163D 1   1.00000     0.00000
 Structure written by MMmdl.
 35 36  0  0  0  0  0  0  0  0  1 V2000
  144.0994  137.2243  152.5001 C   0  0  0  0  0  0  0  0  0  0  0  0
  144.4712  135.7314  152.4944 C   0  0  1  0  0  0  0  0  0  0  0  0
  144.9035  135.2626  151.0900 C   0  0  0  0  0  0  0  0  0  0  0  0
  145.2236  133.7601  151.0716 C   0  0  0  0  0  0  0  0  0  0  0  0
  146.2847  133.3988  152.1221 C   0  0  0  0  0  0  0  0  0  0  0  0
  145.8601  133.8551  153.5330 C   0  0  1  0  0  0  0  0  0  0  0  0
  146.8959  133.4444  154.5937 C   0  0  0  0  0  0  0  0  0  0  0  0
  145.5383  135.3709  153.5588 C   0  0  1  0  0  0  0  0  0  0  0  0
  146.7546  136.1632  153.3643 N   0  0  0  0  0  0  0  0  0  0  0  0
  147.0353  137.3584  153.9088 C   0  0  0  0  0  0  0  0  0  0  0  0
  146.2614  137.9494  154.6597 O   0  0  0  0  0  0  0  0  0  0  0  0
  148.2311  137.8946  153.5830 N   0  0  0  0  0  0  0  0  0  0  0  0
  148.8578  139.1192  153.9602 C   0  0  0  0  0  0  0  0  0  0  0  0
  150.1310  139.2310  154.3743 N   0  0  0  0  0  0  0  0  0  0  0  0
  150.4693  140.5419  154.6809 N   0  0  0  0  0  0  0  0  0  0  0  0
  149.4390  141.3704  154.4904 C   0  0  0  0  0  0  0  0  0  0  0  0
  147.9557  140.6282  153.9174 S   0  0  0  0  0  0  0  0  0  0  0  0
  144.9379  137.8514  152.1961 H   0  0  0  0  0  0  0  0  0  0  0  0
  143.7852  137.5460  153.4932 H   0  0  0  0  0  0  0  0  0  0  0  0
  143.2762  137.4234  151.8137 H   0  0  0  0  0  0  0  0  0  0  0  0
  143.5634  135.1835  152.7527 H   0  0  0  0  0  0  0  0  0  0  0  0
  144.1142  135.4734  150.3679 H   0  0  0  0  0  0  0  0  0  0  0  0
  145.7776  135.8259  150.7601 H   0  0  0  0  0  0  0  0  0  0  0  0
  144.3130  133.1912  151.2631 H   0  0  0  0  0  0  0  0  0  0  0  0
  145.5679  133.4663  150.0797 H   0  0  0  0  0  0  0  0  0  0  0  0
  146.4514  132.3211  152.1130 H   0  0  0  0  0  0  0  0  0  0  0  0
  147.2371  133.8571  151.8512 H   0  0  0  0  0  0  0  0  0  0  0  0
  144.9371  133.3277  153.7791 H   0  0  0  0  0  0  0  0  0  0  0  0
  147.8796  133.8642  154.3822 H   0  0  0  0  0  0  0  0  0  0  0  0
  147.0039  132.3603  154.6344 H   0  0  0  0  0  0  0  0  0  0  0  0
  146.5958  133.7826  155.5859 H   0  0  0  0  0  0  0  0  0  0  0  0
  145.1116  135.5973  154.5375 H   0  0  0  0  0  0  0  0  0  0  0  0
  147.4540  135.7587  152.7580 H   0  0  0  0  0  0  0  0  0  0  0  0
  148.7794  137.3276  152.9528 H   0  0  0  0  0  0  0  0  0  0  0  0
  149.5532  142.4257  154.6889 H   0  0  0  0  0  0  0  0  0  0  0  0
  1  2  1  0  0  0  0
  1 18  1  0  0  0  0
  1 19  1  0  0  0  0
  1 20  1  0  0  0  0
  2  8  1  0  0  0  0
  2  3  1  0  0  0  0
  2 21  1  0  0  0  0
  3  4  1  0  0  0  0
  3 22  1  0  0  0  0
  3 23  1  0  0  0  0
  4  5  1  0  0  0  0
  4 24  1  0  0  0  0
  4 25  1  0  0  0  0
  5  6  1  0  0  0  0
  5 26  1  0  0  0  0
  5 27  1  0  0  0  0
  6  7  1  0  0  0  0
  6  8  1  0  0  0  0
  6 28  1  0  0  0  0
  7 29  1  0  0  0  0
  7 30  1  0  0  0  0
  7 31  1  0  0  0  0
  8  9  1  0  0  0  0
  8 32  1  0  0  0  0
  9 10  1  0  0  0  0
  9 33  1  0  0  0  0
 10 11  2  0  0  0  0
 10 12  1  0  0  0  0
 12 13  1  0  0  0  0
 12 34  1  0  0  0  0
 13 17  1  0  0  0  0
 13 14  2  0  0  0  0
 14 15  1  0  0  0  0
 15 16  2  0  0  0  0
 16 17  1  0  0  0  0
 16 35  1  0  0  0  0
M  END
> <s_m_source_file>
AV-unprocessed.smi

> <i_m_source_file_index>
788

> <i_lp_mmshare_version>
43012

> <i_f3d_flags>
0

> <s_epik_input>
W0NIM11bQ0BASF0xW0NIMl1bQ0gyXVtDSDJdW0NAQEhdKFtDSDNdKVtDQEhdMVtOSF1DKD1PKVtOSF1jMm5uW2NIXXMy

> <s_epik_cmdline>
J2VwaWtfcHl0aG9uJywgJy1waCcsICc3LjAnLCAnLXRuJywgJzgnLCAnLW1hJywgJzIwMCcsICctbWV0YWxfYmluZGluZycsICctaW1hZScsICc8aW5maWxlLm1hZT4nLCAnLW9tYWUnLCAnPG91dGZpbGUubWFlPic=

> <r_lp_tautomer_probability>
1

> <r_epik_Ionization_Penalty>
0.000304078

> <r_epik_Ionization_Penalty_Charging>
0

> <r_epik_Ionization_Penalty_Neutral>
0.000304078

> <r_epik_State_Penalty>
-0

> <r_epik_Charging_Adjusted_Penalty>
0

> <i_epik_Tot_Q>
0

> <i_epik_Tot_abs_Q>
0

> <r_epik_Metal_State_Penalty>
0.164801

> <b_epik_Metal_Only>
0

> <s_lp_Force_Field>
OPLS_2005

> <r_lp_Energy>
12.7564

> <b_lp_Chiralities_Consistent>
1

> <s_lp_Variant>
AV-unprocessed.smi:788-2

> <Gold.Version>
5.8.1

> <Gold.Id.Protein>
6NUR|6NUR_protein|mol2

> <Gold.PLP.Fitness>
32.3656

> <Gold.PLP.PLP>
-22.3458

> <Gold.PLP.part.hbond>
-3.0000

> <Gold.PLP.part.metal>
0.0000

> <Gold.PLP.part.buried>
-1.8154

> <Gold.PLP.part.nonpolar>
-17.3971

> <Gold.PLP.part.repulsive>
0.3188

> <Gold.PLP.ligand.clash>
0.0000

> <Gold.PLP.ligand.torsion>
0.7656

> <Gold.PLP.Chemscore.Hbond>
2.8480

> <Gold.PLP.Chemscore.CHOScore>
0.9998

> <Gold.PLP.Chemscore.Metal>
0.0000

> <Gold.Chemscore.Hbonds>
donor molecule, donor type, donor heavy atom, donor atom, acceptor molecule, acceptor atom, score
      L1  H     9    33       P1  7948  0.82
      L1  H    12    34       P1  7948  1.00
      P1  H  7989  7998       L1    15  0.98
      L1  C    16    35       P1  8028  0.91

> <Gold.PLP.Chemscore.Internal.Correction>
0.0076

> <Gold.Rescore>
     Score         DG    S(hbond)    S(metal)    S(lipo)     H(rot)  DE(clash)    DE(int)     intcor
     14.03     -14.64       2.03        0.00      42.23       1.00       0.01       0.59       ----

> <Gold.Chemscore.Fitness>
14.0348

> <Gold.Chemscore.DG>
-14.6375

> <Gold.Chemscore.ZeroCoef>
-5.4800

> <Gold.Chemscore.Hbond>
2.0288

> <Gold.Chemscore.Metal>
0.0000

> <Gold.Chemscore.Lipo>
42.2341

> <Gold.Chemscore.Internal_Hbond>
0.0000

> <Gold.Chemscore.DEClash>
0.0098

> <Gold.Chemscore.DEInternal>
0.5930

> <Gold.Chemscore.Rot>
1.0000

> <Gold.Chemscore.Internal.Correction>
   9.000000E+99

> <Gold.Chemscore.Hbonds>
donor molecule, donor type, donor heavy atom, donor atom, acceptor molecule, acceptor atom, score
      L1  H     9    33       P1  7948  0.81
      L1  H    12    34       P1  7948  0.93
      P1  H  7989  7998       L1    15  0.20

> <Gold.Chemscore.Hbond.Weighted>
-6.7761

> <Gold.Chemscore.Metal.Weighted>
-0.0000

> <Gold.Chemscore.Lipo.Weighted>
-4.9414

> <Gold.Chemscore.Internal_Hbond.Weighted>
0.0000

> <Gold.Chemscore.DEClash.Weighted>
0.0098

> <Gold.Chemscore.DEInternal.Weighted>
0.5930

> <Gold.Chemscore.Rot.Weighted>
2.5600

> <Gold.Chemscore.Internal.Correction.Weighted>
   9.000000E+99

> <Gold.Protein.RotatedTorsions>
[ 6907 6896 6895 6894 ] final  -46.95 input  -60.11 | X-H torsion
[ 7974 7965 7964 7962 ] final   66.37 input  175.53 | X-H torsion
[ 8008 7997 7996 7995 ] final -104.98 input   59.86 | X-H torsion
[ 10167 10162 10161 10158 ] final   29.89 input  -65.29 | X-H torsion
[ 10718 10713 10712 10709 ] final  -84.93 input   66.30 | X-H torsion
[ 10763 10752 10751 10750 ] final  171.71 input  -60.55 | X-H torsion
[ 11005 11000 10999 10996 ] final  -61.53 input  -57.11 | X-H torsion

> <Gold.Protein.ActiveResidues>
 VAL166  LYS551  ARG553  GLY616  TRP617  ASP618  TYR619  PRO620  LYS621  CYS622 
 ASP623  PHE694  ASN695  SER759  ASP760  ASP761  ALA762  ILE779  LEU786  VAL792 
 PHE793  MET794  SER795  GLU796  ALA797  LYS798  CYS799  TRP800  GLU811  SER814 

> <Gold.Protein.RotatedAtoms>
  150.9058  134.8473  159.7391 H   0  0  0  0  0  0  0  0  0  0  0  0  # atno 6907 bound_to 6896
  152.4918  134.4433  159.9560 H   0  0  0  0  0  0  0  0  0  0  0  0  # atno 6908 bound_to 6896
  151.4480  133.3586  159.2826 H   0  0  0  0  0  0  0  0  0  0  0  0  # atno 6909 bound_to 6896
  145.8275  139.3119  143.1007 H   0  0  0  0  0  0  0  0  0  0  0  0  # atno 7974 bound_to 7965
  154.8932  140.0415  157.1850 H   0  0  0  0  0  0  0  0  0  0  0  0  # atno 8008 bound_to 7997
  154.8519  140.2930  155.5572 H   0  0  0  0  0  0  0  0  0  0  0  0  # atno 8009 bound_to 7997
  156.2996  140.2463  156.3480 H   0  0  0  0  0  0  0  0  0  0  0  0  # atno 8010 bound_to 7997
  140.4726  144.0739  150.6241 H   0  0  0  0  0  0  0  0  0  0  0  0  # atno 10167 bound_to 10162
  156.0001  130.4714  150.4485 H   0  0  0  0  0  0  0  0  0  0  0  0  # atno 10718 bound_to 10713
  154.4158  135.2757  155.2007 H   0  0  0  0  0  0  0  0  0  0  0  0  # atno 10763 bound_to 10752
  154.3974  135.6052  153.5881 H   0  0  0  0  0  0  0  0  0  0  0  0  # atno 10764 bound_to 10752
  152.9832  135.5918  154.4447 H   0  0  0  0  0  0  0  0  0  0  0  0  # atno 10765 bound_to 10752
  141.1327  133.6631  156.5389 H   0  0  0  0  0  0  0  0  0  0  0  0  # atno 11005 bound_to 11000
  145.9608  140.8837  143.0212 LP  0  0  0  0  0  0  0  0  0  0  0  0  # atno 17320 bound_to 7965
  144.6742  140.1809  143.7406 LP  0  0  0  0  0  0  0  0  0  0  0  0  # atno 17321 bound_to 7965
  140.3958  143.2729  152.0006 LP  0  0  0  0  0  0  0  0  0  0  0  0  # atno 17342 bound_to 10162
  139.4821  144.6039  151.7556 LP  0  0  0  0  0  0  0  0  0  0  0  0  # atno 17343 bound_to 10162
  157.2520  131.0548  151.2373 LP  0  0  0  0  0  0  0  0  0  0  0  0  # atno 17370 bound_to 10713
  157.3519  130.7086  149.6446 LP  0  0  0  0  0  0  0  0  0  0  0  0  # atno 17371 bound_to 10713
  140.4156  134.7233  157.4861 LP  0  0  0  0  0  0  0  0  0  0  0  0  # atno 17394 bound_to 11000
  140.0396  134.6286  155.8998 LP  0  0  0  0  0  0  0  0  0  0  0  0  # atno 17395 bound_to 11000

$$$$
