AV-unprocessed.smi:686|AV-procd|sdf|3346|dock2
  -GOLD-   22720 0323D 1   1.00000     0.00000
 Structure written by MMmdl.
 40 41  0  0  0  0  0  0  0  0  3 V2000
  150.4789  133.5396  156.0056 C   0  0  0  0  0  0  0  0  0  0  0  0
  149.5398  134.3933  155.1268 C   0  0  1  0  0  0  0  0  0  0  0  0
  148.7948  133.6151  154.0415 C   0  0  0  0  0  0  0  0  0  0  0  0
  147.7430  134.5417  153.5638 N   0  3  1  0  0  0  0  0  0  0  0  0
  146.5648  133.8995  152.9136 C   0  0  0  0  0  0  0  0  0  0  0  0
  146.9838  132.9704  151.7578 C   0  0  0  0  0  0  0  0  0  0  0  0
  145.5788  134.9585  152.3844 C   0  0  0  0  0  0  0  0  0  0  0  0
  147.4250  135.4676  154.6847 C   0  0  0  0  0  0  0  0  0  0  0  0
  148.4209  135.1856  155.8288 C   0  0  1  0  0  0  0  0  0  0  0  0
  147.7725  134.3755  156.8587 N   0  5  0  0  0  0  0  0  0  0  0  0
  148.1736  134.5177  158.4296 S   0  0  0  0  0  0  0  0  0  0  0  0
  148.0255  133.2678  159.1946 O   0  0  0  0  0  0  0  0  0  0  0  0
  149.4498  135.2328  158.5810 O   0  0  0  0  0  0  0  0  0  0  0  0
  146.8781  135.6794  159.0603 C   0  0  0  0  0  0  0  0  0  0  0  0
  147.1464  136.0132  160.5006 C   0  0  0  0  0  0  0  0  0  0  0  0
  147.3359  135.1235  161.5943 C   0  0  0  0  0  0  0  0  0  0  0  0
  147.5447  135.9595  162.6530 C   0  0  0  0  0  0  0  0  0  0  0  0
  147.4984  137.2549  162.2521 O   0  0  0  0  0  0  0  0  0  0  0  0
  147.2474  137.2791  160.8755 N   0  0  0  0  0  0  0  0  0  0  0  0
  149.9545  132.7233  156.5053 H   0  0  0  0  0  0  0  0  0  0  0  0
  150.9742  134.1388  156.7715 H   0  0  0  0  0  0  0  0  0  0  0  0
  151.2610  133.0872  155.3958 H   0  0  0  0  0  0  0  0  0  0  0  0
  150.1670  135.1268  154.6169 H   0  0  0  0  0  0  0  0  0  0  0  0
  149.4586  133.3199  153.2281 H   0  0  0  0  0  0  0  0  0  0  0  0
  148.3465  132.7050  154.4500 H   0  0  0  0  0  0  0  0  0  0  0  0
  146.0528  133.2950  153.6642 H   0  0  0  0  0  0  0  0  0  0  0  0
  146.1096  132.5499  151.2595 H   0  0  0  0  0  0  0  0  0  0  0  0
  147.5815  132.1276  152.1046 H   0  0  0  0  0  0  0  0  0  0  0  0
  147.5639  133.5077  151.0067 H   0  0  0  0  0  0  0  0  0  0  0  0
  144.7276  134.4869  151.8920 H   0  0  0  0  0  0  0  0  0  0  0  0
  146.0568  135.6156  151.6571 H   0  0  0  0  0  0  0  0  0  0  0  0
  145.1755  135.5829  153.1810 H   0  0  0  0  0  0  0  0  0  0  0  0
  147.5439  136.4889  154.3226 H   0  0  0  0  0  0  0  0  0  0  0  0
  146.3896  135.3691  155.0148 H   0  0  0  0  0  0  0  0  0  0  0  0
  148.8213  136.1151  156.2342 H   0  0  0  0  0  0  0  0  0  0  0  0
  146.8976  136.5783  158.4447 H   0  0  0  0  0  0  0  0  0  0  0  0
  145.8985  135.2169  158.9414 H   0  0  0  0  0  0  0  0  0  0  0  0
  147.3139  134.0440  161.6001 H   0  0  0  0  0  0  0  0  0  0  0  0
  147.7332  135.7938  163.7034 H   0  0  0  0  0  0  0  0  0  0  0  0
  148.1873  135.1139  152.8605 H   0  0  0  0  0  0  0  0  0  0  0  0
  1  2  1  0  0  0  0
  1 20  1  0  0  0  0
  1 21  1  0  0  0  0
  1 22  1  0  0  0  0
  2  9  1  0  0  0  0
  2  3  1  0  0  0  0
  2 23  1  0  0  0  0
  3  4  1  0  0  0  0
  3 24  1  0  0  0  0
  3 25  1  0  0  0  0
  4  5  1  0  0  0  0
  4  8  1  0  0  0  0
  4 40  1  0  0  0  0
  5  6  1  0  0  0  0
  5  7  1  0  0  0  0
  5 26  1  0  0  0  0
  6 27  1  0  0  0  0
  6 28  1  0  0  0  0
  6 29  1  0  0  0  0
  7 30  1  0  0  0  0
  7 31  1  0  0  0  0
  7 32  1  0  0  0  0
  8  9  1  0  0  0  0
  8 33  1  0  0  0  0
  8 34  1  0  0  0  0
  9 10  1  0  0  0  0
  9 35  1  0  0  0  0
 10 11  1  0  0  0  0
 11 12  2  0  0  0  0
 11 13  2  0  0  0  0
 11 14  1  0  0  0  0
 14 15  1  0  0  0  0
 14 36  1  0  0  0  0
 14 37  1  0  0  0  0
 15 19  2  0  0  0  0
 15 16  1  0  0  0  0
 16 17  2  0  0  0  0
 16 38  1  0  0  0  0
 17 18  1  0  0  0  0
 17 39  1  0  0  0  0
 18 19  1  0  0  0  0
M  CHG  1   4   1
M  CHG  1  10  -1
M  END
> <s_m_source_file>
AV-unprocessed.smi

> <i_m_source_file_index>
686

> <i_lp_mmshare_version>
43012

> <i_f3d_flags>
0

> <s_epik_input>
W0NIM11bQ0BASF0xW0NIMl1OKFtDSF0oW0NIM10pW0NIM10pW0NIMl1bQ0BIXTFbTkhdUyg9TykoPU8pW0NIMl1jMltjSF1bY0hdb24y

> <s_epik_cmdline>
J2VwaWtfcHl0aG9uJywgJy1waCcsICc3LjAnLCAnLXRuJywgJzgnLCAnLW1hJywgJzIwMCcsICctbWV0YWxfYmluZGluZycsICctaW1hZScsICc8aW5maWxlLm1hZT4nLCAnLW9tYWUnLCAnPG91dGZpbGUubWFlPic=

> <r_epik_Ionization_Penalty>
3.62478

> <r_epik_Ionization_Penalty_Charging>
3.62478

> <r_epik_Ionization_Penalty_Neutral>
2.03645e-10

> <r_epik_State_Penalty>
3.6247

> <r_epik_Charging_Adjusted_Penalty>
7.24949

> <i_epik_Tot_Q>
0

> <i_epik_Tot_abs_Q>
2

> <r_epik_Metal_State_Penalty>
0.530836

> <b_epik_Metal_Only>
1

> <s_lp_Force_Field>
OPLS_2005

> <r_lp_Energy>
19.0269

> <b_lp_Chiralities_Consistent>
1

> <s_lp_Variant>
AV-unprocessed.smi:686-10

> <Gold.Version>
5.8.1

> <Gold.Id.Protein>
6NUR|6NUR_protein|mol2

> <Gold.PLP.Fitness>
40.5549

> <Gold.PLP.PLP>
-29.3600

> <Gold.PLP.part.hbond>
-5.8372

> <Gold.PLP.part.metal>
0.0000

> <Gold.PLP.part.buried>
-4.6194

> <Gold.PLP.part.nonpolar>
-19.6584

> <Gold.PLP.part.repulsive>
0.0000

> <Gold.PLP.ligand.clash>
0.0000

> <Gold.PLP.ligand.torsion>
0.9005

> <Gold.PLP.Chemscore.Hbond>
3.9832

> <Gold.PLP.Chemscore.CHOScore>
0.0000

> <Gold.PLP.Chemscore.Metal>
0.0000

> <Gold.Chemscore.Hbonds>
donor molecule, donor type, donor heavy atom, donor atom, acceptor molecule, acceptor atom, score
      L1  H     4    40       P1  7948  2.00
      P1  H  6896  6909       L1    13  1.00
      P1  H  6931  6943       L1    18  0.34
      P1  H  6934  6947       L1    19  0.50

> <Gold.PLP.Chemscore.Internal.Correction>
1.0463

> <Gold.Rescore>
     Score         DG    S(hbond)    S(metal)    S(lipo)     H(rot)  DE(clash)    DE(int)     intcor
     16.25     -17.16       2.77        0.00      55.93       1.61       0.00       0.90       ----

> <Gold.Chemscore.Fitness>
16.2535

> <Gold.Chemscore.DG>
-17.1583

> <Gold.Chemscore.ZeroCoef>
-5.4800

> <Gold.Chemscore.Hbond>
2.7750

> <Gold.Chemscore.Metal>
0.0000

> <Gold.Chemscore.Lipo>
55.9311

> <Gold.Chemscore.Internal_Hbond>
0.0000

> <Gold.Chemscore.DEClash>
0.0000

> <Gold.Chemscore.DEInternal>
0.9048

> <Gold.Chemscore.Rot>
1.6149

> <Gold.Chemscore.Internal.Correction>
   9.000000E+99

> <Gold.Chemscore.Hbonds>
donor molecule, donor type, donor heavy atom, donor atom, acceptor molecule, acceptor atom, score
      L1  H     4    40       P1  7948  0.94
      P1  H  6896  6909       L1    13  0.91
      P1  H  6931  6943       L1    18  0.01
      P1  H  6934  6947       L1    19  0.02

> <Gold.Chemscore.Hbond.Weighted>
-9.2685

> <Gold.Chemscore.Metal.Weighted>
-0.0000

> <Gold.Chemscore.Lipo.Weighted>
-6.5439

> <Gold.Chemscore.Internal_Hbond.Weighted>
0.0000

> <Gold.Chemscore.DEClash.Weighted>
0.0000

> <Gold.Chemscore.DEInternal.Weighted>
0.9048

> <Gold.Chemscore.Rot.Weighted>
4.1341

> <Gold.Chemscore.Internal.Correction.Weighted>
   9.000000E+99

> <Gold.Protein.RotatedTorsions>
[ 6907 6896 6895 6894 ] final   37.84 input  -60.11 | X-H torsion
[ 7974 7965 7964 7962 ] final   88.29 input  175.53 | X-H torsion
[ 8008 7997 7996 7995 ] final  -13.57 input   59.86 | X-H torsion
[ 10167 10162 10161 10158 ] final   99.20 input  -65.29 | X-H torsion
[ 10718 10713 10712 10709 ] final  150.46 input   66.30 | X-H torsion
[ 10763 10752 10751 10750 ] final  119.25 input  -60.55 | X-H torsion
[ 11005 11000 10999 10996 ] final   43.94 input  -57.11 | X-H torsion

> <Gold.Protein.ActiveResidues>
 VAL166  LYS551  ARG553  GLY616  TRP617  ASP618  TYR619  PRO620  LYS621  CYS622 
 ASP623  PHE694  ASN695  SER759  ASP760  ASP761  ALA762  ILE779  LEU786  VAL792 
 PHE793  MET794  SER795  GLU796  ALA797  LYS798  CYS799  TRP800  GLU811  SER814 

> <Gold.Protein.RotatedAtoms>
  152.1485  134.9007  160.0549 H   0  0  0  0  0  0  0  0  0  0  0  0  # atno 6907 bound_to 6896
  152.0048  133.3834  159.4204 H   0  0  0  0  0  0  0  0  0  0  0  0  # atno 6908 bound_to 6896
  150.6873  134.3716  159.5038 H   0  0  0  0  0  0  0  0  0  0  0  0  # atno 6909 bound_to 6896
  145.5477  139.2293  143.2530 H   0  0  0  0  0  0  0  0  0  0  0  0  # atno 7974 bound_to 7965
  154.5282  140.2246  155.8852 H   0  0  0  0  0  0  0  0  0  0  0  0  # atno 8008 bound_to 7997
  156.1735  140.3116  155.8981 H   0  0  0  0  0  0  0  0  0  0  0  0  # atno 8009 bound_to 7997
  155.3508  140.0455  157.3036 H   0  0  0  0  0  0  0  0  0  0  0  0  # atno 8010 bound_to 7997
  139.7639  144.6945  151.0252 H   0  0  0  0  0  0  0  0  0  0  0  0  # atno 10167 bound_to 10162
  157.2832  131.0839  151.1516 H   0  0  0  0  0  0  0  0  0  0  0  0  # atno 10718 bound_to 10713
  153.5801  135.3485  155.2871 H   0  0  0  0  0  0  0  0  0  0  0  0  # atno 10763 bound_to 10752
  154.8669  135.4180  154.2630 H   0  0  0  0  0  0  0  0  0  0  0  0  # atno 10764 bound_to 10752
  153.3414  135.7050  153.6934 H   0  0  0  0  0  0  0  0  0  0  0  0  # atno 10765 bound_to 10752
  140.1598  134.4356  155.8325 H   0  0  0  0  0  0  0  0  0  0  0  0  # atno 11005 bound_to 11000
  146.1938  140.6299  142.9133 LP  0  0  0  0  0  0  0  0  0  0  0  0  # atno 17320 bound_to 7965
  144.7545  140.5273  143.6778 LP  0  0  0  0  0  0  0  0  0  0  0  0  # atno 17321 bound_to 7965
  140.7809  143.4665  151.0205 LP  0  0  0  0  0  0  0  0  0  0  0  0  # atno 17342 bound_to 10162
  139.8351  143.7639  152.3180 LP  0  0  0  0  0  0  0  0  0  0  0  0  # atno 17343 bound_to 10162
  157.2942  130.6811  149.6130 LP  0  0  0  0  0  0  0  0  0  0  0  0  # atno 17370 bound_to 10713
  155.9665  130.4411  150.5329 LP  0  0  0  0  0  0  0  0  0  0  0  0  # atno 17371 bound_to 10713
  141.2208  133.6908  156.7573 LP  0  0  0  0  0  0  0  0  0  0  0  0  # atno 17394 bound_to 11000
  140.2503  134.8545  157.3661 LP  0  0  0  0  0  0  0  0  0  0  0  0  # atno 17395 bound_to 11000

$$$$
