#       Name:                AV-unprocessed.smi:72
#       Creating user name   scv26
#       Creation time:       Thu Mar 26 17:09:32 2020


#       File generated by GOLD software.
#

@<TRIPOS>MOLECULE
AV-unprocessed.smi:72
    41    42     1
SMALL
NO_CHARGES


@<TRIPOS>ATOM
      1 ****        -5.1416  -0.2924  -0.0238 N.pl3          1 S1                 0.0000
      2 ****        -3.7756  -0.4731  -0.0879 C.2            1 S1                 0.0000
      3 ****        -2.9922   0.6895  -0.0927 N.2            1 S1                 0.0000
      4 ****        -1.7094   0.5233  -0.1620 C.2            1 S1                 0.0000
      5 ****        -1.1232  -0.8024  -0.2371 N.am           1 S1                 0.0000
      6 ****         0.3760  -0.9890  -0.3039 C.3            1 S1                 0.0000
      7 ****         0.9215   0.0158  -1.1074 O.3            1 S1                 0.0000
      8 ****         2.0989   0.5311  -0.4952 C.3            1 S1                 0.0000
      9 ****         2.3647   1.9610  -0.9912 C.3            1 S1                 0.0000
     10 ****         3.0616   1.9271  -2.2184 O.3            1 S1                 0.0000
     11 ****         1.7515   0.4513   0.9923 C.3            1 S1                 0.0000
     12 ****         2.8885   0.5200   1.8323 O.3            1 S1                 0.0000
     13 ****         1.0032  -0.8749   1.0950 C.3            1 S1                 0.0000
     14 ****         1.8680  -1.9662   1.3503 O.3            1 S1                 0.0000
     15 ****        -1.9758  -1.9400  -0.2026 C.2            1 S1                 0.0000
     16 ****        -1.5013  -3.0755  -0.2242 O.2            1 S1                 0.0000
     17 ****        -3.3546  -1.7045  -0.1353 N.2            1 S1                 0.0000
     18 ****         0.5580  -1.9490  -0.7888 H              1 S1                 0.0000
     19 ****         2.9408  -0.1297  -0.7125 H              1 S1                 0.0000
     20 ****         1.0724   1.2647   1.2517 H              1 S1                 0.0000
     21 ****         0.2378  -0.8492   1.8721 H              1 S1                 0.0000
     22 ****        -5.8029  -1.0552  -0.0128 H              1 S1                 0.0000
     23 ****        -5.5818   0.6153   0.0194 H              1 S1                 0.0000
     24 ****        -0.9982   1.3504  -0.1651 H              1 S1                 0.0000
     25 ****         1.4369   2.5247  -1.0947 H              1 S1                 0.0000
     26 ****         2.9907   2.4960  -0.2767 H              1 S1                 0.0000
     27 ****         3.2300   2.8153  -2.4935 H              1 S1                 0.0000
     28 ****         2.6098   0.3834   2.7248 H              1 S1                 0.0000
     29 ****         2.5470  -1.9692   0.6929 H              1 S1                 0.0000
     30 ****        -3.4026   1.6002  -0.0451 LP             1 S1                 0.0000
     31 ****         0.2542   0.7524  -1.2179 LP             1 S1                 0.0000
     32 ****         1.1512  -0.3631  -2.0039 LP             1 S1                 0.0000
     33 ****         2.5077   1.4600  -2.9077 LP             1 S1                 0.0000
     34 ****         3.9274   1.4407  -2.1010 LP             1 S1                 0.0000
     35 ****         3.3176   1.4192   1.7466 LP             1 S1                 0.0000
     36 ****         3.5442  -0.1885   1.5713 LP             1 S1                 0.0000
     37 ****         1.3530  -2.8223   1.3077 LP             1 S1                 0.0000
     38 ****         2.2768  -1.8680   2.2576 LP             1 S1                 0.0000
     39 ****        -0.5103  -3.2026  -0.2663 LP             1 S1                 0.0000
     40 ****        -2.1068  -3.8710  -0.1997 LP             1 S1                 0.0000
     41 ****        -4.0025  -2.4662  -0.1239 LP             1 S1                 0.0000
@<TRIPOS>BOND
    1    1    2 1     
    2    1   22 1     
    3    1   23 1     
    4    2   17 2     
    5    2    3 1     
    6    3    4 2     
    7    4    5 1     
    8    4   24 1     
    9    5    6 1     
   10    5   15 am    
   11    6   18 1     
   12    6   13 1     
   13    6    7 1     
   14    7    8 1     
   15    8   19 1     
   16    8    9 1     
   17    8   11 1     
   18    9   10 1     
   19    9   25 1     
   20    9   26 1     
   21   10   27 1     
   22   11   20 1     
   23   11   12 1     
   24   11   13 1     
   25   12   28 1     
   26   13   21 1     
   27   13   14 1     
   28   14   29 1     
   29   15   16 2     
   30   15   17 1     
   31    3   30 1     
   32    7   31 1     
   33    7   32 1     
   34   10   33 1     
   35   10   34 1     
   36   12   35 1     
   37   12   36 1     
   38   14   37 1     
   39   14   38 1     
   40   16   39 1     
   41   16   40 1     
   42   17   41 1     
@<TRIPOS>SUBSTRUCTURE
      1 S1             1
@<TRIPOS>SET
LONE_PAIRS      STATIC     ATOMS    <user>   **** ""
12 30 31 32 33 34 35 36 37 38 39 40 41
DONOR_HYDROGENS      STATIC     ATOMS    <user>   **** ""
5 22 23 27 28 29
ATOM$BLUE        STATIC     ATOMS    COLORGROUP SYSTEM
12 30 31 32 33 34 35 36 37 38 39 40 41
ATOM$RED        STATIC     ATOMS    COLORGROUP SYSTEM
5 22 23 27 28 29
