AV-unprocessed.smi:970|AV-procd|sdf|4294|dock6
  -GOLD-   22720 2203D 1   1.00000     0.00000
 Structure written by MMmdl.
 31 31  0  0  0  0  0  0  0  0  1 V2000
  148.9861  140.3580  154.4822 C   0  0  0  0  0  0  0  0  0  0  0  0
  149.6466  140.1018  155.7526 N   0  0  0  0  0  0  0  0  0  0  0  0
  150.9726  139.9711  155.9013 C   0  0  0  0  0  0  0  0  0  0  0  0
  151.7661  140.0497  154.9618 O   0  0  0  0  0  0  0  0  0  0  0  0
  151.4733  139.6933  157.3284 C   0  0  1  0  0  0  0  0  0  0  0  0
  152.4242  138.4859  157.2748 C   0  0  0  0  0  0  0  0  0  0  0  0
  152.2269  140.8353  157.8425 N   0  0  0  0  0  0  0  0  0  0  0  0
  151.6882  141.9469  158.3705 C   0  0  0  0  0  0  0  0  0  0  0  0
  150.4733  142.1168  158.4813 O   0  0  0  0  0  0  0  0  0  0  0  0
  152.6780  143.0227  158.8430 C   0  0  1  0  0  0  0  0  0  0  0  0
  152.3723  144.4123  158.2476 C   0  0  0  0  0  0  0  0  0  0  0  0
  152.7369  143.0442  160.2996 N   0  0  0  0  0  0  0  0  0  0  0  0
  152.3838  144.0042  161.1576 C   0  0  0  0  0  0  0  0  0  0  0  0
  152.6217  143.7070  162.4273 N   0  0  0  0  0  0  0  0  0  0  0  0
  153.1718  142.4665  162.2715 C   0  0  0  0  0  0  0  0  0  0  0  0
  153.2745  142.0265  161.0178 N   0  0  0  0  0  0  0  0  0  0  0  0
  147.9165  140.4952  154.6400 H   0  0  0  0  0  0  0  0  0  0  0  0
  149.1256  139.5198  153.7985 H   0  0  0  0  0  0  0  0  0  0  0  0
  149.3798  141.2605  154.0127 H   0  0  0  0  0  0  0  0  0  0  0  0
  149.0608  140.0248  156.5715 H   0  0  0  0  0  0  0  0  0  0  0  0
  150.6335  139.4700  157.9895 H   0  0  0  0  0  0  0  0  0  0  0  0
  151.9160  137.5969  156.8987 H   0  0  0  0  0  0  0  0  0  0  0  0
  152.8031  138.2454  158.2686 H   0  0  0  0  0  0  0  0  0  0  0  0
  153.2855  138.6741  156.6317 H   0  0  0  0  0  0  0  0  0  0  0  0
  153.2328  140.7796  157.7794 H   0  0  0  0  0  0  0  0  0  0  0  0
  153.6690  142.7337  158.4882 H   0  0  0  0  0  0  0  0  0  0  0  0
  152.3934  144.3847  157.1576 H   0  0  0  0  0  0  0  0  0  0  0  0
  153.1131  145.1446  158.5695 H   0  0  0  0  0  0  0  0  0  0  0  0
  151.3911  144.7818  158.5487 H   0  0  0  0  0  0  0  0  0  0  0  0
  151.9479  144.9422  160.8463 H   0  0  0  0  0  0  0  0  0  0  0  0
  153.5134  141.8726  163.1065 H   0  0  0  0  0  0  0  0  0  0  0  0
  1  2  1  0  0  0  0
  1 17  1  0  0  0  0
  1 18  1  0  0  0  0
  1 19  1  0  0  0  0
  2  3  1  0  0  0  0
  2 20  1  0  0  0  0
  3  4  2  0  0  0  0
  3  5  1  0  0  0  0
  5  6  1  0  0  0  0
  5  7  1  0  0  0  0
  5 21  1  0  0  0  0
  6 22  1  0  0  0  0
  6 23  1  0  0  0  0
  6 24  1  0  0  0  0
  7  8  1  0  0  0  0
  7 25  1  0  0  0  0
  8  9  2  0  0  0  0
  8 10  1  0  0  0  0
 10 11  1  0  0  0  0
 10 12  1  0  0  0  0
 10 26  1  0  0  0  0
 11 27  1  0  0  0  0
 11 28  1  0  0  0  0
 11 29  1  0  0  0  0
 12 16  1  0  0  0  0
 12 13  1  0  0  0  0
 13 14  2  0  0  0  0
 13 30  1  0  0  0  0
 14 15  1  0  0  0  0
 15 16  2  0  0  0  0
 15 31  1  0  0  0  0
M  END
> <s_m_source_file>
AV-unprocessed.smi

> <i_m_source_file_index>
970

> <i_lp_mmshare_version>
43012

> <i_f3d_flags>
0

> <s_epik_input>
W0NIM11bTkhdQyg9TylbQ0BIXShbQ0gzXSlbTkhdQyg9TylbQ0BIXShbQ0gzXSluMVtjSF1uW2NIXW4x

> <s_epik_cmdline>
J2VwaWtfcHl0aG9uJywgJy1waCcsICc3LjAnLCAnLXRuJywgJzgnLCAnLW1hJywgJzIwMCcsICctbWV0YWxfYmluZGluZycsICctaW1hZScsICc8aW5maWxlLm1hZT4nLCAnLW9tYWUnLCAnPG91dGZpbGUubWFlPic=

> <r_lp_tautomer_probability>
1

> <r_epik_Ionization_Penalty>
1.07271e-05

> <r_epik_Ionization_Penalty_Charging>
0

> <r_epik_Ionization_Penalty_Neutral>
1.07271e-05

> <r_epik_State_Penalty>
-0

> <r_epik_Charging_Adjusted_Penalty>
0

> <i_epik_Tot_Q>
0

> <i_epik_Tot_abs_Q>
0

> <r_epik_Metal_State_Penalty>
-0

> <b_epik_Metal_Only>
0

> <s_lp_Force_Field>
OPLS_2005

> <r_lp_Energy>
8.70478

> <b_lp_Chiralities_Consistent>
1

> <s_lp_Variant>
AV-unprocessed.smi:970-4

> <Gold.Version>
5.8.1

> <Gold.Id.Protein>
6NUR|6NUR_protein|mol2

> <Gold.PLP.Fitness>
35.0728

> <Gold.PLP.PLP>
-33.8258

> <Gold.PLP.part.hbond>
-1.0000

> <Gold.PLP.part.metal>
0.0000

> <Gold.PLP.part.buried>
-6.1748

> <Gold.PLP.part.nonpolar>
-27.9155

> <Gold.PLP.part.repulsive>
0.4526

> <Gold.PLP.ligand.clash>
0.0000

> <Gold.PLP.ligand.torsion>
0.8475

> <Gold.PLP.Chemscore.Hbond>
0.9440

> <Gold.PLP.Chemscore.CHOScore>
0.0000

> <Gold.PLP.Chemscore.Metal>
0.0000

> <Gold.Chemscore.Hbonds>
donor molecule, donor type, donor heavy atom, donor atom, acceptor molecule, acceptor atom, score
      P1  H  7989  7998       L1     4  0.96

> <Gold.PLP.Chemscore.Internal.Correction>
0.1101

> <Gold.Rescore>
     Score         DG    S(hbond)    S(metal)    S(lipo)     H(rot)  DE(clash)    DE(int)     intcor
      6.39      -7.10       0.93        0.00      43.85       2.59       0.01       0.69       ----

> <Gold.Chemscore.Fitness>
6.3945

> <Gold.Chemscore.DG>
-7.0960

> <Gold.Chemscore.ZeroCoef>
-5.4800

> <Gold.Chemscore.Hbond>
0.9294

> <Gold.Chemscore.Metal>
0.0000

> <Gold.Chemscore.Lipo>
43.8468

> <Gold.Chemscore.Internal_Hbond>
0.0000

> <Gold.Chemscore.DEClash>
0.0082

> <Gold.Chemscore.DEInternal>
0.6932

> <Gold.Chemscore.Rot>
2.5852

> <Gold.Chemscore.Internal.Correction>
   9.000000E+99

> <Gold.Chemscore.Hbonds>
donor molecule, donor type, donor heavy atom, donor atom, acceptor molecule, acceptor atom, score
      P1  H  7989  7998       L1     4  0.92

> <Gold.Chemscore.Hbond.Weighted>
-3.1041

> <Gold.Chemscore.Metal.Weighted>
-0.0000

> <Gold.Chemscore.Lipo.Weighted>
-5.1301

> <Gold.Chemscore.Internal_Hbond.Weighted>
0.0000

> <Gold.Chemscore.DEClash.Weighted>
0.0082

> <Gold.Chemscore.DEInternal.Weighted>
0.6932

> <Gold.Chemscore.Rot.Weighted>
6.6182

> <Gold.Chemscore.Internal.Correction.Weighted>
   9.000000E+99

> <Gold.Protein.RotatedTorsions>
[ 6907 6896 6895 6894 ] final    5.89 input  -60.11 | X-H torsion
[ 7974 7965 7964 7962 ] final  -52.17 input  175.53 | X-H torsion
[ 8008 7997 7996 7995 ] final -132.79 input   59.86 | X-H torsion
[ 10167 10162 10161 10158 ] final    1.37 input  -65.29 | X-H torsion
[ 10718 10713 10712 10709 ] final   13.95 input   66.30 | X-H torsion
[ 10763 10752 10751 10750 ] final  -83.81 input  -60.55 | X-H torsion
[ 11005 11000 10999 10996 ] final -161.88 input  -57.11 | X-H torsion

> <Gold.Protein.ActiveResidues>
 VAL166  LYS551  ARG553  GLY616  TRP617  ASP618  TYR619  PRO620  LYS621  CYS622 
 ASP623  PHE694  ASN695  SER759  ASP760  ASP761  ALA762  ILE779  LEU786  VAL792 
 PHE793  MET794  SER795  GLU796  ALA797  LYS798  CYS799  TRP800  GLU811  SER814 

> <Gold.Protein.RotatedAtoms>
  151.6648  135.0984  160.0186 H   0  0  0  0  0  0  0  0  0  0  0  0  # atno 6907 bound_to 6896
  152.3926  133.6696  159.6258 H   0  0  0  0  0  0  0  0  0  0  0  0  # atno 6908 bound_to 6896
  150.7838  133.8846  159.3337 H   0  0  0  0  0  0  0  0  0  0  0  0  # atno 6909 bound_to 6896
  145.9110  140.7915  142.9695 H   0  0  0  0  0  0  0  0  0  0  0  0  # atno 7974 bound_to 7965
  155.3348  140.0469  157.3043 H   0  0  0  0  0  0  0  0  0  0  0  0  # atno 8008 bound_to 7997
  154.5309  140.2256  155.8772 H   0  0  0  0  0  0  0  0  0  0  0  0  # atno 8009 bound_to 7997
  156.1787  140.3079  155.9114 H   0  0  0  0  0  0  0  0  0  0  0  0  # atno 8010 bound_to 7997
  140.6686  143.7112  150.7876 H   0  0  0  0  0  0  0  0  0  0  0  0  # atno 10167 bound_to 10162
  157.0320  130.6197  149.5737 H   0  0  0  0  0  0  0  0  0  0  0  0  # atno 10718 bound_to 10713
  154.5921  135.5543  153.7289 H   0  0  0  0  0  0  0  0  0  0  0  0  # atno 10763 bound_to 10752
  153.0121  135.6346  154.1834 H   0  0  0  0  0  0  0  0  0  0  0  0  # atno 10764 bound_to 10752
  154.1775  135.2889  155.3042 H   0  0  0  0  0  0  0  0  0  0  0  0  # atno 10765 bound_to 10752
  140.6155  134.4805  157.5219 H   0  0  0  0  0  0  0  0  0  0  0  0  # atno 11005 bound_to 11000
  144.6743  140.1825  143.7404 LP  0  0  0  0  0  0  0  0  0  0  0  0  # atno 17320 bound_to 7965
  145.8672  139.2253  143.1682 LP  0  0  0  0  0  0  0  0  0  0  0  0  # atno 17321 bound_to 7965
  140.0793  143.4984  152.2538 LP  0  0  0  0  0  0  0  0  0  0  0  0  # atno 17342 bound_to 10162
  139.5944  144.7562  151.3321 LP  0  0  0  0  0  0  0  0  0  0  0  0  # atno 17343 bound_to 10162
  156.0066  130.5153  150.7851 LP  0  0  0  0  0  0  0  0  0  0  0  0  # atno 17370 bound_to 10713
  157.5170  131.0929  151.0127 LP  0  0  0  0  0  0  0  0  0  0  0  0  # atno 17371 bound_to 10713
  139.9175  134.8217  156.1319 LP  0  0  0  0  0  0  0  0  0  0  0  0  # atno 17394 bound_to 11000
  141.0779  133.6767  156.2274 LP  0  0  0  0  0  0  0  0  0  0  0  0  # atno 17395 bound_to 11000

$$$$
