AV-unprocessed.smi:243|AV-procd|sdf|1853|dock1
  -GOLD-   2262020473D 1   1.00000     0.00000
 Structure written by MMmdl.
 58 61  0  0  0  0  0  0  0  0  2 V2000
  151.1369  144.3348  157.4879 C   0  0  0  0  0  0  0  0  0  0  0  0
  150.5872  142.9092  157.6400 C   0  0  0  0  0  0  0  0  0  0  0  0
  149.4092  142.6565  156.7715 N   0  3  1  0  0  0  0  0  0  0  0  0
  149.7289  141.8314  155.5776 C   0  0  0  0  0  0  0  0  0  0  0  0
  148.5128  141.6811  154.6422 C   0  0  0  0  0  0  0  0  0  0  0  0
  147.2108  141.2442  155.3473 C   0  0  1  0  0  0  0  0  0  0  0  0
  147.0663  139.7820  155.4750 N   0  0  0  0  0  0  0  0  0  0  0  0
  147.1729  139.0550  156.7368 C   0  0  0  0  0  0  0  0  0  0  0  0
  146.5608  139.1014  154.4143 C   0  0  0  0  0  0  0  0  0  0  0  0
  146.7879  139.5914  153.1676 N   0  0  0  0  0  0  0  0  0  0  0  0
  146.3127  138.9536  152.0942 C   0  0  0  0  0  0  0  0  0  0  0  0
  145.5949  137.8306  152.0416 N   0  0  0  0  0  0  0  0  0  0  0  0
  145.3572  137.3351  153.2898 C   0  0  0  0  0  0  0  0  0  0  0  0
  145.8034  137.8984  154.5194 C   0  0  0  0  0  0  0  0  0  0  0  0
  145.3630  137.1159  155.5810 N   0  0  0  0  0  0  0  0  0  0  0  0
  144.7036  136.1444  155.0121 C   0  0  0  0  0  0  0  0  0  0  0  0
  144.6393  136.2042  153.6383 N   0  0  0  0  0  0  0  0  0  0  0  0
  143.9669  135.2621  152.7561 C   0  0  0  0  0  0  0  0  0  0  0  0
  144.8551  134.7623  151.5919 C   0  0  2  0  0  0  0  0  0  0  0  0
  144.8353  135.7246  150.5513 O   0  0  0  0  0  0  0  0  0  0  0  0
  144.3868  133.4304  151.0189 C   0  0  0  0  0  0  0  0  0  0  0  0
  145.6792  132.8134  150.5014 C   0  0  0  0  0  0  0  0  0  0  0  0
  146.6194  133.1665  151.5015 O   0  0  0  0  0  0  0  0  0  0  0  0
  146.3250  134.4799  151.9689 C   0  0  0  0  0  0  0  0  0  0  0  0
  146.9938  142.0401  156.6584 C   0  0  1  0  0  0  0  0  0  0  0  0
  145.7514  141.5980  157.4508 C   0  0  0  0  0  0  0  0  0  0  0  0
  148.2622  142.0980  157.5317 C   0  0  0  0  0  0  0  0  0  0  0  0
  151.9390  144.5136  158.2043 H   0  0  0  0  0  0  0  0  0  0  0  0
  150.3607  145.0784  157.6717 H   0  0  0  0  0  0  0  0  0  0  0  0
  151.5477  144.5134  156.4948 H   0  0  0  0  0  0  0  0  0  0  0  0
  151.3661  142.1721  157.4397 H   0  0  0  0  0  0  0  0  0  0  0  0
  150.3001  142.7772  158.6839 H   0  0  0  0  0  0  0  0  0  0  0  0
  150.5353  142.2959  155.0113 H   0  0  0  0  0  0  0  0  0  0  0  0
  150.1109  140.8634  155.8942 H   0  0  0  0  0  0  0  0  0  0  0  0
  148.3318  142.6526  154.1805 H   0  0  0  0  0  0  0  0  0  0  0  0
  148.7459  141.0046  153.8188 H   0  0  0  0  0  0  0  0  0  0  0  0
  146.4089  141.5816  154.6898 H   0  0  0  0  0  0  0  0  0  0  0  0
  147.2581  137.9814  156.5632 H   0  0  0  0  0  0  0  0  0  0  0  0
  146.2949  139.2227  157.3595 H   0  0  0  0  0  0  0  0  0  0  0  0
  148.0571  139.3452  157.2958 H   0  0  0  0  0  0  0  0  0  0  0  0
  146.5390  139.4087  151.1411 H   0  0  0  0  0  0  0  0  0  0  0  0
  144.2354  135.3559  155.5833 H   0  0  0  0  0  0  0  0  0  0  0  0
  143.6250  134.4174  153.3554 H   0  0  0  0  0  0  0  0  0  0  0  0
  143.0678  135.7417  152.3663 H   0  0  0  0  0  0  0  0  0  0  0  0
  144.3463  136.4766  150.8487 H   0  0  0  0  0  0  0  0  0  0  0  0
  143.9853  132.7973  151.8114 H   0  0  0  0  0  0  0  0  0  0  0  0
  143.6185  133.5271  150.2506 H   0  0  0  0  0  0  0  0  0  0  0  0
  145.6119  131.7327  150.3753 H   0  0  0  0  0  0  0  0  0  0  0  0
  145.9723  133.2562  149.5483 H   0  0  0  0  0  0  0  0  0  0  0  0
  147.0123  135.2004  151.5224 H   0  0  0  0  0  0  0  0  0  0  0  0
  146.4900  134.4981  153.0456 H   0  0  0  0  0  0  0  0  0  0  0  0
  146.7977  143.0693  156.3527 H   0  0  0  0  0  0  0  0  0  0  0  0
  145.8750  140.6022  157.8755 H   0  0  0  0  0  0  0  0  0  0  0  0
  144.8654  141.5818  156.8151 H   0  0  0  0  0  0  0  0  0  0  0  0
  145.5508  142.2815  158.2765 H   0  0  0  0  0  0  0  0  0  0  0  0
  148.5227  141.1163  157.9259 H   0  0  0  0  0  0  0  0  0  0  0  0
  148.0621  142.7341  158.3950 H   0  0  0  0  0  0  0  0  0  0  0  0
  149.1060  143.5588  156.4337 H   0  0  0  0  0  0  0  0  0  0  0  0
  1  2  1  0  0  0  0
  1 28  1  0  0  0  0
  1 29  1  0  0  0  0
  1 30  1  0  0  0  0
  2  3  1  0  0  0  0
  2 31  1  0  0  0  0
  2 32  1  0  0  0  0
  3 27  1  0  0  0  0
  3  4  1  0  0  0  0
  3 58  1  0  0  0  0
  4  5  1  0  0  0  0
  4 33  1  0  0  0  0
  4 34  1  0  0  0  0
  5  6  1  0  0  0  0
  5 35  1  0  0  0  0
  5 36  1  0  0  0  0
  6  7  1  0  0  0  0
  6 25  1  0  0  0  0
  6 37  1  0  0  0  0
  7  8  1  0  0  0  0
  7  9  1  0  0  0  0
  8 38  1  0  0  0  0
  8 39  1  0  0  0  0
  8 40  1  0  0  0  0
  9 14  1  0  0  0  0
  9 10  2  0  0  0  0
 10 11  1  0  0  0  0
 11 12  2  0  0  0  0
 11 41  1  0  0  0  0
 12 13  1  0  0  0  0
 13 17  1  0  0  0  0
 13 14  2  0  0  0  0
 14 15  1  0  0  0  0
 15 16  2  0  0  0  0
 16 17  1  0  0  0  0
 16 42  1  0  0  0  0
 17 18  1  0  0  0  0
 18 19  1  0  0  0  0
 18 43  1  0  0  0  0
 18 44  1  0  0  0  0
 19 24  1  0  0  0  0
 19 20  1  0  0  0  0
 19 21  1  0  0  0  0
 20 45  1  0  0  0  0
 21 22  1  0  0  0  0
 21 46  1  0  0  0  0
 21 47  1  0  0  0  0
 22 23  1  0  0  0  0
 22 48  1  0  0  0  0
 22 49  1  0  0  0  0
 23 24  1  0  0  0  0
 24 50  1  0  0  0  0
 24 51  1  0  0  0  0
 25 26  1  0  0  0  0
 25 27  1  0  0  0  0
 25 52  1  0  0  0  0
 26 53  1  0  0  0  0
 26 54  1  0  0  0  0
 26 55  1  0  0  0  0
 27 56  1  0  0  0  0
 27 57  1  0  0  0  0
M  CHG  1   3   1
M  END
> <s_m_source_file>
AV-unprocessed.smi

> <i_m_source_file_index>
243

> <i_lp_mmshare_version>
43012

> <i_f3d_flags>
0

> <s_epik_input>
W0NIM11bQ0gyXU4xW0NIMl1bQ0gyXVtDQEhdKFtDQEBIXShbQ0gzXSlbQ0gyXTEpTihbQ0gzXSljKG5bY0hdbjIpYyhjMjMpbltjSF1uM1tDSDJdW0NAQF00KFtPSF0pW0NIMl1bQ0gyXU9bQ0gyXTQ=

> <s_epik_cmdline>
J2VwaWtfcHl0aG9uJywgJy1waCcsICc3LjAnLCAnLXRuJywgJzgnLCAnLW1hJywgJzIwMCcsICctbWV0YWxfYmluZGluZycsICctaW1hZScsICc8aW5maWxlLm1hZT4nLCAnLW9tYWUnLCAnPG91dGZpbGUubWFlPic=

> <r_lp_tautomer_probability>
1

> <r_epik_Ionization_Penalty>
0.00253099

> <r_epik_Ionization_Penalty_Charging>
0.00137877

> <r_epik_Ionization_Penalty_Neutral>
0.00115221

> <r_epik_State_Penalty>
-0

> <r_epik_Charging_Adjusted_Penalty>
0.00137877

> <i_epik_Tot_Q>
1

> <i_epik_Tot_abs_Q>
1

> <r_epik_Metal_State_Penalty>
-0

> <b_epik_Metal_Only>
0

> <s_lp_Force_Field>
OPLS_2005

> <r_lp_Energy>
51.4738

> <b_lp_Chiralities_Consistent>
1

> <s_lp_Variant>
AV-unprocessed.smi:243-6

> <Gold.Version>
5.8.1

> <Gold.Id.Protein>
6NUR|6NUR_protein|mol2

> <Gold.PLP.Fitness>
45.3553

> <Gold.PLP.PLP>
-37.9573

> <Gold.PLP.part.hbond>
-3.0000

> <Gold.PLP.part.metal>
0.0000

> <Gold.PLP.part.buried>
-5.6445

> <Gold.PLP.part.nonpolar>
-32.6716

> <Gold.PLP.part.repulsive>
4.1286

> <Gold.PLP.ligand.clash>
0.0128

> <Gold.PLP.ligand.torsion>
1.9056

> <Gold.PLP.Chemscore.Hbond>
2.9913

> <Gold.PLP.Chemscore.CHOScore>
0.6350

> <Gold.PLP.Chemscore.Metal>
0.0000

> <Gold.Chemscore.Hbonds>
donor molecule, donor type, donor heavy atom, donor atom, acceptor molecule, acceptor atom, score
      L1  H     3    58       P1  8028  1.40
      L1  H    20    45       P1 10171  0.06

> <Gold.PLP.Chemscore.Internal.Correction>
0.3434

> <Gold.Rescore>
     Score         DG    S(hbond)    S(metal)    S(lipo)     H(rot)  DE(clash)    DE(int)     intcor
     10.52     -14.57       1.91        0.00      72.16       2.24       0.52       3.53       ----

> <Gold.Chemscore.Fitness>
10.5171

> <Gold.Chemscore.DG>
-14.5656

> <Gold.Chemscore.ZeroCoef>
-5.4800

> <Gold.Chemscore.Hbond>
1.9079

> <Gold.Chemscore.Metal>
0.0000

> <Gold.Chemscore.Lipo>
72.1572

> <Gold.Chemscore.Internal_Hbond>
0.0000

> <Gold.Chemscore.DEClash>
0.5154

> <Gold.Chemscore.DEInternal>
3.5331

> <Gold.Chemscore.Rot>
2.2379

> <Gold.Chemscore.Internal.Correction>
   9.000000E+99

> <Gold.Chemscore.Hbonds>
donor molecule, donor type, donor heavy atom, donor atom, acceptor molecule, acceptor atom, score
      L1  H     3    58       P1  8028  0.68
      L1  H    20    45       P1 10171  0.08

> <Gold.Chemscore.Hbond.Weighted>
-6.3724

> <Gold.Chemscore.Metal.Weighted>
-0.0000

> <Gold.Chemscore.Lipo.Weighted>
-8.4424

> <Gold.Chemscore.Internal_Hbond.Weighted>
0.0000

> <Gold.Chemscore.DEClash.Weighted>
0.5154

> <Gold.Chemscore.DEInternal.Weighted>
3.5331

> <Gold.Chemscore.Rot.Weighted>
5.7291

> <Gold.Chemscore.Internal.Correction.Weighted>
   9.000000E+99

> <Gold.Protein.RotatedTorsions>
[ 6907 6896 6895 6894 ] final -114.79 input  -60.11 | X-H torsion
[ 7974 7965 7964 7962 ] final  139.59 input  175.53 | X-H torsion
[ 8008 7997 7996 7995 ] final -130.68 input   59.86 | X-H torsion
[ 10167 10162 10161 10158 ] final   86.66 input  -65.29 | X-H torsion
[ 10718 10713 10712 10709 ] final   17.42 input   66.30 | X-H torsion
[ 10763 10752 10751 10750 ] final -126.62 input  -60.55 | X-H torsion
[ 11005 11000 10999 10996 ] final  -83.67 input  -57.11 | X-H torsion

> <Gold.Protein.ActiveResidues>
 VAL166  LYS551  ARG553  GLY616  TRP617  ASP618  TYR619  PRO620  LYS621  CYS622 
 ASP623  PHE694  ASN695  SER759  ASP760  ASP761  ALA762  ILE779  LEU786  VAL792 
 PHE793  MET794  SER795  GLU796  ALA797  LYS798  CYS799  TRP800  GLU811  SER814 

> <Gold.Protein.RotatedAtoms>
  150.7929  133.8751  159.3269 H   0  0  0  0  0  0  0  0  0  0  0  0  # atno 6907 bound_to 6896
  151.6584  135.0991  160.0184 H   0  0  0  0  0  0  0  0  0  0  0  0  # atno 6908 bound_to 6896
  152.4006  133.6772  159.6348 H   0  0  0  0  0  0  0  0  0  0  0  0  # atno 6909 bound_to 6896
  144.9265  139.5101  143.5638 H   0  0  0  0  0  0  0  0  0  0  0  0  # atno 7974 bound_to 7965
  155.2997  140.0452  157.3028 H   0  0  0  0  0  0  0  0  0  0  0  0  # atno 8008 bound_to 7997
  154.5493  140.2312  155.8478 H   0  0  0  0  0  0  0  0  0  0  0  0  # atno 8009 bound_to 7997
  156.1953  140.3040  155.9421 H   0  0  0  0  0  0  0  0  0  0  0  0  # atno 8010 bound_to 7997
  139.8852  144.6417  150.8799 H   0  0  0  0  0  0  0  0  0  0  0  0  # atno 10167 bound_to 10162
  157.0818  130.6391  149.5828 H   0  0  0  0  0  0  0  0  0  0  0  0  # atno 10718 bound_to 10713
  154.8747  135.3989  154.3461 H   0  0  0  0  0  0  0  0  0  0  0  0  # atno 10763 bound_to 10752
  153.4253  135.7024  153.6272 H   0  0  0  0  0  0  0  0  0  0  0  0  # atno 10764 bound_to 10752
  153.4917  135.3747  155.2465 H   0  0  0  0  0  0  0  0  0  0  0  0  # atno 10765 bound_to 10752
  141.1656  133.7306  156.8755 H   0  0  0  0  0  0  0  0  0  0  0  0  # atno 11005 bound_to 11000
  146.3228  139.8183  142.8932 LP  0  0  0  0  0  0  0  0  0  0  0  0  # atno 17320 bound_to 7965
  145.3211  141.0244  143.3500 LP  0  0  0  0  0  0  0  0  0  0  0  0  # atno 17321 bound_to 7965
  140.7737  143.3553  151.1933 LP  0  0  0  0  0  0  0  0  0  0  0  0  # atno 17342 bound_to 10162
  139.7159  143.9301  152.2966 LP  0  0  0  0  0  0  0  0  0  0  0  0  # atno 17343 bound_to 10162
  155.9921  130.4978  150.7328 LP  0  0  0  0  0  0  0  0  0  0  0  0  # atno 17370 bound_to 10713
  157.4793  131.0901  151.0554 LP  0  0  0  0  0  0  0  0  0  0  0  0  # atno 17371 bound_to 10713
  140.1751  134.9072  157.2881 LP  0  0  0  0  0  0  0  0  0  0  0  0  # atno 17394 bound_to 11000
  140.2457  134.3742  155.7462 LP  0  0  0  0  0  0  0  0  0  0  0  0  # atno 17395 bound_to 11000

$$$$
