AV-unprocessed.smi:847|AV-procd|sdf|3938|dock5
  -GOLD-   22720 1403D 1   1.00000     0.00000
 Structure written by MMmdl.
 46 47  0  0  0  0  0  0  0  0  1 V2000
  152.1956  144.7359  158.6092 C   0  0  0  0  0  0  0  0  0  0  0  0
  151.2569  143.6844  158.4679 O   0  0  0  0  0  0  0  0  0  0  0  0
  151.1666  143.2122  157.1339 C   0  0  0  0  0  0  0  0  0  0  0  0
  150.6134  141.7841  157.1418 C   0  0  0  0  0  0  0  0  0  0  0  0
  150.6401  141.2759  155.8114 O   0  0  0  0  0  0  0  0  0  0  0  0
  150.7354  139.9118  155.6286 C   0  0  0  0  0  0  0  0  0  0  0  0
  150.8015  139.0836  156.7672 C   0  0  0  0  0  0  0  0  0  0  0  0
  150.8926  137.6904  156.5884 C   0  0  0  0  0  0  0  0  0  0  0  0
  150.9169  137.1709  155.2774 C   0  0  0  0  0  0  0  0  0  0  0  0
  150.9935  135.6749  155.0288 C   0  0  0  0  0  0  0  0  0  0  0  0
  149.7810  135.1579  154.4053 N   0  0  0  0  0  0  0  0  0  0  0  0
  148.9985  134.1923  154.9102 C   0  0  0  0  0  0  0  0  0  0  0  0
  149.2616  133.5773  155.9446 O   0  0  0  0  0  0  0  0  0  0  0  0
  147.7147  133.8731  154.1211 C   0  0  1  0  0  0  0  0  0  0  0  0
  148.0656  133.2655  152.7536 C   0  0  0  0  0  0  0  0  0  0  0  0
  146.8983  132.3534  152.4262 C   0  0  0  0  0  0  0  0  0  0  0  0
  146.3719  131.8911  153.7842 C   0  0  0  0  0  0  0  0  0  0  0  0
  146.8235  132.8851  154.7615 N   0  0  0  0  0  0  0  0  0  0  0  0
  146.4121  132.9009  156.0536 C   0  0  0  0  0  0  0  0  0  0  0  0
  145.5131  131.7653  156.5485 C   0  0  0  0  0  0  0  0  0  0  0  0
  146.7159  133.7925  156.8464 O   0  0  0  0  0  0  0  0  0  0  0  0
  150.8492  138.0811  154.2020 C   0  0  0  0  0  0  0  0  0  0  0  0
  150.7615  139.4183  154.3650 N   0  0  0  0  0  0  0  0  0  0  0  0
  147.1324  134.7848  153.9753 H   0  0  0  0  0  0  0  0  0  0  0  0
  152.2276  145.0614  159.6489 H   0  0  0  0  0  0  0  0  0  0  0  0
  151.9214  145.5951  157.9957 H   0  0  0  0  0  0  0  0  0  0  0  0
  153.1979  144.4101  158.3275 H   0  0  0  0  0  0  0  0  0  0  0  0
  150.4932  143.8595  156.5704 H   0  0  0  0  0  0  0  0  0  0  0  0
  152.1394  143.2412  156.6407 H   0  0  0  0  0  0  0  0  0  0  0  0
  151.1966  141.1579  157.8192 H   0  0  0  0  0  0  0  0  0  0  0  0
  149.5838  141.8016  157.5028 H   0  0  0  0  0  0  0  0  0  0  0  0
  150.7780  139.5090  157.7597 H   0  0  0  0  0  0  0  0  0  0  0  0
  150.9388  137.0348  157.4451 H   0  0  0  0  0  0  0  0  0  0  0  0
  151.8349  135.4567  154.3706 H   0  0  0  0  0  0  0  0  0  0  0  0
  151.2017  135.1605  155.9686 H   0  0  0  0  0  0  0  0  0  0  0  0
  149.4878  135.6021  153.5470 H   0  0  0  0  0  0  0  0  0  0  0  0
  148.2243  134.0260  151.9886 H   0  0  0  0  0  0  0  0  0  0  0  0
  148.9740  132.6625  152.8092 H   0  0  0  0  0  0  0  0  0  0  0  0
  146.1250  132.9306  151.9175 H   0  0  0  0  0  0  0  0  0  0  0  0
  147.1746  131.5242  151.7744 H   0  0  0  0  0  0  0  0  0  0  0  0
  145.2858  131.7915  153.7646 H   0  0  0  0  0  0  0  0  0  0  0  0
  146.7991  130.9203  154.0400 H   0  0  0  0  0  0  0  0  0  0  0  0
  145.9772  130.7952  156.3701 H   0  0  0  0  0  0  0  0  0  0  0  0
  144.5459  131.7909  156.0465 H   0  0  0  0  0  0  0  0  0  0  0  0
  145.3351  131.8565  157.6206 H   0  0  0  0  0  0  0  0  0  0  0  0
  150.8592  137.7288  153.1810 H   0  0  0  0  0  0  0  0  0  0  0  0
  1  2  1  0  0  0  0
  1 25  1  0  0  0  0
  1 26  1  0  0  0  0
  1 27  1  0  0  0  0
  2  3  1  0  0  0  0
  3  4  1  0  0  0  0
  3 28  1  0  0  0  0
  3 29  1  0  0  0  0
  4  5  1  0  0  0  0
  4 30  1  0  0  0  0
  4 31  1  0  0  0  0
  5  6  1  0  0  0  0
  6 23  1  0  0  0  0
  6  7  2  0  0  0  0
  7  8  1  0  0  0  0
  7 32  1  0  0  0  0
  8  9  2  0  0  0  0
  8 33  1  0  0  0  0
  9 10  1  0  0  0  0
  9 22  1  0  0  0  0
 10 11  1  0  0  0  0
 10 34  1  0  0  0  0
 10 35  1  0  0  0  0
 11 12  1  0  0  0  0
 11 36  1  0  0  0  0
 12 13  2  0  0  0  0
 12 14  1  0  0  0  0
 14 24  1  0  0  0  0
 14 18  1  0  0  0  0
 14 15  1  0  0  0  0
 15 16  1  0  0  0  0
 15 37  1  0  0  0  0
 15 38  1  0  0  0  0
 16 17  1  0  0  0  0
 16 39  1  0  0  0  0
 16 40  1  0  0  0  0
 17 18  1  0  0  0  0
 17 41  1  0  0  0  0
 17 42  1  0  0  0  0
 18 19  1  0  0  0  0
 19 20  1  0  0  0  0
 19 21  2  0  0  0  0
 20 43  1  0  0  0  0
 20 44  1  0  0  0  0
 20 45  1  0  0  0  0
 22 23  2  0  0  0  0
 22 46  1  0  0  0  0
M  END
> <s_m_source_file>
AV-unprocessed.smi

> <i_m_source_file_index>
847

> <i_lp_mmshare_version>
43012

> <i_f3d_flags>
0

> <s_epik_input>
W0NIM11PW0NIMl1bQ0gyXU9jMVtjSF1bY0hdYyhbY0hdbjEpW0NIMl1bTkhdQyg9TylbQ0BASF0yW0NIMl1bQ0gyXVtDSDJdTjJDKD1PKVtDSDNd

> <s_epik_cmdline>
J2VwaWtfcHl0aG9uJywgJy1waCcsICc3LjAnLCAnLXRuJywgJzgnLCAnLW1hJywgJzIwMCcsICctbWV0YWxfYmluZGluZycsICctaW1hZScsICc8aW5maWxlLm1hZT4nLCAnLW9tYWUnLCAnPG91dGZpbGUubWFlPic=

> <r_lp_tautomer_probability>
1

> <r_epik_Ionization_Penalty>
6.04138e-05

> <r_epik_Ionization_Penalty_Charging>
0

> <r_epik_Ionization_Penalty_Neutral>
6.04138e-05

> <r_epik_State_Penalty>
-0

> <r_epik_Charging_Adjusted_Penalty>
0

> <i_epik_Tot_Q>
0

> <i_epik_Tot_abs_Q>
0

> <r_epik_Metal_State_Penalty>
-0

> <b_epik_Metal_Only>
0

> <s_lp_Force_Field>
OPLS_2005

> <r_lp_Energy>
14.1261

> <b_lp_Chiralities_Consistent>
1

> <s_lp_Variant>
AV-unprocessed.smi:847-2

> <Gold.Version>
5.8.1

> <Gold.Id.Protein>
6NUR|6NUR_protein|mol2

> <Gold.PLP.Fitness>
38.9773

> <Gold.PLP.PLP>
-31.0296

> <Gold.PLP.part.hbond>
-2.3334

> <Gold.PLP.part.metal>
0.0000

> <Gold.PLP.part.buried>
-2.0845

> <Gold.PLP.part.nonpolar>
-26.2500

> <Gold.PLP.part.repulsive>
0.3387

> <Gold.PLP.ligand.clash>
0.6247

> <Gold.PLP.ligand.torsion>
0.3816

> <Gold.PLP.Chemscore.Hbond>
2.0000

> <Gold.PLP.Chemscore.CHOScore>
1.0805

> <Gold.PLP.Chemscore.Metal>
0.0000

> <Gold.Chemscore.Hbonds>
donor molecule, donor type, donor heavy atom, donor atom, acceptor molecule, acceptor atom, score
      L1  H    11    36       P1  7948  0.95
      P1  H  7989  7998       L1    23  1.00
      L1  C    22    46       P1  7948  0.18
      L1  C    22    46       P1  7949  0.90

> <Gold.PLP.Chemscore.Internal.Correction>
0.0941

> <Gold.Rescore>
     Score         DG    S(hbond)    S(metal)    S(lipo)     H(rot)  DE(clash)    DE(int)     intcor
      9.67     -13.77       1.73        0.00      71.86       2.31       0.05       4.05       ----

> <Gold.Chemscore.Fitness>
9.6701

> <Gold.Chemscore.DG>
-13.7727

> <Gold.Chemscore.ZeroCoef>
-5.4800

> <Gold.Chemscore.Hbond>
1.7332

> <Gold.Chemscore.Metal>
0.0000

> <Gold.Chemscore.Lipo>
71.8612

> <Gold.Chemscore.Internal_Hbond>
0.0000

> <Gold.Chemscore.DEClash>
0.0515

> <Gold.Chemscore.DEInternal>
4.0510

> <Gold.Chemscore.Rot>
2.3062

> <Gold.Chemscore.Internal.Correction>
   9.000000E+99

> <Gold.Chemscore.Hbonds>
donor molecule, donor type, donor heavy atom, donor atom, acceptor molecule, acceptor atom, score
      L1  H    11    36       P1  7948  0.22
      P1  H  7989  7998       L1    23  0.26

> <Gold.Chemscore.Hbond.Weighted>
-5.7888

> <Gold.Chemscore.Metal.Weighted>
-0.0000

> <Gold.Chemscore.Lipo.Weighted>
-8.4078

> <Gold.Chemscore.Internal_Hbond.Weighted>
0.0000

> <Gold.Chemscore.DEClash.Weighted>
0.0515

> <Gold.Chemscore.DEInternal.Weighted>
4.0510

> <Gold.Chemscore.Rot.Weighted>
5.9038

> <Gold.Chemscore.Internal.Correction.Weighted>
   9.000000E+99

> <Gold.Protein.RotatedTorsions>
[ 6907 6896 6895 6894 ] final   25.83 input  -60.11 | X-H torsion
[ 7974 7965 7964 7962 ] final  -29.43 input  175.53 | X-H torsion
[ 8008 7997 7996 7995 ] final -100.34 input   59.86 | X-H torsion
[ 10167 10162 10161 10158 ] final   51.48 input  -65.29 | X-H torsion
[ 10718 10713 10712 10709 ] final  139.34 input   66.30 | X-H torsion
[ 10763 10752 10751 10750 ] final   41.24 input  -60.55 | X-H torsion
[ 11005 11000 10999 10996 ] final -126.35 input  -57.11 | X-H torsion

> <Gold.Protein.ActiveResidues>
 VAL166  LYS551  ARG553  GLY616  TRP617  ASP618  TYR619  PRO620  LYS621  CYS622 
 ASP623  PHE694  ASN695  SER759  ASP760  ASP761  ALA762  ILE779  LEU786  VAL792 
 PHE793  MET794  SER795  GLU796  ALA797  LYS798  CYS799  TRP800  GLU811  SER814 

> <Gold.Protein.RotatedAtoms>
  151.9784  135.0041  160.0556 H   0  0  0  0  0  0  0  0  0  0  0  0  # atno 6907 bound_to 6896
  152.1718  133.4644  159.4921 H   0  0  0  0  0  0  0  0  0  0  0  0  # atno 6908 bound_to 6896
  150.6903  134.1860  159.4310 H   0  0  0  0  0  0  0  0  0  0  0  0  # atno 6909 bound_to 6896
  146.1217  140.5411  142.8732 H   0  0  0  0  0  0  0  0  0  0  0  0  # atno 7974 bound_to 7965
  154.8272  140.0441  157.1452 H   0  0  0  0  0  0  0  0  0  0  0  0  # atno 8008 bound_to 7997
  154.9193  140.3024  155.5204 H   0  0  0  0  0  0  0  0  0  0  0  0  # atno 8009 bound_to 7997
  156.2984  140.2343  156.4241 H   0  0  0  0  0  0  0  0  0  0  0  0  # atno 8010 bound_to 7997
  140.2615  144.3367  150.6316 H   0  0  0  0  0  0  0  0  0  0  0  0  # atno 10167 bound_to 10162
  157.4154  131.1033  151.0410 H   0  0  0  0  0  0  0  0  0  0  0  0  # atno 10718 bound_to 10713
  152.9913  135.6167  154.2756 H   0  0  0  0  0  0  0  0  0  0  0  0  # atno 10763 bound_to 10752
  154.2487  135.2786  155.2827 H   0  0  0  0  0  0  0  0  0  0  0  0  # atno 10764 bound_to 10752
  154.5307  135.5789  153.6814 H   0  0  0  0  0  0  0  0  0  0  0  0  # atno 10765 bound_to 10752
  140.9688  134.0834  157.3891 H   0  0  0  0  0  0  0  0  0  0  0  0  # atno 11005 bound_to 11000
  144.7603  140.5406  143.6740 LP  0  0  0  0  0  0  0  0  0  0  0  0  # atno 17320 bound_to 7965
  145.5452  139.1476  143.3424 LP  0  0  0  0  0  0  0  0  0  0  0  0  # atno 17321 bound_to 7965
  140.5962  143.2167  151.7160 LP  0  0  0  0  0  0  0  0  0  0  0  0  # atno 17342 bound_to 10162
  139.5015  144.3864  152.0324 LP  0  0  0  0  0  0  0  0  0  0  0  0  # atno 17343 bound_to 10162
  157.1359  130.6122  149.5542 LP  0  0  0  0  0  0  0  0  0  0  0  0  # atno 17370 bound_to 10713
  155.9864  130.4898  150.7075 LP  0  0  0  0  0  0  0  0  0  0  0  0  # atno 17371 bound_to 10713
  139.8904  135.0112  156.6736 LP  0  0  0  0  0  0  0  0  0  0  0  0  # atno 17394 bound_to 11000
  140.7359  133.9019  155.8244 LP  0  0  0  0  0  0  0  0  0  0  0  0  # atno 17395 bound_to 11000

$$$$
