#       Name:                AV-unprocessed.smi:798
#       Creating user name   scv26
#       Creation time:       Fri Mar 27 01:20:39 2020


#       File generated by GOLD software.
#

@<TRIPOS>MOLECULE
AV-unprocessed.smi:798
    40    42     1
SMALL
NO_CHARGES


@<TRIPOS>ATOM
      1 ****        -0.5940   2.5208   0.4082 O.2            1 S1                 0.0000
      2 ****        -1.0332   1.5198  -0.1584 C.2            1 S1                 0.0000
      3 ****        -2.3238   1.3031  -0.4669 N.am           1 S1                 0.0000
      4 ****        -3.4418   2.1419  -0.2157 C.2            1 S1                 0.0000
      5 ****        -3.3561   3.3346   0.3941 N.2            1 S1                 0.0000
      6 ****        -4.5970   3.9467   0.5152 N.2            1 S1                 0.0000
      7 ****        -5.5684   3.1926  -0.0071 C.2            1 S1                 0.0000
      8 ****        -5.0622   1.6605  -0.6980 S.3            1 S1                 0.0000
      9 ****        -0.2651   0.4899  -0.5415 N.am           1 S1                 0.0000
     10 ****         1.1857   0.4021  -0.3631 C.3            1 S1                 0.0000
     11 ****         1.8648  -0.4452  -1.4679 C.3            1 S1                 0.0000
     12 ****         1.1714  -1.8145  -1.6350 C.3            1 S1                 0.0000
     13 ****         1.5624  -2.5487  -0.3401 C.3            1 S1                 0.0000
     14 ****         2.4538  -1.5188   0.3852 C.3            1 S1                 0.0000
     15 ****         3.1665  -0.8632  -0.7916 C.3            1 S1                 0.0000
     16 ****         1.6348  -0.3261   0.9377 C.3            1 S1                 0.0000
     17 ****         0.5430  -0.6784   1.9737 C.3            1 S1                 0.0000
     18 ****         1.1170  -1.3134   3.0963 O.3            1 S1                 0.0000
     19 ****        -2.5324   0.4327  -0.9331 H              1 S1                 0.0000
     20 ****        -6.5904   3.5409   0.0149 H              1 S1                 0.0000
     21 ****        -0.7112  -0.2931  -0.9965 H              1 S1                 0.0000
     22 ****         1.6182   1.4046  -0.3805 H              1 S1                 0.0000
     23 ****         1.9931   0.0917  -2.4082 H              1 S1                 0.0000
     24 ****         0.0923  -1.7493  -1.7726 H              1 S1                 0.0000
     25 ****         1.5744  -2.3403  -2.5015 H              1 S1                 0.0000
     26 ****         0.6985  -2.8607   0.2449 H              1 S1                 0.0000
     27 ****         2.1334  -3.4479  -0.5754 H              1 S1                 0.0000
     28 ****         3.1209  -1.9657   1.1231 H              1 S1                 0.0000
     29 ****         3.7598  -1.5620  -1.3843 H              1 S1                 0.0000
     30 ****         3.7960  -0.0190  -0.5042 H              1 S1                 0.0000
     31 ****         2.3370   0.3375   1.4461 H              1 S1                 0.0000
     32 ****         0.0499   0.2303   2.3198 H              1 S1                 0.0000
     33 ****        -0.2329  -1.3186   1.5557 H              1 S1                 0.0000
     34 ****         0.4340  -1.4835   3.7270 H              1 S1                 0.0000
     35 ****        -1.2158   3.2561   0.6776 LP             1 S1                 0.0000
     36 ****         0.3846   2.5984   0.5990 LP             1 S1                 0.0000
     37 ****        -2.5004   3.7349   0.7222 LP             1 S1                 0.0000
     38 ****        -4.7448   4.8398   0.9400 LP             1 S1                 0.0000
     39 ****         1.8105  -0.7183   3.5024 LP             1 S1                 0.0000
     40 ****         1.5400  -2.1753   2.8165 LP             1 S1                 0.0000
@<TRIPOS>BOND
    1    1    2 2     
    2    2    3 am    
    3    2    9 am    
    4    3    4 1     
    5    3   19 1     
    6    4    8 1     
    7    4    5 2     
    8    5    6 1     
    9    6    7 2     
   10    7    8 1     
   11    7   20 1     
   12    9   10 1     
   13    9   21 1     
   14   10   16 1     
   15   10   11 1     
   16   10   22 1     
   17   11   15 1     
   18   11   12 1     
   19   11   23 1     
   20   12   13 1     
   21   12   24 1     
   22   12   25 1     
   23   13   14 1     
   24   13   26 1     
   25   13   27 1     
   26   14   15 1     
   27   14   16 1     
   28   14   28 1     
   29   15   29 1     
   30   15   30 1     
   31   16   17 1     
   32   16   31 1     
   33   17   18 1     
   34   17   32 1     
   35   17   33 1     
   36   18   34 1     
   37    1   35 1     
   38    1   36 1     
   39    5   37 1     
   40    6   38 1     
   41   18   39 1     
   42   18   40 1     
@<TRIPOS>SUBSTRUCTURE
      1 S1             1
@<TRIPOS>SET
LONE_PAIRS      STATIC     ATOMS    <user>   **** ""
6 35 36 37 38 39 40
DONOR_HYDROGENS      STATIC     ATOMS    <user>   **** ""
3 19 21 34
ATOM$BLUE        STATIC     ATOMS    COLORGROUP SYSTEM
6 35 36 37 38 39 40
ATOM$RED        STATIC     ATOMS    COLORGROUP SYSTEM
3 19 21 34
