AV-unprocessed.smi:651|AV-procd|sdf|3189|dock2
  -GOLD-   22720 0113D 1   1.00000     0.00000
 Structure written by MMmdl.
 39 40  0  0  0  0  0  0  0  0  2 V2000
  151.3668  144.5866  160.5259 C   0  0  0  0  0  0  0  0  0  0  0  0
  152.3471  143.4751  160.8349 C   0  0  0  0  0  0  0  0  0  0  0  0
  152.8617  143.2625  162.1319 C   0  0  0  0  0  0  0  0  0  0  0  0
  153.7719  142.2067  162.3470 C   0  0  0  0  0  0  0  0  0  0  0  0
  154.1484  141.3838  161.2622 C   0  0  0  0  0  0  0  0  0  0  0  0
  155.1196  140.2322  161.4638 C   0  0  0  0  0  0  0  0  0  0  0  0
  156.1156  140.1391  160.3050 C   0  0  0  0  0  0  0  0  0  0  0  0
  155.7523  139.6910  159.2184 O   0  0  0  0  0  0  0  0  0  0  0  0
  157.3689  140.5506  160.5536 N   0  0  0  0  0  0  0  0  0  0  0  0
  158.4781  140.5268  159.5988 C   0  0  1  0  0  0  0  0  0  0  0  0
  158.1361  141.3493  158.3403 C   0  0  0  0  0  0  0  0  0  0  0  0
  159.3392  142.2556  158.0586 C   0  0  0  0  0  0  0  0  0  0  0  0
  160.4835  141.6908  158.9020 C   0  0  0  0  0  0  0  0  0  0  0  0
  159.8194  141.0871  160.1488 C   0  0  1  0  0  0  0  0  0  0  0  0
  159.6853  142.1470  161.2643 C   0  0  0  0  0  0  0  0  0  0  0  0
  159.1515  141.7443  162.4201 N   0  0  0  0  0  0  0  0  0  0  0  0
  160.0479  143.3090  161.0863 O   0  0  0  0  0  0  0  0  0  0  0  0
  153.6043  141.6479  159.9862 C   0  0  0  0  0  0  0  0  0  0  0  0
  152.7351  142.6688  159.8217 N   0  3  0  0  0  0  0  0  0  0  0  0
  150.9648  145.0203  161.4421 H   0  0  0  0  0  0  0  0  0  0  0  0
  150.5316  144.2083  159.9356 H   0  0  0  0  0  0  0  0  0  0  0  0
  151.8590  145.3781  159.9601 H   0  0  0  0  0  0  0  0  0  0  0  0
  152.5636  143.8973  162.9538 H   0  0  0  0  0  0  0  0  0  0  0  0
  154.1720  142.0287  163.3348 H   0  0  0  0  0  0  0  0  0  0  0  0
  155.6672  140.3598  162.3984 H   0  0  0  0  0  0  0  0  0  0  0  0
  154.5615  139.2987  161.5494 H   0  0  0  0  0  0  0  0  0  0  0  0
  157.5805  140.8900  161.4806 H   0  0  0  0  0  0  0  0  0  0  0  0
  158.6501  139.4971  159.2784 H   0  0  0  0  0  0  0  0  0  0  0  0
  157.9547  140.6812  157.4975 H   0  0  0  0  0  0  0  0  0  0  0  0
  157.2354  141.9514  158.4682 H   0  0  0  0  0  0  0  0  0  0  0  0
  159.5892  142.2950  156.9980 H   0  0  0  0  0  0  0  0  0  0  0  0
  159.1140  143.2742  158.3766 H   0  0  0  0  0  0  0  0  0  0  0  0
  160.9915  140.9011  158.3469 H   0  0  0  0  0  0  0  0  0  0  0  0
  161.2319  142.4502  159.1340 H   0  0  0  0  0  0  0  0  0  0  0  0
  160.4286  140.2663  160.5318 H   0  0  0  0  0  0  0  0  0  0  0  0
  159.0367  142.4003  163.1794 H   0  0  0  0  0  0  0  0  0  0  0  0
  158.8585  140.7841  162.5293 H   0  0  0  0  0  0  0  0  0  0  0  0
  153.8320  141.0751  159.0988 H   0  0  0  0  0  0  0  0  0  0  0  0
  152.3537  142.8386  158.8906 H   0  0  0  0  0  0  0  0  0  0  0  0
  1  2  1  0  0  0  0
  1 20  1  0  0  0  0
  1 21  1  0  0  0  0
  1 22  1  0  0  0  0
  2 19  1  0  0  0  0
  2  3  2  0  0  0  0
  3  4  1  0  0  0  0
  3 23  1  0  0  0  0
  4  5  2  0  0  0  0
  4 24  1  0  0  0  0
  5  6  1  0  0  0  0
  5 18  1  0  0  0  0
  6  7  1  0  0  0  0
  6 25  1  0  0  0  0
  6 26  1  0  0  0  0
  7  8  2  0  0  0  0
  7  9  1  0  0  0  0
  9 10  1  0  0  0  0
  9 27  1  0  0  0  0
 10 14  1  0  0  0  0
 10 11  1  0  0  0  0
 10 28  1  0  0  0  0
 11 12  1  0  0  0  0
 11 29  1  0  0  0  0
 11 30  1  0  0  0  0
 12 13  1  0  0  0  0
 12 31  1  0  0  0  0
 12 32  1  0  0  0  0
 13 14  1  0  0  0  0
 13 33  1  0  0  0  0
 13 34  1  0  0  0  0
 14 15  1  0  0  0  0
 14 35  1  0  0  0  0
 15 16  1  0  0  0  0
 15 17  2  0  0  0  0
 16 36  1  0  0  0  0
 16 37  1  0  0  0  0
 18 19  2  0  0  0  0
 18 38  1  0  0  0  0
 19 39  1  0  0  0  0
M  CHG  1  19   1
M  END
> <s_m_source_file>
AV-unprocessed.smi

> <i_m_source_file_index>
651

> <i_lp_mmshare_version>
43012

> <i_f3d_flags>
0

> <s_epik_input>
W0NIM11jMVtjSF1bY0hdYyhbY0hdbjEpW0NIMl1DKD1PKVtOSF1bQ0BASF0yW0NIMl1bQ0gyXVtDSDJdW0NASF0yQyg9TylbTkgyXQ==

> <s_epik_cmdline>
J2VwaWtfcHl0aG9uJywgJy1waCcsICc3LjAnLCAnLXRuJywgJzgnLCAnLW1hJywgJzIwMCcsICctbWV0YWxfYmluZGluZycsICctaW1hZScsICc8aW5maWxlLm1hZT4nLCAnLW9tYWUnLCAnPG91dGZpbGUubWFlPic=

> <r_epik_Ionization_Penalty>
2.14971

> <r_epik_Ionization_Penalty_Charging>
2.14971

> <r_epik_Ionization_Penalty_Neutral>
1.65229e-07

> <r_epik_State_Penalty>
2.28946

> <r_epik_Charging_Adjusted_Penalty>
4.43917

> <i_epik_Tot_Q>
1

> <i_epik_Tot_abs_Q>
1

> <r_epik_Metal_State_Penalty>
2.30508

> <b_epik_Metal_Only>
0

> <s_lp_Force_Field>
OPLS_2005

> <r_lp_Energy>
19.7283

> <b_lp_Chiralities_Consistent>
1

> <s_lp_Variant>
AV-unprocessed.smi:651-6

> <Gold.Version>
5.8.1

> <Gold.Id.Protein>
6NUR|6NUR_protein|mol2

> <Gold.PLP.Fitness>
45.3193

> <Gold.PLP.PLP>
-43.2370

> <Gold.PLP.part.hbond>
-4.2768

> <Gold.PLP.part.metal>
0.0000

> <Gold.PLP.part.buried>
-2.5208

> <Gold.PLP.part.nonpolar>
-36.5349

> <Gold.PLP.part.repulsive>
0.0795

> <Gold.PLP.ligand.clash>
0.0000

> <Gold.PLP.ligand.torsion>
0.4711

> <Gold.PLP.Chemscore.Hbond>
1.0000

> <Gold.PLP.Chemscore.CHOScore>
0.0000

> <Gold.PLP.Chemscore.Metal>
0.0000

> <Gold.Chemscore.Hbonds>
donor molecule, donor type, donor heavy atom, donor atom, acceptor molecule, acceptor atom, score
      P1  H  7997  8010       L1     8  1.00

> <Gold.PLP.Chemscore.Internal.Correction>
0.0245

> <Gold.Rescore>
     Score         DG    S(hbond)    S(metal)    S(lipo)     H(rot)  DE(clash)    DE(int)     intcor
     14.96     -16.76       0.98        0.00     113.04       2.04       0.08       1.72       ----

> <Gold.Chemscore.Fitness>
14.9552

> <Gold.Chemscore.DG>
-16.7589

> <Gold.Chemscore.ZeroCoef>
-5.4800

> <Gold.Chemscore.Hbond>
0.9795

> <Gold.Chemscore.Metal>
0.0000

> <Gold.Chemscore.Lipo>
113.0433

> <Gold.Chemscore.Internal_Hbond>
0.0000

> <Gold.Chemscore.DEClash>
0.0837

> <Gold.Chemscore.DEInternal>
1.7200

> <Gold.Chemscore.Rot>
2.0386

> <Gold.Chemscore.Internal.Correction>
   9.000000E+99

> <Gold.Chemscore.Hbonds>
donor molecule, donor type, donor heavy atom, donor atom, acceptor molecule, acceptor atom, score
      P1  H  7997  8010       L1     8  0.94

> <Gold.Chemscore.Hbond.Weighted>
-3.2717

> <Gold.Chemscore.Metal.Weighted>
-0.0000

> <Gold.Chemscore.Lipo.Weighted>
-13.2261

> <Gold.Chemscore.Internal_Hbond.Weighted>
0.0000

> <Gold.Chemscore.DEClash.Weighted>
0.0837

> <Gold.Chemscore.DEInternal.Weighted>
1.7200

> <Gold.Chemscore.Rot.Weighted>
5.2188

> <Gold.Chemscore.Internal.Correction.Weighted>
   9.000000E+99

> <Gold.Protein.RotatedTorsions>
[ 6907 6896 6895 6894 ] final -120.97 input  -60.11 | X-H torsion
[ 7974 7965 7964 7962 ] final  -85.32 input  175.53 | X-H torsion
[ 8008 7997 7996 7995 ] final  -37.23 input   59.86 | X-H torsion
[ 10167 10162 10161 10158 ] final  -35.60 input  -65.29 | X-H torsion
[ 10718 10713 10712 10709 ] final  -29.62 input   66.30 | X-H torsion
[ 10763 10752 10751 10750 ] final  -55.80 input  -60.55 | X-H torsion
[ 11005 11000 10999 10996 ] final  -97.58 input  -57.11 | X-H torsion

> <Gold.Protein.ActiveResidues>
 VAL166  LYS551  ARG553  GLY616  TRP617  ASP618  TYR619  PRO620  LYS621  CYS622 
 ASP623  PHE694  ASN695  SER759  ASP760  ASP761  ALA762  ILE779  LEU786  VAL792 
 PHE793  MET794  SER795  GLU796  ALA797  LYS798  CYS799  TRP800  GLU811  SER814 

> <Gold.Protein.RotatedAtoms>
  150.8441  133.7889  159.3049 H   0  0  0  0  0  0  0  0  0  0  0  0  # atno 6907 bound_to 6896
  151.5582  135.1064  159.9975 H   0  0  0  0  0  0  0  0  0  0  0  0  # atno 6908 bound_to 6896
  152.4499  133.7565  159.6779 H   0  0  0  0  0  0  0  0  0  0  0  0  # atno 6909 bound_to 6896
  145.4948  140.9551  143.1792 H   0  0  0  0  0  0  0  0  0  0  0  0  # atno 7974 bound_to 7965
  154.4057  140.1609  156.2503 H   0  0  0  0  0  0  0  0  0  0  0  0  # atno 8008 bound_to 7997
  155.9125  140.3426  155.6087 H   0  0  0  0  0  0  0  0  0  0  0  0  # atno 8009 bound_to 7997
  155.7319  140.0781  157.2275 H   0  0  0  0  0  0  0  0  0  0  0  0  # atno 8010 bound_to 7997
  140.7161  143.3466  151.2243 H   0  0  0  0  0  0  0  0  0  0  0  0  # atno 10167 bound_to 10162
  156.4102  130.4406  149.7258 H   0  0  0  0  0  0  0  0  0  0  0  0  # atno 10718 bound_to 10713
  154.1966  135.6418  153.5075 H   0  0  0  0  0  0  0  0  0  0  0  0  # atno 10763 bound_to 10752
  153.0022  135.5441  154.6359 H   0  0  0  0  0  0  0  0  0  0  0  0  # atno 10764 bound_to 10752
  154.5761  135.2921  155.0752 H   0  0  0  0  0  0  0  0  0  0  0  0  # atno 10765 bound_to 10752
  141.1374  133.8181  157.0725 H   0  0  0  0  0  0  0  0  0  0  0  0  # atno 11005 bound_to 11000
  144.7813  139.6519  143.7153 LP  0  0  0  0  0  0  0  0  0  0  0  0  # atno 17320 bound_to 7965
  146.2262  139.5727  142.9585 LP  0  0  0  0  0  0  0  0  0  0  0  0  # atno 17321 bound_to 7965
  139.6987  143.9569  152.2895 LP  0  0  0  0  0  0  0  0  0  0  0  0  # atno 17342 bound_to 10162
  139.9255  144.6773  150.8417 LP  0  0  0  0  0  0  0  0  0  0  0  0  # atno 17343 bound_to 10162
  156.4240  130.7782  151.2800 LP  0  0  0  0  0  0  0  0  0  0  0  0  # atno 17370 bound_to 10713
  157.7507  131.0174  150.3585 LP  0  0  0  0  0  0  0  0  0  0  0  0  # atno 17371 bound_to 10713
  140.0502  134.9809  157.1122 LP  0  0  0  0  0  0  0  0  0  0  0  0  # atno 17394 bound_to 11000
  140.4001  134.2091  155.7163 LP  0  0  0  0  0  0  0  0  0  0  0  0  # atno 17395 bound_to 11000

$$$$
