AV-unprocessed.smi:2917|AV-procd|sdf|11190|dock1
  -GOLD-   2272016 83D 1   1.00000     0.00000
 Structure written by MMmdl.
 34 35  0  0  0  0  0  0  0  0  1 V2000
  149.5304  139.8966  154.7664 C   0  0  0  0  0  0  0  0  0  0  0  0
  148.4911  141.0023  155.0512 C   0  0  0  0  0  0  0  0  0  0  0  0
  149.1108  142.0799  155.8383 N   0  0  0  0  0  0  0  0  0  0  0  0
  149.7633  141.9918  157.0096 C   0  0  0  0  0  0  0  0  0  0  0  0
  149.9377  140.9403  157.6241 O   0  0  0  0  0  0  0  0  0  0  0  0
  150.1772  143.2032  157.4191 N   0  0  0  0  0  0  0  0  0  0  0  0
  150.8950  143.5402  158.5985 C   0  0  0  0  0  0  0  0  0  0  0  0
  151.9798  142.7892  159.1128 C   0  0  0  0  0  0  0  0  0  0  0  0
  152.6232  143.2382  160.2822 C   0  0  0  0  0  0  0  0  0  0  0  0
  152.1649  144.4230  160.8899 C   0  0  0  0  0  0  0  0  0  0  0  0
  151.1418  145.1562  160.4030 N   0  0  0  0  0  0  0  0  0  0  0  0
  150.5305  144.7203  159.2809 C   0  0  0  0  0  0  0  0  0  0  0  0
  147.8778  141.5324  153.7317 C   0  0  0  0  0  0  0  0  0  0  0  0
  146.6834  142.4696  153.9863 C   0  0  0  0  0  0  0  0  0  0  0  0
  145.6932  141.7940  154.7528 O   0  0  0  0  0  0  0  0  0  0  0  0
  146.1620  141.3971  156.0359 C   0  0  0  0  0  0  0  0  0  0  0  0
  147.3356  140.4103  155.8875 C   0  0  0  0  0  0  0  0  0  0  0  0
  149.0716  139.0416  154.2690 H   0  0  0  0  0  0  0  0  0  0  0  0
  149.9851  139.5323  155.6884 H   0  0  0  0  0  0  0  0  0  0  0  0
  150.3335  140.2464  154.1179 H   0  0  0  0  0  0  0  0  0  0  0  0
  149.0293  143.0032  155.4388 H   0  0  0  0  0  0  0  0  0  0  0  0
  149.8899  143.9858  156.8498 H   0  0  0  0  0  0  0  0  0  0  0  0
  152.3383  141.8931  158.6310 H   0  0  0  0  0  0  0  0  0  0  0  0
  153.4532  142.6887  160.7008 H   0  0  0  0  0  0  0  0  0  0  0  0
  152.6371  144.7948  161.7873 H   0  0  0  0  0  0  0  0  0  0  0  0
  149.7181  145.3337  158.9188 H   0  0  0  0  0  0  0  0  0  0  0  0
  148.6233  142.0381  153.1188 H   0  0  0  0  0  0  0  0  0  0  0  0
  147.5296  140.6893  153.1333 H   0  0  0  0  0  0  0  0  0  0  0  0
  146.9977  143.3813  154.4967 H   0  0  0  0  0  0  0  0  0  0  0  0
  146.2420  142.7758  153.0378 H   0  0  0  0  0  0  0  0  0  0  0  0
  146.4530  142.2743  156.6157 H   0  0  0  0  0  0  0  0  0  0  0  0
  145.3425  140.9225  156.5756 H   0  0  0  0  0  0  0  0  0  0  0  0
  146.9628  139.5042  155.4072 H   0  0  0  0  0  0  0  0  0  0  0  0
  147.6925  140.1058  156.8725 H   0  0  0  0  0  0  0  0  0  0  0  0
  1  2  1  0  0  0  0
  1 18  1  0  0  0  0
  1 19  1  0  0  0  0
  1 20  1  0  0  0  0
  2 17  1  0  0  0  0
  2  3  1  0  0  0  0
  2 13  1  0  0  0  0
  3  4  1  0  0  0  0
  3 21  1  0  0  0  0
  4  5  2  0  0  0  0
  4  6  1  0  0  0  0
  6  7  1  0  0  0  0
  6 22  1  0  0  0  0
  7 12  1  0  0  0  0
  7  8  2  0  0  0  0
  8  9  1  0  0  0  0
  8 23  1  0  0  0  0
  9 10  2  0  0  0  0
  9 24  1  0  0  0  0
 10 11  1  0  0  0  0
 10 25  1  0  0  0  0
 11 12  2  0  0  0  0
 12 26  1  0  0  0  0
 13 14  1  0  0  0  0
 13 27  1  0  0  0  0
 13 28  1  0  0  0  0
 14 15  1  0  0  0  0
 14 29  1  0  0  0  0
 14 30  1  0  0  0  0
 15 16  1  0  0  0  0
 16 17  1  0  0  0  0
 16 31  1  0  0  0  0
 16 32  1  0  0  0  0
 17 33  1  0  0  0  0
 17 34  1  0  0  0  0
M  END
> <s_m_source_file>
AV-unprocessed.smi

> <i_m_source_file_index>
2917

> <i_lp_mmshare_version>
43012

> <i_f3d_flags>
0

> <s_epik_input>
W0NIMl0xW0NIMl1PW0NIMl1bQ0gyXUMxKFtDSDNdKVtOSF1DKD1PKVtOSF1jMltjSF1bY0hdW2NIXW5bY0hdMg==

> <s_epik_cmdline>
J2VwaWtfcHl0aG9uJywgJy1waCcsICc3LjAnLCAnLXRuJywgJzgnLCAnLW1hJywgJzIwMCcsICctbWV0YWxfYmluZGluZycsICctaW1hZScsICc8aW5maWxlLm1hZT4nLCAnLW9tYWUnLCAnPG91dGZpbGUubWFlPic=

> <r_epik_Ionization_Penalty>
0.00491607

> <r_epik_Ionization_Penalty_Charging>
0

> <r_epik_Ionization_Penalty_Neutral>
0.00491607

> <r_epik_State_Penalty>
0.00354213

> <r_epik_Charging_Adjusted_Penalty>
0.00354213

> <i_epik_Tot_Q>
0

> <i_epik_Tot_abs_Q>
0

> <r_epik_Metal_State_Penalty>
-0

> <b_epik_Metal_Only>
0

> <s_lp_Force_Field>
OPLS_2005

> <r_lp_Energy>
13.2781

> <b_lp_Chiralities_Consistent>
1

> <s_lp_Variant>
AV-unprocessed.smi:2917-1

> <Gold.Version>
5.8.1

> <Gold.Id.Protein>
6NUR|6NUR_protein|mol2

> <Gold.PLP.Fitness>
39.8595

> <Gold.PLP.PLP>
-31.5751

> <Gold.PLP.part.hbond>
-2.0000

> <Gold.PLP.part.metal>
0.0000

> <Gold.PLP.part.buried>
-6.0996

> <Gold.PLP.part.nonpolar>
-24.0016

> <Gold.PLP.part.repulsive>
0.5220

> <Gold.PLP.ligand.clash>
0.0000

> <Gold.PLP.ligand.torsion>
0.3460

> <Gold.PLP.Chemscore.Hbond>
2.0000

> <Gold.PLP.Chemscore.CHOScore>
0.9898

> <Gold.PLP.Chemscore.Metal>
0.0000

> <Gold.Chemscore.Hbonds>
donor molecule, donor type, donor heavy atom, donor atom, acceptor molecule, acceptor atom, score
      L1  H     3    21       P1  8028  1.00
      L1  H     6    22       P1  8028  1.00
      L1  C    12    26       P1  8029  1.00

> <Gold.PLP.Chemscore.Internal.Correction>
0.0068

> <Gold.Rescore>
     Score         DG    S(hbond)    S(metal)    S(lipo)     H(rot)  DE(clash)    DE(int)     intcor
     18.65     -19.02       1.92        0.00      82.77       1.00       0.04       0.33       ----

> <Gold.Chemscore.Fitness>
18.6550

> <Gold.Chemscore.DG>
-19.0192

> <Gold.Chemscore.ZeroCoef>
-5.4800

> <Gold.Chemscore.Hbond>
1.9207

> <Gold.Chemscore.Metal>
0.0000

> <Gold.Chemscore.Lipo>
82.7709

> <Gold.Chemscore.Internal_Hbond>
0.0000

> <Gold.Chemscore.DEClash>
0.0375

> <Gold.Chemscore.DEInternal>
0.3267

> <Gold.Chemscore.Rot>
1.0000

> <Gold.Chemscore.Internal.Correction>
   9.000000E+99

> <Gold.Chemscore.Hbonds>
donor molecule, donor type, donor heavy atom, donor atom, acceptor molecule, acceptor atom, score
      L1  H     3    21       P1  8028  0.94
      L1  H     6    22       P1  8028  0.93

> <Gold.Chemscore.Hbond.Weighted>
-6.4150

> <Gold.Chemscore.Metal.Weighted>
-0.0000

> <Gold.Chemscore.Lipo.Weighted>
-9.6842

> <Gold.Chemscore.Internal_Hbond.Weighted>
0.0000

> <Gold.Chemscore.DEClash.Weighted>
0.0375

> <Gold.Chemscore.DEInternal.Weighted>
0.3267

> <Gold.Chemscore.Rot.Weighted>
2.5600

> <Gold.Chemscore.Internal.Correction.Weighted>
   9.000000E+99

> <Gold.Protein.RotatedTorsions>
[ 6907 6896 6895 6894 ] final   38.57 input  -60.11 | X-H torsion
[ 7974 7965 7964 7962 ] final  127.33 input  175.53 | X-H torsion
[ 8008 7997 7996 7995 ] final -141.39 input   59.86 | X-H torsion
[ 10167 10162 10161 10158 ] final  172.19 input  -65.29 | X-H torsion
[ 10718 10713 10712 10709 ] final  166.43 input   66.30 | X-H torsion
[ 10763 10752 10751 10750 ] final -110.20 input  -60.55 | X-H torsion
[ 11005 11000 10999 10996 ] final  -20.44 input  -57.11 | X-H torsion

> <Gold.Protein.ActiveResidues>
 VAL166  LYS551  ARG553  GLY616  TRP617  ASP618  TYR619  PRO620  LYS621  CYS622 
 ASP623  PHE694  ASN695  SER759  ASP760  ASP761  ALA762  ILE779  LEU786  VAL792 
 PHE793  MET794  SER795  GLU796  ALA797  LYS798  CYS799  TRP800  GLU811  SER814 

> <Gold.Protein.RotatedAtoms>
  152.1582  134.8934  160.0543 H   0  0  0  0  0  0  0  0  0  0  0  0  # atno 6907 bound_to 6896
  151.9939  133.3796  159.4163 H   0  0  0  0  0  0  0  0  0  0  0  0  # atno 6908 bound_to 6896
  150.6884  134.3829  159.5086 H   0  0  0  0  0  0  0  0  0  0  0  0  # atno 6909 bound_to 6896
  145.0517  139.3877  143.5050 H   0  0  0  0  0  0  0  0  0  0  0  0  # atno 7974 bound_to 7965
  155.4771  140.0557  157.2972 H   0  0  0  0  0  0  0  0  0  0  0  0  # atno 8008 bound_to 7997
  154.4675  140.2025  156.0033 H   0  0  0  0  0  0  0  0  0  0  0  0  # atno 8009 bound_to 7997
  156.0999  140.3220  155.7933 H   0  0  0  0  0  0  0  0  0  0  0  0  # atno 8010 bound_to 7997
  139.5069  144.3401  152.0026 H   0  0  0  0  0  0  0  0  0  0  0  0  # atno 10167 bound_to 10162
  157.0659  131.0353  151.2629 H   0  0  0  0  0  0  0  0  0  0  0  0  # atno 10718 bound_to 10713
  154.8235  135.4573  154.0849 H   0  0  0  0  0  0  0  0  0  0  0  0  # atno 10763 bound_to 10752
  153.2182  135.6890  153.8038 H   0  0  0  0  0  0  0  0  0  0  0  0  # atno 10764 bound_to 10752
  153.7464  135.3304  155.3290 H   0  0  0  0  0  0  0  0  0  0  0  0  # atno 10765 bound_to 10752
  140.8464  133.7888  155.9918 H   0  0  0  0  0  0  0  0  0  0  0  0  # atno 11005 bound_to 11000
  146.3518  140.0171  142.8662 LP  0  0  0  0  0  0  0  0  0  0  0  0  # atno 17320 bound_to 7965
  145.1519  140.9627  143.4428 LP  0  0  0  0  0  0  0  0  0  0  0  0  # atno 17321 bound_to 7965
  140.2839  144.3829  150.6110 LP  0  0  0  0  0  0  0  0  0  0  0  0  # atno 17342 bound_to 10162
  140.5997  143.2167  151.7095 LP  0  0  0  0  0  0  0  0  0  0  0  0  # atno 17343 bound_to 10162
  157.4917  130.7826  149.7514 LP  0  0  0  0  0  0  0  0  0  0  0  0  # atno 17370 bound_to 10713
  155.9964  130.3906  150.2779 LP  0  0  0  0  0  0  0  0  0  0  0  0  # atno 17371 bound_to 10713
  140.8838  134.2579  157.5130 LP  0  0  0  0  0  0  0  0  0  0  0  0  # atno 17394 bound_to 11000
  139.8703  134.9628  156.4441 LP  0  0  0  0  0  0  0  0  0  0  0  0  # atno 17395 bound_to 11000

$$$$
