#       Name:                AV-unprocessed.smi:2853
#       Creating user name   scv26
#       Creation time:       Fri Mar 27 15:42:55 2020


#       File generated by GOLD software.
#

@<TRIPOS>MOLECULE
AV-unprocessed.smi:2853
    48    49     1
SMALL
NO_CHARGES


@<TRIPOS>ATOM
      1 ****        -2.6518   4.8568   0.8922 C.3            1 S1                 0.0000
      2 ****        -1.7344   3.6842   0.8339 C.2            1 S1                 0.0000
      3 ****        -0.4070   3.7787   0.8916 N.2            1 S1                 0.0000
      4 ****         0.2283   2.5355   0.8195 C.2            1 S1                 0.0000
      5 ****         1.7308   2.4866   0.8655 C.3            1 S1                 0.0000
      6 ****         2.3970   2.8008  -0.4903 C.3            1 S1                 0.0000
      7 ****         2.0410   1.7696  -1.5753 C.3            1 S1                 0.0000
      8 ****         3.9201   2.9207  -0.3353 C.3            1 S1                 0.0000
      9 ****        -0.6334   1.4670   0.6956 C.2            1 S1                 0.0000
     10 ****        -0.2420   0.1681   0.6059 N.am           1 S1                 0.0000
     11 ****        -0.9712  -0.9200   0.3052 C.2            1 S1                 0.0000
     12 ****        -2.1738  -0.9242   0.0440 O.2            1 S1                 0.0000
     13 ****        -0.2022  -2.0219   0.3114 N.am           1 S1                 0.0000
     14 ****        -0.5862  -3.4092   0.0168 C.3            1 S1                 0.0000
     15 ****         0.6918  -4.2652   0.0884 C.3            1 S1                 0.0000
     16 ****        -1.2616  -3.5663  -1.3569 C.3            1 S1                 0.0000
     17 ****        -2.6673  -4.0676  -1.0315 C.3            1 S1                 0.0000
     18 ****        -2.4970  -4.7524   0.1972 O.3            1 S1                 0.0000
     19 ****        -1.6487  -3.9469   0.9998 C.3            1 S1                 0.0000
     20 ****        -2.2976   2.0300   0.6827 S.3            1 S1                 0.0000
     21 ****        -2.0869   5.7892   0.8637 H              1 S1                 0.0000
     22 ****        -3.2343   4.8276   1.8131 H              1 S1                 0.0000
     23 ****        -3.3356   4.8369   0.0436 H              1 S1                 0.0000
     24 ****         2.0864   3.2008   1.6095 H              1 S1                 0.0000
     25 ****         2.0696   1.5126   1.2202 H              1 S1                 0.0000
     26 ****         2.0327   3.7728  -0.8257 H              1 S1                 0.0000
     27 ****         2.3439   0.7642  -1.2812 H              1 S1                 0.0000
     28 ****         2.5380   2.0039  -2.5169 H              1 S1                 0.0000
     29 ****         0.9693   1.7502  -1.7740 H              1 S1                 0.0000
     30 ****         4.3583   1.9819   0.0042 H              1 S1                 0.0000
     31 ****         4.1832   3.6926   0.3886 H              1 S1                 0.0000
     32 ****         4.3927   3.1857  -1.2815 H              1 S1                 0.0000
     33 ****         0.7429   0.0081   0.7574 H              1 S1                 0.0000
     34 ****         0.7715  -1.8872   0.5402 H              1 S1                 0.0000
     35 ****         0.4757  -5.3181  -0.0972 H              1 S1                 0.0000
     36 ****         1.1605  -4.1967   1.0708 H              1 S1                 0.0000
     37 ****         1.4269  -3.9436  -0.6504 H              1 S1                 0.0000
     38 ****        -1.2854  -2.6521  -1.9511 H              1 S1                 0.0000
     39 ****        -0.7454  -4.3157  -1.9583 H              1 S1                 0.0000
     40 ****        -3.3590  -3.2351  -0.8938 H              1 S1                 0.0000
     41 ****        -3.0698  -4.7222  -1.8047 H              1 S1                 0.0000
     42 ****        -1.2207  -4.5261   1.8186 H              1 S1                 0.0000
     43 ****        -2.2508  -3.1550   1.4463 H              1 S1                 0.0000
     44 ****         0.0828   4.6463   0.9773 LP             1 S1                 0.0000
     45 ****        -2.6886  -0.0669   0.0448 LP             1 S1                 0.0000
     46 ****        -2.6361  -1.7849  -0.1691 LP             1 S1                 0.0000
     47 ****        -2.0752  -5.6451   0.0384 LP             1 S1                 0.0000
     48 ****        -3.3811  -4.8768   0.6476 LP             1 S1                 0.0000
@<TRIPOS>BOND
    1    1    2 1     
    2    1   21 1     
    3    1   22 1     
    4    1   23 1     
    5    2   20 1     
    6    2    3 2     
    7    3    4 1     
    8    4    5 1     
    9    4    9 2     
   10    5    6 1     
   11    5   24 1     
   12    5   25 1     
   13    6    7 1     
   14    6    8 1     
   15    6   26 1     
   16    7   27 1     
   17    7   28 1     
   18    7   29 1     
   19    8   30 1     
   20    8   31 1     
   21    8   32 1     
   22    9   10 1     
   23    9   20 1     
   24   10   11 am    
   25   10   33 1     
   26   11   12 2     
   27   11   13 am    
   28   13   14 1     
   29   13   34 1     
   30   14   19 1     
   31   14   15 1     
   32   14   16 1     
   33   15   35 1     
   34   15   36 1     
   35   15   37 1     
   36   16   17 1     
   37   16   38 1     
   38   16   39 1     
   39   17   18 1     
   40   17   40 1     
   41   17   41 1     
   42   18   19 1     
   43   19   42 1     
   44   19   43 1     
   45    3   44 1     
   46   12   45 1     
   47   12   46 1     
   48   18   47 1     
   49   18   48 1     
@<TRIPOS>SUBSTRUCTURE
      1 S1             1
@<TRIPOS>SET
LONE_PAIRS      STATIC     ATOMS    <user>   **** ""
5 44 45 46 47 48
DONOR_HYDROGENS      STATIC     ATOMS    <user>   **** ""
2 33 34
ATOM$BLUE        STATIC     ATOMS    COLORGROUP SYSTEM
5 44 45 46 47 48
ATOM$RED        STATIC     ATOMS    COLORGROUP SYSTEM
2 33 34
