#       Name:                AV-unprocessed.smi:1929
#       Creating user name   scv26
#       Creation time:       Fri Mar 27 09:54:33 2020


#       File generated by GOLD software.
#

@<TRIPOS>MOLECULE
AV-unprocessed.smi:1929
    48    49     1
SMALL
NO_CHARGES


@<TRIPOS>ATOM
      1 ****        -5.0599   3.6977   2.7584 C.3            1 S1                 0.0000
      2 ****        -4.4284   2.4390   2.3916 N.am           1 S1                 0.0000
      3 ****        -3.1955   2.0763   2.7718 C.2            1 S1                 0.0000
      4 ****        -2.4749   2.7774   3.4831 O.2            1 S1                 0.0000
      5 ****        -2.7110   0.7059   2.2876 C.3            1 S1                 0.0000
      6 ****        -1.2301   0.5878   2.2700 N.4            1 S1                 1.0000
      7 ****        -0.6040   1.2905   1.1182 C.3            1 S1                 0.0000
      8 ****         0.9307   1.2630   1.2204 C.3            1 S1                 0.0000
      9 ****         1.4764  -0.1743   1.3397 C.3            1 S1                 0.0000
     10 ****         1.3346  -0.9217   0.0898 N.am           1 S1                 0.0000
     11 ****         2.1185  -0.7818  -0.9897 C.2            1 S1                 0.0000
     12 ****         3.0410   0.0297  -1.0546 O.2            1 S1                 0.0000
     13 ****         1.7490  -1.6214  -1.9728 N.am           1 S1                 0.0000
     14 ****         2.3282  -1.7969  -3.2599 C.ar           1 S1                 0.0000
     15 ****         1.5448  -2.4423  -4.2429 C.ar           1 S1                 0.0000
     16 ****         2.0783  -2.6544  -5.5305 C.ar           1 S1                 0.0000
     17 ****         3.3344  -2.2480  -5.8132 N.pl3          1 S1                 1.0000
     18 ****         4.1258  -1.6390  -4.9046 C.ar           1 S1                 0.0000
     19 ****         3.6472  -1.4001  -3.6002 C.ar           1 S1                 0.0000
     20 ****         0.7604  -0.9054   2.4887 C.3            1 S1                 0.0000
     21 ****        -0.7725  -0.8220   2.3644 C.3            1 S1                 0.0000
     22 ****        -6.0481   3.7646   2.3034 H              1 S1                 0.0000
     23 ****        -4.4676   4.5460   2.4125 H              1 S1                 0.0000
     24 ****        -5.1765   3.7726   3.8404 H              1 S1                 0.0000
     25 ****        -4.9634   1.8068   1.8135 H              1 S1                 0.0000
     26 ****        -3.1301  -0.0312   2.9736 H              1 S1                 0.0000
     27 ****        -3.1164   0.4808   1.2995 H              1 S1                 0.0000
     28 ****        -0.9292   0.8264   0.1858 H              1 S1                 0.0000
     29 ****        -0.9382   2.3279   1.0834 H              1 S1                 0.0000
     30 ****         1.3719   1.7753   0.3647 H              1 S1                 0.0000
     31 ****         1.2362   1.8330   2.0990 H              1 S1                 0.0000
     32 ****         2.5400  -0.1274   1.5811 H              1 S1                 0.0000
     33 ****         0.6006  -1.6141   0.0550 H              1 S1                 0.0000
     34 ****         0.9240  -2.1746  -1.7934 H              1 S1                 0.0000
     35 ****         0.5401  -2.7703  -4.0179 H              1 S1                 0.0000
     36 ****         1.5424  -3.1349  -6.3360 H              1 S1                 0.0000
     37 ****         5.1150  -1.3677  -5.2437 H              1 S1                 0.0000
     38 ****         4.3070  -0.9296  -2.8881 H              1 S1                 0.0000
     39 ****         1.0780  -1.9481   2.5306 H              1 S1                 0.0000
     40 ****         1.0633  -0.4598   3.4374 H              1 S1                 0.0000
     41 ****        -1.2253  -1.2974   3.2353 H              1 S1                 0.0000
     42 ****        -1.1151  -1.3762   1.4891 H              1 S1                 0.0000
     43 ****        -0.9042   1.0488   3.1082 H              1 S1                 0.0000
     44 ****         3.7026  -2.4120  -6.7506 H              1 S1                 0.0000
     45 ****        -2.8028   3.6653   3.8059 LP             1 S1                 0.0000
     46 ****        -1.5619   2.4588   3.7379 LP             1 S1                 0.0000
     47 ****         3.2372   0.6270  -0.2769 LP             1 S1                 0.0000
     48 ****         3.5946   0.0920  -1.8850 LP             1 S1                 0.0000
@<TRIPOS>BOND
    1    1    2 1     
    2    1   22 1     
    3    1   23 1     
    4    1   24 1     
    5    2    3 am    
    6    2   25 1     
    7    3    4 2     
    8    3    5 1     
    9    5    6 1     
   10    5   26 1     
   11    5   27 1     
   12    6   21 1     
   13    6    7 1     
   14    6   43 1     
   15    7    8 1     
   16    7   28 1     
   17    7   29 1     
   18    8    9 1     
   19    8   30 1     
   20    8   31 1     
   21    9   10 1     
   22    9   20 1     
   23    9   32 1     
   24   10   11 am    
   25   10   33 1     
   26   11   12 2     
   27   11   13 am    
   28   13   14 1     
   29   13   34 1     
   30   14   19 ar    
   31   14   15 ar    
   32   15   16 ar    
   33   15   35 1     
   34   16   17 ar    
   35   16   36 1     
   36   17   18 ar    
   37   17   44 1     
   38   18   19 ar    
   39   18   37 1     
   40   19   38 1     
   41   20   21 1     
   42   20   39 1     
   43   20   40 1     
   44   21   41 1     
   45   21   42 1     
   46    4   45 1     
   47    4   46 1     
   48   12   47 1     
   49   12   48 1     
@<TRIPOS>SUBSTRUCTURE
      1 S1             1
@<TRIPOS>SET
LONE_PAIRS      STATIC     ATOMS    <user>   **** ""
4 45 46 47 48
DONOR_HYDROGENS      STATIC     ATOMS    <user>   **** ""
5 25 43 33 34 44
ATOM$BLUE        STATIC     ATOMS    COLORGROUP SYSTEM
4 45 46 47 48
ATOM$RED        STATIC     ATOMS    COLORGROUP SYSTEM
5 25 43 33 34 44
