AV-unprocessed.smi:1824|AV-procd|sdf|7404|dock5
  -GOLD-   22720 9 73D 1   1.00000     0.00000
 Structure written by MMmdl.
 45 47  0  0  0  0  0  0  0  0  2 V2000
  149.2789  134.4515  154.5579 C   0  0  0  0  0  0  0  0  0  0  0  0
  149.1426  135.4556  155.7165 C   0  0  1  0  0  0  0  0  0  0  0  0
  150.0531  136.6914  155.5724 C   0  0  0  0  0  0  0  0  0  0  0  0
  149.5470  137.6087  154.5243 N   0  3  2  0  0  0  0  0  0  0  0  0
  150.4407  138.7748  154.3054 C   0  0  0  0  0  0  0  0  0  0  0  0
  150.0819  139.9709  155.2091 C   0  0  2  0  0  0  0  0  0  0  0  0
  149.2318  140.8449  154.4898 O   0  0  0  0  0  0  0  0  0  0  0  0
  151.3376  140.7378  155.6675 C   0  0  0  0  0  0  0  0  0  0  0  0
  151.5475  140.6578  157.1027 N   0  0  0  0  0  0  0  0  0  0  0  0
  151.7117  139.5399  157.8360 C   0  0  0  0  0  0  0  0  0  0  0  0
  151.8924  139.6906  159.1448 N   0  0  0  0  0  0  0  0  0  0  0  0
  151.8412  141.0675  159.2781 C   0  0  0  0  0  0  0  0  0  0  0  0
  151.9663  141.8834  160.4253 C   0  0  0  0  0  0  0  0  0  0  0  0
  151.8790  143.2870  160.3173 C   0  0  0  0  0  0  0  0  0  0  0  0
  152.0027  144.0543  161.4264 F   0  0  0  0  0  0  0  0  0  0  0  0
  151.6639  143.8949  159.0625 C   0  0  0  0  0  0  0  0  0  0  0  0
  151.5796  145.2429  158.9676 F   0  0  0  0  0  0  0  0  0  0  0  0
  151.5357  143.1025  157.9056 C   0  0  0  0  0  0  0  0  0  0  0  0
  151.6259  141.7027  158.0178 C   0  0  0  0  0  0  0  0  0  0  0  0
  148.1399  137.9824  154.8051 C   0  0  0  0  0  0  0  0  0  0  0  0
  147.2633  136.7218  154.9133 C   0  0  2  0  0  0  0  0  0  0  0  0
  145.8162  137.0574  155.2898 C   0  0  0  0  0  0  0  0  0  0  0  0
  147.7899  135.8628  155.9214 O   0  0  0  0  0  0  0  0  0  0  0  0
  150.2927  134.0536  154.5084 H   0  0  0  0  0  0  0  0  0  0  0  0
  149.0617  134.9018  153.5897 H   0  0  0  0  0  0  0  0  0  0  0  0
  148.6016  133.6079  154.6940 H   0  0  0  0  0  0  0  0  0  0  0  0
  149.4393  134.9293  156.6241 H   0  0  0  0  0  0  0  0  0  0  0  0
  150.0978  137.2282  156.5214 H   0  0  0  0  0  0  0  0  0  0  0  0
  151.0710  136.3762  155.3393 H   0  0  0  0  0  0  0  0  0  0  0  0
  151.4755  138.4684  154.4658 H   0  0  0  0  0  0  0  0  0  0  0  0
  150.3794  139.0971  153.2646 H   0  0  0  0  0  0  0  0  0  0  0  0
  149.5448  139.6298  156.0937 H   0  0  0  0  0  0  0  0  0  0  0  0
  148.8431  140.3684  153.7718 H   0  0  0  0  0  0  0  0  0  0  0  0
  152.2236  140.3384  155.1722 H   0  0  0  0  0  0  0  0  0  0  0  0
  151.2708  141.7884  155.3819 H   0  0  0  0  0  0  0  0  0  0  0  0
  151.6963  138.5592  157.3830 H   0  0  0  0  0  0  0  0  0  0  0  0
  152.1300  141.4295  161.3913 H   0  0  0  0  0  0  0  0  0  0  0  0
  151.3710  143.5670  156.9452 H   0  0  0  0  0  0  0  0  0  0  0  0
  148.0929  138.5558  155.7325 H   0  0  0  0  0  0  0  0  0  0  0  0
  147.7514  138.6242  154.0151 H   0  0  0  0  0  0  0  0  0  0  0  0
  147.2494  136.2023  153.9552 H   0  0  0  0  0  0  0  0  0  0  0  0
  145.3592  137.7132  154.5484 H   0  0  0  0  0  0  0  0  0  0  0  0
  145.7647  137.5575  156.2576 H   0  0  0  0  0  0  0  0  0  0  0  0
  145.2105  136.1528  155.3502 H   0  0  0  0  0  0  0  0  0  0  0  0
  149.5501  137.0821  153.6619 H   0  0  0  0  0  0  0  0  0  0  0  0
  1  2  1  0  0  0  0
  1 24  1  0  0  0  0
  1 25  1  0  0  0  0
  1 26  1  0  0  0  0
  2 23  1  0  0  0  0
  2  3  1  0  0  0  0
  2 27  1  0  0  0  0
  3  4  1  0  0  0  0
  3 28  1  0  0  0  0
  3 29  1  0  0  0  0
  4  5  1  0  0  0  0
  4 20  1  0  0  0  0
  4 45  1  0  0  0  0
  5  6  1  0  0  0  0
  5 30  1  0  0  0  0
  5 31  1  0  0  0  0
  6  7  1  0  0  0  0
  6  8  1  0  0  0  0
  6 32  1  0  0  0  0
  7 33  1  0  0  0  0
  8  9  1  0  0  0  0
  8 34  1  0  0  0  0
  8 35  1  0  0  0  0
  9 19  1  0  0  0  0
  9 10  1  0  0  0  0
 10 11  2  0  0  0  0
 10 36  1  0  0  0  0
 11 12  1  0  0  0  0
 12 19  2  0  0  0  0
 12 13  1  0  0  0  0
 13 14  2  0  0  0  0
 13 37  1  0  0  0  0
 14 15  1  0  0  0  0
 14 16  1  0  0  0  0
 16 17  1  0  0  0  0
 16 18  2  0  0  0  0
 18 19  1  0  0  0  0
 18 38  1  0  0  0  0
 20 21  1  0  0  0  0
 20 39  1  0  0  0  0
 20 40  1  0  0  0  0
 21 22  1  0  0  0  0
 21 23  1  0  0  0  0
 21 41  1  0  0  0  0
 22 42  1  0  0  0  0
 22 43  1  0  0  0  0
 22 44  1  0  0  0  0
M  CHG  1   4   1
M  END
> <s_m_source_file>
AV-unprocessed.smi

> <i_m_source_file_index>
1824

> <i_lp_mmshare_version>
43012

> <i_f3d_flags>
0

> <s_epik_input>
W0NIM11bQ0BASF0xW0NIMl1OKFtDSDJdW0NASF0oTzEpW0NIM10pW0NIMl1bQ0BIXShbT0hdKVtDSDJdbihbY0hdbjIpYyhjMjMpW2NIXWMoRiljKEYpW2NIXTM=

> <s_epik_cmdline>
J2VwaWtfcHl0aG9uJywgJy1waCcsICc3LjAnLCAnLXRuJywgJzgnLCAnLW1hJywgJzIwMCcsICctbWV0YWxfYmluZGluZycsICctaW1hZScsICc8aW5maWxlLm1hZT4nLCAnLW9tYWUnLCAnPG91dGZpbGUubWFlPic=

> <r_epik_Ionization_Penalty>
0.61967

> <r_epik_Ionization_Penalty_Charging>
0.608065

> <r_epik_Ionization_Penalty_Neutral>
0.0116057

> <r_epik_State_Penalty>
0.664205

> <r_epik_Charging_Adjusted_Penalty>
1.27227

> <i_epik_Tot_Q>
1

> <i_epik_Tot_abs_Q>
1

> <r_epik_Metal_State_Penalty>
0.654947

> <b_epik_Metal_Only>
0

> <s_lp_Force_Field>
OPLS_2005

> <r_lp_Energy>
23.1423

> <b_lp_Chiralities_Consistent>
1

> <s_lp_Variant>
AV-unprocessed.smi:1824-12

> <Gold.Version>
5.8.1

> <Gold.Id.Protein>
6NUR|6NUR_protein|mol2

> <Gold.PLP.Fitness>
45.7077

> <Gold.PLP.PLP>
-42.6699

> <Gold.PLP.part.hbond>
-1.0000

> <Gold.PLP.part.metal>
0.0000

> <Gold.PLP.part.buried>
-4.7255

> <Gold.PLP.part.nonpolar>
-35.9899

> <Gold.PLP.part.repulsive>
0.0543

> <Gold.PLP.ligand.clash>
0.0000

> <Gold.PLP.ligand.torsion>
1.5317

> <Gold.PLP.Chemscore.Hbond>
2.0000

> <Gold.PLP.Chemscore.CHOScore>
0.0000

> <Gold.PLP.Chemscore.Metal>
0.0000

> <Gold.Chemscore.Hbonds>
donor molecule, donor type, donor heavy atom, donor atom, acceptor molecule, acceptor atom, score
      L1  H     4    45       P1  7948  1.92

> <Gold.PLP.Chemscore.Internal.Correction>
0.1012

> <Gold.Rescore>
     Score         DG    S(hbond)    S(metal)    S(lipo)     H(rot)  DE(clash)    DE(int)     intcor
     11.94     -13.84       0.97        0.00      94.80       2.33       0.22       1.69       ----

> <Gold.Chemscore.Fitness>
11.9371

> <Gold.Chemscore.DG>
-13.8440

> <Gold.Chemscore.ZeroCoef>
-5.4800

> <Gold.Chemscore.Hbond>
0.9653

> <Gold.Chemscore.Metal>
0.0000

> <Gold.Chemscore.Lipo>
94.8036

> <Gold.Chemscore.Internal_Hbond>
0.0000

> <Gold.Chemscore.DEClash>
0.2213

> <Gold.Chemscore.DEInternal>
1.6856

> <Gold.Chemscore.Rot>
2.3251

> <Gold.Chemscore.Internal.Correction>
   9.000000E+99

> <Gold.Chemscore.Hbonds>
donor molecule, donor type, donor heavy atom, donor atom, acceptor molecule, acceptor atom, score
      L1  H     4    45       P1  7948  0.79

> <Gold.Chemscore.Hbond.Weighted>
-3.2243

> <Gold.Chemscore.Metal.Weighted>
-0.0000

> <Gold.Chemscore.Lipo.Weighted>
-11.0920

> <Gold.Chemscore.Internal_Hbond.Weighted>
0.0000

> <Gold.Chemscore.DEClash.Weighted>
0.2213

> <Gold.Chemscore.DEInternal.Weighted>
1.6856

> <Gold.Chemscore.Rot.Weighted>
5.9523

> <Gold.Chemscore.Internal.Correction.Weighted>
   9.000000E+99

> <Gold.Protein.RotatedTorsions>
[ 6907 6896 6895 6894 ] final -119.12 input  -60.11 | X-H torsion
[ 7974 7965 7964 7962 ] final  170.13 input  175.53 | X-H torsion
[ 8008 7997 7996 7995 ] final  -63.99 input   59.86 | X-H torsion
[ 10167 10162 10161 10158 ] final -179.40 input  -65.29 | X-H torsion
[ 10718 10713 10712 10709 ] final   82.65 input   66.30 | X-H torsion
[ 10763 10752 10751 10750 ] final   71.36 input  -60.55 | X-H torsion
[ 11005 11000 10999 10996 ] final   92.77 input  -57.11 | X-H torsion

> <Gold.Protein.ActiveResidues>
 VAL166  LYS551  ARG553  GLY616  TRP617  ASP618  TYR619  PRO620  LYS621  CYS622 
 ASP623  PHE694  ASN695  SER759  ASP760  ASP761  ALA762  ILE779  LEU786  VAL792 
 PHE793  MET794  SER795  GLU796  ALA797  LYS798  CYS799  TRP800  GLU811  SER814 

> <Gold.Protein.RotatedAtoms>
  150.8277  133.8143  159.3111 H   0  0  0  0  0  0  0  0  0  0  0  0  # atno 6907 bound_to 6896
  151.5882  135.1053  160.0042 H   0  0  0  0  0  0  0  0  0  0  0  0  # atno 6908 bound_to 6896
  152.4361  133.7321  159.6650 H   0  0  0  0  0  0  0  0  0  0  0  0  # atno 6909 bound_to 6896
  144.7333  139.9156  143.6417 H   0  0  0  0  0  0  0  0  0  0  0  0  # atno 7974 bound_to 7965
  154.4586  140.0963  156.6828 H   0  0  0  0  0  0  0  0  0  0  0  0  # atno 8008 bound_to 7997
  155.5063  140.3475  155.4362 H   0  0  0  0  0  0  0  0  0  0  0  0  # atno 8009 bound_to 7997
  156.0826  140.1377  156.9682 H   0  0  0  0  0  0  0  0  0  0  0  0  # atno 8010 bound_to 7997
  139.5388  144.2421  152.0852 H   0  0  0  0  0  0  0  0  0  0  0  0  # atno 10167 bound_to 10162
  157.6862  131.0057  150.2407 H   0  0  0  0  0  0  0  0  0  0  0  0  # atno 10718 bound_to 10713
  153.0394  135.5140  154.7581 H   0  0  0  0  0  0  0  0  0  0  0  0  # atno 10763 bound_to 10752
  154.6531  135.2928  154.9964 H   0  0  0  0  0  0  0  0  0  0  0  0  # atno 10764 bound_to 10752
  154.0841  135.6659  153.4895 H   0  0  0  0  0  0  0  0  0  0  0  0  # atno 10765 bound_to 10752
  139.8819  134.8752  156.3620 H   0  0  0  0  0  0  0  0  0  0  0  0  # atno 11005 bound_to 11000
  146.0968  139.3961  143.0372 LP  0  0  0  0  0  0  0  0  0  0  0  0  # atno 17320 bound_to 7965
  145.7634  140.9926  143.1187 LP  0  0  0  0  0  0  0  0  0  0  0  0  # atno 17321 bound_to 7965
  140.1896  144.4765  150.6486 LP  0  0  0  0  0  0  0  0  0  0  0  0  # atno 17342 bound_to 10162
  140.6608  143.2251  151.5860 LP  0  0  0  0  0  0  0  0  0  0  0  0  # atno 17343 bound_to 10162
  156.3022  130.3760  149.7740 LP  0  0  0  0  0  0  0  0  0  0  0  0  # atno 17370 bound_to 10713
  156.5366  130.8281  151.3255 LP  0  0  0  0  0  0  0  0  0  0  0  0  # atno 17371 bound_to 10713
  140.9522  133.7443  156.0288 LP  0  0  0  0  0  0  0  0  0  0  0  0  # atno 17394 bound_to 11000
  140.8091  134.3420  157.5417 LP  0  0  0  0  0  0  0  0  0  0  0  0  # atno 17395 bound_to 11000

$$$$
