AV-unprocessed.smi:910|AV-procd|sdf|4134|dock6
  -GOLD-   22720 2 43D 1   1.00000     0.00000
 Structure written by MMmdl.
 45 46  0  0  0  0  0  0  0  0  2 V2000
  148.7511  133.9800  155.9671 C   0  0  0  0  0  0  0  0  0  0  0  0
  149.1117  135.4312  155.9236 C   0  0  0  0  0  0  0  0  0  0  0  0
  150.4069  135.8758  156.1380 N   0  0  0  0  0  0  0  0  0  0  0  0
  150.3600  137.2040  156.0164 C   0  0  0  0  0  0  0  0  0  0  0  0
  151.3975  138.0474  156.1371 N   0  5  0  0  0  0  0  0  0  0  0  0
  151.1692  139.3784  156.1959 C   0  0  0  0  0  0  0  0  0  0  0  0
  151.1942  140.1651  155.2462 O   0  0  0  0  0  0  0  0  0  0  0  0
  150.9219  139.8299  157.4343 N   0  0  0  0  0  0  0  0  0  0  0  0
  150.7864  141.2307  157.8216 C   0  0  0  0  0  0  0  0  0  0  0  0
  150.2372  141.3549  159.2513 C   0  0  0  0  0  0  0  0  0  0  0  0
  150.3879  142.6963  159.6904 O   0  0  0  0  0  0  0  0  0  0  0  0
  151.6982  143.0530  160.1116 C   0  0  2  0  0  0  0  0  0  0  0  0
  152.0839  142.1000  161.2580 C   0  0  0  0  0  0  0  0  0  0  0  0
  151.1999  142.3100  162.4997 C   0  0  0  0  0  0  0  0  0  0  0  0
  151.2317  143.7728  162.9671 C   0  0  0  0  0  0  0  0  0  0  0  0
  150.8411  144.7309  161.8309 C   0  0  0  0  0  0  0  0  0  0  0  0
  151.7298  144.5270  160.5872 C   0  0  2  0  0  0  0  0  0  0  0  0
  151.3808  145.5271  159.4748 C   0  0  0  0  0  0  0  0  0  0  0  0
  149.1002  137.6510  155.7490 O   0  0  0  0  0  0  0  0  0  0  0  0
  148.3236  136.5260  155.6900 C   0  0  0  0  0  0  0  0  0  0  0  0
  146.8709  136.6939  155.4006 C   0  0  0  0  0  0  0  0  0  0  0  0
  148.5447  133.6587  156.9880 H   0  0  0  0  0  0  0  0  0  0  0  0
  149.5597  133.3595  155.5801 H   0  0  0  0  0  0  0  0  0  0  0  0
  147.8634  133.7744  155.3687 H   0  0  0  0  0  0  0  0  0  0  0  0
  150.9017  139.1480  158.1782 H   0  0  0  0  0  0  0  0  0  0  0  0
  151.7336  141.7627  157.7210 H   0  0  0  0  0  0  0  0  0  0  0  0
  150.0924  141.7000  157.1244 H   0  0  0  0  0  0  0  0  0  0  0  0
  149.1796  141.0902  159.2738 H   0  0  0  0  0  0  0  0  0  0  0  0
  150.7592  140.6608  159.9110 H   0  0  0  0  0  0  0  0  0  0  0  0
  152.4155  142.9137  159.3002 H   0  0  0  0  0  0  0  0  0  0  0  0
  152.0115  141.0652  160.9219 H   0  0  0  0  0  0  0  0  0  0  0  0
  153.1281  142.2628  161.5275 H   0  0  0  0  0  0  0  0  0  0  0  0
  150.1723  142.0233  162.2717 H   0  0  0  0  0  0  0  0  0  0  0  0
  151.5303  141.6548  163.3058 H   0  0  0  0  0  0  0  0  0  0  0  0
  150.5573  143.9074  163.8131 H   0  0  0  0  0  0  0  0  0  0  0  0
  152.2315  144.0203  163.3257 H   0  0  0  0  0  0  0  0  0  0  0  0
  149.7937  144.5781  161.5687 H   0  0  0  0  0  0  0  0  0  0  0  0
  150.9187  145.7607  162.1810 H   0  0  0  0  0  0  0  0  0  0  0  0
  152.7566  144.7434  160.8856 H   0  0  0  0  0  0  0  0  0  0  0  0
  150.3461  145.4188  159.1501 H   0  0  0  0  0  0  0  0  0  0  0  0
  152.0232  145.3897  158.6048 H   0  0  0  0  0  0  0  0  0  0  0  0
  151.5079  146.5535  159.8195 H   0  0  0  0  0  0  0  0  0  0  0  0
  146.6322  136.3222  154.4043 H   0  0  0  0  0  0  0  0  0  0  0  0
  146.5802  137.7434  155.4490 H   0  0  0  0  0  0  0  0  0  0  0  0
  146.2679  136.1426  156.1219 H   0  0  0  0  0  0  0  0  0  0  0  0
  1 22  1  0  0  0  0
  1 23  1  0  0  0  0
  1 24  1  0  0  0  0
  1  2  1  0  0  0  0
  2  3  1  0  0  0  0
  2 20  2  0  0  0  0
  3  4  2  0  0  0  0
  4 19  1  0  0  0  0
  4  5  1  0  0  0  0
  5  6  1  0  0  0  0
  6  8  1  0  0  0  0
  6  7  2  0  0  0  0
  8  9  1  0  0  0  0
  8 25  1  0  0  0  0
  9 10  1  0  0  0  0
  9 26  1  0  0  0  0
  9 27  1  0  0  0  0
 10 11  1  0  0  0  0
 10 28  1  0  0  0  0
 10 29  1  0  0  0  0
 11 12  1  0  0  0  0
 12 17  1  0  0  0  0
 12 13  1  0  0  0  0
 12 30  1  0  0  0  0
 13 14  1  0  0  0  0
 13 31  1  0  0  0  0
 13 32  1  0  0  0  0
 14 15  1  0  0  0  0
 14 33  1  0  0  0  0
 14 34  1  0  0  0  0
 15 16  1  0  0  0  0
 15 35  1  0  0  0  0
 15 36  1  0  0  0  0
 16 17  1  0  0  0  0
 16 37  1  0  0  0  0
 16 38  1  0  0  0  0
 17 18  1  0  0  0  0
 17 39  1  0  0  0  0
 18 40  1  0  0  0  0
 18 41  1  0  0  0  0
 18 42  1  0  0  0  0
 19 20  1  0  0  0  0
 20 21  1  0  0  0  0
 21 43  1  0  0  0  0
 21 44  1  0  0  0  0
 21 45  1  0  0  0  0
M  CHG  1   5  -1
M  END
> <s_m_source_file>
AV-unprocessed.smi

> <i_m_source_file_index>
910

> <i_lp_mmshare_version>
43012

> <i_f3d_flags>
0

> <s_epik_input>
W0NIM11jMW5jKG9jMVtDSDNdKVtOSF1DKD1PKVtOSF1bQ0gyXVtDSDJdT1tDQEBIXTJbQ0gyXVtDSDJdW0NIMl1bQ0gyXVtDQEhdMltDSDNd

> <s_epik_cmdline>
J2VwaWtfcHl0aG9uJywgJy1waCcsICc3LjAnLCAnLXRuJywgJzgnLCAnLW1hJywgJzIwMCcsICctbWV0YWxfYmluZGluZycsICctaW1hZScsICc8aW5maWxlLm1hZT4nLCAnLW9tYWUnLCAnPG91dGZpbGUubWFlPic=

> <r_lp_tautomer_probability>
0.107061

> <r_epik_Ionization_Penalty>
10.1763

> <r_epik_Ionization_Penalty_Charging>
7.13067

> <r_epik_Ionization_Penalty_Neutral>
3.04564

> <r_epik_State_Penalty>
5.57927

> <r_epik_Charging_Adjusted_Penalty>
12.7099

> <i_epik_Tot_Q>
-1

> <i_epik_Tot_abs_Q>
1

> <r_epik_Metal_State_Penalty>
1.52303

> <b_epik_Metal_Only>
1

> <s_lp_Force_Field>
OPLS_2005

> <r_lp_Energy>
5.26856

> <b_lp_Chiralities_Consistent>
1

> <s_lp_Variant>
AV-unprocessed.smi:910-19

> <Gold.Version>
5.8.1

> <Gold.Id.Protein>
6NUR|6NUR_protein|mol2

> <Gold.PLP.Fitness>
48.7610

> <Gold.PLP.PLP>
-44.5856

> <Gold.PLP.part.hbond>
-2.1428

> <Gold.PLP.part.metal>
0.0000

> <Gold.PLP.part.buried>
-7.2995

> <Gold.PLP.part.nonpolar>
-36.4689

> <Gold.PLP.part.repulsive>
0.5774

> <Gold.PLP.ligand.clash>
0.0000

> <Gold.PLP.ligand.torsion>
0.9460

> <Gold.PLP.Chemscore.Hbond>
2.0000

> <Gold.PLP.Chemscore.CHOScore>
0.0000

> <Gold.PLP.Chemscore.Metal>
0.0000

> <Gold.Chemscore.Hbonds>
donor molecule, donor type, donor heavy atom, donor atom, acceptor molecule, acceptor atom, score
      P1  H  7989  7998       L1     7  1.00

> <Gold.PLP.Chemscore.Internal.Correction>
0.0674

> <Gold.Rescore>
     Score         DG    S(hbond)    S(metal)    S(lipo)     H(rot)  DE(clash)    DE(int)     intcor
     18.70     -19.57       1.88        0.00     102.28       1.62       0.03       0.85       ----

> <Gold.Chemscore.Fitness>
18.6968

> <Gold.Chemscore.DG>
-19.5732

> <Gold.Chemscore.ZeroCoef>
-5.4800

> <Gold.Chemscore.Hbond>
1.8760

> <Gold.Chemscore.Metal>
0.0000

> <Gold.Chemscore.Lipo>
102.2778

> <Gold.Chemscore.Internal_Hbond>
0.0000

> <Gold.Chemscore.DEClash>
0.0276

> <Gold.Chemscore.DEInternal>
0.8488

> <Gold.Chemscore.Rot>
1.6169

> <Gold.Chemscore.Internal.Correction>
   9.000000E+99

> <Gold.Chemscore.Hbonds>
donor molecule, donor type, donor heavy atom, donor atom, acceptor molecule, acceptor atom, score
      P1  H  7989  7998       L1     7  0.97

> <Gold.Chemscore.Hbond.Weighted>
-6.2659

> <Gold.Chemscore.Metal.Weighted>
-0.0000

> <Gold.Chemscore.Lipo.Weighted>
-11.9665

> <Gold.Chemscore.Internal_Hbond.Weighted>
0.0000

> <Gold.Chemscore.DEClash.Weighted>
0.0276

> <Gold.Chemscore.DEInternal.Weighted>
0.8488

> <Gold.Chemscore.Rot.Weighted>
4.1393

> <Gold.Chemscore.Internal.Correction.Weighted>
   9.000000E+99

> <Gold.Protein.RotatedTorsions>
[ 6907 6896 6895 6894 ] final   50.71 input  -60.11 | X-H torsion
[ 7974 7965 7964 7962 ] final   71.95 input  175.53 | X-H torsion
[ 8008 7997 7996 7995 ] final   51.57 input   59.86 | X-H torsion
[ 10167 10162 10161 10158 ] final  -82.86 input  -65.29 | X-H torsion
[ 10718 10713 10712 10709 ] final   -2.53 input   66.30 | X-H torsion
[ 10763 10752 10751 10750 ] final  -73.86 input  -60.55 | X-H torsion
[ 11005 11000 10999 10996 ] final   -2.77 input  -57.11 | X-H torsion

> <Gold.Protein.ActiveResidues>
 VAL166  LYS551  ARG553  GLY616  TRP617  ASP618  TYR619  PRO620  LYS621  CYS622 
 ASP623  PHE694  ASN695  SER759  ASP760  ASP761  ALA762  ILE779  LEU786  VAL792 
 PHE793  MET794  SER795  GLU796  ALA797  LYS798  CYS799  TRP800  GLU811  SER814 

> <Gold.Protein.RotatedAtoms>
  152.3048  134.7568  160.0349 H   0  0  0  0  0  0  0  0  0  0  0  0  # atno 6907 bound_to 6896
  151.8069  133.3371  159.3552 H   0  0  0  0  0  0  0  0  0  0  0  0  # atno 6908 bound_to 6896
  150.7291  134.5630  159.5896 H   0  0  0  0  0  0  0  0  0  0  0  0  # atno 6909 bound_to 6896
  145.7595  139.2794  143.1384 H   0  0  0  0  0  0  0  0  0  0  0  0  # atno 7974 bound_to 7965
  155.4375  140.3453  155.4286 H   0  0  0  0  0  0  0  0  0  0  0  0  # atno 8008 bound_to 7997
  156.1299  140.1511  156.9111 H   0  0  0  0  0  0  0  0  0  0  0  0  # atno 8009 bound_to 7997
  154.4887  140.0847  156.7525 H   0  0  0  0  0  0  0  0  0  0  0  0  # atno 8010 bound_to 7997
  140.4281  143.2559  151.8798 H   0  0  0  0  0  0  0  0  0  0  0  0  # atno 10167 bound_to 10162
  156.7894  130.5356  149.5738 H   0  0  0  0  0  0  0  0  0  0  0  0  # atno 10718 bound_to 10713
  154.4653  135.5883  153.6284 H   0  0  0  0  0  0  0  0  0  0  0  0  # atno 10763 bound_to 10752
  152.9828  135.6054  154.3435 H   0  0  0  0  0  0  0  0  0  0  0  0  # atno 10764 bound_to 10752
  154.3311  135.2842  155.2450 H   0  0  0  0  0  0  0  0  0  0  0  0  # atno 10765 bound_to 10752
  140.6620  133.9312  155.8442 H   0  0  0  0  0  0  0  0  0  0  0  0  # atno 11005 bound_to 11000
  146.0278  140.8287  142.9891 LP  0  0  0  0  0  0  0  0  0  0  0  0  # atno 17320 bound_to 7965
  144.6833  140.2723  143.7304 LP  0  0  0  0  0  0  0  0  0  0  0  0  # atno 17321 bound_to 7965
  139.4784  144.5365  151.8591 LP  0  0  0  0  0  0  0  0  0  0  0  0  # atno 17342 bound_to 10162
  140.4459  144.1923  150.5894 LP  0  0  0  0  0  0  0  0  0  0  0  0  # atno 17343 bound_to 10162
  156.1168  130.6081  151.0133 LP  0  0  0  0  0  0  0  0  0  0  0  0  # atno 17370 bound_to 10713
  157.6608  131.0881  150.7843 LP  0  0  0  0  0  0  0  0  0  0  0  0  # atno 17371 bound_to 10713
  141.0458  134.0556  157.3846 LP  0  0  0  0  0  0  0  0  0  0  0  0  # atno 17394 bound_to 11000
  139.9010  135.0164  156.7266 LP  0  0  0  0  0  0  0  0  0  0  0  0  # atno 17395 bound_to 11000

$$$$
