#       Name:                AV-unprocessed.smi:1878
#       Creating user name   scv26
#       Creation time:       Fri Mar 27 09:35:14 2020


#       File generated by GOLD software.
#

@<TRIPOS>MOLECULE
AV-unprocessed.smi:1878
    39    40     1
SMALL
NO_CHARGES


@<TRIPOS>ATOM
      1 ****         3.5596  -0.2324   0.0786 O.2            1 S1                 0.0000
      2 ****         3.0341  -1.3447   0.0396 C.2            1 S1                 0.0000
      3 ****         3.7296  -2.4898   0.0215 N.am           1 S1                 0.0000
      4 ****         5.1861  -2.5870   0.0157 C.3            1 S1                 0.0000
      5 ****         5.7598  -2.5596  -1.4112 C.3            1 S1                 0.0000
      6 ****         7.0805  -2.7262  -1.3544 F              1 S1                 0.0000
      7 ****         5.2361  -3.5479  -2.1370 F              1 S1                 0.0000
      8 ****         5.5040  -1.3947  -2.0066 F              1 S1                 0.0000
      9 ****         1.7108  -1.5801   0.0270 N.am           1 S1                 0.0000
     10 ****         0.6457  -0.6394   0.0285 C.ar           1 S1                 0.0000
     11 ****         0.7666   0.7017  -0.4069 C.ar           1 S1                 0.0000
     12 ****        -0.3689   1.5335  -0.3718 C.ar           1 S1                 0.0000
     13 ****        -1.5913   1.0008   0.0863 C.ar           1 S1                 0.0000
     14 ****        -2.7188   1.8351   0.1244 N.3            1 S1                 0.0000
     15 ****        -3.8492   1.3995  -0.6791 C.3            1 S1                 0.0000
     16 ****        -5.0404   2.2241  -0.1848 C.3            1 S1                 0.0000
     17 ****        -4.6495   2.6711   1.2293 C.3            1 S1                 0.0000
     18 ****        -3.2506   2.0900   1.4530 C.3            1 S1                 0.0000
     19 ****        -1.7170  -0.2859   0.4904 N.ar           1 S1                 0.0000
     20 ****        -0.6248  -1.0781   0.4548 C.ar           1 S1                 0.0000
     21 ****         3.2172  -3.3590  -0.0084 H              1 S1                 0.0000
     22 ****         5.6268  -1.7914   0.6190 H              1 S1                 0.0000
     23 ****         5.4581  -3.5242   0.5021 H              1 S1                 0.0000
     24 ****         1.4310  -2.5488   0.0772 H              1 S1                 0.0000
     25 ****         1.6965   1.1040  -0.7774 H              1 S1                 0.0000
     26 ****        -0.3010   2.5617  -0.6966 H              1 S1                 0.0000
     27 ****        -3.6621   1.5611  -1.7411 H              1 S1                 0.0000
     28 ****        -4.0422   0.3365  -0.5282 H              1 S1                 0.0000
     29 ****        -5.1860   3.0972  -0.8220 H              1 S1                 0.0000
     30 ****        -5.9641   1.6447  -0.1985 H              1 S1                 0.0000
     31 ****        -4.6205   3.7601   1.2798 H              1 S1                 0.0000
     32 ****        -5.3536   2.3220   1.9850 H              1 S1                 0.0000
     33 ****        -3.3170   1.1619   2.0229 H              1 S1                 0.0000
     34 ****        -2.6128   2.7801   2.0061 H              1 S1                 0.0000
     35 ****        -0.7710  -2.0968   0.7841 H              1 S1                 0.0000
     36 ****         4.5560  -0.1506   0.0985 LP             1 S1                 0.0000
     37 ****         2.9901   0.5895   0.0903 LP             1 S1                 0.0000
     38 ****        -2.3248   2.6686  -0.2630 LP             1 S1                 0.0000
     39 ****        -2.5970  -0.6400   0.8071 LP             1 S1                 0.0000
@<TRIPOS>BOND
    1    1    2 2     
    2    2    3 am    
    3    2    9 am    
    4    3    4 1     
    5    3   21 1     
    6    4    5 1     
    7    4   22 1     
    8    4   23 1     
    9    5    6 1     
   10    5    7 1     
   11    5    8 1     
   12    9   10 1     
   13    9   24 1     
   14   10   20 ar    
   15   10   11 ar    
   16   11   12 ar    
   17   11   25 1     
   18   12   13 ar    
   19   12   26 1     
   20   13   14 1     
   21   13   19 ar    
   22   14   18 1     
   23   14   15 1     
   24   15   16 1     
   25   15   27 1     
   26   15   28 1     
   27   16   17 1     
   28   16   29 1     
   29   16   30 1     
   30   17   18 1     
   31   17   31 1     
   32   17   32 1     
   33   18   33 1     
   34   18   34 1     
   35   19   20 ar    
   36   20   35 1     
   37    1   36 1     
   38    1   37 1     
   39   14   38 1     
   40   19   39 1     
@<TRIPOS>SUBSTRUCTURE
      1 S1             1
@<TRIPOS>SET
LONE_PAIRS      STATIC     ATOMS    <user>   **** ""
4 36 37 38 39
DONOR_HYDROGENS      STATIC     ATOMS    <user>   **** ""
2 21 24
ATOM$BLUE        STATIC     ATOMS    COLORGROUP SYSTEM
4 36 37 38 39
ATOM$RED        STATIC     ATOMS    COLORGROUP SYSTEM
2 21 24
