AV-unprocessed.smi:1032|AV-procd|sdf|4486|dock4
  -GOLD-   22720 2463D 1   1.00000     0.00000
 Structure written by MMmdl.
 47 48  0  0  0  0  0  0  0  0  3 V2000
  152.2390  144.7997  158.6759 C   0  0  0  0  0  0  0  0  0  0  0  0
  151.6327  143.5122  158.0999 C   0  0  2  0  0  0  0  0  0  0  0  0
  151.9173  143.3688  156.5955 C   0  0  0  0  0  0  0  0  0  0  0  0
  151.2805  142.0898  156.0258 C   0  0  0  0  0  0  0  0  0  0  0  0
  149.8147  142.0631  156.2771 N   0  3  1  0  0  0  0  0  0  0  0  0
  149.1247  140.9093  155.6435 C   0  0  0  0  0  0  0  0  0  0  0  0
  148.1878  141.3243  154.4897 C   0  0  2  0  0  0  0  0  0  0  0  0
  148.6793  142.5376  153.9545 O   0  0  0  0  0  0  0  0  0  0  0  0
  146.7512  141.5719  154.9946 C   0  0  0  0  0  0  0  0  0  0  0  0
  145.8041  140.6020  154.4520 N   0  0  0  0  0  0  0  0  0  0  0  0
  145.7248  139.3164  154.8251 C   0  0  0  0  0  0  0  0  0  0  0  0
  146.4781  138.8049  155.6537 O   0  0  0  0  0  0  0  0  0  0  0  0
  144.7465  138.6725  154.1656 N   0  0  0  0  0  0  0  0  0  0  0  0
  144.3172  137.3267  154.3243 C   0  0  0  0  0  0  0  0  0  0  0  0
  143.2270  136.8874  153.5405 C   0  0  0  0  0  0  0  0  0  0  0  0
  142.7574  135.5656  153.6815 C   0  0  0  0  0  0  0  0  0  0  0  0
  143.3430  134.7350  154.5706 N   0  3  0  0  0  0  0  0  0  0  0  0
  144.3762  135.1139  155.3527 C   0  0  0  0  0  0  0  0  0  0  0  0
  144.8904  136.4231  155.2549 C   0  0  0  0  0  0  0  0  0  0  0  0
  149.5118  142.1662  157.7280 C   0  0  0  0  0  0  0  0  0  0  0  0
  150.1147  143.4438  158.3350 C   0  0  0  0  0  0  0  0  0  0  0  0
  151.8116  145.6863  158.2059 H   0  0  0  0  0  0  0  0  0  0  0  0
  153.3180  144.8290  158.5225 H   0  0  0  0  0  0  0  0  0  0  0  0
  152.0581  144.8721  159.7487 H   0  0  0  0  0  0  0  0  0  0  0  0
  152.0956  142.6690  158.6150 H   0  0  0  0  0  0  0  0  0  0  0  0
  151.5310  144.2376  156.0602 H   0  0  0  0  0  0  0  0  0  0  0  0
  152.9935  143.3519  156.4191 H   0  0  0  0  0  0  0  0  0  0  0  0
  151.4878  142.0439  154.9576 H   0  0  0  0  0  0  0  0  0  0  0  0
  151.7442  141.2095  156.4739 H   0  0  0  0  0  0  0  0  0  0  0  0
  149.8739  140.1983  155.2919 H   0  0  0  0  0  0  0  0  0  0  0  0
  148.5328  140.3796  156.3920 H   0  0  0  0  0  0  0  0  0  0  0  0
  148.1821  140.5632  153.7105 H   0  0  0  0  0  0  0  0  0  0  0  0
  148.9069  143.1125  154.6698 H   0  0  0  0  0  0  0  0  0  0  0  0
  146.7216  141.5064  156.0838 H   0  0  0  0  0  0  0  0  0  0  0  0
  146.4179  142.5816  154.7503 H   0  0  0  0  0  0  0  0  0  0  0  0
  145.1503  140.9418  153.7616 H   0  0  0  0  0  0  0  0  0  0  0  0
  144.2804  139.1946  153.4381 H   0  0  0  0  0  0  0  0  0  0  0  0
  142.7553  137.5527  152.8318 H   0  0  0  0  0  0  0  0  0  0  0  0
  141.9348  135.1521  153.1164 H   0  0  0  0  0  0  0  0  0  0  0  0
  144.7547  134.3658  156.0339 H   0  0  0  0  0  0  0  0  0  0  0  0
  145.7030  136.7124  155.9041 H   0  0  0  0  0  0  0  0  0  0  0  0
  148.4316  142.1771  157.8799 H   0  0  0  0  0  0  0  0  0  0  0  0
  149.8961  141.2851  158.2447 H   0  0  0  0  0  0  0  0  0  0  0  0
  149.9005  143.4773  159.4038 H   0  0  0  0  0  0  0  0  0  0  0  0
  149.6314  144.3177  157.8958 H   0  0  0  0  0  0  0  0  0  0  0  0
  149.4252  142.8912  155.8490 H   0  0  0  0  0  0  0  0  0  0  0  0
  142.9865  133.7828  154.6591 H   0  0  0  0  0  0  0  0  0  0  0  0
  1  2  1  0  0  0  0
  1 22  1  0  0  0  0
  1 23  1  0  0  0  0
  1 24  1  0  0  0  0
  2 21  1  0  0  0  0
  2  3  1  0  0  0  0
  2 25  1  0  0  0  0
  3  4  1  0  0  0  0
  3 26  1  0  0  0  0
  3 27  1  0  0  0  0
  4  5  1  0  0  0  0
  4 28  1  0  0  0  0
  4 29  1  0  0  0  0
  5  6  1  0  0  0  0
  5 20  1  0  0  0  0
  5 46  1  0  0  0  0
  6  7  1  0  0  0  0
  6 30  1  0  0  0  0
  6 31  1  0  0  0  0
  7  8  1  0  0  0  0
  7  9  1  0  0  0  0
  7 32  1  0  0  0  0
  8 33  1  0  0  0  0
  9 10  1  0  0  0  0
  9 34  1  0  0  0  0
  9 35  1  0  0  0  0
 10 11  1  0  0  0  0
 10 36  1  0  0  0  0
 11 12  2  0  0  0  0
 11 13  1  0  0  0  0
 13 14  1  0  0  0  0
 13 37  1  0  0  0  0
 14 19  1  0  0  0  0
 14 15  2  0  0  0  0
 15 16  1  0  0  0  0
 15 38  1  0  0  0  0
 16 17  2  0  0  0  0
 16 39  1  0  0  0  0
 17 18  1  0  0  0  0
 17 47  1  0  0  0  0
 18 19  2  0  0  0  0
 18 40  1  0  0  0  0
 19 41  1  0  0  0  0
 20 21  1  0  0  0  0
 20 42  1  0  0  0  0
 20 43  1  0  0  0  0
 21 44  1  0  0  0  0
 21 45  1  0  0  0  0
M  CHG  1   5   1
M  CHG  1  17   1
M  END
> <s_m_source_file>
AV-unprocessed.smi

> <i_m_source_file_index>
1032

> <i_lp_mmshare_version>
43012

> <i_f3d_flags>
0

> <s_epik_input>
W0NIM11bQ0hdMVtDSDJdW0NIMl1OKFtDSDJdW0NIMl0xKVtDSDJdW0NASF0oW09IXSlbQ0gyXVtOSF1DKD1PKVtOSF1jMltjSF1bY0hdbltjSF1bY0hdMg==

> <s_epik_cmdline>
J2VwaWtfcHl0aG9uJywgJy1waCcsICc3LjAnLCAnLXRuJywgJzgnLCAnLW1hJywgJzIwMCcsICctbWV0YWxfYmluZGluZycsICctaW1hZScsICc8aW5maWxlLm1hZT4nLCAnLW9tYWUnLCAnPG91dGZpbGUubWFlPic=

> <r_epik_Ionization_Penalty>
1.02509

> <r_epik_Ionization_Penalty_Charging>
1.02507

> <r_epik_Ionization_Penalty_Neutral>
1.85474e-05

> <r_epik_State_Penalty>
1.07411

> <r_epik_Charging_Adjusted_Penalty>
2.09917

> <i_epik_Tot_Q>
2

> <i_epik_Tot_abs_Q>
2

> <r_epik_Metal_State_Penalty>
1.1725

> <b_epik_Metal_Only>
0

> <s_lp_Force_Field>
OPLS_2005

> <r_lp_Energy>
32.4913

> <b_lp_Chiralities_Consistent>
1

> <s_lp_Variant>
AV-unprocessed.smi:1032-5

> <Gold.Version>
5.8.1

> <Gold.Id.Protein>
6NUR|6NUR_protein|mol2

> <Gold.PLP.Fitness>
48.7232

> <Gold.PLP.PLP>
-31.3948

> <Gold.PLP.part.hbond>
-6.5345

> <Gold.PLP.part.metal>
0.0000

> <Gold.PLP.part.buried>
-4.8386

> <Gold.PLP.part.nonpolar>
-20.1263

> <Gold.PLP.part.repulsive>
0.0584

> <Gold.PLP.ligand.clash>
0.0000

> <Gold.PLP.ligand.torsion>
1.9576

> <Gold.PLP.Chemscore.Hbond>
7.0560

> <Gold.PLP.Chemscore.CHOScore>
0.0000

> <Gold.PLP.Chemscore.Metal>
0.0000

> <Gold.Chemscore.Hbonds>
donor molecule, donor type, donor heavy atom, donor atom, acceptor molecule, acceptor atom, score
      L1  H     5    46       P1  8028  2.00
      L1  H     8    33       P1  8028  1.00
      L1  H    10    36       P1 10175  0.94
      L1  H    13    37       P1 10175  1.00
      L1  H    17    47       P1 10957  1.95
      P1  H  8011  8017       L1     8  0.13

> <Gold.PLP.Chemscore.Internal.Correction>
0.0757

> <Gold.Rescore>
     Score         DG    S(hbond)    S(metal)    S(lipo)     H(rot)  DE(clash)    DE(int)     intcor
     19.91     -25.70       4.86        0.00      85.25       2.34       2.38       3.41       ----

> <Gold.Chemscore.Fitness>
19.9128

> <Gold.Chemscore.DG>
-25.7043

> <Gold.Chemscore.ZeroCoef>
-5.4800

> <Gold.Chemscore.Hbond>
4.8620

> <Gold.Chemscore.Metal>
0.0000

> <Gold.Chemscore.Lipo>
85.2464

> <Gold.Chemscore.Internal_Hbond>
0.0000

> <Gold.Chemscore.DEClash>
2.3777

> <Gold.Chemscore.DEInternal>
3.4138

> <Gold.Chemscore.Rot>
2.3393

> <Gold.Chemscore.Internal.Correction>
   9.000000E+99

> <Gold.Chemscore.Hbonds>
donor molecule, donor type, donor heavy atom, donor atom, acceptor molecule, acceptor atom, score
      L1  H     5    46       P1  8028  0.99
      L1  H     8    33       P1  8028  0.98
      L1  H    10    36       P1 10175  0.73
      L1  H    13    37       P1 10175  1.00
      L1  H    17    47       P1 10957  0.91
      P1  H  8011  8017       L1     8  0.13

> <Gold.Chemscore.Hbond.Weighted>
-16.2391

> <Gold.Chemscore.Metal.Weighted>
-0.0000

> <Gold.Chemscore.Lipo.Weighted>
-9.9738

> <Gold.Chemscore.Internal_Hbond.Weighted>
0.0000

> <Gold.Chemscore.DEClash.Weighted>
2.3777

> <Gold.Chemscore.DEInternal.Weighted>
3.4138

> <Gold.Chemscore.Rot.Weighted>
5.9886

> <Gold.Chemscore.Internal.Correction.Weighted>
   9.000000E+99

> <Gold.Protein.RotatedTorsions>
[ 6907 6896 6895 6894 ] final   75.36 input  -60.11 | X-H torsion
[ 7974 7965 7964 7962 ] final  -72.78 input  175.53 | X-H torsion
[ 8008 7997 7996 7995 ] final   93.66 input   59.86 | X-H torsion
[ 10167 10162 10161 10158 ] final   70.27 input  -65.29 | X-H torsion
[ 10718 10713 10712 10709 ] final    0.66 input   66.30 | X-H torsion
[ 10763 10752 10751 10750 ] final  -43.42 input  -60.55 | X-H torsion
[ 11005 11000 10999 10996 ] final -104.83 input  -57.11 | X-H torsion

> <Gold.Protein.ActiveResidues>
 VAL166  LYS551  ARG553  GLY616  TRP617  ASP618  TYR619  PRO620  LYS621  CYS622 
 ASP623  PHE694  ASN695  SER759  ASP760  ASP761  ALA762  ILE779  LEU786  VAL792 
 PHE793  MET794  SER795  GLU796  ALA797  LYS798  CYS799  TRP800  GLU811  SER814 

> <Gold.Protein.RotatedAtoms>
  152.5022  134.4132  159.9455 H   0  0  0  0  0  0  0  0  0  0  0  0  # atno 6907 bound_to 6896
  151.4101  133.3724  159.2750 H   0  0  0  0  0  0  0  0  0  0  0  0  # atno 6908 bound_to 6896
  150.9298  134.8735  159.7603 H   0  0  0  0  0  0  0  0  0  0  0  0  # atno 6909 bound_to 6896
  145.6607  140.9253  143.0935 H   0  0  0  0  0  0  0  0  0  0  0  0  # atno 7974 bound_to 7965
  156.0493  140.3310  155.7332 H   0  0  0  0  0  0  0  0  0  0  0  0  # atno 8008 bound_to 7997
  155.5626  140.0620  157.2843 H   0  0  0  0  0  0  0  0  0  0  0  0  # atno 8009 bound_to 7997
  154.4428  140.1875  156.0786 H   0  0  0  0  0  0  0  0  0  0  0  0  # atno 8010 bound_to 7997
  140.0588  144.5250  150.7309 H   0  0  0  0  0  0  0  0  0  0  0  0  # atno 10167 bound_to 10162
  156.8366  130.5507  149.5681 H   0  0  0  0  0  0  0  0  0  0  0  0  # atno 10718 bound_to 10713
  153.9953  135.6700  153.4756 H   0  0  0  0  0  0  0  0  0  0  0  0  # atno 10763 bound_to 10752
  153.0686  135.4987  154.8252 H   0  0  0  0  0  0  0  0  0  0  0  0  # atno 10764 bound_to 10752
  154.7085  135.3092  154.9196 H   0  0  0  0  0  0  0  0  0  0  0  0  # atno 10765 bound_to 10752
  141.1082  133.8756  157.1659 H   0  0  0  0  0  0  0  0  0  0  0  0  # atno 11005 bound_to 11000
  144.7090  139.8445  143.7421 LP  0  0  0  0  0  0  0  0  0  0  0  0  # atno 17320 bound_to 7965
  146.1127  139.4134  143.0277 LP  0  0  0  0  0  0  0  0  0  0  0  0  # atno 17321 bound_to 7965
  140.7182  143.2563  151.4366 LP  0  0  0  0  0  0  0  0  0  0  0  0  # atno 17342 bound_to 10162
  139.5907  144.1506  152.2084 LP  0  0  0  0  0  0  0  0  0  0  0  0  # atno 17343 bound_to 10162
  156.0904  130.5891  150.9722 LP  0  0  0  0  0  0  0  0  0  0  0  0  # atno 17370 bound_to 10713
  157.6378  131.0914  150.8313 LP  0  0  0  0  0  0  0  0  0  0  0  0  # atno 17371 bound_to 10713
  139.9962  135.0045  157.0088 LP  0  0  0  0  0  0  0  0  0  0  0  0  # atno 17394 bound_to 11000
  140.4846  134.1255  155.7222 LP  0  0  0  0  0  0  0  0  0  0  0  0  # atno 17395 bound_to 11000

$$$$
