AV-unprocessed.smi:3185|AV-procd|sdf|12166|dock4
  -GOLD-   2272018 03D 1   1.00000     0.00000
 Structure written by MMmdl.
 38 39  0  0  0  0  0  0  0  0  2 V2000
  152.9569  142.6854  159.8459 N   0  0  0  0  0  0  0  0  0  0  0  0
  152.1456  143.2605  159.2556 C   0  0  0  0  0  0  0  0  0  0  0  0
  151.1143  143.9911  158.5040 C   0  0  0  0  0  0  0  0  0  0  0  0
  149.9115  143.1107  158.1463 C   0  0  0  0  0  0  0  0  0  0  0  0
  150.3005  141.9317  157.2464 C   0  0  0  0  0  0  0  0  0  0  0  0
  149.8713  142.1700  155.8526 N   0  3  0  0  0  0  0  0  0  0  0  0
  148.7829  141.2952  155.3556 C   0  0  1  0  0  0  0  0  0  0  0  0
  148.4008  141.6115  153.8874 C   0  0  0  0  0  0  0  0  0  0  0  0
  147.3251  140.6514  153.3549 C   0  0  0  0  0  0  0  0  0  0  0  0
  147.7351  139.1826  153.5327 C   0  0  0  0  0  0  0  0  0  0  0  0
  148.0389  138.8754  155.0075 C   0  0  0  0  0  0  0  0  0  0  0  0
  149.1313  139.7959  155.5908 C   0  0  1  0  0  0  0  0  0  0  0  0
  150.4665  139.3834  155.1506 N   0  0  0  0  0  0  0  0  0  0  0  0
  150.7706  138.4070  154.2228 C   0  0  0  0  0  0  0  0  0  0  0  0
  152.1282  138.3735  154.0831 C   0  0  0  0  0  0  0  0  0  0  0  0
  152.5815  139.3937  154.9628 C   0  0  0  0  0  0  0  0  0  0  0  0
  151.5878  139.9981  155.5921 N   0  0  0  0  0  0  0  0  0  0  0  0
  150.7991  144.8410  159.1100 H   0  0  0  0  0  0  0  0  0  0  0  0
  151.5791  144.3897  157.6019 H   0  0  0  0  0  0  0  0  0  0  0  0
  149.4539  142.7361  159.0631 H   0  0  0  0  0  0  0  0  0  0  0  0
  149.1552  143.7192  157.6483 H   0  0  0  0  0  0  0  0  0  0  0  0
  151.3814  141.7875  157.2738 H   0  0  0  0  0  0  0  0  0  0  0  0
  149.8411  141.0192  157.6259 H   0  0  0  0  0  0  0  0  0  0  0  0
  149.5797  143.1324  155.7533 H   0  0  0  0  0  0  0  0  0  0  0  0
  147.9037  141.5034  155.9677 H   0  0  0  0  0  0  0  0  0  0  0  0
  148.0193  142.6292  153.8079 H   0  0  0  0  0  0  0  0  0  0  0  0
  149.2744  141.5748  153.2383 H   0  0  0  0  0  0  0  0  0  0  0  0
  146.3856  140.8310  153.8791 H   0  0  0  0  0  0  0  0  0  0  0  0
  147.1333  140.8583  152.3016 H   0  0  0  0  0  0  0  0  0  0  0  0
  146.9345  138.5325  153.1787 H   0  0  0  0  0  0  0  0  0  0  0  0
  148.6045  138.9607  152.9133 H   0  0  0  0  0  0  0  0  0  0  0  0
  147.1232  138.9964  155.5877 H   0  0  0  0  0  0  0  0  0  0  0  0
  148.3270  137.8294  155.1184 H   0  0  0  0  0  0  0  0  0  0  0  0
  149.1254  139.6421  156.6712 H   0  0  0  0  0  0  0  0  0  0  0  0
  150.0017  137.8204  153.7417 H   0  0  0  0  0  0  0  0  0  0  0  0
  152.7082  137.7255  153.4426 H   0  0  0  0  0  0  0  0  0  0  0  0
  153.5945  139.7133  155.1588 H   0  0  0  0  0  0  0  0  0  0  0  0
  150.6753  142.0196  155.2601 H   0  0  0  0  0  0  0  0  0  0  0  0
  1  2  3  0  0  0  0
  2  3  1  0  0  0  0
  3  4  1  0  0  0  0
  3 18  1  0  0  0  0
  3 19  1  0  0  0  0
  4  5  1  0  0  0  0
  4 20  1  0  0  0  0
  4 21  1  0  0  0  0
  5  6  1  0  0  0  0
  5 22  1  0  0  0  0
  5 23  1  0  0  0  0
  6  7  1  0  0  0  0
  6 24  1  0  0  0  0
  6 38  1  0  0  0  0
  7 12  1  0  0  0  0
  7  8  1  0  0  0  0
  7 25  1  0  0  0  0
  8  9  1  0  0  0  0
  8 26  1  0  0  0  0
  8 27  1  0  0  0  0
  9 10  1  0  0  0  0
  9 28  1  0  0  0  0
  9 29  1  0  0  0  0
 10 11  1  0  0  0  0
 10 30  1  0  0  0  0
 10 31  1  0  0  0  0
 11 12  1  0  0  0  0
 11 32  1  0  0  0  0
 11 33  1  0  0  0  0
 12 13  1  0  0  0  0
 12 34  1  0  0  0  0
 13 17  1  0  0  0  0
 13 14  1  0  0  0  0
 14 15  2  0  0  0  0
 14 35  1  0  0  0  0
 15 16  1  0  0  0  0
 15 36  1  0  0  0  0
 16 17  2  0  0  0  0
 16 37  1  0  0  0  0
M  CHG  1   6   1
M  END
> <s_m_source_file>
AV-unprocessed.smi

> <i_m_source_file_index>
3185

> <i_lp_mmshare_version>
43012

> <i_f3d_flags>
0

> <s_epik_input>
TiNDW0NIMl1bQ0gyXVtDSDJdW05IXVtDQEBIXTFbQ0gyXVtDSDJdW0NIMl1bQ0gyXVtDQEhdMW4yW2NIXVtjSF1bY0hdbjI=

> <s_epik_cmdline>
J2VwaWtfcHl0aG9uJywgJy1waCcsICc3LjAnLCAnLXRuJywgJzgnLCAnLW1hJywgJzIwMCcsICctbWV0YWxfYmluZGluZycsICctaW1hZScsICc8aW5maWxlLm1hZT4nLCAnLW9tYWUnLCAnPG91dGZpbGUubWFlPic=

> <r_lp_tautomer_probability>
1

> <r_epik_Ionization_Penalty>
0.0143465

> <r_epik_Ionization_Penalty_Charging>
0.0143338

> <r_epik_Ionization_Penalty_Neutral>
1.27047e-05

> <r_epik_State_Penalty>
0.0112058

> <r_epik_Charging_Adjusted_Penalty>
0.0255397

> <i_epik_Tot_Q>
1

> <i_epik_Tot_abs_Q>
1

> <r_epik_Metal_State_Penalty>
0.0112253

> <b_epik_Metal_Only>
0

> <s_lp_Force_Field>
OPLS_2005

> <r_lp_Energy>
18.1439

> <b_lp_Chiralities_Consistent>
1

> <s_lp_Variant>
AV-unprocessed.smi:3185-2

> <Gold.Version>
5.8.1

> <Gold.Id.Protein>
6NUR|6NUR_protein|mol2

> <Gold.PLP.Fitness>
41.4957

> <Gold.PLP.PLP>
-34.2353

> <Gold.PLP.part.hbond>
-1.2866

> <Gold.PLP.part.metal>
0.0000

> <Gold.PLP.part.buried>
-2.7530

> <Gold.PLP.part.nonpolar>
-30.9313

> <Gold.PLP.part.repulsive>
0.1551

> <Gold.PLP.ligand.clash>
0.0000

> <Gold.PLP.ligand.torsion>
0.7305

> <Gold.PLP.Chemscore.Hbond>
2.0052

> <Gold.PLP.Chemscore.CHOScore>
0.8570

> <Gold.PLP.Chemscore.Metal>
0.0000

> <Gold.Chemscore.Hbonds>
donor molecule, donor type, donor heavy atom, donor atom, acceptor molecule, acceptor atom, score
      L1  H     6    24       P1  8028  2.00
      L1  C    14    35       P1  7948  0.74

> <Gold.PLP.Chemscore.Internal.Correction>
0.1348

> <Gold.Rescore>
     Score         DG    S(hbond)    S(metal)    S(lipo)     H(rot)  DE(clash)    DE(int)     intcor
      9.91     -13.36       0.98        0.00      80.51       1.88       0.06       3.39       ----

> <Gold.Chemscore.Fitness>
9.9114

> <Gold.Chemscore.DG>
-13.3551

> <Gold.Chemscore.ZeroCoef>
-5.4800

> <Gold.Chemscore.Hbond>
0.9763

> <Gold.Chemscore.Metal>
0.0000

> <Gold.Chemscore.Lipo>
80.5059

> <Gold.Chemscore.Internal_Hbond>
0.0000

> <Gold.Chemscore.DEClash>
0.0581

> <Gold.Chemscore.DEInternal>
3.3856

> <Gold.Chemscore.Rot>
1.8769

> <Gold.Chemscore.Internal.Correction>
   9.000000E+99

> <Gold.Chemscore.Hbonds>
donor molecule, donor type, donor heavy atom, donor atom, acceptor molecule, acceptor atom, score
      L1  H     6    24       P1  8028  1.00

> <Gold.Chemscore.Hbond.Weighted>
-3.2609

> <Gold.Chemscore.Metal.Weighted>
-0.0000

> <Gold.Chemscore.Lipo.Weighted>
-9.4192

> <Gold.Chemscore.Internal_Hbond.Weighted>
0.0000

> <Gold.Chemscore.DEClash.Weighted>
0.0581

> <Gold.Chemscore.DEInternal.Weighted>
3.3856

> <Gold.Chemscore.Rot.Weighted>
4.8049

> <Gold.Chemscore.Internal.Correction.Weighted>
   9.000000E+99

> <Gold.Protein.RotatedTorsions>
[ 6907 6896 6895 6894 ] final   50.45 input  -60.11 | X-H torsion
[ 7974 7965 7964 7962 ] final -132.21 input  175.53 | X-H torsion
[ 8008 7997 7996 7995 ] final   27.55 input   59.86 | X-H torsion
[ 10167 10162 10161 10158 ] final   67.89 input  -65.29 | X-H torsion
[ 10718 10713 10712 10709 ] final   82.15 input   66.30 | X-H torsion
[ 10763 10752 10751 10750 ] final  -91.16 input  -60.55 | X-H torsion
[ 11005 11000 10999 10996 ] final  -87.31 input  -57.11 | X-H torsion

> <Gold.Protein.ActiveResidues>
 VAL166  LYS551  ARG553  GLY616  TRP617  ASP618  TYR619  PRO620  LYS621  CYS622 
 ASP623  PHE694  ASN695  SER759  ASP760  ASP761  ALA762  ILE779  LEU786  VAL792 
 PHE793  MET794  SER795  GLU796  ALA797  LYS798  CYS799  TRP800  GLU811  SER814 

> <Gold.Protein.RotatedAtoms>
  152.3020  134.7600  160.0355 H   0  0  0  0  0  0  0  0  0  0  0  0  # atno 6907 bound_to 6896
  151.8110  133.3376  159.3563 H   0  0  0  0  0  0  0  0  0  0  0  0  # atno 6908 bound_to 6896
  150.7278  134.5594  159.5879 H   0  0  0  0  0  0  0  0  0  0  0  0  # atno 6909 bound_to 6896
  144.9307  140.7124  143.4908 H   0  0  0  0  0  0  0  0  0  0  0  0  # atno 7974 bound_to 7965
  155.0447  140.3173  155.4712 H   0  0  0  0  0  0  0  0  0  0  0  0  # atno 8008 bound_to 7997
  156.2847  140.2157  156.5515 H   0  0  0  0  0  0  0  0  0  0  0  0  # atno 8009 bound_to 7997
  154.7260  140.0485  157.0671 H   0  0  0  0  0  0  0  0  0  0  0  0  # atno 8010 bound_to 7997
  140.0846  144.5041  150.7139 H   0  0  0  0  0  0  0  0  0  0  0  0  # atno 10167 bound_to 10162
  157.6850  131.0035  150.2332 H   0  0  0  0  0  0  0  0  0  0  0  0  # atno 10718 bound_to 10713
  154.6732  135.5278  153.8165 H   0  0  0  0  0  0  0  0  0  0  0  0  # atno 10763 bound_to 10752
  153.0515  135.6534  154.0692 H   0  0  0  0  0  0  0  0  0  0  0  0  # atno 10764 bound_to 10752
  154.0588  135.2963  155.3308 H   0  0  0  0  0  0  0  0  0  0  0  0  # atno 10765 bound_to 10752
  141.1618  133.7504  156.9288 H   0  0  0  0  0  0  0  0  0  0  0  0  # atno 11005 bound_to 11000
  145.3147  139.1807  143.4620 LP  0  0  0  0  0  0  0  0  0  0  0  0  # atno 17320 bound_to 7965
  146.3245  140.3156  142.8629 LP  0  0  0  0  0  0  0  0  0  0  0  0  # atno 17321 bound_to 7965
  140.7060  143.2468  151.4725 LP  0  0  0  0  0  0  0  0  0  0  0  0  # atno 17342 bound_to 10162
  139.5759  144.1819  152.1903 LP  0  0  0  0  0  0  0  0  0  0  0  0  # atno 17343 bound_to 10162
  156.2960  130.3752  149.7795 LP  0  0  0  0  0  0  0  0  0  0  0  0  # atno 17370 bound_to 10713
  156.5440  130.8312  151.3278 LP  0  0  0  0  0  0  0  0  0  0  0  0  # atno 17371 bound_to 10713
  140.1401  134.9299  157.2455 LP  0  0  0  0  0  0  0  0  0  0  0  0  # atno 17394 bound_to 11000
  140.2847  134.3309  155.7332 LP  0  0  0  0  0  0  0  0  0  0  0  0  # atno 17395 bound_to 11000

$$$$
