AV-unprocessed.smi:1384|AV-procd|sdf|5627|dock9
  -GOLD-   22720 5243D 1   1.00000     0.00000
 Structure written by MMmdl.
 41 42  0  0  0  0  0  0  0  0  1 V2000
  150.5673  141.7694  157.6630 C   0  0  0  0  0  0  0  0  0  0  0  0
  150.6822  141.1227  156.2751 C   0  0  2  0  0  0  0  0  0  0  0  0
  149.3096  140.6449  155.7636 C   0  0  0  0  0  0  0  0  0  0  0  0
  149.4162  139.9902  154.3745 C   0  0  0  0  0  0  0  0  0  0  0  0
  150.4347  138.8345  154.3505 C   0  0  2  0  0  0  0  0  0  0  0  0
  149.9210  137.6936  155.1069 N   0  0  0  0  0  0  0  0  0  0  0  0
  150.5334  136.5077  155.2428 C   0  0  0  0  0  0  0  0  0  0  0  0
  151.6281  136.2522  154.7388 O   0  0  0  0  0  0  0  0  0  0  0  0
  149.7911  135.4677  156.0946 C   0  0  0  0  0  0  0  0  0  0  0  0
  149.8497  134.1032  155.5422 N   0  0  0  0  0  0  0  0  0  0  0  0
  149.2386  133.8976  154.2925 C   0  0  0  0  0  0  0  0  0  0  0  0
  149.2320  132.6963  153.6993 C   0  0  0  0  0  0  0  0  0  0  0  0
  149.8755  131.5975  154.3771 C   0  0  0  0  0  0  0  0  0  0  0  0
  150.4659  131.7628  155.5835 C   0  0  0  0  0  0  0  0  0  0  0  0
  151.1555  130.6113  156.3121 C   0  0  0  0  0  0  0  0  0  0  0  0
  152.4354  130.9028  156.5481 F   0  0  0  0  0  0  0  0  0  0  0  0
  150.5594  130.3752  157.4813 F   0  0  0  0  0  0  0  0  0  0  0  0
  151.1200  129.4834  155.6008 F   0  0  0  0  0  0  0  0  0  0  0  0
  150.4634  133.0911  156.2304 C   0  0  0  0  0  0  0  0  0  0  0  0
  150.9818  133.2896  157.3306 O   0  0  0  0  0  0  0  0  0  0  0  0
  151.8037  139.3022  154.8891 C   0  0  0  0  0  0  0  0  0  0  0  0
  151.6915  139.9586  156.2766 C   0  0  0  0  0  0  0  0  0  0  0  0
  150.1987  141.0578  158.4027 H   0  0  0  0  0  0  0  0  0  0  0  0
  149.8814  142.6166  157.6456 H   0  0  0  0  0  0  0  0  0  0  0  0
  151.5348  142.1363  158.0071 H   0  0  0  0  0  0  0  0  0  0  0  0
  151.0505  141.8853  155.5871 H   0  0  0  0  0  0  0  0  0  0  0  0
  148.8790  139.9356  156.4714 H   0  0  0  0  0  0  0  0  0  0  0  0
  148.6176  141.4862  155.7158 H   0  0  0  0  0  0  0  0  0  0  0  0
  148.4360  139.6372  154.0516 H   0  0  0  0  0  0  0  0  0  0  0  0
  149.7186  140.7464  153.6490 H   0  0  0  0  0  0  0  0  0  0  0  0
  150.5579  138.5211  153.3121 H   0  0  0  0  0  0  0  0  0  0  0  0
  149.0278  137.8182  155.5611 H   0  0  0  0  0  0  0  0  0  0  0  0
  150.2124  135.4900  157.1008 H   0  0  0  0  0  0  0  0  0  0  0  0
  148.7524  135.7807  156.2164 H   0  0  0  0  0  0  0  0  0  0  0  0
  148.7732  134.7700  153.8565 H   0  0  0  0  0  0  0  0  0  0  0  0
  148.7542  132.5536  152.7413 H   0  0  0  0  0  0  0  0  0  0  0  0
  149.8761  130.6300  153.8978 H   0  0  0  0  0  0  0  0  0  0  0  0
  152.5064  138.4692  154.9264 H   0  0  0  0  0  0  0  0  0  0  0  0
  152.2318  140.0225  154.1908 H   0  0  0  0  0  0  0  0  0  0  0  0
  152.6731  140.3181  156.5876 H   0  0  0  0  0  0  0  0  0  0  0  0
  151.3930  139.2107  157.0124 H   0  0  0  0  0  0  0  0  0  0  0  0
  1  2  1  0  0  0  0
  1 23  1  0  0  0  0
  1 24  1  0  0  0  0
  1 25  1  0  0  0  0
  2 22  1  0  0  0  0
  2  3  1  0  0  0  0
  2 26  1  0  0  0  0
  3  4  1  0  0  0  0
  3 27  1  0  0  0  0
  3 28  1  0  0  0  0
  4  5  1  0  0  0  0
  4 29  1  0  0  0  0
  4 30  1  0  0  0  0
  5  6  1  0  0  0  0
  5 21  1  0  0  0  0
  5 31  1  0  0  0  0
  6  7  1  0  0  0  0
  6 32  1  0  0  0  0
  7  8  2  0  0  0  0
  7  9  1  0  0  0  0
  9 10  1  0  0  0  0
  9 33  1  0  0  0  0
  9 34  1  0  0  0  0
 10 19  1  0  0  0  0
 10 11  1  0  0  0  0
 11 12  2  0  0  0  0
 11 35  1  0  0  0  0
 12 13  1  0  0  0  0
 12 36  1  0  0  0  0
 13 14  2  0  0  0  0
 13 37  1  0  0  0  0
 14 15  1  0  0  0  0
 14 19  1  0  0  0  0
 15 16  1  0  0  0  0
 15 17  1  0  0  0  0
 15 18  1  0  0  0  0
 19 20  2  0  0  0  0
 21 22  1  0  0  0  0
 21 38  1  0  0  0  0
 21 39  1  0  0  0  0
 22 40  1  0  0  0  0
 22 41  1  0  0  0  0
M  END
> <s_m_source_file>
AV-unprocessed.smi

> <i_m_source_file_index>
1384

> <i_lp_mmshare_version>
43012

> <i_f3d_flags>
0

> <s_epik_input>
W0NIM11bQ0BASF0xW0NIMl1bQ0gyXVtDQEhdKFtDSDJdW0NIMl0xKVtOSF1DKD1PKVtDSDJdbjJbY0hdW2NIXVtjSF1jKEMoRikoRilGKWMyPU8=

> <s_epik_cmdline>
J2VwaWtfcHl0aG9uJywgJy1waCcsICc3LjAnLCAnLXRuJywgJzgnLCAnLW1hJywgJzIwMCcsICctbWV0YWxfYmluZGluZycsICctaW1hZScsICc8aW5maWxlLm1hZT4nLCAnLW9tYWUnLCAnPG91dGZpbGUubWFlPic=

> <r_lp_tautomer_probability>
1

> <r_epik_Ionization_Penalty>
2.11165e-08

> <r_epik_Ionization_Penalty_Charging>
2.06965e-09

> <r_epik_Ionization_Penalty_Neutral>
1.90469e-08

> <r_epik_State_Penalty>
-0

> <r_epik_Charging_Adjusted_Penalty>
2.06965e-09

> <i_epik_Tot_Q>
0

> <i_epik_Tot_abs_Q>
0

> <r_epik_Metal_State_Penalty>
-0

> <b_epik_Metal_Only>
0

> <s_lp_Force_Field>
OPLS_2005

> <r_lp_Energy>
18.4349

> <b_lp_Chiralities_Consistent>
1

> <s_lp_Variant>
AV-unprocessed.smi:1384-2

> <Gold.Version>
5.8.1

> <Gold.Id.Protein>
6NUR|6NUR_protein|mol2

> <Gold.PLP.Fitness>
47.1318

> <Gold.PLP.PLP>
-39.3306

> <Gold.PLP.part.hbond>
-1.9419

> <Gold.PLP.part.metal>
0.0000

> <Gold.PLP.part.buried>
-2.7789

> <Gold.PLP.part.nonpolar>
-36.2782

> <Gold.PLP.part.repulsive>
0.1818

> <Gold.PLP.ligand.clash>
0.3082

> <Gold.PLP.ligand.torsion>
0.2836

> <Gold.PLP.Chemscore.Hbond>
1.7840

> <Gold.PLP.Chemscore.CHOScore>
1.0000

> <Gold.PLP.Chemscore.Metal>
0.0000

> <Gold.Chemscore.Hbonds>
donor molecule, donor type, donor heavy atom, donor atom, acceptor molecule, acceptor atom, score
      P1  H  6896  6909       L1    20  0.83
      P1  H 10752 10764       L1     8  1.00
      L1  C    11    35       P1  7948  1.00

> <Gold.PLP.Chemscore.Internal.Correction>
0.3246

> <Gold.Rescore>
     Score         DG    S(hbond)    S(metal)    S(lipo)     H(rot)  DE(clash)    DE(int)     intcor
     13.90     -16.85       1.87        0.00      77.01       1.52       0.03       2.92       ----

> <Gold.Chemscore.Fitness>
13.9005

> <Gold.Chemscore.DG>
-16.8484

> <Gold.Chemscore.ZeroCoef>
-5.4800

> <Gold.Chemscore.Hbond>
1.8743

> <Gold.Chemscore.Metal>
0.0000

> <Gold.Chemscore.Lipo>
77.0082

> <Gold.Chemscore.Internal_Hbond>
0.0000

> <Gold.Chemscore.DEClash>
0.0280

> <Gold.Chemscore.DEInternal>
2.9198

> <Gold.Chemscore.Rot>
1.5242

> <Gold.Chemscore.Internal.Correction>
   9.000000E+99

> <Gold.Chemscore.Hbonds>
donor molecule, donor type, donor heavy atom, donor atom, acceptor molecule, acceptor atom, score
      P1  H  6896  6909       L1    20  0.83
      P1  H 10752 10764       L1     8  0.90

> <Gold.Chemscore.Hbond.Weighted>
-6.2603

> <Gold.Chemscore.Metal.Weighted>
-0.0000

> <Gold.Chemscore.Lipo.Weighted>
-9.0100

> <Gold.Chemscore.Internal_Hbond.Weighted>
0.0000

> <Gold.Chemscore.DEClash.Weighted>
0.0280

> <Gold.Chemscore.DEInternal.Weighted>
2.9198

> <Gold.Chemscore.Rot.Weighted>
3.9019

> <Gold.Chemscore.Internal.Correction.Weighted>
   9.000000E+99

> <Gold.Protein.RotatedTorsions>
[ 6907 6896 6895 6894 ] final  -28.01 input  -60.11 | X-H torsion
[ 7974 7965 7964 7962 ] final   34.59 input  175.53 | X-H torsion
[ 8008 7997 7996 7995 ] final -153.62 input   59.86 | X-H torsion
[ 10167 10162 10161 10158 ] final  116.62 input  -65.29 | X-H torsion
[ 10718 10713 10712 10709 ] final  140.52 input   66.30 | X-H torsion
[ 10763 10752 10751 10750 ] final  -83.15 input  -60.55 | X-H torsion
[ 11005 11000 10999 10996 ] final  -86.20 input  -57.11 | X-H torsion

> <Gold.Protein.ActiveResidues>
 VAL166  LYS551  ARG553  GLY616  TRP617  ASP618  TYR619  PRO620  LYS621  CYS622 
 ASP623  PHE694  ASN695  SER759  ASP760  ASP761  ALA762  ILE779  LEU786  VAL792 
 PHE793  MET794  SER795  GLU796  ALA797  LYS798  CYS799  TRP800  GLU811  SER814 

> <Gold.Protein.RotatedAtoms>
  151.1390  135.0169  159.8616 H   0  0  0  0  0  0  0  0  0  0  0  0  # atno 6907 bound_to 6896
  152.5452  134.1522  159.8533 H   0  0  0  0  0  0  0  0  0  0  0  0  # atno 6908 bound_to 6896
  151.1595  133.4809  159.2627 H   0  0  0  0  0  0  0  0  0  0  0  0  # atno 6909 bound_to 6896
  146.1342  139.6250  142.9206 H   0  0  0  0  0  0  0  0  0  0  0  0  # atno 7974 bound_to 7965
  155.6736  140.0736  157.2511 H   0  0  0  0  0  0  0  0  0  0  0  0  # atno 8008 bound_to 7997
  154.4118  140.1694  156.1957 H   0  0  0  0  0  0  0  0  0  0  0  0  # atno 8009 bound_to 7997
  155.9595  140.3371  155.6481 H   0  0  0  0  0  0  0  0  0  0  0  0  # atno 8010 bound_to 7997
  139.6235  144.7105  151.2584 H   0  0  0  0  0  0  0  0  0  0  0  0  # atno 10167 bound_to 10162
  157.4023  131.1018  151.0539 H   0  0  0  0  0  0  0  0  0  0  0  0  # atno 10718 bound_to 10713
  154.5843  135.5566  153.7216 H   0  0  0  0  0  0  0  0  0  0  0  0  # atno 10763 bound_to 10752
  153.0093  135.6328  154.1938 H   0  0  0  0  0  0  0  0  0  0  0  0  # atno 10764 bound_to 10752
  154.1879  135.2884  155.3011 H   0  0  0  0  0  0  0  0  0  0  0  0  # atno 10765 bound_to 10752
  141.1633  133.7441  156.9126 H   0  0  0  0  0  0  0  0  0  0  0  0  # atno 11005 bound_to 11000
  145.5193  141.0432  143.2444 LP  0  0  0  0  0  0  0  0  0  0  0  0  # atno 17320 bound_to 7965
  144.7722  139.6709  143.7190 LP  0  0  0  0  0  0  0  0  0  0  0  0  # atno 17321 bound_to 7965
  140.7396  143.6612  150.8163 LP  0  0  0  0  0  0  0  0  0  0  0  0  # atno 17342 bound_to 10162
  140.0226  143.5526  152.2794 LP  0  0  0  0  0  0  0  0  0  0  0  0  # atno 17343 bound_to 10162
  157.1533  130.6193  149.5589 LP  0  0  0  0  0  0  0  0  0  0  0  0  # atno 17370 bound_to 10713
  155.9827  130.4842  150.6893 LP  0  0  0  0  0  0  0  0  0  0  0  0  # atno 17371 bound_to 10713
  140.1506  134.9232  157.2587 LP  0  0  0  0  0  0  0  0  0  0  0  0  # atno 17394 bound_to 11000
  140.2727  134.3441  155.7368 LP  0  0  0  0  0  0  0  0  0  0  0  0  # atno 17395 bound_to 11000

$$$$
