AV-unprocessed.smi:2027|AV-procd|sdf|8215|dock7
  -GOLD-   2272010483D 1   1.00000     0.00000
 Structure written by MMmdl.
 50 52  0  0  0  0  0  0  0  0  2 V2000
  152.4890  143.4374  161.4906 C   0  0  0  0  0  0  0  0  0  0  0  0
  152.2844  142.7174  160.1686 C   0  0  0  0  0  0  0  0  0  0  0  0
  151.4050  143.2862  159.2199 C   0  0  0  0  0  0  0  0  0  0  0  0
  151.2420  142.6065  158.0185 C   0  0  0  0  0  0  0  0  0  0  0  0
  150.4625  142.9016  156.8978 N   0  3  0  0  0  0  0  0  0  0  0  0
  150.6381  141.9349  155.9544 C   0  0  0  0  0  0  0  0  0  0  0  0
  151.5182  141.0273  156.4570 N   0  0  0  0  0  0  0  0  0  0  0  0
  152.0707  139.8084  155.8508 C   0  0  0  0  0  0  0  0  0  0  0  0
  150.9822  138.9322  155.2028 C   0  0  2  0  0  0  0  0  0  0  0  0
  150.6666  139.4547  153.9269 O   0  0  0  0  0  0  0  0  0  0  0  0
  149.6939  138.8808  156.0511 C   0  0  0  0  0  0  0  0  0  0  0  0
  148.6600  137.9238  155.6239 N   0  0  0  0  0  0  0  0  0  0  0  0
  149.2810  136.6380  155.3274 C   0  0  0  0  0  0  0  0  0  0  0  0
  147.8921  138.3636  154.4500 C   0  0  0  0  0  0  0  0  0  0  0  0
  147.2159  139.6997  154.5954 C   0  0  0  0  0  0  0  0  0  0  0  0
  146.2544  140.0825  155.5736 C   0  0  0  0  0  0  0  0  0  0  0  0
  145.8238  141.3228  155.4143 N   0  0  0  0  0  0  0  0  0  0  0  0
  146.5030  141.7791  154.3426 N   0  0  0  0  0  0  0  0  0  0  0  0
  146.2615  143.1242  153.8676 C   0  0  0  0  0  0  0  0  0  0  0  0
  147.3662  140.8294  153.8397 C   0  0  0  0  0  0  0  0  0  0  0  0
  151.9177  141.4020  157.7445 C   0  0  0  0  0  0  0  0  0  0  0  0
  152.7843  140.8255  158.6698 C   0  0  0  0  0  0  0  0  0  0  0  0
  152.9634  141.5013  159.8978 C   0  0  0  0  0  0  0  0  0  0  0  0
  153.9030  140.8970  160.9272 C   0  0  0  0  0  0  0  0  0  0  0  0
  151.9274  144.3712  161.5278 H   0  0  0  0  0  0  0  0  0  0  0  0
  153.5421  143.6774  161.6379 H   0  0  0  0  0  0  0  0  0  0  0  0
  152.1556  142.8143  162.3209 H   0  0  0  0  0  0  0  0  0  0  0  0
  150.8839  144.2110  159.4198 H   0  0  0  0  0  0  0  0  0  0  0  0
  150.1722  141.9007  154.9801 H   0  0  0  0  0  0  0  0  0  0  0  0
  152.8231  140.1030  155.1180 H   0  0  0  0  0  0  0  0  0  0  0  0
  152.5941  139.2564  156.6328 H   0  0  0  0  0  0  0  0  0  0  0  0
  151.4061  137.9447  155.0635 H   0  0  0  0  0  0  0  0  0  0  0  0
  150.9478  138.8354  153.2711 H   0  0  0  0  0  0  0  0  0  0  0  0
  149.9517  138.6829  157.0926 H   0  0  0  0  0  0  0  0  0  0  0  0
  149.2771  139.8895  156.0488 H   0  0  0  0  0  0  0  0  0  0  0  0
  148.5301  135.8959  155.0537 H   0  0  0  0  0  0  0  0  0  0  0  0
  149.8130  136.2525  156.1978 H   0  0  0  0  0  0  0  0  0  0  0  0
  149.9918  136.7230  154.5040 H   0  0  0  0  0  0  0  0  0  0  0  0
  148.5398  138.3568  153.5722 H   0  0  0  0  0  0  0  0  0  0  0  0
  147.1242  137.6187  154.2369 H   0  0  0  0  0  0  0  0  0  0  0  0
  145.8453  139.4915  156.3797 H   0  0  0  0  0  0  0  0  0  0  0  0
  146.8856  143.3318  152.9980 H   0  0  0  0  0  0  0  0  0  0  0  0
  146.4979  143.8416  154.6540 H   0  0  0  0  0  0  0  0  0  0  0  0
  145.2135  143.2325  153.5858 H   0  0  0  0  0  0  0  0  0  0  0  0
  147.9910  141.0222  152.9800 H   0  0  0  0  0  0  0  0  0  0  0  0
  153.3053  139.9030  158.4613 H   0  0  0  0  0  0  0  0  0  0  0  0
  154.3173  139.9495  160.5814 H   0  0  0  0  0  0  0  0  0  0  0  0
  153.3776  140.7072  161.8632 H   0  0  0  0  0  0  0  0  0  0  0  0
  154.7357  141.5720  161.1257 H   0  0  0  0  0  0  0  0  0  0  0  0
  149.8586  143.7050  156.7799 H   0  0  0  0  0  0  0  0  0  0  0  0
  1  2  1  0  0  0  0
  1 25  1  0  0  0  0
  1 26  1  0  0  0  0
  1 27  1  0  0  0  0
  2 23  1  0  0  0  0
  2  3  2  0  0  0  0
  3  4  1  0  0  0  0
  3 28  1  0  0  0  0
  4 21  2  0  0  0  0
  4  5  1  0  0  0  0
  5  6  2  0  0  0  0
  5 50  1  0  0  0  0
  6  7  1  0  0  0  0
  6 29  1  0  0  0  0
  7  8  1  0  0  0  0
  7 21  1  0  0  0  0
  8  9  1  0  0  0  0
  8 30  1  0  0  0  0
  8 31  1  0  0  0  0
  9 10  1  0  0  0  0
  9 11  1  0  0  0  0
  9 32  1  0  0  0  0
 10 33  1  0  0  0  0
 11 12  1  0  0  0  0
 11 34  1  0  0  0  0
 11 35  1  0  0  0  0
 12 13  1  0  0  0  0
 12 14  1  0  0  0  0
 13 36  1  0  0  0  0
 13 37  1  0  0  0  0
 13 38  1  0  0  0  0
 14 15  1  0  0  0  0
 14 39  1  0  0  0  0
 14 40  1  0  0  0  0
 15 20  2  0  0  0  0
 15 16  1  0  0  0  0
 16 17  2  0  0  0  0
 16 41  1  0  0  0  0
 17 18  1  0  0  0  0
 18 19  1  0  0  0  0
 18 20  1  0  0  0  0
 19 42  1  0  0  0  0
 19 43  1  0  0  0  0
 19 44  1  0  0  0  0
 20 45  1  0  0  0  0
 21 22  1  0  0  0  0
 22 23  2  0  0  0  0
 22 46  1  0  0  0  0
 23 24  1  0  0  0  0
 24 47  1  0  0  0  0
 24 48  1  0  0  0  0
 24 49  1  0  0  0  0
M  CHG  1   5   1
M  END
> <s_m_source_file>
AV-unprocessed.smi

> <i_m_source_file_index>
2027

> <i_lp_mmshare_version>
43012

> <i_f3d_flags>
0

> <s_epik_input>
W0NIM11jKFtjSF0xKWMoW0NIM10pW2NIXWMoYzEyKW4oW2NIXW4yKVtDSDJdW0NASF0oW09IXSlbQ0gyXU4oW0NIM10pW0NIMl1jM1tjSF1ubihbQ0gzXSlbY0hdMw==

> <s_epik_cmdline>
J2VwaWtfcHl0aG9uJywgJy1waCcsICc3LjAnLCAnLXRuJywgJzgnLCAnLW1hJywgJzIwMCcsICctbWV0YWxfYmluZGluZycsICctaW1hZScsICc8aW5maWxlLm1hZT4nLCAnLW9tYWUnLCAnPG91dGZpbGUubWFlPic=

> <r_epik_Ionization_Penalty>
1.48134

> <r_epik_Ionization_Penalty_Charging>
1.21121

> <r_epik_Ionization_Penalty_Neutral>
0.270133

> <r_epik_State_Penalty>
1.53013

> <r_epik_Charging_Adjusted_Penalty>
2.74134

> <i_epik_Tot_Q>
1

> <i_epik_Tot_abs_Q>
1

> <r_epik_Metal_State_Penalty>
1.60443

> <b_epik_Metal_Only>
0

> <s_lp_Force_Field>
OPLS_2005

> <r_lp_Energy>
21.1476

> <b_lp_Chiralities_Consistent>
1

> <s_lp_Variant>
AV-unprocessed.smi:2027-7

> <Gold.Version>
5.8.1

> <Gold.Id.Protein>
6NUR|6NUR_protein|mol2

> <Gold.PLP.Fitness>
55.9806

> <Gold.PLP.PLP>
-44.7418

> <Gold.PLP.part.hbond>
-3.0000

> <Gold.PLP.part.metal>
0.0000

> <Gold.PLP.part.buried>
-4.9648

> <Gold.PLP.part.nonpolar>
-35.4247

> <Gold.PLP.part.repulsive>
0.1973

> <Gold.PLP.ligand.clash>
0.0000

> <Gold.PLP.ligand.torsion>
0.4935

> <Gold.PLP.Chemscore.Hbond>
3.0000

> <Gold.PLP.Chemscore.CHOScore>
1.0000

> <Gold.PLP.Chemscore.Metal>
0.0000

> <Gold.Chemscore.Hbonds>
donor molecule, donor type, donor heavy atom, donor atom, acceptor molecule, acceptor atom, score
      L1  H     5    50       P1  8028  1.95
      P1  H  7989  7998       L1    10  1.00
      L1  C    20    45       P1  7957  0.80

> <Gold.PLP.Chemscore.Internal.Correction>
0.2259

> <Gold.Rescore>
     Score         DG    S(hbond)    S(metal)    S(lipo)     H(rot)  DE(clash)    DE(int)     intcor
     18.14     -18.99       1.90        0.00     116.05       2.50       0.22       0.64       ----

> <Gold.Chemscore.Fitness>
18.1387

> <Gold.Chemscore.DG>
-18.9915

> <Gold.Chemscore.ZeroCoef>
-5.4800

> <Gold.Chemscore.Hbond>
1.8965

> <Gold.Chemscore.Metal>
0.0000

> <Gold.Chemscore.Lipo>
116.0452

> <Gold.Chemscore.Internal_Hbond>
0.0000

> <Gold.Chemscore.DEClash>
0.2165

> <Gold.Chemscore.DEInternal>
0.6363

> <Gold.Chemscore.Rot>
2.5000

> <Gold.Chemscore.Internal.Correction>
   9.000000E+99

> <Gold.Chemscore.Hbonds>
donor molecule, donor type, donor heavy atom, donor atom, acceptor molecule, acceptor atom, score
      L1  H     5    50       P1  8028  0.92
      P1  H  7989  7998       L1    10  0.22

> <Gold.Chemscore.Hbond.Weighted>
-6.3342

> <Gold.Chemscore.Metal.Weighted>
-0.0000

> <Gold.Chemscore.Lipo.Weighted>
-13.5773

> <Gold.Chemscore.Internal_Hbond.Weighted>
0.0000

> <Gold.Chemscore.DEClash.Weighted>
0.2165

> <Gold.Chemscore.DEInternal.Weighted>
0.6363

> <Gold.Chemscore.Rot.Weighted>
6.3999

> <Gold.Chemscore.Internal.Correction.Weighted>
   9.000000E+99

> <Gold.Protein.RotatedTorsions>
[ 6907 6896 6895 6894 ] final  -52.75 input  -60.11 | X-H torsion
[ 7974 7965 7964 7962 ] final  -57.67 input  175.53 | X-H torsion
[ 8008 7997 7996 7995 ] final  -60.73 input   59.86 | X-H torsion
[ 10167 10162 10161 10158 ] final  -51.34 input  -65.29 | X-H torsion
[ 10718 10713 10712 10709 ] final  132.82 input   66.30 | X-H torsion
[ 10763 10752 10751 10750 ] final -149.07 input  -60.55 | X-H torsion
[ 11005 11000 10999 10996 ] final -127.01 input  -57.11 | X-H torsion

> <Gold.Protein.ActiveResidues>
 VAL166  LYS551  ARG553  GLY616  TRP617  ASP618  TYR619  PRO620  LYS621  CYS622 
 ASP623  PHE694  ASN695  SER759  ASP760  ASP761  ALA762  ILE779  LEU786  VAL792 
 PHE793  MET794  SER795  GLU796  ALA797  LYS798  CYS799  TRP800  GLU811  SER814 

> <Gold.Protein.RotatedAtoms>
  150.8490  134.7808  159.6992 H   0  0  0  0  0  0  0  0  0  0  0  0  # atno 6907 bound_to 6896
  152.4559  134.5289  159.9815 H   0  0  0  0  0  0  0  0  0  0  0  0  # atno 6908 bound_to 6896
  151.5413  133.3394  159.2971 H   0  0  0  0  0  0  0  0  0  0  0  0  # atno 6909 bound_to 6896
  145.8483  140.8370  142.9999 H   0  0  0  0  0  0  0  0  0  0  0  0  # atno 7974 bound_to 7965
  154.4413  140.1033  156.6319 H   0  0  0  0  0  0  0  0  0  0  0  0  # atno 8008 bound_to 7997
  155.5595  140.3487  155.4469 H   0  0  0  0  0  0  0  0  0  0  0  0  # atno 8009 bound_to 7997
  156.0470  140.1295  157.0082 H   0  0  0  0  0  0  0  0  0  0  0  0  # atno 8010 bound_to 7997
  140.6593  143.2623  151.4489 H   0  0  0  0  0  0  0  0  0  0  0  0  # atno 10167 bound_to 10162
  157.4834  131.1087  150.9652 H   0  0  0  0  0  0  0  0  0  0  0  0  # atno 10718 bound_to 10713
  154.8198  135.3318  154.7072 H   0  0  0  0  0  0  0  0  0  0  0  0  # atno 10763 bound_to 10752
  153.7706  135.6926  153.4911 H   0  0  0  0  0  0  0  0  0  0  0  0  # atno 10764 bound_to 10752
  153.2047  135.4503  155.0257 H   0  0  0  0  0  0  0  0  0  0  0  0  # atno 10765 bound_to 10752
  140.9635  134.0904  157.3944 H   0  0  0  0  0  0  0  0  0  0  0  0  # atno 11005 bound_to 11000
  144.6730  140.0915  143.7465 LP  0  0  0  0  0  0  0  0  0  0  0  0  # atno 17320 bound_to 7965
  145.9387  139.2654  143.1282 LP  0  0  0  0  0  0  0  0  0  0  0  0  # atno 17321 bound_to 7965
  139.5823  144.1682  152.1984 LP  0  0  0  0  0  0  0  0  0  0  0  0  # atno 17342 bound_to 10162
  140.1011  144.5539  150.6988 LP  0  0  0  0  0  0  0  0  0  0  0  0  # atno 17343 bound_to 10162
  157.0377  130.5736  149.5352 LP  0  0  0  0  0  0  0  0  0  0  0  0  # atno 17370 bound_to 10713
  156.0134  130.5227  150.8059 LP  0  0  0  0  0  0  0  0  0  0  0  0  # atno 17371 bound_to 10713
  139.8886  135.0099  156.6631 LP  0  0  0  0  0  0  0  0  0  0  0  0  # atno 17394 bound_to 11000
  140.7433  133.8959  155.8294 LP  0  0  0  0  0  0  0  0  0  0  0  0  # atno 17395 bound_to 11000

$$$$
