AV-unprocessed.smi:35|AV-procd|sdf|262|dock10
  -GOLD-   2262016 23D 1   1.00000     0.00000
 Structure written by MMmdl.
 29 30  0  0  0  0  0  0  0  0  1 V2000
  151.7156  135.5573  156.1118 O   0  0  0  0  0  0  0  0  0  0  0  0
  151.2748  136.6483  155.7569 C   0  0  0  0  0  0  0  0  0  0  0  0
  152.1363  137.7343  155.5817 N   0  0  0  0  0  0  0  0  0  0  0  0
  151.7530  139.0177  155.1885 C   0  0  0  0  0  0  0  0  0  0  0  0
  152.6026  139.8968  155.0495 O   0  0  0  0  0  0  0  0  0  0  0  0
  150.3759  139.2463  154.9655 N   0  0  0  0  0  0  0  0  0  0  0  0
  149.9446  140.6336  154.5206 C   0  0  1  0  0  0  0  0  0  0  0  0
  149.1229  140.5291  153.3952 O   0  0  0  0  0  0  0  0  0  0  0  0
  147.7566  140.5679  153.7948 C   0  0  2  0  0  0  0  0  0  0  0  0
  146.8313  140.8539  152.5998 C   0  0  0  0  0  0  0  0  0  0  0  0
  146.8476  139.7598  151.7078 O   0  0  0  0  0  0  0  0  0  0  0  0
  147.7846  141.6376  154.8901 C   0  0  2  0  0  0  0  0  0  0  0  0
  147.7688  142.9357  154.3174 O   0  0  0  0  0  0  0  0  0  0  0  0
  149.0956  141.3261  155.6124 C   0  0  2  0  0  0  0  0  0  0  0  0
  149.7058  142.4823  156.1563 O   0  0  0  0  0  0  0  0  0  0  0  0
  149.4852  138.1855  155.1009 C   0  0  0  0  0  0  0  0  0  0  0  0
  149.8745  136.9449  155.4787 C   0  0  0  0  0  0  0  0  0  0  0  0
  148.4509  135.5742  155.6195 Br  0  0  0  0  0  0  0  0  0  0  0  0
  153.1192  137.5753  155.7489 H   0  0  0  0  0  0  0  0  0  0  0  0
  150.8670  141.1540  154.2554 H   0  0  0  0  0  0  0  0  0  0  0  0
  147.4838  139.6175  154.2575 H   0  0  0  0  0  0  0  0  0  0  0  0
  145.8040  140.9814  152.9422 H   0  0  0  0  0  0  0  0  0  0  0  0
  147.1191  141.7689  152.0811 H   0  0  0  0  0  0  0  0  0  0  0  0
  147.7409  139.6019  151.4431 H   0  0  0  0  0  0  0  0  0  0  0  0
  146.9278  141.5522  155.5594 H   0  0  0  0  0  0  0  0  0  0  0  0
  148.1306  143.5416  154.9465 H   0  0  0  0  0  0  0  0  0  0  0  0
  148.8945  140.6185  156.4184 H   0  0  0  0  0  0  0  0  0  0  0  0
  149.3971  143.2353  155.6749 H   0  0  0  0  0  0  0  0  0  0  0  0
  148.4338  138.3244  154.9003 H   0  0  0  0  0  0  0  0  0  0  0  0
  1  2  2  0  0  0  0
  2 17  1  0  0  0  0
  2  3  1  0  0  0  0
  3 19  1  0  0  0  0
  3  4  1  0  0  0  0
  4  5  2  0  0  0  0
  4  6  1  0  0  0  0
  6  7  1  0  0  0  0
  6 16  1  0  0  0  0
  7 14  1  0  0  0  0
  7  8  1  0  0  0  0
  7 20  1  0  0  0  0
  8  9  1  0  0  0  0
  9 10  1  0  0  0  0
  9 12  1  0  0  0  0
  9 21  1  0  0  0  0
 10 11  1  0  0  0  0
 10 22  1  0  0  0  0
 10 23  1  0  0  0  0
 11 24  1  0  0  0  0
 12 13  1  0  0  0  0
 12 14  1  0  0  0  0
 12 25  1  0  0  0  0
 13 26  1  0  0  0  0
 14 15  1  0  0  0  0
 14 27  1  0  0  0  0
 15 28  1  0  0  0  0
 16 17  2  0  0  0  0
 16 29  1  0  0  0  0
 17 18  1  0  0  0  0
M  END
> <s_m_source_file>
AV-unprocessed.smi

> <i_m_source_file_index>
35

> <i_lp_mmshare_version>
43012

> <i_f3d_flags>
0

> <s_epik_input>
Tz1jMVtuSF1jKD1PKW4oW2NIXWMxQnIpW0NAQEhdMk9bQ0BASF0oW0NIMl1bT0hdKVtDQEBIXShbT0hdKVtDQEhdMltPSF0=

> <s_epik_cmdline>
J2VwaWtfcHl0aG9uJywgJy1waCcsICc3LjAnLCAnLXRuJywgJzgnLCAnLW1hJywgJzIwMCcsICctbWV0YWxfYmluZGluZycsICctaW1hZScsICc8aW5maWxlLm1hZT4nLCAnLW9tYWUnLCAnPG91dGZpbGUubWFlPic=

> <r_lp_tautomer_probability>
0.999537

> <r_epik_Ionization_Penalty>
0.10812

> <r_epik_Ionization_Penalty_Charging>
0.108119

> <r_epik_Ionization_Penalty_Neutral>
4.93006e-07

> <r_epik_State_Penalty>
0.0979238

> <r_epik_Charging_Adjusted_Penalty>
0.206043

> <i_epik_Tot_Q>
0

> <i_epik_Tot_abs_Q>
0

> <r_epik_Metal_State_Penalty>
3.07911

> <b_epik_Metal_Only>
0

> <s_epik_Chemistry_Notes>
This compound contains an acetal/aminal-like group ( X-CH(R)-Y where X, Y are N, S, or O) that may be acid/base labile, releasing an aldehyde.

> <s_lp_Force_Field>
OPLS_2005

> <r_lp_Energy>
32.933

> <b_lp_Chiralities_Consistent>
1

> <s_lp_Variant>
AV-unprocessed.smi:35-16

> <Gold.Version>
5.8.1

> <Gold.Id.Protein>
6NUR|6NUR_protein|mol2

> <Gold.PLP.Fitness>
39.3878

> <Gold.PLP.PLP>
-22.3235

> <Gold.PLP.part.hbond>
-7.9390

> <Gold.PLP.part.metal>
0.0000

> <Gold.PLP.part.buried>
-1.2402

> <Gold.PLP.part.nonpolar>
-18.4828

> <Gold.PLP.part.repulsive>
5.2027

> <Gold.PLP.ligand.clash>
0.0000

> <Gold.PLP.ligand.torsion>
0.1993

> <Gold.PLP.Chemscore.Hbond>
5.8130

> <Gold.PLP.Chemscore.CHOScore>
0.0000

> <Gold.PLP.Chemscore.Metal>
0.0000

> <Gold.Chemscore.Hbonds>
donor molecule, donor type, donor heavy atom, donor atom, acceptor molecule, acceptor atom, score
      L1  H    11    24       P1  7957  1.00
      L1  H    13    26       P1  8028  1.00
      L1  H    15    28       P1  8028  1.00
      P1  H  7989  7998       L1     5  0.46
      P1  H  7997  8008       L1     5  0.94
      P1  H  8011  8017       L1     8  0.38
      P1  H 10752 10763       L1     1  1.00

> <Gold.PLP.Chemscore.Internal.Correction>
0.0239

> <Gold.Rescore>
     Score         DG    S(hbond)    S(metal)    S(lipo)     H(rot)  DE(clash)    DE(int)     intcor
     11.98     -14.62       4.28        0.00      36.27       3.67       2.35       0.29       ----

> <Gold.Chemscore.Fitness>
11.9807

> <Gold.Chemscore.DG>
-14.6229

> <Gold.Chemscore.ZeroCoef>
-5.4800

> <Gold.Chemscore.Hbond>
4.2799

> <Gold.Chemscore.Metal>
0.0000

> <Gold.Chemscore.Lipo>
36.2704

> <Gold.Chemscore.Internal_Hbond>
0.0000

> <Gold.Chemscore.DEClash>
2.3538

> <Gold.Chemscore.DEInternal>
0.2884

> <Gold.Chemscore.Rot>
3.6701

> <Gold.Chemscore.Internal.Correction>
   9.000000E+99

> <Gold.Chemscore.Hbonds>
donor molecule, donor type, donor heavy atom, donor atom, acceptor molecule, acceptor atom, score
      L1  H    11    24       P1  7957  0.98
      L1  H    13    26       P1  8028  0.80
      L1  H    15    28       P1  8028  0.91
      P1  H  7989  7998       L1     5  0.07
      P1  H  7997  8008       L1     5  0.90
      P1  H  8011  8017       L1     8  0.06
      P1  H 10752 10763       L1     1  0.30

> <Gold.Chemscore.Hbond.Weighted>
-14.2947

> <Gold.Chemscore.Metal.Weighted>
-0.0000

> <Gold.Chemscore.Lipo.Weighted>
-4.2436

> <Gold.Chemscore.Internal_Hbond.Weighted>
0.0000

> <Gold.Chemscore.DEClash.Weighted>
2.3538

> <Gold.Chemscore.DEInternal.Weighted>
0.2884

> <Gold.Chemscore.Rot.Weighted>
9.3955

> <Gold.Chemscore.Internal.Correction.Weighted>
   9.000000E+99

> <Gold.Protein.RotatedTorsions>
[ 6907 6896 6895 6894 ] final    9.17 input  -60.11 | X-H torsion
[ 7974 7965 7964 7962 ] final  166.39 input  175.53 | X-H torsion
[ 8008 7997 7996 7995 ] final  -24.89 input   59.86 | X-H torsion
[ 10167 10162 10161 10158 ] final   70.40 input  -65.29 | X-H torsion
[ 10718 10713 10712 10709 ] final   18.53 input   66.30 | X-H torsion
[ 10763 10752 10751 10750 ] final   93.54 input  -60.55 | X-H torsion
[ 11005 11000 10999 10996 ] final -110.85 input  -57.11 | X-H torsion

> <Gold.Protein.ActiveResidues>
 VAL166  LYS551  ARG553  GLY616  TRP617  ASP618  TYR619  PRO620  LYS621  CYS622 
 ASP623  PHE694  ASN695  SER759  ASP760  ASP761  ALA762  ILE779  LEU786  VAL792 
 PHE793  MET794  SER795  GLU796  ALA797  LYS798  CYS799  TRP800  GLU811  SER814 

> <Gold.Protein.RotatedAtoms>
  151.7179  135.0900  160.0278 H   0  0  0  0  0  0  0  0  0  0  0  0  # atno 6907 bound_to 6896
  152.3621  133.6305  159.6031 H   0  0  0  0  0  0  0  0  0  0  0  0  # atno 6908 bound_to 6896
  150.7611  133.9324  159.3472 H   0  0  0  0  0  0  0  0  0  0  0  0  # atno 6909 bound_to 6896
  144.7464  139.8609  143.6380 H   0  0  0  0  0  0  0  0  0  0  0  0  # atno 7974 bound_to 7965
  154.4504  140.1941  156.0535 H   0  0  0  0  0  0  0  0  0  0  0  0  # atno 8008 bound_to 7997
  156.0636  140.3293  155.7464 H   0  0  0  0  0  0  0  0  0  0  0  0  # atno 8009 bound_to 7997
  155.5373  140.0583  157.2868 H   0  0  0  0  0  0  0  0  0  0  0  0  # atno 8010 bound_to 7997
  140.0574  144.5262  150.7319 H   0  0  0  0  0  0  0  0  0  0  0  0  # atno 10167 bound_to 10162
  157.0976  130.6454  149.5864 H   0  0  0  0  0  0  0  0  0  0  0  0  # atno 10718 bound_to 10713
  153.2315  135.4321  155.0600 H   0  0  0  0  0  0  0  0  0  0  0  0  # atno 10763 bound_to 10752
  154.8299  135.3380  154.6780 H   0  0  0  0  0  0  0  0  0  0  0  0  # atno 10764 bound_to 10752
  153.7207  135.7017  153.5070 H   0  0  0  0  0  0  0  0  0  0  0  0  # atno 10765 bound_to 10752
  141.0768  133.9288  157.2373 H   0  0  0  0  0  0  0  0  0  0  0  0  # atno 11005 bound_to 11000
  146.1349  139.4392  143.0145 LP  0  0  0  0  0  0  0  0  0  0  0  0  # atno 17320 bound_to 7965
  145.7107  141.0107  143.1455 LP  0  0  0  0  0  0  0  0  0  0  0  0  # atno 17321 bound_to 7965
  140.7188  143.2569  151.4346 LP  0  0  0  0  0  0  0  0  0  0  0  0  # atno 17342 bound_to 10162
  139.5915  144.1488  152.2094 LP  0  0  0  0  0  0  0  0  0  0  0  0  # atno 17343 bound_to 10162
  155.9882  130.4924  150.7158 LP  0  0  0  0  0  0  0  0  0  0  0  0  # atno 17370 bound_to 10713
  157.4668  131.0889  151.0686 LP  0  0  0  0  0  0  0  0  0  0  0  0  # atno 17371 bound_to 10713
  139.9580  135.0161  156.9183 LP  0  0  0  0  0  0  0  0  0  0  0  0  # atno 17394 bound_to 11000
  140.5556  134.0585  155.7382 LP  0  0  0  0  0  0  0  0  0  0  0  0  # atno 17395 bound_to 11000

$$$$
