#       Name:                AV-unprocessed.smi:767
#       Creating user name   scv26
#       Creation time:       Fri Mar 27 01:07:29 2020


#       File generated by GOLD software.
#

@<TRIPOS>MOLECULE
AV-unprocessed.smi:767
    52    54     1
SMALL
NO_CHARGES


@<TRIPOS>ATOM
      1 ****        -1.5232   2.8991   3.0852 C.3            1 S1                 0.0000
      2 ****        -2.0817   2.3816   1.7764 C.ar           1 S1                 0.0000
      3 ****        -1.6527   2.9230   0.5468 C.ar           1 S1                 0.0000
      4 ****        -2.1886   2.3933  -0.6425 C.ar           1 S1                 0.0000
      5 ****        -3.1342   1.3505  -0.5581 C.ar           1 S1                 0.0000
      6 ****        -3.7179   0.7214  -1.8124 C.3            1 S1                 0.0000
      7 ****        -3.2890  -0.7425  -2.0363 C.3            1 S1                 0.0000
      8 ****        -1.8364  -0.9055  -2.0190 N.am           1 S1                 0.0000
      9 ****        -1.1206  -1.3490  -0.9750 C.2            1 S1                 0.0000
     10 ****        -1.6104  -1.7153   0.0937 O.2            1 S1                 0.0000
     11 ****         0.1954  -1.3244  -1.2213 N.am           1 S1                 0.0000
     12 ****         1.2084  -1.6691  -0.2310 C.3            1 S1                 0.0000
     13 ****         2.6297  -1.6315  -0.7902 C.3            1 S1                 0.0000
     14 ****         3.6808  -2.6533  -1.0403 C.3            1 S1                 0.0000
     15 ****         4.8750  -1.8922  -0.4046 C.3            1 S1                 0.0000
     16 ****         4.2995  -0.7619   0.2951 O.3            1 S1                 0.0000
     17 ****         2.9946  -1.1965   0.6178 C.3            1 S1                 0.0000
     18 ****         1.6473  -0.4483   0.6631 C.3            1 S1                 0.0000
     19 ****         1.6028   0.9803   0.0840 C.3            1 S1                 0.0000
     20 ****         0.9714  -0.3740   2.0328 C.3            1 S1                 0.0000
     21 ****        -3.5087   0.8929   0.7235 C.ar           1 S1                 0.0000
     22 ****        -2.9956   1.3908   1.8690 N.ar           1 S1                 0.0000
     23 ****        -0.5466   3.3607   2.9360 H              1 S1                 0.0000
     24 ****        -1.4053   2.0886   3.8055 H              1 S1                 0.0000
     25 ****        -2.1943   3.6451   3.5114 H              1 S1                 0.0000
     26 ****        -0.9210   3.7167   0.5127 H              1 S1                 0.0000
     27 ****        -1.8687   2.7759  -1.6005 H              1 S1                 0.0000
     28 ****        -4.8053   0.7796  -1.7570 H              1 S1                 0.0000
     29 ****        -3.4272   1.3190  -2.6772 H              1 S1                 0.0000
     30 ****        -3.7550  -1.3841  -1.2867 H              1 S1                 0.0000
     31 ****        -3.6624  -1.0889  -3.0001 H              1 S1                 0.0000
     32 ****        -1.3387  -0.6303  -2.8531 H              1 S1                 0.0000
     33 ****         0.5166  -1.0108  -2.1253 H              1 S1                 0.0000
     34 ****         0.9948  -2.5839   0.3300 H              1 S1                 0.0000
     35 ****         2.7264  -0.8318  -1.5280 H              1 S1                 0.0000
     36 ****         3.4705  -3.5907  -0.5234 H              1 S1                 0.0000
     37 ****         3.8305  -2.8563  -2.1008 H              1 S1                 0.0000
     38 ****         5.4180  -2.5342   0.2901 H              1 S1                 0.0000
     39 ****         5.5787  -1.5354  -1.1571 H              1 S1                 0.0000
     40 ****         3.0302  -2.0191   1.3415 H              1 S1                 0.0000
     41 ****         2.0667   1.6954   0.7639 H              1 S1                 0.0000
     42 ****         0.5763   1.3072  -0.0758 H              1 S1                 0.0000
     43 ****         2.1176   1.0857  -0.8691 H              1 S1                 0.0000
     44 ****         1.5026   0.2977   2.7077 H              1 S1                 0.0000
     45 ****         0.9334  -1.3514   2.5141 H              1 S1                 0.0000
     46 ****        -0.0559  -0.0169   1.9524 H              1 S1                 0.0000
     47 ****        -4.2265   0.0933   0.8324 H              1 S1                 0.0000
     48 ****        -2.6018  -1.6928   0.2232 LP             1 S1                 0.0000
     49 ****        -1.0169  -2.0353   0.8322 LP             1 S1                 0.0000
     50 ****         4.2708   0.0454  -0.2944 LP             1 S1                 0.0000
     51 ****         4.8202  -0.5521   1.1226 LP             1 S1                 0.0000
     52 ****        -3.2833   1.0369   2.7589 LP             1 S1                 0.0000
@<TRIPOS>BOND
    1    1    2 1     
    2    1   23 1     
    3    1   24 1     
    4    1   25 1     
    5    2   22 ar    
    6    2    3 ar    
    7    3    4 ar    
    8    3   26 1     
    9    4    5 ar    
   10    4   27 1     
   11    5    6 1     
   12    5   21 ar    
   13    6    7 1     
   14    6   28 1     
   15    6   29 1     
   16    7    8 1     
   17    7   30 1     
   18    7   31 1     
   19    8    9 am    
   20    8   32 1     
   21    9   10 2     
   22    9   11 am    
   23   11   12 1     
   24   11   33 1     
   25   12   18 1     
   26   12   13 1     
   27   12   34 1     
   28   13   17 1     
   29   13   14 1     
   30   13   35 1     
   31   14   15 1     
   32   14   36 1     
   33   14   37 1     
   34   15   16 1     
   35   15   38 1     
   36   15   39 1     
   37   16   17 1     
   38   17   18 1     
   39   17   40 1     
   40   18   19 1     
   41   18   20 1     
   42   19   41 1     
   43   19   42 1     
   44   19   43 1     
   45   20   44 1     
   46   20   45 1     
   47   20   46 1     
   48   21   22 ar    
   49   21   47 1     
   50   10   48 1     
   51   10   49 1     
   52   16   50 1     
   53   16   51 1     
   54   22   52 1     
@<TRIPOS>SUBSTRUCTURE
      1 S1             1
@<TRIPOS>SET
LONE_PAIRS      STATIC     ATOMS    <user>   **** ""
5 48 49 50 51 52
DONOR_HYDROGENS      STATIC     ATOMS    <user>   **** ""
2 32 33
ATOM$BLUE        STATIC     ATOMS    COLORGROUP SYSTEM
5 48 49 50 51 52
ATOM$RED        STATIC     ATOMS    COLORGROUP SYSTEM
2 32 33
