AV-unprocessed.smi:37|AV-procd|sdf|307|dock6
  -GOLD-   2262016123D 1   1.00000     0.00000
 Structure written by MMmdl.
 44 45  0  0  0  0  0  0  0  0  1 V2000
  147.7102  136.2651  162.5095 C   0  0  0  0  0  0  0  0  0  0  0  0
  147.7245  135.5945  161.1276 C   0  0  0  0  0  0  0  0  0  0  0  0
  148.3788  136.4487  160.0394 C   0  0  0  0  0  0  0  0  0  0  0  0
  149.5979  136.6183  159.9760 O   0  0  0  0  0  0  0  0  0  0  0  0
  147.4731  136.9681  159.1961 O   0  0  0  0  0  0  0  0  0  0  0  0
  147.8659  137.9796  158.2833 C   0  0  0  0  0  0  0  0  0  0  0  0
  148.3584  137.3338  156.9829 C   0  0  2  0  0  0  0  0  0  0  0  0
  149.2426  136.2520  157.2809 O   0  0  0  0  0  0  0  0  0  0  0  0
  150.3352  136.2606  156.4111 C   0  0  1  0  0  0  0  0  0  0  0  0
  150.5178  134.8715  155.8396 N   0  0  0  0  0  0  0  0  0  0  0  0
  150.0314  134.5747  154.5738 C   0  0  0  0  0  0  0  0  0  0  0  0
  150.1823  133.3627  153.9888 C   0  0  0  0  0  0  0  0  0  0  0  0
  149.6759  133.1501  152.7623 F   0  0  0  0  0  0  0  0  0  0  0  0
  150.8919  132.2879  154.6758 C   0  0  0  0  0  0  0  0  0  0  0  0
  151.0732  131.1558  154.2322 O   0  0  0  0  0  0  0  0  0  0  0  0
  151.3861  132.6374  155.9359 N   0  0  0  0  0  0  0  0  0  0  0  0
  151.2418  133.8839  156.5481 C   0  0  0  0  0  0  0  0  0  0  0  0
  151.7402  134.0807  157.6551 O   0  0  0  0  0  0  0  0  0  0  0  0
  150.0653  137.3242  155.3442 C   0  0  2  0  0  0  0  0  0  0  0  0
  151.7461  138.2020  154.7389 Br  0  0  0  0  0  0  0  0  0  0  0  0
  149.1772  138.2852  156.1026 C   0  0  1  0  0  0  0  0  0  0  0  0
  148.3702  139.0068  155.1812 O   0  0  0  0  0  0  0  0  0  0  0  0
  147.5790  140.0087  155.6044 C   0  0  0  0  0  0  0  0  0  0  0  0
  147.4308  140.3707  156.7717 O   0  0  0  0  0  0  0  0  0  0  0  0
  146.8332  140.6909  154.4600 C   0  0  0  0  0  0  0  0  0  0  0  0
  147.3044  142.1351  154.2417 C   0  0  0  0  0  0  0  0  0  0  0  0
  151.8960  131.9290  156.4437 H   0  0  0  0  0  0  0  0  0  0  0  0
  147.2259  135.6211  163.2436 H   0  0  0  0  0  0  0  0  0  0  0  0
  147.1636  137.2088  162.4884 H   0  0  0  0  0  0  0  0  0  0  0  0
  148.7215  136.4669  162.8647 H   0  0  0  0  0  0  0  0  0  0  0  0
  148.2547  134.6437  161.1867 H   0  0  0  0  0  0  0  0  0  0  0  0
  146.7034  135.3671  160.8206 H   0  0  0  0  0  0  0  0  0  0  0  0
  147.0040  138.6149  158.0766 H   0  0  0  0  0  0  0  0  0  0  0  0
  148.6424  138.6110  158.7175 H   0  0  0  0  0  0  0  0  0  0  0  0
  147.5186  136.9411  156.4074 H   0  0  0  0  0  0  0  0  0  0  0  0
  151.2249  136.4828  157.0019 H   0  0  0  0  0  0  0  0  0  0  0  0
  149.4988  135.3351  154.0204 H   0  0  0  0  0  0  0  0  0  0  0  0
  149.5554  136.9080  154.4760 H   0  0  0  0  0  0  0  0  0  0  0  0
  149.7989  138.9329  156.7231 H   0  0  0  0  0  0  0  0  0  0  0  0
  146.9760  140.1090  153.5492 H   0  0  0  0  0  0  0  0  0  0  0  0
  145.7653  140.6796  154.6790 H   0  0  0  0  0  0  0  0  0  0  0  0
  146.7286  142.6103  153.4476 H   0  0  0  0  0  0  0  0  0  0  0  0
  148.3557  142.1744  153.9544 H   0  0  0  0  0  0  0  0  0  0  0  0
  147.1793  142.7340  155.1446 H   0  0  0  0  0  0  0  0  0  0  0  0
  1  2  1  0  0  0  0
  1 28  1  0  0  0  0
  1 29  1  0  0  0  0
  1 30  1  0  0  0  0
  2  3  1  0  0  0  0
  2 31  1  0  0  0  0
  2 32  1  0  0  0  0
  3  4  2  0  0  0  0
  3  5  1  0  0  0  0
  5  6  1  0  0  0  0
  6  7  1  0  0  0  0
  6 33  1  0  0  0  0
  6 34  1  0  0  0  0
  7 21  1  0  0  0  0
  7  8  1  0  0  0  0
  7 35  1  0  0  0  0
  8  9  1  0  0  0  0
  9 10  1  0  0  0  0
  9 19  1  0  0  0  0
  9 36  1  0  0  0  0
 10 17  1  0  0  0  0
 10 11  1  0  0  0  0
 11 12  2  0  0  0  0
 11 37  1  0  0  0  0
 12 13  1  0  0  0  0
 12 14  1  0  0  0  0
 14 15  2  0  0  0  0
 14 16  1  0  0  0  0
 16 27  1  0  0  0  0
 16 17  1  0  0  0  0
 17 18  2  0  0  0  0
 19 20  1  0  0  0  0
 19 21  1  0  0  0  0
 19 38  1  0  0  0  0
 21 22  1  0  0  0  0
 21 39  1  0  0  0  0
 22 23  1  0  0  0  0
 23 24  2  0  0  0  0
 23 25  1  0  0  0  0
 25 26  1  0  0  0  0
 25 40  1  0  0  0  0
 25 41  1  0  0  0  0
 26 42  1  0  0  0  0
 26 43  1  0  0  0  0
 26 44  1  0  0  0  0
M  END
> <s_m_source_file>
AV-unprocessed.smi

> <i_m_source_file_index>
37

> <i_lp_mmshare_version>
43012

> <i_f3d_flags>
0

> <s_epik_input>
W0NIM11bQ0gyXUMoPU8pT1tDSDJdW0NAQEhdMU9bQ0BASF0objJbY0hdYyhGKWMoPU8pW25IXWMyPU8pW0NAQEhdKEJyKVtDQEhdMU9DKD1PKVtDSDJdW0NIM10=

> <s_epik_cmdline>
J2VwaWtfcHl0aG9uJywgJy1waCcsICc3LjAnLCAnLXRuJywgJzgnLCAnLW1hJywgJzIwMCcsICctbWV0YWxfYmluZGluZycsICctaW1hZScsICc8aW5maWxlLm1hZT4nLCAnLW9tYWUnLCAnPG91dGZpbGUubWFlPic=

> <r_lp_tautomer_probability>
0.999537

> <r_epik_Ionization_Penalty>
0.104106

> <r_epik_Ionization_Penalty_Charging>
0.104106

> <r_epik_Ionization_Penalty_Neutral>
3.94675e-16

> <r_epik_State_Penalty>
0.0940182

> <r_epik_Charging_Adjusted_Penalty>
0.198124

> <i_epik_Tot_Q>
0

> <i_epik_Tot_abs_Q>
0

> <r_epik_Metal_State_Penalty>
3.05314

> <b_epik_Metal_Only>
0

> <s_epik_Chemistry_Notes>
This compound has an ester and may undergo hydrolysis at high or low pH. This compound contains an acetal/aminal-like group ( X-CH(R)-Y where X, Y are N, S, or O) that may be acid/base labile, releasing an aldehyde.

> <s_lp_Force_Field>
OPLS_2005

> <r_lp_Energy>
20.0289

> <b_lp_Chiralities_Consistent>
1

> <s_lp_Variant>
AV-unprocessed.smi:37-5

> <Gold.Version>
5.8.1

> <Gold.Id.Protein>
6NUR|6NUR_protein|mol2

> <Gold.PLP.Fitness>
41.2944

> <Gold.PLP.PLP>
-35.6528

> <Gold.PLP.part.hbond>
-2.0000

> <Gold.PLP.part.metal>
0.0000

> <Gold.PLP.part.buried>
-4.9423

> <Gold.PLP.part.nonpolar>
-30.2871

> <Gold.PLP.part.repulsive>
0.1890

> <Gold.PLP.ligand.clash>
0.0000

> <Gold.PLP.ligand.torsion>
1.3255

> <Gold.PLP.Chemscore.Hbond>
1.7040

> <Gold.PLP.Chemscore.CHOScore>
1.0000

> <Gold.PLP.Chemscore.Metal>
0.0000

> <Gold.Chemscore.Hbonds>
donor molecule, donor type, donor heavy atom, donor atom, acceptor molecule, acceptor atom, score
      P1  H  6896  6908       L1    18  0.16
      P1  H  6896  6909       L1     4  0.71
      L1  C    11    37       P1  7948  1.00

> <Gold.PLP.Chemscore.Internal.Correction>
0.1807

> <Gold.Rescore>
     Score         DG    S(hbond)    S(metal)    S(lipo)     H(rot)  DE(clash)    DE(int)     intcor
      6.32     -10.11       1.94        0.00      57.21       3.33       0.11       3.68       ----

> <Gold.Chemscore.Fitness>
6.3185

> <Gold.Chemscore.DG>
-10.1141

> <Gold.Chemscore.ZeroCoef>
-5.4800

> <Gold.Chemscore.Hbond>
1.9359

> <Gold.Chemscore.Metal>
0.0000

> <Gold.Chemscore.Lipo>
57.2128

> <Gold.Chemscore.Internal_Hbond>
0.0000

> <Gold.Chemscore.DEClash>
0.1129

> <Gold.Chemscore.DEInternal>
3.6827

> <Gold.Chemscore.Rot>
3.3303

> <Gold.Chemscore.Internal.Correction>
   9.000000E+99

> <Gold.Chemscore.Hbonds>
donor molecule, donor type, donor heavy atom, donor atom, acceptor molecule, acceptor atom, score
      P1  H  6896  6908       L1    18  0.17
      P1  H  6896  6909       L1     4  0.70

> <Gold.Chemscore.Hbond.Weighted>
-6.4658

> <Gold.Chemscore.Metal.Weighted>
-0.0000

> <Gold.Chemscore.Lipo.Weighted>
-6.6939

> <Gold.Chemscore.Internal_Hbond.Weighted>
0.0000

> <Gold.Chemscore.DEClash.Weighted>
0.1129

> <Gold.Chemscore.DEInternal.Weighted>
3.6827

> <Gold.Chemscore.Rot.Weighted>
8.5256

> <Gold.Chemscore.Internal.Correction.Weighted>
   9.000000E+99

> <Gold.Protein.RotatedTorsions>
[ 6907 6896 6895 6894 ] final   89.28 input  -60.11 | X-H torsion
[ 7974 7965 7964 7962 ] final -102.19 input  175.53 | X-H torsion
[ 8008 7997 7996 7995 ] final  -78.34 input   59.86 | X-H torsion
[ 10167 10162 10161 10158 ] final  142.22 input  -65.29 | X-H torsion
[ 10718 10713 10712 10709 ] final  -32.09 input   66.30 | X-H torsion
[ 10763 10752 10751 10750 ] final  -79.94 input  -60.55 | X-H torsion
[ 11005 11000 10999 10996 ] final -103.00 input  -57.11 | X-H torsion

> <Gold.Protein.ActiveResidues>
 VAL166  LYS551  ARG553  GLY616  TRP617  ASP618  TYR619  PRO620  LYS621  CYS622 
 ASP623  PHE694  ASN695  SER759  ASP760  ASP761  ALA762  ILE779  LEU786  VAL792 
 PHE793  MET794  SER795  GLU796  ALA797  LYS798  CYS799  TRP800  GLU811  SER814 

> <Gold.Protein.RotatedAtoms>
  152.5434  134.1991  159.8704 H   0  0  0  0  0  0  0  0  0  0  0  0  # atno 6907 bound_to 6896
  151.1981  133.4620  159.2603 H   0  0  0  0  0  0  0  0  0  0  0  0  # atno 6908 bound_to 6896
  151.1017  134.9988  159.8507 H   0  0  0  0  0  0  0  0  0  0  0  0  # atno 6909 bound_to 6896
  145.2719  140.9301  143.2981 H   0  0  0  0  0  0  0  0  0  0  0  0  # atno 7974 bound_to 7965
  154.5680  140.0696  156.8921 H   0  0  0  0  0  0  0  0  0  0  0  0  # atno 8008 bound_to 7997
  155.2687  140.3363  155.4249 H   0  0  0  0  0  0  0  0  0  0  0  0  # atno 8009 bound_to 7997
  156.2096  140.1754  156.7710 H   0  0  0  0  0  0  0  0  0  0  0  0  # atno 8010 bound_to 7997
  139.5000  144.6121  151.6247 H   0  0  0  0  0  0  0  0  0  0  0  0  # atno 10167 bound_to 10162
  156.3792  130.4353  149.7482 H   0  0  0  0  0  0  0  0  0  0  0  0  # atno 10718 bound_to 10713
  154.5450  135.5678  153.6872 H   0  0  0  0  0  0  0  0  0  0  0  0  # atno 10763 bound_to 10752
  152.9973  135.6237  154.2451 H   0  0  0  0  0  0  0  0  0  0  0  0  # atno 10764 bound_to 10752
  154.2384  135.2863  155.2843 H   0  0  0  0  0  0  0  0  0  0  0  0  # atno 10765 bound_to 10752
  141.1165  133.8604  157.1431 H   0  0  0  0  0  0  0  0  0  0  0  0  # atno 11005 bound_to 11000
  144.9328  139.4279  143.6487 LP  0  0  0  0  0  0  0  0  0  0  0  0  # atno 17320 bound_to 7965
  146.3244  139.8247  142.8920 LP  0  0  0  0  0  0  0  0  0  0  0  0  # atno 17321 bound_to 7965
  140.5799  143.9964  150.6262 LP  0  0  0  0  0  0  0  0  0  0  0  0  # atno 17342 bound_to 10162
  140.3110  143.3198  152.0879 LP  0  0  0  0  0  0  0  0  0  0  0  0  # atno 17343 bound_to 10162
  156.4579  130.7938  151.2958 LP  0  0  0  0  0  0  0  0  0  0  0  0  # atno 17370 bound_to 10713
  157.7491  131.0075  150.3192 LP  0  0  0  0  0  0  0  0  0  0  0  0  # atno 17371 bound_to 10713
  140.0090  134.9996  157.0355 LP  0  0  0  0  0  0  0  0  0  0  0  0  # atno 17394 bound_to 11000
  140.4631  134.1463  155.7194 LP  0  0  0  0  0  0  0  0  0  0  0  0  # atno 17395 bound_to 11000

$$$$
