AV-unprocessed.smi:1631|AV-procd|sdf|6526|dock3
  -GOLD-   22720 7203D 1   1.00000     0.00000
 Structure written by MMmdl.
 38 39  0  0  0  0  0  0  0  0  1 V2000
  150.8174  144.7914  160.0372 C   0  0  0  0  0  0  0  0  0  0  0  0
  151.4071  143.5337  159.4534 C   0  0  0  0  0  0  0  0  0  0  0  0
  151.0266  143.2530  158.2507 N   0  0  0  0  0  0  0  0  0  0  0  0
  151.4902  142.1350  157.5873 N   0  0  0  0  0  0  0  0  0  0  0  0
  150.9566  141.9877  156.2265 C   0  0  0  0  0  0  0  0  0  0  0  0
  150.5083  140.5392  155.9236 C   0  0  2  0  0  0  0  0  0  0  0  0
  151.5750  139.8657  155.2834 O   0  0  0  0  0  0  0  0  0  0  0  0
  149.2523  140.5207  155.0519 C   0  0  0  0  0  0  0  0  0  0  0  0
  148.7539  141.7580  154.5812 C   0  0  0  0  0  0  0  0  0  0  0  0
  147.5994  141.8176  153.7816 C   0  0  0  0  0  0  0  0  0  0  0  0
  146.9261  140.6335  153.4409 C   0  0  0  0  0  0  0  0  0  0  0  0
  147.4102  139.3953  153.8995 C   0  0  0  0  0  0  0  0  0  0  0  0
  148.5717  139.3181  154.7050 C   0  0  0  0  0  0  0  0  0  0  0  0
  149.0589  137.9454  155.1706 C   0  0  0  0  0  0  0  0  0  0  0  0
  148.3203  136.9574  154.6637 F   0  0  0  0  0  0  0  0  0  0  0  0
  150.3180  137.7482  154.7787 F   0  0  0  0  0  0  0  0  0  0  0  0
  148.9887  137.8575  156.4982 F   0  0  0  0  0  0  0  0  0  0  0  0
  152.3653  141.2305  158.1108 C   0  0  0  0  0  0  0  0  0  0  0  0
  152.7514  140.2427  157.4853 O   0  0  0  0  0  0  0  0  0  0  0  0
  152.7948  141.5506  159.4736 C   0  0  0  0  0  0  0  0  0  0  0  0
  153.7163  140.6284  160.0552 C   0  0  0  0  0  0  0  0  0  0  0  0
  154.4588  139.8876  160.5454 N   0  0  0  0  0  0  0  0  0  0  0  0
  152.3485  142.6473  160.1368 C   0  0  0  0  0  0  0  0  0  0  0  0
  152.7728  143.0114  161.5532 C   0  0  0  0  0  0  0  0  0  0  0  0
  151.1465  144.9833  161.0567 H   0  0  0  0  0  0  0  0  0  0  0  0
  149.7285  144.7338  160.0539 H   0  0  0  0  0  0  0  0  0  0  0  0
  151.0950  145.6592  159.4380 H   0  0  0  0  0  0  0  0  0  0  0  0
  150.1064  142.6625  156.1084 H   0  0  0  0  0  0  0  0  0  0  0  0
  151.6866  142.3266  155.4886 H   0  0  0  0  0  0  0  0  0  0  0  0
  150.3352  140.0164  156.8601 H   0  0  0  0  0  0  0  0  0  0  0  0
  151.9938  139.3016  155.9154 H   0  0  0  0  0  0  0  0  0  0  0  0
  149.2614  142.6771  154.8353 H   0  0  0  0  0  0  0  0  0  0  0  0
  147.2312  142.7703  153.4306 H   0  0  0  0  0  0  0  0  0  0  0  0
  146.0385  140.6738  152.8270 H   0  0  0  0  0  0  0  0  0  0  0  0
  146.8722  138.5019  153.6201 H   0  0  0  0  0  0  0  0  0  0  0  0
  153.4686  142.2880  161.9767 H   0  0  0  0  0  0  0  0  0  0  0  0
  151.9060  143.0528  162.2138 H   0  0  0  0  0  0  0  0  0  0  0  0
  153.2662  143.9840  161.5657 H   0  0  0  0  0  0  0  0  0  0  0  0
  1  2  1  0  0  0  0
  1 25  1  0  0  0  0
  1 26  1  0  0  0  0
  1 27  1  0  0  0  0
  2 23  1  0  0  0  0
  2  3  2  0  0  0  0
  3  4  1  0  0  0  0
  4  5  1  0  0  0  0
  4 18  1  0  0  0  0
  5  6  1  0  0  0  0
  5 28  1  0  0  0  0
  5 29  1  0  0  0  0
  6  7  1  0  0  0  0
  6  8  1  0  0  0  0
  6 30  1  0  0  0  0
  7 31  1  0  0  0  0
  8 13  1  0  0  0  0
  8  9  2  0  0  0  0
  9 10  1  0  0  0  0
  9 32  1  0  0  0  0
 10 11  2  0  0  0  0
 10 33  1  0  0  0  0
 11 12  1  0  0  0  0
 11 34  1  0  0  0  0
 12 13  2  0  0  0  0
 12 35  1  0  0  0  0
 13 14  1  0  0  0  0
 14 15  1  0  0  0  0
 14 16  1  0  0  0  0
 14 17  1  0  0  0  0
 18 19  2  0  0  0  0
 18 20  1  0  0  0  0
 20 21  1  0  0  0  0
 20 23  2  0  0  0  0
 21 22  3  0  0  0  0
 23 24  1  0  0  0  0
 24 36  1  0  0  0  0
 24 37  1  0  0  0  0
 24 38  1  0  0  0  0
M  END
> <s_m_source_file>
AV-unprocessed.smi

> <i_m_source_file_index>
1631

> <i_lp_mmshare_version>
43012

> <i_f3d_flags>
0

> <s_epik_input>
TiNDYyhjMVtDSDNdKWMoPU8pbihuYzFbQ0gzXSlbQ0gyXVtDQEhdKFtPSF0pYzJbY0hdW2NIXVtjSF1bY0hdYzJDKEYpKEYpRg==

> <s_epik_cmdline>
J2VwaWtfcHl0aG9uJywgJy1waCcsICc3LjAnLCAnLXRuJywgJzgnLCAnLW1hJywgJzIwMCcsICctbWV0YWxfYmluZGluZycsICctaW1hZScsICc8aW5maWxlLm1hZT4nLCAnLW9tYWUnLCAnPG91dGZpbGUubWFlPic=

> <r_lp_tautomer_probability>
1

> <r_epik_Ionization_Penalty>
7.1854e-08

> <r_epik_Ionization_Penalty_Charging>
1.40848e-10

> <r_epik_Ionization_Penalty_Neutral>
7.17131e-08

> <r_epik_State_Penalty>
-0

> <r_epik_Charging_Adjusted_Penalty>
1.40848e-10

> <i_epik_Tot_Q>
0

> <i_epik_Tot_abs_Q>
0

> <r_epik_Metal_State_Penalty>
-0

> <b_epik_Metal_Only>
0

> <s_lp_Force_Field>
OPLS_2005

> <r_lp_Energy>
30.0509

> <b_lp_Chiralities_Consistent>
1

> <s_lp_Variant>
AV-unprocessed.smi:1631-1

> <Gold.Version>
5.8.1

> <Gold.Id.Protein>
6NUR|6NUR_protein|mol2

> <Gold.PLP.Fitness>
46.7780

> <Gold.PLP.PLP>
-42.3976

> <Gold.PLP.part.hbond>
-2.0000

> <Gold.PLP.part.metal>
0.0000

> <Gold.PLP.part.buried>
-2.5901

> <Gold.PLP.part.nonpolar>
-35.0101

> <Gold.PLP.part.repulsive>
0.1089

> <Gold.PLP.ligand.clash>
1.3925

> <Gold.PLP.ligand.torsion>
0.7528

> <Gold.PLP.Chemscore.Hbond>
1.9508

> <Gold.PLP.Chemscore.CHOScore>
0.0000

> <Gold.PLP.Chemscore.Metal>
0.0000

> <Gold.Chemscore.Hbonds>
donor molecule, donor type, donor heavy atom, donor atom, acceptor molecule, acceptor atom, score
      P1  H  7989  7998       L1     7  0.98
      P1  H  7997  8009       L1    19  0.98

> <Gold.PLP.Chemscore.Internal.Correction>
1.4263

> <Gold.Rescore>
     Score         DG    S(hbond)    S(metal)    S(lipo)     H(rot)  DE(clash)    DE(int)     intcor
     10.64     -18.13       1.83        0.00     102.23       2.11       1.21       6.28       ----

> <Gold.Chemscore.Fitness>
10.6380

> <Gold.Chemscore.DG>
-18.1324

> <Gold.Chemscore.ZeroCoef>
-5.4800

> <Gold.Chemscore.Hbond>
1.8261

> <Gold.Chemscore.Metal>
0.0000

> <Gold.Chemscore.Lipo>
102.2293

> <Gold.Chemscore.Internal_Hbond>
0.0000

> <Gold.Chemscore.DEClash>
1.2131

> <Gold.Chemscore.DEInternal>
6.2813

> <Gold.Chemscore.Rot>
2.1124

> <Gold.Chemscore.Internal.Correction>
   9.000000E+99

> <Gold.Chemscore.Hbonds>
donor molecule, donor type, donor heavy atom, donor atom, acceptor molecule, acceptor atom, score
      P1  H  7989  7998       L1     7  0.27
      P1  H  7997  8009       L1    19  0.93

> <Gold.Chemscore.Hbond.Weighted>
-6.0993

> <Gold.Chemscore.Metal.Weighted>
-0.0000

> <Gold.Chemscore.Lipo.Weighted>
-11.9608

> <Gold.Chemscore.Internal_Hbond.Weighted>
0.0000

> <Gold.Chemscore.DEClash.Weighted>
1.2131

> <Gold.Chemscore.DEInternal.Weighted>
6.2813

> <Gold.Chemscore.Rot.Weighted>
5.4078

> <Gold.Chemscore.Internal.Correction.Weighted>
   9.000000E+99

> <Gold.Protein.RotatedTorsions>
[ 6907 6896 6895 6894 ] final -107.88 input  -60.11 | X-H torsion
[ 7974 7965 7964 7962 ] final -153.48 input  175.53 | X-H torsion
[ 8008 7997 7996 7995 ] final  178.05 input   59.86 | X-H torsion
[ 10167 10162 10161 10158 ] final  103.91 input  -65.29 | X-H torsion
[ 10718 10713 10712 10709 ] final  164.04 input   66.30 | X-H torsion
[ 10763 10752 10751 10750 ] final    6.16 input  -60.55 | X-H torsion
[ 11005 11000 10999 10996 ] final -171.31 input  -57.11 | X-H torsion

> <Gold.Protein.ActiveResidues>
 VAL166  LYS551  ARG553  GLY616  TRP617  ASP618  TYR619  PRO620  LYS621  CYS622 
 ASP623  PHE694  ASN695  SER759  ASP760  ASP761  ALA762  ILE779  LEU786  VAL792 
 PHE793  MET794  SER795  GLU796  ALA797  LYS798  CYS799  TRP800  GLU811  SER814 

> <Gold.Protein.RotatedAtoms>
  150.7469  133.9760  159.3560 H   0  0  0  0  0  0  0  0  0  0  0  0  # atno 6907 bound_to 6896
  151.7697  135.0787  160.0367 H   0  0  0  0  0  0  0  0  0  0  0  0  # atno 6908 bound_to 6896
  152.3347  133.5961  159.5870 H   0  0  0  0  0  0  0  0  0  0  0  0  # atno 6909 bound_to 6896
  144.7738  140.4519  143.5888 H   0  0  0  0  0  0  0  0  0  0  0  0  # atno 7974 bound_to 7965
  156.0589  140.1343  156.9964 H   0  0  0  0  0  0  0  0  0  0  0  0  # atno 8008 bound_to 7997
  154.4472  140.0995  156.6559 H   0  0  0  0  0  0  0  0  0  0  0  0  # atno 8009 bound_to 7997
  155.5407  140.3461  155.4448 H   0  0  0  0  0  0  0  0  0  0  0  0  # atno 8010 bound_to 7997
  139.7222  144.7055  151.0854 H   0  0  0  0  0  0  0  0  0  0  0  0  # atno 10167 bound_to 10162
  157.1000  131.0440  151.2502 H   0  0  0  0  0  0  0  0  0  0  0  0  # atno 10718 bound_to 10713
  153.2510  135.6913  153.7680 H   0  0  0  0  0  0  0  0  0  0  0  0  # atno 10763 bound_to 10752
  153.6774  135.3334  155.3170 H   0  0  0  0  0  0  0  0  0  0  0  0  # atno 10764 bound_to 10752
  154.8394  135.4514  154.1466 H   0  0  0  0  0  0  0  0  0  0  0  0  # atno 10765 bound_to 10752
  140.5097  134.5814  157.5015 H   0  0  0  0  0  0  0  0  0  0  0  0  # atno 11005 bound_to 11000
  145.6245  139.1528  143.3004 LP  0  0  0  0  0  0  0  0  0  0  0  0  # atno 17320 bound_to 7965
  146.1904  140.6353  142.9148 LP  0  0  0  0  0  0  0  0  0  0  0  0  # atno 17321 bound_to 7965
  140.7756  143.5151  150.9605 LP  0  0  0  0  0  0  0  0  0  0  0  0  # atno 17342 bound_to 10162
  139.8838  143.7038  152.3154 LP  0  0  0  0  0  0  0  0  0  0  0  0  # atno 17343 bound_to 10162
  157.4648  130.7674  149.7269 LP  0  0  0  0  0  0  0  0  0  0  0  0  # atno 17370 bound_to 10713
  155.9876  130.3966  150.3158 LP  0  0  0  0  0  0  0  0  0  0  0  0  # atno 17371 bound_to 10713
  139.9666  134.7363  156.0126 LP  0  0  0  0  0  0  0  0  0  0  0  0  # atno 17394 bound_to 11000
  141.1392  133.6568  156.3681 LP  0  0  0  0  0  0  0  0  0  0  0  0  # atno 17395 bound_to 11000

$$$$
