AV-unprocessed.smi:1225|AV-procd|sdf|5140|dock5
  -GOLD-   22720 4203D 1   1.00000     0.00000
 Structure written by MMmdl.
 49 51  0  0  0  0  0  0  0  0  2 V2000
  147.1771  130.0813  153.0278 C   0  0  0  0  0  0  0  0  0  0  0  0
  147.8067  131.4034  153.3044 C   0  0  0  0  0  0  0  0  0  0  0  0
  147.3395  132.5567  152.8215 N   0  0  0  0  0  0  0  0  0  0  0  0
  148.1017  133.6537  153.2278 C   0  0  0  0  0  0  0  0  0  0  0  0
  149.1696  133.3230  154.0254 C   0  0  0  0  0  0  0  0  0  0  0  0
  150.1775  134.2484  154.6287 C   0  0  0  0  0  0  0  0  0  0  0  0
  149.7848  135.6760  154.5198 N   0  3  1  0  0  0  0  0  0  0  0  0
  148.4813  135.9313  155.1774 C   0  0  0  0  0  0  0  0  0  0  0  0
  150.8526  136.6138  154.9627 C   0  0  0  0  0  0  0  0  0  0  0  0
  150.4802  138.0922  154.7378 C   0  0  2  0  0  0  0  0  0  0  0  0
  150.1294  138.2735  153.3791 O   0  0  0  0  0  0  0  0  0  0  0  0
  151.6502  139.0315  155.0860 C   0  0  0  0  0  0  0  0  0  0  0  0
  151.1984  140.2846  155.6626 N   0  0  0  0  0  0  0  0  0  0  0  0
  150.2524  141.1135  155.1798 C   0  0  0  0  0  0  0  0  0  0  0  0
  149.9964  142.2159  155.8784 N   0  0  0  0  0  0  0  0  0  0  0  0
  150.8848  142.0918  156.9331 C   0  0  0  0  0  0  0  0  0  0  0  0
  151.1238  142.9390  158.0370 C   0  0  0  0  0  0  0  0  0  0  0  0
  152.0969  142.6082  159.0071 C   0  0  0  0  0  0  0  0  0  0  0  0
  152.3242  143.5497  160.1765 C   0  0  0  0  0  0  0  0  0  0  0  0
  152.8470  141.4111  158.8822 C   0  0  0  0  0  0  0  0  0  0  0  0
  153.8984  141.0357  159.9114 C   0  0  0  0  0  0  0  0  0  0  0  0
  152.6196  140.5526  157.7864 C   0  0  0  0  0  0  0  0  0  0  0  0
  151.6508  140.8945  156.8269 C   0  0  0  0  0  0  0  0  0  0  0  0
  149.2382  131.6016  154.3073 S   0  0  0  0  0  0  0  0  0  0  0  0
  146.8096  130.0436  152.0020 H   0  0  0  0  0  0  0  0  0  0  0  0
  146.3406  129.9172  153.7072 H   0  0  0  0  0  0  0  0  0  0  0  0
  147.9038  129.2807  153.1666 H   0  0  0  0  0  0  0  0  0  0  0  0
  147.8136  134.6408  152.8969 H   0  0  0  0  0  0  0  0  0  0  0  0
  150.2936  133.9834  155.6806 H   0  0  0  0  0  0  0  0  0  0  0  0
  151.1557  134.1036  154.1676 H   0  0  0  0  0  0  0  0  0  0  0  0
  148.5504  135.7753  156.2547 H   0  0  0  0  0  0  0  0  0  0  0  0
  147.7151  135.2608  154.7867 H   0  0  0  0  0  0  0  0  0  0  0  0
  148.1321  136.9476  155.0008 H   0  0  0  0  0  0  0  0  0  0  0  0
  151.0746  136.4318  156.0154 H   0  0  0  0  0  0  0  0  0  0  0  0
  151.7795  136.4166  154.4244 H   0  0  0  0  0  0  0  0  0  0  0  0
  149.6224  138.3654  155.3515 H   0  0  0  0  0  0  0  0  0  0  0  0
  149.8782  137.4358  153.0193 H   0  0  0  0  0  0  0  0  0  0  0  0
  152.3173  138.5523  155.8037 H   0  0  0  0  0  0  0  0  0  0  0  0
  152.2493  139.2467  154.1997 H   0  0  0  0  0  0  0  0  0  0  0  0
  149.7187  140.8935  154.2667 H   0  0  0  0  0  0  0  0  0  0  0  0
  150.5522  143.8505  158.1324 H   0  0  0  0  0  0  0  0  0  0  0  0
  152.0989  143.0492  161.1184 H   0  0  0  0  0  0  0  0  0  0  0  0
  151.6896  144.4337  160.1064 H   0  0  0  0  0  0  0  0  0  0  0  0
  153.3613  143.8847  160.2015 H   0  0  0  0  0  0  0  0  0  0  0  0
  154.3661  140.0801  159.6727 H   0  0  0  0  0  0  0  0  0  0  0  0
  153.4509  140.9508  160.9019 H   0  0  0  0  0  0  0  0  0  0  0  0
  154.6828  141.7919  159.9489 H   0  0  0  0  0  0  0  0  0  0  0  0
  153.1843  139.6385  157.6785 H   0  0  0  0  0  0  0  0  0  0  0  0
  149.6486  135.8500  153.5339 H   0  0  0  0  0  0  0  0  0  0  0  0
  1  2  1  0  0  0  0
  1 25  1  0  0  0  0
  1 26  1  0  0  0  0
  1 27  1  0  0  0  0
  2 24  1  0  0  0  0
  2  3  2  0  0  0  0
  3  4  1  0  0  0  0
  4  5  2  0  0  0  0
  4 28  1  0  0  0  0
  5  6  1  0  0  0  0
  5 24  1  0  0  0  0
  6  7  1  0  0  0  0
  6 29  1  0  0  0  0
  6 30  1  0  0  0  0
  7  8  1  0  0  0  0
  7  9  1  0  0  0  0
  7 49  1  0  0  0  0
  8 31  1  0  0  0  0
  8 32  1  0  0  0  0
  8 33  1  0  0  0  0
  9 10  1  0  0  0  0
  9 34  1  0  0  0  0
  9 35  1  0  0  0  0
 10 11  1  0  0  0  0
 10 12  1  0  0  0  0
 10 36  1  0  0  0  0
 11 37  1  0  0  0  0
 12 13  1  0  0  0  0
 12 38  1  0  0  0  0
 12 39  1  0  0  0  0
 13 23  1  0  0  0  0
 13 14  1  0  0  0  0
 14 15  2  0  0  0  0
 14 40  1  0  0  0  0
 15 16  1  0  0  0  0
 16 23  2  0  0  0  0
 16 17  1  0  0  0  0
 17 18  2  0  0  0  0
 17 41  1  0  0  0  0
 18 19  1  0  0  0  0
 18 20  1  0  0  0  0
 19 42  1  0  0  0  0
 19 43  1  0  0  0  0
 19 44  1  0  0  0  0
 20 21  1  0  0  0  0
 20 22  2  0  0  0  0
 21 45  1  0  0  0  0
 21 46  1  0  0  0  0
 21 47  1  0  0  0  0
 22 23  1  0  0  0  0
 22 48  1  0  0  0  0
M  CHG  1   7   1
M  END
> <s_m_source_file>
AV-unprocessed.smi

> <i_m_source_file_index>
1225

> <i_lp_mmshare_version>
43012

> <i_f3d_flags>
0

> <s_epik_input>
W0NIM11jMW5bY0hdYyhzMSlbQ0gyXU4oW0NIM10pW0NIMl1bQ0BIXShbT0hdKVtDSDJdbihbY0hdbjIpYyhjMjMpW2NIXWMoW0NIM10pYyhbY0hdMylbQ0gzXQ==

> <s_epik_cmdline>
J2VwaWtfcHl0aG9uJywgJy1waCcsICc3LjAnLCAnLXRuJywgJzgnLCAnLW1hJywgJzIwMCcsICctbWV0YWxfYmluZGluZycsICctaW1hZScsICc8aW5maWxlLm1hZT4nLCAnLW9tYWUnLCAnPG91dGZpbGUubWFlPic=

> <r_epik_Ionization_Penalty>
1.62543

> <r_epik_Ionization_Penalty_Charging>
1.53932

> <r_epik_Ionization_Penalty_Neutral>
0.0861152

> <r_epik_State_Penalty>
1.73127

> <r_epik_Charging_Adjusted_Penalty>
3.27059

> <i_epik_Tot_Q>
1

> <i_epik_Tot_abs_Q>
1

> <r_epik_Metal_State_Penalty>
1.71387

> <b_epik_Metal_Only>
0

> <s_lp_Force_Field>
OPLS_2005

> <r_lp_Energy>
11.3728

> <b_lp_Chiralities_Consistent>
1

> <s_lp_Variant>
AV-unprocessed.smi:1225-5

> <Gold.Version>
5.8.1

> <Gold.Id.Protein>
6NUR|6NUR_protein|mol2

> <Gold.PLP.Fitness>
57.0234

> <Gold.PLP.PLP>
-46.3135

> <Gold.PLP.part.hbond>
-3.5820

> <Gold.PLP.part.metal>
0.0000

> <Gold.PLP.part.buried>
-3.8156

> <Gold.PLP.part.nonpolar>
-40.4874

> <Gold.PLP.part.repulsive>
1.9881

> <Gold.PLP.ligand.clash>
0.0000

> <Gold.PLP.ligand.torsion>
0.7259

> <Gold.PLP.Chemscore.Hbond>
3.0000

> <Gold.PLP.Chemscore.CHOScore>
1.0000

> <Gold.PLP.Chemscore.Metal>
0.0000

> <Gold.Chemscore.Hbonds>
donor molecule, donor type, donor heavy atom, donor atom, acceptor molecule, acceptor atom, score
      L1  H     7    49       P1  7948  1.80
      L1  H    11    37       P1  7948  1.00
      L1  C     4    28       P1  7948  1.00

> <Gold.PLP.Chemscore.Internal.Correction>
0.1617

> <Gold.Rescore>
     Score         DG    S(hbond)    S(metal)    S(lipo)     H(rot)  DE(clash)    DE(int)     intcor
     17.92     -20.24       1.87        0.00     124.68       2.37       1.43       0.89       ----

> <Gold.Chemscore.Fitness>
17.9239

> <Gold.Chemscore.DG>
-20.2403

> <Gold.Chemscore.ZeroCoef>
-5.4800

> <Gold.Chemscore.Hbond>
1.8720

> <Gold.Chemscore.Metal>
0.0000

> <Gold.Chemscore.Lipo>
124.6811

> <Gold.Chemscore.Internal_Hbond>
0.0000

> <Gold.Chemscore.DEClash>
1.4280

> <Gold.Chemscore.DEInternal>
0.8884

> <Gold.Chemscore.Rot>
2.3750

> <Gold.Chemscore.Internal.Correction>
   9.000000E+99

> <Gold.Chemscore.Hbonds>
donor molecule, donor type, donor heavy atom, donor atom, acceptor molecule, acceptor atom, score
      L1  H     7    49       P1  7948  0.18
      L1  H    11    37       P1  7948  0.34

> <Gold.Chemscore.Hbond.Weighted>
-6.2526

> <Gold.Chemscore.Metal.Weighted>
-0.0000

> <Gold.Chemscore.Lipo.Weighted>
-14.5877

> <Gold.Chemscore.Internal_Hbond.Weighted>
0.0000

> <Gold.Chemscore.DEClash.Weighted>
1.4280

> <Gold.Chemscore.DEInternal.Weighted>
0.8884

> <Gold.Chemscore.Rot.Weighted>
6.0800

> <Gold.Chemscore.Internal.Correction.Weighted>
   9.000000E+99

> <Gold.Protein.RotatedTorsions>
[ 6907 6896 6895 6894 ] final  -51.65 input  -60.11 | X-H torsion
[ 7974 7965 7964 7962 ] final -133.24 input  175.53 | X-H torsion
[ 8008 7997 7996 7995 ] final  162.34 input   59.86 | X-H torsion
[ 10167 10162 10161 10158 ] final   33.73 input  -65.29 | X-H torsion
[ 10718 10713 10712 10709 ] final  -62.66 input   66.30 | X-H torsion
[ 10763 10752 10751 10750 ] final  -83.35 input  -60.55 | X-H torsion
[ 11005 11000 10999 10996 ] final    0.44 input  -57.11 | X-H torsion

> <Gold.Protein.ActiveResidues>
 VAL166  LYS551  ARG553  GLY616  TRP617  ASP618  TYR619  PRO620  LYS621  CYS622 
 ASP623  PHE694  ASN695  SER759  ASP760  ASP761  ALA762  ILE779  LEU786  VAL792 
 PHE793  MET794  SER795  GLU796  ALA797  LYS798  CYS799  TRP800  GLU811  SER814 

> <Gold.Protein.RotatedAtoms>
  150.8591  134.7938  159.7068 H   0  0  0  0  0  0  0  0  0  0  0  0  # atno 6907 bound_to 6896
  152.4634  134.5129  159.9769 H   0  0  0  0  0  0  0  0  0  0  0  0  # atno 6908 bound_to 6896
  151.5236  133.3423  159.2941 H   0  0  0  0  0  0  0  0  0  0  0  0  # atno 6909 bound_to 6896
  144.9211  140.7015  143.4965 H   0  0  0  0  0  0  0  0  0  0  0  0  # atno 7974 bound_to 7965
  156.2039  140.1753  156.7842 H   0  0  0  0  0  0  0  0  0  0  0  0  # atno 8008 bound_to 7997
  154.5628  140.0696  156.8876 H   0  0  0  0  0  0  0  0  0  0  0  0  # atno 8009 bound_to 7997
  155.2817  140.3349  155.4260 H   0  0  0  0  0  0  0  0  0  0  0  0  # atno 8010 bound_to 7997
  140.4380  144.1228  150.6169 H   0  0  0  0  0  0  0  0  0  0  0  0  # atno 10167 bound_to 10162
  156.0841  130.4211  150.1167 H   0  0  0  0  0  0  0  0  0  0  0  0  # atno 10718 bound_to 10713
  154.5867  135.5559  153.7238 H   0  0  0  0  0  0  0  0  0  0  0  0  # atno 10763 bound_to 10752
  153.0101  135.6333  154.1907 H   0  0  0  0  0  0  0  0  0  0  0  0  # atno 10764 bound_to 10752
  154.1848  135.2885  155.3021 H   0  0  0  0  0  0  0  0  0  0  0  0  # atno 10765 bound_to 10752
  140.6265  133.9613  155.8252 H   0  0  0  0  0  0  0  0  0  0  0  0  # atno 11005 bound_to 11000
  145.3295  139.1764  143.4544 LP  0  0  0  0  0  0  0  0  0  0  0  0  # atno 17320 bound_to 7965
  146.3205  140.3323  142.8641 LP  0  0  0  0  0  0  0  0  0  0  0  0  # atno 17321 bound_to 7965
  140.4351  143.2551  151.9546 LP  0  0  0  0  0  0  0  0  0  0  0  0  # atno 17342 bound_to 10162
  139.4788  144.5708  151.8092 LP  0  0  0  0  0  0  0  0  0  0  0  0  # atno 17343 bound_to 10162
  156.9192  130.9677  151.3551 LP  0  0  0  0  0  0  0  0  0  0  0  0  # atno 17370 bound_to 10713
  157.5968  130.8484  149.8742 LP  0  0  0  0  0  0  0  0  0  0  0  0  # atno 17371 bound_to 10713
  141.0705  134.0212  157.3532 LP  0  0  0  0  0  0  0  0  0  0  0  0  # atno 17394 bound_to 11000
  139.9132  135.0193  156.7778 LP  0  0  0  0  0  0  0  0  0  0  0  0  # atno 17395 bound_to 11000

$$$$
