#       Name:                AV-unprocessed.smi:2297
#       Creating user name   scv26
#       Creation time:       Fri Mar 27 12:44:28 2020


#       File generated by GOLD software.
#

@<TRIPOS>MOLECULE
AV-unprocessed.smi:2297
    51    52     1
SMALL
NO_CHARGES


@<TRIPOS>ATOM
      1 ****        -6.1719  -1.0063   0.8742 C.3            1 S1                 0.0000
      2 ****        -5.0423   0.0011   0.8066 C.ar           1 S1                 0.0000
      3 ****        -5.3190   1.3827   0.8216 C.ar           1 S1                 0.0000
      4 ****        -4.2649   2.3147   0.7609 C.ar           1 S1                 0.0000
      5 ****        -4.5702   3.7986   0.7746 C.3            1 S1                 0.0000
      6 ****        -2.9324   1.8596   0.6861 C.ar           1 S1                 0.0000
      7 ****        -2.6385   0.4808   0.6686 C.ar           1 S1                 0.0000
      8 ****        -1.3084   0.1275   0.5944 O.3            1 S1                 0.0000
      9 ****        -0.9808  -1.2534   0.5085 C.3            1 S1                 0.0000
     10 ****         0.5455  -1.3958   0.4035 C.3            1 S1                 0.0000
     11 ****         0.8415  -2.7738   0.5079 O.3            1 S1                 0.0000
     12 ****         1.0930  -0.8617  -0.9400 C.3            1 S1                 0.0000
     13 ****         2.5137  -0.4863  -0.8480 N.am           1 S1                 0.0000
     14 ****         2.7864   0.8056  -0.3672 C.2            1 S1                 0.0000
     15 ****         3.9966   1.2426  -0.2416 N.2            1 S1                 0.0000
     16 ****         5.0733   0.4198  -0.5844 C.2            1 S1                 0.0000
     17 ****         6.4507   1.0313  -0.3991 C.3            1 S1                 0.0000
     18 ****         4.8774  -0.8441  -1.0499 C.2            1 S1                 0.0000
     19 ****         6.0113  -1.7844  -1.4394 C.3            1 S1                 0.0000
     20 ****         3.5051  -1.3559  -1.1969 C.2            1 S1                 0.0000
     21 ****         3.2569  -2.4911  -1.6074 O.2            1 S1                 0.0000
     22 ****        -3.7081  -0.4476   0.7299 C.ar           1 S1                 0.0000
     23 ****        -7.1455  -0.5153   0.8632 H              1 S1                 0.0000
     24 ****        -6.0975  -1.5962   1.7883 H              1 S1                 0.0000
     25 ****        -6.1247  -1.6856   0.0226 H              1 S1                 0.0000
     26 ****        -6.3404   1.7306   0.8796 H              1 S1                 0.0000
     27 ****        -3.6570   4.3942   0.7909 H              1 S1                 0.0000
     28 ****        -5.1594   4.0560   1.6552 H              1 S1                 0.0000
     29 ****        -5.1404   4.0737  -0.1131 H              1 S1                 0.0000
     30 ****        -2.1223   2.5728   0.6400 H              1 S1                 0.0000
     31 ****        -1.3357  -1.7647   1.4051 H              1 S1                 0.0000
     32 ****        -1.4624  -1.7117  -0.3572 H              1 S1                 0.0000
     33 ****         1.0054  -0.8782   1.2464 H              1 S1                 0.0000
     34 ****         0.4560  -3.2217  -0.2295 H              1 S1                 0.0000
     35 ****         0.9116  -1.5786  -1.7429 H              1 S1                 0.0000
     36 ****         0.5216   0.0182  -1.2427 H              1 S1                 0.0000
     37 ****         1.9110   1.4028  -0.1059 H              1 S1                 0.0000
     38 ****         6.9818   1.0728  -1.3504 H              1 S1                 0.0000
     39 ****         7.0386   0.4411   0.3042 H              1 S1                 0.0000
     40 ****         6.3848   2.0475  -0.0081 H              1 S1                 0.0000
     41 ****         5.9678  -2.6944  -0.8402 H              1 S1                 0.0000
     42 ****         6.9987  -1.3475  -1.3004 H              1 S1                 0.0000
     43 ****         5.9223  -2.0656  -2.4891 H              1 S1                 0.0000
     44 ****        -3.5288  -1.5121   0.7223 H              1 S1                 0.0000
     45 ****        -0.8605   0.4875   1.4127 LP             1 S1                 0.0000
     46 ****        -0.9288   0.5727  -0.2166 LP             1 S1                 0.0000
     47 ****         0.4613  -3.1366   1.3587 LP             1 S1                 0.0000
     48 ****         1.8326  -2.9069   0.5023 LP             1 S1                 0.0000
     49 ****         4.1621   2.1676   0.1002 LP             1 S1                 0.0000
     50 ****         2.3082  -2.7960  -1.6919 LP             1 S1                 0.0000
     51 ****         4.0041  -3.1074  -1.8560 LP             1 S1                 0.0000
@<TRIPOS>BOND
    1    1    2 1     
    2    1   23 1     
    3    1   24 1     
    4    1   25 1     
    5    2   22 ar    
    6    2    3 ar    
    7    3    4 ar    
    8    3   26 1     
    9    4    5 1     
   10    4    6 ar    
   11    5   27 1     
   12    5   28 1     
   13    5   29 1     
   14    6    7 ar    
   15    6   30 1     
   16    7    8 1     
   17    7   22 ar    
   18    8    9 1     
   19    9   10 1     
   20    9   31 1     
   21    9   32 1     
   22   10   11 1     
   23   10   12 1     
   24   10   33 1     
   25   11   34 1     
   26   12   13 1     
   27   12   35 1     
   28   12   36 1     
   29   13   20 am    
   30   13   14 1     
   31   14   15 2     
   32   14   37 1     
   33   15   16 1     
   34   16   17 1     
   35   16   18 2     
   36   17   38 1     
   37   17   39 1     
   38   17   40 1     
   39   18   19 1     
   40   18   20 1     
   41   19   41 1     
   42   19   42 1     
   43   19   43 1     
   44   20   21 2     
   45   22   44 1     
   46    8   45 1     
   47    8   46 1     
   48   11   47 1     
   49   11   48 1     
   50   15   49 1     
   51   21   50 1     
   52   21   51 1     
@<TRIPOS>SUBSTRUCTURE
      1 S1             1
@<TRIPOS>SET
LONE_PAIRS      STATIC     ATOMS    <user>   **** ""
7 45 46 47 48 49 50 51
DONOR_HYDROGENS      STATIC     ATOMS    <user>   **** ""
1 34
ATOM$BLUE        STATIC     ATOMS    COLORGROUP SYSTEM
7 45 46 47 48 49 50 51
ATOM$RED        STATIC     ATOMS    COLORGROUP SYSTEM
1 34
