AV-unprocessed.smi:821|AV-procd|sdf|3841|dock5
  -GOLD-   22720 1283D 1   1.00000     0.00000
 Structure written by MMmdl.
 45 46  0  0  0  0  0  0  0  0  2 V2000
  148.0309  141.6876  154.5017 C   0  0  0  0  0  0  0  0  0  0  0  0
  149.0688  141.0199  155.4139 C   0  0  1  0  0  0  0  0  0  0  0  0
  150.0397  140.1305  154.6038 C   0  0  0  0  0  0  0  0  0  0  0  0
  150.9041  139.2821  155.4631 N   0  3  0  0  0  0  0  0  0  0  0  0
  150.2244  138.0638  155.9664 C   0  0  0  0  0  0  0  0  0  0  0  0
  151.1575  137.2879  156.9102 C   0  0  0  0  0  0  0  0  0  0  0  0
  152.3610  136.9606  156.2255 O   0  0  0  0  0  0  0  0  0  0  0  0
  153.0659  138.1204  155.7996 C   0  0  0  0  0  0  0  0  0  0  0  0
  152.1929  138.9286  154.8242 C   0  0  0  0  0  0  0  0  0  0  0  0
  149.7878  142.0572  156.1548 N   0  0  0  0  0  0  0  0  0  0  0  0
  150.3087  141.9334  157.3857 C   0  0  0  0  0  0  0  0  0  0  0  0
  150.2762  140.8839  158.0295 O   0  0  0  0  0  0  0  0  0  0  0  0
  150.9968  143.1829  157.9529 C   0  0  0  0  0  0  0  0  0  0  0  0
  151.7114  142.9310  159.2160 N   0  0  0  0  0  0  0  0  0  0  0  0
  151.4591  143.8175  160.2782 C   0  0  0  0  0  0  0  0  0  0  0  0
  152.0577  143.6792  161.4689 C   0  0  0  0  0  0  0  0  0  0  0  0
  152.9808  142.5846  161.6457 C   0  0  0  0  0  0  0  0  0  0  0  0
  153.2477  141.7186  160.6408 C   0  0  0  0  0  0  0  0  0  0  0  0
  154.2193  140.5526  160.8120 C   0  0  0  0  0  0  0  0  0  0  0  0
  155.2579  140.6832  159.9859 F   0  0  0  0  0  0  0  0  0  0  0  0
  154.6947  140.4834  162.0563 F   0  0  0  0  0  0  0  0  0  0  0  0
  153.6149  139.3948  160.5418 F   0  0  0  0  0  0  0  0  0  0  0  0
  152.5866  141.8839  159.3301 C   0  0  0  0  0  0  0  0  0  0  0  0
  152.8028  141.1275  158.3815 O   0  0  0  0  0  0  0  0  0  0  0  0
  147.4473  140.9421  153.9609 H   0  0  0  0  0  0  0  0  0  0  0  0
  148.5059  142.3367  153.7652 H   0  0  0  0  0  0  0  0  0  0  0  0
  147.3322  142.2941  155.0795 H   0  0  0  0  0  0  0  0  0  0  0  0
  148.5134  140.3978  156.1171 H   0  0  0  0  0  0  0  0  0  0  0  0
  149.4928  139.5002  153.9006 H   0  0  0  0  0  0  0  0  0  0  0  0
  150.6691  140.7834  153.9971 H   0  0  0  0  0  0  0  0  0  0  0  0
  149.3107  138.3291  156.4979 H   0  0  0  0  0  0  0  0  0  0  0  0
  149.9330  137.4310  155.1265 H   0  0  0  0  0  0  0  0  0  0  0  0
  151.3788  137.8713  157.8056 H   0  0  0  0  0  0  0  0  0  0  0  0
  150.6772  136.3670  157.2406 H   0  0  0  0  0  0  0  0  0  0  0  0
  153.3483  138.7259  156.6627 H   0  0  0  0  0  0  0  0  0  0  0  0
  153.9901  137.8127  155.3102 H   0  0  0  0  0  0  0  0  0  0  0  0
  152.0068  138.3509  153.9172 H   0  0  0  0  0  0  0  0  0  0  0  0
  152.7213  139.8350  154.5268 H   0  0  0  0  0  0  0  0  0  0  0  0
  149.8694  142.9569  155.7027 H   0  0  0  0  0  0  0  0  0  0  0  0
  151.6814  143.5656  157.1950 H   0  0  0  0  0  0  0  0  0  0  0  0
  150.2576  143.9743  158.0921 H   0  0  0  0  0  0  0  0  0  0  0  0
  150.7602  144.6125  160.0622 H   0  0  0  0  0  0  0  0  0  0  0  0
  151.8565  144.3702  162.2745 H   0  0  0  0  0  0  0  0  0  0  0  0
  153.4594  142.4683  162.6067 H   0  0  0  0  0  0  0  0  0  0  0  0
  151.1352  139.8428  156.2712 H   0  0  0  0  0  0  0  0  0  0  0  0
  1  2  1  0  0  0  0
  1 25  1  0  0  0  0
  1 26  1  0  0  0  0
  1 27  1  0  0  0  0
  2  3  1  0  0  0  0
  2 10  1  0  0  0  0
  2 28  1  0  0  0  0
  3  4  1  0  0  0  0
  3 29  1  0  0  0  0
  3 30  1  0  0  0  0
  4  9  1  0  0  0  0
  4  5  1  0  0  0  0
  4 45  1  0  0  0  0
  5  6  1  0  0  0  0
  5 31  1  0  0  0  0
  5 32  1  0  0  0  0
  6  7  1  0  0  0  0
  6 33  1  0  0  0  0
  6 34  1  0  0  0  0
  7  8  1  0  0  0  0
  8  9  1  0  0  0  0
  8 35  1  0  0  0  0
  8 36  1  0  0  0  0
  9 37  1  0  0  0  0
  9 38  1  0  0  0  0
 10 11  1  0  0  0  0
 10 39  1  0  0  0  0
 11 12  2  0  0  0  0
 11 13  1  0  0  0  0
 13 14  1  0  0  0  0
 13 40  1  0  0  0  0
 13 41  1  0  0  0  0
 14 23  1  0  0  0  0
 14 15  1  0  0  0  0
 15 16  2  0  0  0  0
 15 42  1  0  0  0  0
 16 17  1  0  0  0  0
 16 43  1  0  0  0  0
 17 18  2  0  0  0  0
 17 44  1  0  0  0  0
 18 19  1  0  0  0  0
 18 23  1  0  0  0  0
 19 20  1  0  0  0  0
 19 21  1  0  0  0  0
 19 22  1  0  0  0  0
 23 24  2  0  0  0  0
M  CHG  1   4   1
M  END
> <s_m_source_file>
AV-unprocessed.smi

> <i_m_source_file_index>
821

> <i_lp_mmshare_version>
43012

> <i_f3d_flags>
0

> <s_epik_input>
W0NIMl0xW0NIMl1PW0NIMl1bQ0gyXU4xW0NIMl1bQ0BASF0oW0NIM10pW05IXUMoPU8pW0NIMl1uMltjSF1bY0hdW2NIXWMoQyhGKShGKUYpYzI9Tw==

> <s_epik_cmdline>
J2VwaWtfcHl0aG9uJywgJy1waCcsICc3LjAnLCAnLXRuJywgJzgnLCAnLW1hJywgJzIwMCcsICctbWV0YWxfYmluZGluZycsICctaW1hZScsICc8aW5maWxlLm1hZT4nLCAnLW9tYWUnLCAnPG91dGZpbGUubWFlPic=

> <r_lp_tautomer_probability>
1

> <r_epik_Ionization_Penalty>
0.656654

> <r_epik_Ionization_Penalty_Charging>
0.656653

> <r_epik_Ionization_Penalty_Neutral>
9.12373e-08

> <r_epik_State_Penalty>
0.675641

> <r_epik_Charging_Adjusted_Penalty>
1.33229

> <i_epik_Tot_Q>
1

> <i_epik_Tot_abs_Q>
1

> <r_epik_Metal_State_Penalty>
0.675695

> <b_epik_Metal_Only>
0

> <s_lp_Force_Field>
OPLS_2005

> <r_lp_Energy>
32.7589

> <b_lp_Chiralities_Consistent>
1

> <s_lp_Variant>
AV-unprocessed.smi:821-4

> <Gold.Version>
5.8.1

> <Gold.Id.Protein>
6NUR|6NUR_protein|mol2

> <Gold.PLP.Fitness>
51.5145

> <Gold.PLP.PLP>
-47.9108

> <Gold.PLP.part.hbond>
-2.8424

> <Gold.PLP.part.metal>
0.0000

> <Gold.PLP.part.buried>
-1.2332

> <Gold.PLP.part.nonpolar>
-43.8187

> <Gold.PLP.part.repulsive>
0.1926

> <Gold.PLP.ligand.clash>
0.2718

> <Gold.PLP.ligand.torsion>
0.8394

> <Gold.PLP.Chemscore.Hbond>
1.7321

> <Gold.PLP.Chemscore.CHOScore>
0.0000

> <Gold.PLP.Chemscore.Metal>
0.0000

> <Gold.Chemscore.Hbonds>
donor molecule, donor type, donor heavy atom, donor atom, acceptor molecule, acceptor atom, score
      L1  H    10    39       P1  8028  0.78
      P1  H 10752 10763       L1     7  0.68

> <Gold.PLP.Chemscore.Internal.Correction>
0.3581

> <Gold.Rescore>
     Score         DG    S(hbond)    S(metal)    S(lipo)     H(rot)  DE(clash)    DE(int)     intcor
      9.05     -15.88       1.15        0.00     103.61       2.17       0.31       6.52       ----

> <Gold.Chemscore.Fitness>
9.0544

> <Gold.Chemscore.DG>
-15.8830

> <Gold.Chemscore.ZeroCoef>
-5.4800

> <Gold.Chemscore.Hbond>
1.1497

> <Gold.Chemscore.Metal>
0.0000

> <Gold.Chemscore.Lipo>
103.6087

> <Gold.Chemscore.Internal_Hbond>
0.0000

> <Gold.Chemscore.DEClash>
0.3057

> <Gold.Chemscore.DEInternal>
6.5229

> <Gold.Chemscore.Rot>
2.1716

> <Gold.Chemscore.Internal.Correction>
   9.000000E+99

> <Gold.Chemscore.Hbonds>
donor molecule, donor type, donor heavy atom, donor atom, acceptor molecule, acceptor atom, score
      L1  H    10    39       P1  8028  0.73
      P1  H  7997  8008       L1    24  0.02
      P1  H 10752 10763       L1     7  0.20

> <Gold.Chemscore.Hbond.Weighted>
-3.8400

> <Gold.Chemscore.Metal.Weighted>
-0.0000

> <Gold.Chemscore.Lipo.Weighted>
-12.1222

> <Gold.Chemscore.Internal_Hbond.Weighted>
0.0000

> <Gold.Chemscore.DEClash.Weighted>
0.3057

> <Gold.Chemscore.DEInternal.Weighted>
6.5229

> <Gold.Chemscore.Rot.Weighted>
5.5592

> <Gold.Chemscore.Internal.Correction.Weighted>
   9.000000E+99

> <Gold.Protein.RotatedTorsions>
[ 6907 6896 6895 6894 ] final  145.46 input  -60.11 | X-H torsion
[ 7974 7965 7964 7962 ] final  107.99 input  175.53 | X-H torsion
[ 8008 7997 7996 7995 ] final  -79.48 input   59.86 | X-H torsion
[ 10167 10162 10161 10158 ] final -105.54 input  -65.29 | X-H torsion
[ 10718 10713 10712 10709 ] final   46.52 input   66.30 | X-H torsion
[ 10763 10752 10751 10750 ] final   71.99 input  -60.55 | X-H torsion
[ 11005 11000 10999 10996 ] final -168.47 input  -57.11 | X-H torsion

> <Gold.Protein.ActiveResidues>
 VAL166  LYS551  ARG553  GLY616  TRP617  ASP618  TYR619  PRO620  LYS621  CYS622 
 ASP623  PHE694  ASN695  SER759  ASP760  ASP761  ALA762  ILE779  LEU786  VAL792 
 PHE793  MET794  SER795  GLU796  ALA797  LYS798  CYS799  TRP800  GLU811  SER814 

> <Gold.Protein.RotatedAtoms>
  152.1806  133.4704  159.4955 H   0  0  0  0  0  0  0  0  0  0  0  0  # atno 6907 bound_to 6896
  150.6934  134.1838  159.4268 H   0  0  0  0  0  0  0  0  0  0  0  0  # atno 6908 bound_to 6896
  151.9749  135.0058  160.0605 H   0  0  0  0  0  0  0  0  0  0  0  0  # atno 6909 bound_to 6896
  145.2865  139.2615  143.3888 H   0  0  0  0  0  0  0  0  0  0  0  0  # atno 7974 bound_to 7965
  154.5789  140.0677  156.9076 H   0  0  0  0  0  0  0  0  0  0  0  0  # atno 8008 bound_to 7997
  155.2498  140.3351  155.4265 H   0  0  0  0  0  0  0  0  0  0  0  0  # atno 8009 bound_to 7997
  156.2175  140.1784  156.7540 H   0  0  0  0  0  0  0  0  0  0  0  0  # atno 8010 bound_to 7997
  140.1975  143.3844  152.1157 H   0  0  0  0  0  0  0  0  0  0  0  0  # atno 10167 bound_to 10162
  157.4489  130.8126  149.7769 H   0  0  0  0  0  0  0  0  0  0  0  0  # atno 10718 bound_to 10713
  153.0432  135.5116  154.7677 H   0  0  0  0  0  0  0  0  0  0  0  0  # atno 10763 bound_to 10752
  154.6598  135.2937  154.9884 H   0  0  0  0  0  0  0  0  0  0  0  0  # atno 10764 bound_to 10752
  154.0739  135.6673  153.4880 H   0  0  0  0  0  0  0  0  0  0  0  0  # atno 10765 bound_to 10752
  140.5416  134.5516  157.5101 H   0  0  0  0  0  0  0  0  0  0  0  0  # atno 11005 bound_to 11000
  146.3199  140.3345  142.8643 LP  0  0  0  0  0  0  0  0  0  0  0  0  # atno 17320 bound_to 7965
  144.9209  140.7867  143.5749 LP  0  0  0  0  0  0  0  0  0  0  0  0  # atno 17321 bound_to 7965
  139.5231  144.7067  151.5333 LP  0  0  0  0  0  0  0  0  0  0  0  0  # atno 17342 bound_to 10162
  140.6413  143.8882  150.6695 LP  0  0  0  0  0  0  0  0  0  0  0  0  # atno 17343 bound_to 10162
  155.9979  130.3897  150.2723 LP  0  0  0  0  0  0  0  0  0  0  0  0  # atno 17370 bound_to 10713
  157.0893  131.0165  151.3128 LP  0  0  0  0  0  0  0  0  0  0  0  0  # atno 17371 bound_to 10713
  139.9501  134.7632  156.0469 LP  0  0  0  0  0  0  0  0  0  0  0  0  # atno 17394 bound_to 11000
  141.1224  133.6609  156.3248 LP  0  0  0  0  0  0  0  0  0  0  0  0  # atno 17395 bound_to 11000

$$$$
