AV-unprocessed.smi:2032|AV-procd|sdf|8241|dock1
  -GOLD-   2272010513D 1   1.00000     0.00000
 Structure written by MMmdl.
 43 44  0  0  0  0  0  0  0  0  2 V2000
  144.1079  144.9712  154.0101 C   0  0  0  0  0  0  0  0  0  0  0  0
  145.2829  144.2956  154.7262 C   0  0  2  0  0  0  0  0  0  0  0  0
  146.0332  143.3124  153.8097 C   0  0  0  0  0  0  0  0  0  0  0  0
  147.1334  142.6258  154.5408 N   0  3  2  0  0  0  0  0  0  0  0  0
  147.9424  141.7260  153.6541 C   0  0  2  0  0  0  0  0  0  0  0  0
  147.1534  140.4944  153.1454 C   0  0  0  0  0  0  0  0  0  0  0  0
  149.2382  141.2672  154.3789 C   0  0  0  0  0  0  0  0  0  0  0  0
  149.7819  142.2730  155.2875 N   0  0  0  0  0  0  0  0  0  0  0  0
  150.7907  142.0655  156.1463 C   0  0  0  0  0  0  0  0  0  0  0  0
  151.3737  140.9864  156.2559 O   0  0  0  0  0  0  0  0  0  0  0  0
  151.0697  143.1764  156.8499 N   0  0  0  0  0  0  0  0  0  0  0  0
  152.0163  143.3368  157.8955 C   0  0  0  0  0  0  0  0  0  0  0  0
  152.8348  142.3699  158.3267 N   0  0  0  0  0  0  0  0  0  0  0  0
  153.6505  142.8031  159.3753 C   0  0  0  0  0  0  0  0  0  0  0  0
  153.4377  144.1116  159.7321 C   0  0  0  0  0  0  0  0  0  0  0  0
  152.1951  144.8557  158.7615 S   0  0  0  0  0  0  0  0  0  0  0  0
  146.5833  141.9848  155.7671 C   0  0  0  0  0  0  0  0  0  0  0  0
  145.8006  142.9970  156.6255 C   0  0  2  0  0  0  0  0  0  0  0  0
  145.1537  142.3360  157.8478 C   0  0  0  0  0  0  0  0  0  0  0  0
  144.7692  143.5823  155.8425 O   0  0  0  0  0  0  0  0  0  0  0  0
  144.4503  145.5428  153.1469 H   0  0  0  0  0  0  0  0  0  0  0  0
  143.5878  145.6585  154.6780 H   0  0  0  0  0  0  0  0  0  0  0  0
  143.3830  144.2362  153.6588 H   0  0  0  0  0  0  0  0  0  0  0  0
  145.9676  145.0713  155.0746 H   0  0  0  0  0  0  0  0  0  0  0  0
  145.3398  142.5668  153.4170 H   0  0  0  0  0  0  0  0  0  0  0  0
  146.4146  143.8667  152.9547 H   0  0  0  0  0  0  0  0  0  0  0  0
  148.2170  142.3068  152.7724 H   0  0  0  0  0  0  0  0  0  0  0  0
  147.7735  139.8396  152.5340 H   0  0  0  0  0  0  0  0  0  0  0  0
  146.3166  140.7792  152.5076 H   0  0  0  0  0  0  0  0  0  0  0  0
  146.7666  139.8983  153.9727 H   0  0  0  0  0  0  0  0  0  0  0  0
  149.0875  140.3557  154.9552 H   0  0  0  0  0  0  0  0  0  0  0  0
  150.0075  141.0338  153.6422 H   0  0  0  0  0  0  0  0  0  0  0  0
  149.3614  143.1905  155.2584 H   0  0  0  0  0  0  0  0  0  0  0  0
  150.5326  144.0003  156.6231 H   0  0  0  0  0  0  0  0  0  0  0  0
  154.3567  142.1118  159.8112 H   0  0  0  0  0  0  0  0  0  0  0  0
  153.9338  144.6798  160.5049 H   0  0  0  0  0  0  0  0  0  0  0  0
  145.9406  141.1492  155.4839 H   0  0  0  0  0  0  0  0  0  0  0  0
  147.3853  141.5863  156.3876 H   0  0  0  0  0  0  0  0  0  0  0  0
  146.4754  143.7809  156.9745 H   0  0  0  0  0  0  0  0  0  0  0  0
  145.9054  141.8764  158.4898 H   0  0  0  0  0  0  0  0  0  0  0  0
  144.4479  141.5600  157.5503 H   0  0  0  0  0  0  0  0  0  0  0  0
  144.6107  143.0685  158.4453 H   0  0  0  0  0  0  0  0  0  0  0  0
  147.7644  143.3444  154.8658 H   0  0  0  0  0  0  0  0  0  0  0  0
  1  2  1  0  0  0  0
  1 21  1  0  0  0  0
  1 22  1  0  0  0  0
  1 23  1  0  0  0  0
  2 20  1  0  0  0  0
  2  3  1  0  0  0  0
  2 24  1  0  0  0  0
  3  4  1  0  0  0  0
  3 25  1  0  0  0  0
  3 26  1  0  0  0  0
  4  5  1  0  0  0  0
  4 17  1  0  0  0  0
  4 43  1  0  0  0  0
  5  6  1  0  0  0  0
  5  7  1  0  0  0  0
  5 27  1  0  0  0  0
  6 28  1  0  0  0  0
  6 29  1  0  0  0  0
  6 30  1  0  0  0  0
  7  8  1  0  0  0  0
  7 31  1  0  0  0  0
  7 32  1  0  0  0  0
  8  9  1  0  0  0  0
  8 33  1  0  0  0  0
  9 10  2  0  0  0  0
  9 11  1  0  0  0  0
 11 12  1  0  0  0  0
 11 34  1  0  0  0  0
 12 16  1  0  0  0  0
 12 13  2  0  0  0  0
 13 14  1  0  0  0  0
 14 15  2  0  0  0  0
 14 35  1  0  0  0  0
 15 16  1  0  0  0  0
 15 36  1  0  0  0  0
 17 18  1  0  0  0  0
 17 37  1  0  0  0  0
 17 38  1  0  0  0  0
 18 19  1  0  0  0  0
 18 20  1  0  0  0  0
 18 39  1  0  0  0  0
 19 40  1  0  0  0  0
 19 41  1  0  0  0  0
 19 42  1  0  0  0  0
M  CHG  1   4   1
M  END
> <s_m_source_file>
AV-unprocessed.smi

> <i_m_source_file_index>
2032

> <i_lp_mmshare_version>
43012

> <i_f3d_flags>
0

> <s_epik_input>
W0NIM11bQ0BASF0xW0NIMl1OKFtDSDJdW0NASF0oTzEpW0NIM10pW0NASF0oW0NIM10pW0NIMl1bTkhdQyg9TylbTkhdYzJuW2NIXVtjSF1zMg==

> <s_epik_cmdline>
J2VwaWtfcHl0aG9uJywgJy1waCcsICc3LjAnLCAnLXRuJywgJzgnLCAnLW1hJywgJzIwMCcsICctbWV0YWxfYmluZGluZycsICctaW1hZScsICc8aW5maWxlLm1hZT4nLCAnLW9tYWUnLCAnPG91dGZpbGUubWFlPic=

> <r_lp_tautomer_probability>
0.999

> <r_epik_Ionization_Penalty>
0.695838

> <r_epik_Ionization_Penalty_Charging>
0.695697

> <r_epik_Ionization_Penalty_Neutral>
0.000141198

> <r_epik_State_Penalty>
0.717972

> <r_epik_Charging_Adjusted_Penalty>
1.41367

> <i_epik_Tot_Q>
1

> <i_epik_Tot_abs_Q>
1

> <r_epik_Metal_State_Penalty>
0.756405

> <b_epik_Metal_Only>
0

> <s_lp_Force_Field>
OPLS_2005

> <r_lp_Energy>
16.7575

> <b_lp_Chiralities_Consistent>
1

> <s_lp_Variant>
AV-unprocessed.smi:2032-11

> <Gold.Version>
5.8.1

> <Gold.Id.Protein>
6NUR|6NUR_protein|mol2

> <Gold.PLP.Fitness>
50.8285

> <Gold.PLP.PLP>
-39.5870

> <Gold.PLP.part.hbond>
-3.0000

> <Gold.PLP.part.metal>
0.0000

> <Gold.PLP.part.buried>
-7.1181

> <Gold.PLP.part.nonpolar>
-29.5508

> <Gold.PLP.part.repulsive>
0.4631

> <Gold.PLP.ligand.clash>
0.0000

> <Gold.PLP.ligand.torsion>
0.3504

> <Gold.PLP.Chemscore.Hbond>
3.9600

> <Gold.PLP.Chemscore.CHOScore>
0.0000

> <Gold.PLP.Chemscore.Metal>
0.0000

> <Gold.Chemscore.Hbonds>
donor molecule, donor type, donor heavy atom, donor atom, acceptor molecule, acceptor atom, score
      L1  H     4    43       P1  8028  2.00
      L1  H     8    33       P1  8028  1.00
      L1  H    11    34       P1  8028  0.94

> <Gold.PLP.Chemscore.Internal.Correction>
0.0623

> <Gold.Rescore>
     Score         DG    S(hbond)    S(metal)    S(lipo)     H(rot)  DE(clash)    DE(int)     intcor
     16.80     -18.56       2.00        0.00      90.06       1.61       0.14       1.62       ----

> <Gold.Chemscore.Fitness>
16.8022

> <Gold.Chemscore.DG>
-18.5649

> <Gold.Chemscore.ZeroCoef>
-5.4800

> <Gold.Chemscore.Hbond>
1.9977

> <Gold.Chemscore.Metal>
0.0000

> <Gold.Chemscore.Lipo>
90.0569

> <Gold.Chemscore.Internal_Hbond>
0.0000

> <Gold.Chemscore.DEClash>
0.1431

> <Gold.Chemscore.DEInternal>
1.6197

> <Gold.Chemscore.Rot>
1.6110

> <Gold.Chemscore.Internal.Correction>
   9.000000E+99

> <Gold.Chemscore.Hbonds>
donor molecule, donor type, donor heavy atom, donor atom, acceptor molecule, acceptor atom, score
      L1  H     4    43       P1  8028  0.55
      L1  H     8    33       P1  8028  1.00
      L1  H    11    34       P1  8028  0.86

> <Gold.Chemscore.Hbond.Weighted>
-6.6724

> <Gold.Chemscore.Metal.Weighted>
-0.0000

> <Gold.Chemscore.Lipo.Weighted>
-10.5367

> <Gold.Chemscore.Internal_Hbond.Weighted>
0.0000

> <Gold.Chemscore.DEClash.Weighted>
0.1431

> <Gold.Chemscore.DEInternal.Weighted>
1.6197

> <Gold.Chemscore.Rot.Weighted>
4.1242

> <Gold.Chemscore.Internal.Correction.Weighted>
   9.000000E+99

> <Gold.Protein.RotatedTorsions>
[ 6907 6896 6895 6894 ] final   49.43 input  -60.11 | X-H torsion
[ 7974 7965 7964 7962 ] final   11.05 input  175.53 | X-H torsion
[ 8008 7997 7996 7995 ] final   21.92 input   59.86 | X-H torsion
[ 10167 10162 10161 10158 ] final  -88.66 input  -65.29 | X-H torsion
[ 10718 10713 10712 10709 ] final -116.42 input   66.30 | X-H torsion
[ 10763 10752 10751 10750 ] final  -29.51 input  -60.55 | X-H torsion
[ 11005 11000 10999 10996 ] final -103.26 input  -57.11 | X-H torsion

> <Gold.Protein.ActiveResidues>
 VAL166  LYS551  ARG553  GLY616  TRP617  ASP618  TYR619  PRO620  LYS621  CYS622 
 ASP623  PHE694  ASN695  SER759  ASP760  ASP761  ALA762  ILE779  LEU786  VAL792 
 PHE793  MET794  SER795  GLU796  ALA797  LYS798  CYS799  TRP800  GLU811  SER814 

> <Gold.Protein.RotatedAtoms>
  152.2907  134.7724  160.0378 H   0  0  0  0  0  0  0  0  0  0  0  0  # atno 6907 bound_to 6896
  151.8271  133.3398  159.3610 H   0  0  0  0  0  0  0  0  0  0  0  0  # atno 6908 bound_to 6896
  150.7229  134.5447  159.5809 H   0  0  0  0  0  0  0  0  0  0  0  0  # atno 6909 bound_to 6896
  146.2378  139.9543  142.8466 H   0  0  0  0  0  0  0  0  0  0  0  0  # atno 7974 bound_to 7965
  154.9579  140.3074  155.5044 H   0  0  0  0  0  0  0  0  0  0  0  0  # atno 8008 bound_to 7997
  156.2980  140.2306  156.4601 H   0  0  0  0  0  0  0  0  0  0  0  0  # atno 8009 bound_to 7997
  154.7992  140.0435  157.1248 H   0  0  0  0  0  0  0  0  0  0  0  0  # atno 8010 bound_to 7997
  140.3725  143.2787  151.9483 H   0  0  0  0  0  0  0  0  0  0  0  0  # atno 10167 bound_to 10162
  156.0962  130.6134  150.9033 H   0  0  0  0  0  0  0  0  0  0  0  0  # atno 10718 bound_to 10713
  153.7657  135.6916  153.4916 H   0  0  0  0  0  0  0  0  0  0  0  0  # atno 10763 bound_to 10752
  153.1908  135.4472  155.0145 H   0  0  0  0  0  0  0  0  0  0  0  0  # atno 10764 bound_to 10752
  154.8136  135.3389  154.7170 H   0  0  0  0  0  0  0  0  0  0  0  0  # atno 10765 bound_to 10752
  141.1153  133.8626  157.1464 H   0  0  0  0  0  0  0  0  0  0  0  0  # atno 11005 bound_to 11000
  145.1832  140.9777  143.4254 LP  0  0  0  0  0  0  0  0  0  0  0  0  # atno 17320 bound_to 7965
  144.9924  139.3677  143.6208 LP  0  0  0  0  0  0  0  0  0  0  0  0  # atno 17321 bound_to 7965
  139.4802  144.5894  151.7798 LP  0  0  0  0  0  0  0  0  0  0  0  0  # atno 17342 bound_to 10162
  140.5019  144.1156  150.5973 LP  0  0  0  0  0  0  0  0  0  0  0  0  # atno 17343 bound_to 10162
  157.6123  131.0935  150.8772 LP  0  0  0  0  0  0  0  0  0  0  0  0  # atno 17370 bound_to 10713
  156.8909  130.5212  149.5286 LP  0  0  0  0  0  0  0  0  0  0  0  0  # atno 17371 bound_to 10713
  140.0072  135.0003  157.0317 LP  0  0  0  0  0  0  0  0  0  0  0  0  # atno 17394 bound_to 11000
  140.4662  134.1433  155.7197 LP  0  0  0  0  0  0  0  0  0  0  0  0  # atno 17395 bound_to 11000

$$$$
