AV-unprocessed.smi:911|AV-procd|sdf|4138|dock6
  -GOLD-   22720 2 43D 1   1.00000     0.00000
 Structure written by MMmdl.
 47 49  0  0  0  0  0  0  0  0  3 V2000
  145.1095  135.3219  160.2913 C   0  0  0  0  0  0  0  0  0  0  0  0
  145.7995  135.3984  161.6830 C   0  0  0  0  0  0  0  0  0  0  0  0
  144.6365  135.3489  162.7139 C   0  0  0  0  0  0  0  0  0  0  0  0
  146.8931  134.3352  161.9091 C   0  0  2  0  0  0  0  0  0  0  0  0
  147.4747  134.7025  163.2936 C   0  0  0  0  0  0  0  0  0  0  0  0
  147.4044  136.2440  163.2880 C   0  0  0  0  0  0  0  0  0  0  0  0
  146.8187  136.5552  161.8862 C   0  0  2  0  0  0  0  0  0  0  0  0
  146.2428  137.9822  161.7924 C   0  0  0  0  0  0  0  0  0  0  0  0
  147.9780  136.2354  160.8903 C   0  0  2  0  0  0  0  0  0  0  0  0
  147.7712  136.8118  159.5649 N   0  0  0  0  0  0  0  0  0  0  0  0
  148.5456  136.6564  158.4784 C   0  0  0  0  0  0  0  0  0  0  0  0
  149.5345  135.9254  158.4551 O   0  0  0  0  0  0  0  0  0  0  0  0
  148.1790  137.4679  157.2231 C   0  0  0  0  0  0  0  0  0  0  0  0
  149.1810  138.4826  156.8455 N   0  0  0  0  0  0  0  0  0  0  0  0
  150.2315  138.0510  156.0115 C   0  0  0  0  0  0  0  0  0  0  0  0
  151.2360  138.8690  155.6428 C   0  0  0  0  0  0  0  0  0  0  0  0
  152.3240  138.3967  154.8158 N   0  3  0  0  0  0  0  0  0  0  0  0
  152.2740  137.2531  154.3749 O   0  0  0  0  0  0  0  0  0  0  0  0
  153.2606  139.1529  154.5759 O   0  5  0  0  0  0  0  0  0  0  0  0
  151.2017  140.2367  156.1227 C   0  0  0  0  0  0  0  0  0  0  0  0
  150.2024  140.6548  156.9244 C   0  0  0  0  0  0  0  0  0  0  0  0
  149.1202  139.7566  157.3405 C   0  0  0  0  0  0  0  0  0  0  0  0
  148.2224  140.1241  158.0977 O   0  0  0  0  0  0  0  0  0  0  0  0
  147.9756  134.6907  160.8643 C   0  0  0  0  0  0  0  0  0  0  0  0
  144.4621  134.4466  160.2317 H   0  0  0  0  0  0  0  0  0  0  0  0
  145.7808  135.2488  159.4406 H   0  0  0  0  0  0  0  0  0  0  0  0
  144.4792  136.1953  160.1212 H   0  0  0  0  0  0  0  0  0  0  0  0
  144.9388  135.3988  163.7575 H   0  0  0  0  0  0  0  0  0  0  0  0
  144.0662  134.4259  162.6047 H   0  0  0  0  0  0  0  0  0  0  0  0
  143.9422  136.1743  162.5532 H   0  0  0  0  0  0  0  0  0  0  0  0
  146.5518  133.3017  161.8431 H   0  0  0  0  0  0  0  0  0  0  0  0
  146.8801  134.2817  164.1048 H   0  0  0  0  0  0  0  0  0  0  0  0
  148.4948  134.3390  163.4233 H   0  0  0  0  0  0  0  0  0  0  0  0
  146.7613  136.6101  164.0887 H   0  0  0  0  0  0  0  0  0  0  0  0
  148.3822  136.7000  163.4474 H   0  0  0  0  0  0  0  0  0  0  0  0
  147.0275  138.7273  161.9250 H   0  0  0  0  0  0  0  0  0  0  0  0
  145.4907  138.1568  162.5615 H   0  0  0  0  0  0  0  0  0  0  0  0
  145.7700  138.1673  160.8278 H   0  0  0  0  0  0  0  0  0  0  0  0
  148.9327  136.5895  161.2835 H   0  0  0  0  0  0  0  0  0  0  0  0
  146.9790  137.4313  159.4770 H   0  0  0  0  0  0  0  0  0  0  0  0
  148.0403  136.7699  156.3962 H   0  0  0  0  0  0  0  0  0  0  0  0
  147.1976  137.9191  157.3777 H   0  0  0  0  0  0  0  0  0  0  0  0
  150.1703  137.0123  155.7195 H   0  0  0  0  0  0  0  0  0  0  0  0
  151.9768  140.9353  155.8435 H   0  0  0  0  0  0  0  0  0  0  0  0
  150.1975  141.6778  157.2717 H   0  0  0  0  0  0  0  0  0  0  0  0
  148.9508  134.2784  161.1260 H   0  0  0  0  0  0  0  0  0  0  0  0
  147.7247  134.2932  159.8803 H   0  0  0  0  0  0  0  0  0  0  0  0
  1  2  1  0  0  0  0
  1 25  1  0  0  0  0
  1 26  1  0  0  0  0
  1 27  1  0  0  0  0
  2  7  1  0  0  0  0
  2  3  1  0  0  0  0
  2  4  1  0  0  0  0
  3 28  1  0  0  0  0
  3 29  1  0  0  0  0
  3 30  1  0  0  0  0
  4 24  1  0  0  0  0
  4  5  1  0  0  0  0
  4 31  1  0  0  0  0
  5  6  1  0  0  0  0
  5 32  1  0  0  0  0
  5 33  1  0  0  0  0
  6  7  1  0  0  0  0
  6 34  1  0  0  0  0
  6 35  1  0  0  0  0
  7  8  1  0  0  0  0
  7  9  1  0  0  0  0
  8 36  1  0  0  0  0
  8 37  1  0  0  0  0
  8 38  1  0  0  0  0
  9 10  1  0  0  0  0
  9 24  1  0  0  0  0
  9 39  1  0  0  0  0
 10 11  1  0  0  0  0
 10 40  1  0  0  0  0
 11 12  2  0  0  0  0
 11 13  1  0  0  0  0
 13 14  1  0  0  0  0
 13 41  1  0  0  0  0
 13 42  1  0  0  0  0
 14 22  1  0  0  0  0
 14 15  1  0  0  0  0
 15 16  2  0  0  0  0
 15 43  1  0  0  0  0
 16 17  1  0  0  0  0
 16 20  1  0  0  0  0
 17 18  2  0  0  0  0
 17 19  1  0  0  0  0
 20 21  2  0  0  0  0
 20 44  1  0  0  0  0
 21 22  1  0  0  0  0
 21 45  1  0  0  0  0
 22 23  2  0  0  0  0
 24 46  1  0  0  0  0
 24 47  1  0  0  0  0
M  CHG  1  17   1
M  CHG  1  19  -1
M  END
> <s_m_source_file>
AV-unprocessed.smi

> <i_m_source_file_index>
911

> <i_lp_mmshare_version>
43012

> <i_f3d_flags>
0

> <s_epik_input>
W0NIM11bQ0BdMTJDKFtDSDNdKShbQ0gzXSlbQ0BIXShbQ0gyXVtDSDJdMSlbQ0gyXVtDQEBIXTJbTkhdQyg9TylbQ0gyXW4zW2NIXWMoW04rXSg9TylbTy1dKVtjSF1bY0hdYzM9Tw==

> <s_epik_cmdline>
J2VwaWtfcHl0aG9uJywgJy1waCcsICc3LjAnLCAnLXRuJywgJzgnLCAnLW1hJywgJzIwMCcsICctbWV0YWxfYmluZGluZycsICctaW1hZScsICc8aW5maWxlLm1hZT4nLCAnLW9tYWUnLCAnPG91dGZpbGUubWFlPic=

> <r_lp_tautomer_probability>
1

> <r_epik_Ionization_Penalty>
2.04092e-08

> <r_epik_Ionization_Penalty_Charging>
8.54191e-11

> <r_epik_Ionization_Penalty_Neutral>
2.03238e-08

> <r_epik_State_Penalty>
-0

> <r_epik_Charging_Adjusted_Penalty>
8.54191e-11

> <i_epik_Tot_Q>
0

> <i_epik_Tot_abs_Q>
2

> <r_epik_Metal_State_Penalty>
-0

> <b_epik_Metal_Only>
0

> <s_lp_Force_Field>
OPLS_2005

> <r_lp_Energy>
66.6033

> <b_lp_Chiralities_Consistent>
1

> <s_lp_Variant>
AV-unprocessed.smi:911-3

> <Gold.Version>
5.8.1

> <Gold.Id.Protein>
6NUR|6NUR_protein|mol2

> <Gold.PLP.Fitness>
42.4529

> <Gold.PLP.PLP>
-35.3430

> <Gold.PLP.part.hbond>
-4.9386

> <Gold.PLP.part.metal>
0.0000

> <Gold.PLP.part.buried>
-5.2429

> <Gold.PLP.part.nonpolar>
-27.0368

> <Gold.PLP.part.repulsive>
0.2791

> <Gold.PLP.ligand.clash>
0.0000

> <Gold.PLP.ligand.torsion>
0.4150

> <Gold.PLP.Chemscore.Hbond>
2.6362

> <Gold.PLP.Chemscore.CHOScore>
0.0000

> <Gold.PLP.Chemscore.Metal>
0.0000

> <Gold.Chemscore.Hbonds>
donor molecule, donor type, donor heavy atom, donor atom, acceptor molecule, acceptor atom, score
      P1  H  6896  6907       L1    12  0.89
      P1  H  7997  8009       L1    19  0.98
      P1  H 10752 10764       L1    18  0.80

> <Gold.PLP.Chemscore.Internal.Correction>
0.0314

> <Gold.Rescore>
     Score         DG    S(hbond)    S(metal)    S(lipo)     H(rot)  DE(clash)    DE(int)     intcor
     20.51     -21.01       2.79        0.00      86.49       1.53       0.09       0.41       ----

> <Gold.Chemscore.Fitness>
20.5098

> <Gold.Chemscore.DG>
-21.0133

> <Gold.Chemscore.ZeroCoef>
-5.4800

> <Gold.Chemscore.Hbond>
2.7920

> <Gold.Chemscore.Metal>
0.0000

> <Gold.Chemscore.Lipo>
86.4882

> <Gold.Chemscore.Internal_Hbond>
0.0000

> <Gold.Chemscore.DEClash>
0.0932

> <Gold.Chemscore.DEInternal>
0.4104

> <Gold.Chemscore.Rot>
1.5277

> <Gold.Chemscore.Internal.Correction>
   9.000000E+99

> <Gold.Chemscore.Hbonds>
donor molecule, donor type, donor heavy atom, donor atom, acceptor molecule, acceptor atom, score
      P1  H  6896  6907       L1    12  0.87
      P1  H  7997  8009       L1    19  0.92
      P1  H 10752 10764       L1    18  0.80

> <Gold.Chemscore.Hbond.Weighted>
-9.3252

> <Gold.Chemscore.Metal.Weighted>
-0.0000

> <Gold.Chemscore.Lipo.Weighted>
-10.1191

> <Gold.Chemscore.Internal_Hbond.Weighted>
0.0000

> <Gold.Chemscore.DEClash.Weighted>
0.0932

> <Gold.Chemscore.DEInternal.Weighted>
0.4104

> <Gold.Chemscore.Rot.Weighted>
3.9110

> <Gold.Chemscore.Internal.Correction.Weighted>
   9.000000E+99

> <Gold.Protein.RotatedTorsions>
[ 6907 6896 6895 6894 ] final  -70.04 input  -60.11 | X-H torsion
[ 7974 7965 7964 7962 ] final   51.90 input  175.53 | X-H torsion
[ 8008 7997 7996 7995 ] final -123.07 input   59.86 | X-H torsion
[ 10167 10162 10161 10158 ] final  168.50 input  -65.29 | X-H torsion
[ 10718 10713 10712 10709 ] final   70.50 input   66.30 | X-H torsion
[ 10763 10752 10751 10750 ] final  -82.32 input  -60.55 | X-H torsion
[ 11005 11000 10999 10996 ] final -159.33 input  -57.11 | X-H torsion

> <Gold.Protein.ActiveResidues>
 VAL166  LYS551  ARG553  GLY616  TRP617  ASP618  TYR619  PRO620  LYS621  CYS622 
 ASP623  PHE694  ASN695  SER759  ASP760  ASP761  ALA762  ILE779  LEU786  VAL792 
 PHE793  MET794  SER795  GLU796  ALA797  LYS798  CYS799  TRP800  GLU811  SER814 

> <Gold.Protein.RotatedAtoms>
  150.7276  134.5510  159.5794 H   0  0  0  0  0  0  0  0  0  0  0  0  # atno 6907 bound_to 6896
  152.2997  134.7623  160.0369 H   0  0  0  0  0  0  0  0  0  0  0  0  # atno 6908 bound_to 6896
  151.8207  133.3359  159.3620 H   0  0  0  0  0  0  0  0  0  0  0  0  # atno 6909 bound_to 6896
  145.9867  139.4297  143.0098 H   0  0  0  0  0  0  0  0  0  0  0  0  # atno 7974 bound_to 7965
  155.1746  140.0409  157.2870 H   0  0  0  0  0  0  0  0  0  0  0  0  # atno 8008 bound_to 7997
  154.6245  140.2509  155.7481 H   0  0  0  0  0  0  0  0  0  0  0  0  # atno 8009 bound_to 7997
  156.2452  140.2888  156.0569 H   0  0  0  0  0  0  0  0  0  0  0  0  # atno 8010 bound_to 7997
  139.4969  144.3807  151.9625 H   0  0  0  0  0  0  0  0  0  0  0  0  # atno 10167 bound_to 10162
  157.6403  130.9480  150.0660 H   0  0  0  0  0  0  0  0  0  0  0  0  # atno 10718 bound_to 10713
  154.5743  135.5595  153.7125 H   0  0  0  0  0  0  0  0  0  0  0  0  # atno 10763 bound_to 10752
  153.0059  135.6304  154.2070 H   0  0  0  0  0  0  0  0  0  0  0  0  # atno 10764 bound_to 10752
  154.2010  135.2878  155.2970 H   0  0  0  0  0  0  0  0  0  0  0  0  # atno 10765 bound_to 10752
  140.6438  134.4523  157.5234 H   0  0  0  0  0  0  0  0  0  0  0  0  # atno 11005 bound_to 11000
  145.7690  140.9904  143.1160 LP  0  0  0  0  0  0  0  0  0  0  0  0  # atno 17320 bound_to 7965
  144.6877  139.9423  143.7475 LP  0  0  0  0  0  0  0  0  0  0  0  0  # atno 17321 bound_to 7965
  140.3244  144.3390  150.6002 LP  0  0  0  0  0  0  0  0  0  0  0  0  # atno 17342 bound_to 10162
  140.5696  143.2182  151.7622 LP  0  0  0  0  0  0  0  0  0  0  0  0  # atno 17343 bound_to 10162
  156.1678  130.3645  149.9208 LP  0  0  0  0  0  0  0  0  0  0  0  0  # atno 17370 bound_to 10713
  156.7190  130.8999  151.3616 LP  0  0  0  0  0  0  0  0  0  0  0  0  # atno 17371 bound_to 10713
  139.9070  134.8426  156.1667 LP  0  0  0  0  0  0  0  0  0  0  0  0  # atno 17394 bound_to 11000
  141.0587  133.6852  156.1911 LP  0  0  0  0  0  0  0  0  0  0  0  0  # atno 17395 bound_to 11000

$$$$
