AV-unprocessed.smi:1473|AV-procd|sdf|5971|dock2
  -GOLD-   22720 6 63D 1   1.00000     0.00000
 Structure written by MMmdl.
 32 33  0  0  0  0  0  0  0  0  3 V2000
  151.9564  137.1109  154.0009 N   0  5  0  0  0  0  0  0  0  0  0  0
  152.4975  138.3088  154.9480 S   0  0  0  0  0  0  0  0  0  0  0  0
  152.1455  138.0286  156.3484 O   0  0  0  0  0  0  0  0  0  0  0  0
  153.9243  138.5843  154.7035 O   0  0  0  0  0  0  0  0  0  0  0  0
  151.5163  139.4686  154.3530 N   0  5  0  0  0  0  0  0  0  0  0  0
  150.0639  139.4121  154.4976 C   0  0  0  0  0  0  0  0  0  0  0  0
  149.5645  140.4223  155.5209 C   0  0  0  0  0  0  0  0  0  0  0  0
  148.1879  140.7165  155.6334 C   0  0  0  0  0  0  0  0  0  0  0  0
  147.7828  141.6639  156.5908 C   0  0  0  0  0  0  0  0  0  0  0  0
  148.6409  142.3017  157.4135 N   0  0  0  0  0  0  0  0  0  0  0  0
  149.9652  142.0255  157.3202 C   0  0  0  0  0  0  0  0  0  0  0  0
  150.8506  142.6982  158.1906 N   0  0  0  0  0  0  0  0  0  0  0  0
  151.6039  143.7996  157.5964 C   0  0  0  0  0  0  0  0  0  0  0  0
  152.2876  144.6347  158.6930 C   0  0  0  0  0  0  0  0  0  0  0  0
  153.0910  143.7924  159.5130 O   0  0  0  0  0  0  0  0  0  0  0  0
  152.3133  142.7968  160.1696 C   0  0  0  0  0  0  0  0  0  0  0  0
  151.6377  141.8945  159.1236 C   0  0  0  0  0  0  0  0  0  0  0  0
  150.4656  141.0930  156.3800 C   0  0  0  0  0  0  0  0  0  0  0  0
  151.5790  137.5277  153.1416 H   0  0  0  0  0  0  0  0  0  0  0  0
  149.5553  139.6130  153.5537 H   0  0  0  0  0  0  0  0  0  0  0  0
  149.7229  138.4228  154.8061 H   0  0  0  0  0  0  0  0  0  0  0  0
  147.4493  140.2416  155.0019 H   0  0  0  0  0  0  0  0  0  0  0  0
  146.7385  141.9159  156.7006 H   0  0  0  0  0  0  0  0  0  0  0  0
  152.3539  143.3871  156.9204 H   0  0  0  0  0  0  0  0  0  0  0  0
  150.9666  144.4519  157.0014 H   0  0  0  0  0  0  0  0  0  0  0  0
  152.9208  145.3987  158.2417 H   0  0  0  0  0  0  0  0  0  0  0  0
  151.5472  145.1550  159.3028 H   0  0  0  0  0  0  0  0  0  0  0  0
  152.9642  142.2038  160.8120 H   0  0  0  0  0  0  0  0  0  0  0  0
  151.5706  143.2673  160.8159 H   0  0  0  0  0  0  0  0  0  0  0  0
  150.9987  141.1699  159.6303 H   0  0  0  0  0  0  0  0  0  0  0  0
  152.3930  141.3347  158.5704 H   0  0  0  0  0  0  0  0  0  0  0  0
  151.5291  140.9099  156.3078 H   0  0  0  0  0  0  0  0  0  0  0  0
  1  2  1  0  0  0  0
  1 19  1  0  0  0  0
  2  3  2  0  0  0  0
  2  4  2  0  0  0  0
  2  5  1  0  0  0  0
  5  6  1  0  0  0  0
  6  7  1  0  0  0  0
  6 20  1  0  0  0  0
  6 21  1  0  0  0  0
  7 18  1  0  0  0  0
  7  8  2  0  0  0  0
  8  9  1  0  0  0  0
  8 22  1  0  0  0  0
  9 10  2  0  0  0  0
  9 23  1  0  0  0  0
 10 11  1  0  0  0  0
 11 12  1  0  0  0  0
 11 18  2  0  0  0  0
 12 17  1  0  0  0  0
 12 13  1  0  0  0  0
 13 14  1  0  0  0  0
 13 24  1  0  0  0  0
 13 25  1  0  0  0  0
 14 15  1  0  0  0  0
 14 26  1  0  0  0  0
 14 27  1  0  0  0  0
 15 16  1  0  0  0  0
 16 17  1  0  0  0  0
 16 28  1  0  0  0  0
 16 29  1  0  0  0  0
 17 30  1  0  0  0  0
 17 31  1  0  0  0  0
 18 32  1  0  0  0  0
M  CHG  1   1  -1
M  CHG  1   5  -1
M  END
> <s_m_source_file>
AV-unprocessed.smi

> <i_m_source_file_index>
1473

> <i_lp_mmshare_version>
43012

> <i_f3d_flags>
0

> <s_epik_input>
W05IMl1TKD1PKSg9TylbTkhdW0NIMl1jMVtjSF1bY0hdbmMoW2NIXTEpTjJbQ0gyXVtDSDJdT1tDSDJdW0NIMl0y

> <s_epik_cmdline>
J2VwaWtfcHl0aG9uJywgJy1waCcsICc3LjAnLCAnLXRuJywgJzgnLCAnLW1hJywgJzIwMCcsICctbWV0YWxfYmluZGluZycsICctaW1hZScsICc8aW5maWxlLm1hZT4nLCAnLW9tYWUnLCAnPG91dGZpbGUubWFlPic=

> <r_lp_tautomer_probability>
1

> <r_epik_Ionization_Penalty>
9.31635

> <r_epik_Ionization_Penalty_Charging>
9.0542

> <r_epik_Ionization_Penalty_Neutral>
0.262148

> <r_epik_State_Penalty>
4.75451

> <r_epik_Charging_Adjusted_Penalty>
13.8087

> <i_epik_Tot_Q>
-2

> <i_epik_Tot_abs_Q>
2

> <r_epik_Metal_State_Penalty>
1.32914

> <b_epik_Metal_Only>
1

> <s_lp_Force_Field>
OPLS_2005

> <r_lp_Energy>
19.9679

> <b_lp_Chiralities_Consistent>
1

> <s_lp_Variant>
AV-unprocessed.smi:1473-6

> <Gold.Version>
5.8.1

> <Gold.Id.Protein>
6NUR|6NUR_protein|mol2

> <Gold.PLP.Fitness>
44.5285

> <Gold.PLP.PLP>
-33.2693

> <Gold.PLP.part.hbond>
-4.0000

> <Gold.PLP.part.metal>
0.0000

> <Gold.PLP.part.buried>
-4.8180

> <Gold.PLP.part.nonpolar>
-25.2424

> <Gold.PLP.part.repulsive>
1.2034

> <Gold.PLP.ligand.clash>
0.0000

> <Gold.PLP.ligand.torsion>
0.9579

> <Gold.PLP.Chemscore.Hbond>
3.9350

> <Gold.PLP.Chemscore.CHOScore>
0.0000

> <Gold.PLP.Chemscore.Metal>
0.0000

> <Gold.Chemscore.Hbonds>
donor molecule, donor type, donor heavy atom, donor atom, acceptor molecule, acceptor atom, score
      L1  H     1    19       P1  7949  0.09
      P1  H  7989  7998       L1     5  1.00
      P1  H  7997  8008       L1     4  0.82
      P1  H 10752 10763       L1     1  2.00

> <Gold.PLP.Chemscore.Internal.Correction>
1.3701

> <Gold.Rescore>
     Score         DG    S(hbond)    S(metal)    S(lipo)     H(rot)  DE(clash)    DE(int)     intcor
     16.43     -17.74       2.76        0.00      66.62       1.86       0.33       0.97       ----

> <Gold.Chemscore.Fitness>
16.4321

> <Gold.Chemscore.DG>
-17.7351

> <Gold.Chemscore.ZeroCoef>
-5.4800

> <Gold.Chemscore.Hbond>
2.7615

> <Gold.Chemscore.Metal>
0.0000

> <Gold.Chemscore.Lipo>
66.6226

> <Gold.Chemscore.Internal_Hbond>
0.0000

> <Gold.Chemscore.DEClash>
0.3333

> <Gold.Chemscore.DEInternal>
0.9698

> <Gold.Chemscore.Rot>
1.8606

> <Gold.Chemscore.Internal.Correction>
   9.000000E+99

> <Gold.Chemscore.Hbonds>
donor molecule, donor type, donor heavy atom, donor atom, acceptor molecule, acceptor atom, score
      L1  H     1    19       P1  7949  0.09
      P1  H  7989  7998       L1     5  0.25
      P1  H  7997  8008       L1     4  0.71
      P1  H 10752 10763       L1     1  0.80

> <Gold.Chemscore.Hbond.Weighted>
-9.2234

> <Gold.Chemscore.Metal.Weighted>
-0.0000

> <Gold.Chemscore.Lipo.Weighted>
-7.7948

> <Gold.Chemscore.Internal_Hbond.Weighted>
0.0000

> <Gold.Chemscore.DEClash.Weighted>
0.3333

> <Gold.Chemscore.DEInternal.Weighted>
0.9698

> <Gold.Chemscore.Rot.Weighted>
4.7631

> <Gold.Chemscore.Internal.Correction.Weighted>
   9.000000E+99

> <Gold.Protein.RotatedTorsions>
[ 6907 6896 6895 6894 ] final   72.89 input  -60.11 | X-H torsion
[ 7974 7965 7964 7962 ] final  105.23 input  175.53 | X-H torsion
[ 8008 7997 7996 7995 ] final    3.66 input   59.86 | X-H torsion
[ 10167 10162 10161 10158 ] final   59.38 input  -65.29 | X-H torsion
[ 10718 10713 10712 10709 ] final  -59.92 input   66.30 | X-H torsion
[ 10763 10752 10751 10750 ] final   28.93 input  -60.55 | X-H torsion
[ 11005 11000 10999 10996 ] final    6.45 input  -57.11 | X-H torsion

> <Gold.Protein.ActiveResidues>
 VAL166  LYS551  ARG553  GLY616  TRP617  ASP618  TYR619  PRO620  LYS621  CYS622 
 ASP623  PHE694  ASN695  SER759  ASP760  ASP761  ALA762  ILE779  LEU786  VAL792 
 PHE793  MET794  SER795  GLU796  ALA797  LYS798  CYS799  TRP800  GLU811  SER814 

> <Gold.Protein.RotatedAtoms>
  152.4893  134.4503  159.9572 H   0  0  0  0  0  0  0  0  0  0  0  0  # atno 6907 bound_to 6896
  151.4493  133.3616  159.2801 H   0  0  0  0  0  0  0  0  0  0  0  0  # atno 6908 bound_to 6896
  150.9033  134.8470  159.7435 H   0  0  0  0  0  0  0  0  0  0  0  0  # atno 6909 bound_to 6896
  145.3224  139.2509  143.3705 H   0  0  0  0  0  0  0  0  0  0  0  0  # atno 7974 bound_to 7965
  154.7063  140.2683  155.6671 H   0  0  0  0  0  0  0  0  0  0  0  0  # atno 8008 bound_to 7997
  156.2781  140.2762  156.1615 H   0  0  0  0  0  0  0  0  0  0  0  0  # atno 8009 bound_to 7997
  155.0695  140.0372  157.2594 H   0  0  0  0  0  0  0  0  0  0  0  0  # atno 8010 bound_to 7997
  140.1771  144.4219  150.6633 H   0  0  0  0  0  0  0  0  0  0  0  0  # atno 10167 bound_to 10162
  156.1027  130.4184  150.0782 H   0  0  0  0  0  0  0  0  0  0  0  0  # atno 10718 bound_to 10713
  153.0461  135.6501  154.0813 H   0  0  0  0  0  0  0  0  0  0  0  0  # atno 10763 bound_to 10752
  154.0510  135.2895  155.3342 H   0  0  0  0  0  0  0  0  0  0  0  0  # atno 10764 bound_to 10752
  154.6720  135.5352  153.8216 H   0  0  0  0  0  0  0  0  0  0  0  0  # atno 10765 bound_to 10752
  140.5594  134.0207  155.7966 H   0  0  0  0  0  0  0  0  0  0  0  0  # atno 11005 bound_to 11000
  146.3077  140.3784  142.8681 LP  0  0  0  0  0  0  0  0  0  0  0  0  # atno 17320 bound_to 7965
  144.8929  140.7546  143.5915 LP  0  0  0  0  0  0  0  0  0  0  0  0  # atno 17321 bound_to 7965
  140.6544  143.2233  151.6002 LP  0  0  0  0  0  0  0  0  0  0  0  0  # atno 17342 bound_to 10162
  139.5312  144.2910  152.1152 LP  0  0  0  0  0  0  0  0  0  0  0  0  # atno 17343 bound_to 10162
  156.8765  130.9542  151.3604 LP  0  0  0  0  0  0  0  0  0  0  0  0  # atno 17370 bound_to 10713
  157.6200  130.8647  149.9092 LP  0  0  0  0  0  0  0  0  0  0  0  0  # atno 17371 bound_to 10713
  141.1124  133.9595  157.2886 LP  0  0  0  0  0  0  0  0  0  0  0  0  # atno 17394 bound_to 11000
  139.9415  135.0190  156.8724 LP  0  0  0  0  0  0  0  0  0  0  0  0  # atno 17395 bound_to 11000

$$$$
