AV-unprocessed.smi:110|AV-procd|sdf|1076|dock6
  -GOLD-   2262018163D 1   1.00000     0.00000
 Structure written by MMmdl.
 46 50  0  0  0  0  0  0  0  0  1 V2000
  145.2639  143.5728  155.1033 O   0  0  0  0  0  0  0  0  0  0  0  0
  145.5928  142.6412  154.0939 C   0  0  0  0  0  0  0  0  0  0  0  0
  146.7283  141.6958  154.5250 C   0  0  2  0  0  0  0  0  0  0  0  0
  147.9927  142.3322  154.3949 O   0  0  0  0  0  0  0  0  0  0  0  0
  148.9990  141.3627  154.3335 C   0  0  1  0  0  0  0  0  0  0  0  0
  149.7887  141.4275  155.6043 N   0  0  0  0  0  0  0  0  0  0  0  0
  149.5900  142.2170  156.7159 C   0  0  0  0  0  0  0  0  0  0  0  0
  150.4552  142.0470  157.6788 N   0  0  0  0  0  0  0  0  0  0  0  0
  151.3231  141.0744  157.1948 C   0  0  0  0  0  0  0  0  0  0  0  0
  152.4777  140.4162  157.7072 C   0  0  0  0  0  0  0  0  0  0  0  0
  153.0267  140.6575  158.9208 N   0  0  0  0  0  0  0  0  0  0  0  0
  153.7336  139.5770  159.6230 C   0  0  0  0  0  0  0  0  0  0  0  0
  153.8389  139.9785  161.1066 C   0  0  0  0  0  0  0  0  0  0  0  0
  153.2693  141.3599  161.0692 C   0  0  0  0  0  0  0  0  0  0  0  0
  153.1754  142.2716  162.1351 C   0  0  0  0  0  0  0  0  0  0  0  0
  152.6205  143.5430  161.8757 C   0  0  0  0  0  0  0  0  0  0  0  0
  152.1848  143.8804  160.5730 C   0  0  0  0  0  0  0  0  0  0  0  0
  152.2916  142.9489  159.5168 C   0  0  0  0  0  0  0  0  0  0  0  0
  152.8265  141.6724  159.7878 C   0  0  0  0  0  0  0  0  0  0  0  0
  153.0368  139.4437  156.9423 N   0  0  0  0  0  0  0  0  0  0  0  0
  152.5320  139.1609  155.7380 C   0  0  0  0  0  0  0  0  0  0  0  0
  151.4830  139.7105  155.1230 N   0  0  0  0  0  0  0  0  0  0  0  0
  150.8986  140.6681  155.8986 C   0  0  0  0  0  0  0  0  0  0  0  0
  148.3165  139.9867  154.1282 C   0  0  1  0  0  0  0  0  0  0  0  0
  148.3358  139.1629  155.2858 O   0  0  0  0  0  0  0  0  0  0  0  0
  146.9019  140.3995  153.7320 C   0  0  1  0  0  0  0  0  0  0  0  0
  145.9185  139.4256  154.0289 O   0  0  0  0  0  0  0  0  0  0  0  0
  146.5987  141.4574  155.5825 H   0  0  0  0  0  0  0  0  0  0  0  0
  149.7107  141.6200  153.5478 H   0  0  0  0  0  0  0  0  0  0  0  0
  148.8154  139.4510  153.3201 H   0  0  0  0  0  0  0  0  0  0  0  0
  146.8861  140.6025  152.6606 H   0  0  0  0  0  0  0  0  0  0  0  0
  145.4112  143.1685  155.9448 H   0  0  0  0  0  0  0  0  0  0  0  0
  144.7052  142.0719  153.8171 H   0  0  0  0  0  0  0  0  0  0  0  0
  145.8988  143.2028  153.2109 H   0  0  0  0  0  0  0  0  0  0  0  0
  148.7799  142.9268  156.7957 H   0  0  0  0  0  0  0  0  0  0  0  0
  153.2063  138.6288  159.5106 H   0  0  0  0  0  0  0  0  0  0  0  0
  154.7275  139.4599  159.1894 H   0  0  0  0  0  0  0  0  0  0  0  0
  153.2338  139.3366  161.7473 H   0  0  0  0  0  0  0  0  0  0  0  0
  154.8691  139.9819  161.4635 H   0  0  0  0  0  0  0  0  0  0  0  0
  153.5219  142.0089  163.1237 H   0  0  0  0  0  0  0  0  0  0  0  0
  152.5360  144.2651  162.6744 H   0  0  0  0  0  0  0  0  0  0  0  0
  151.7713  144.8597  160.3828 H   0  0  0  0  0  0  0  0  0  0  0  0
  151.9713  143.2199  158.5217 H   0  0  0  0  0  0  0  0  0  0  0  0
  153.0417  138.3829  155.1891 H   0  0  0  0  0  0  0  0  0  0  0  0
  147.8727  138.3627  155.0899 H   0  0  0  0  0  0  0  0  0  0  0  0
  145.8746  139.3204  154.9669 H   0  0  0  0  0  0  0  0  0  0  0  0
  1  2  1  0  0  0  0
  1 32  1  0  0  0  0
  2  3  1  0  0  0  0
  2 33  1  0  0  0  0
  2 34  1  0  0  0  0
  3 28  1  0  0  0  0
  3 26  1  0  0  0  0
  3  4  1  0  0  0  0
  4  5  1  0  0  0  0
  5 29  1  0  0  0  0
  5  6  1  0  0  0  0
  5 24  1  0  0  0  0
  6 23  1  0  0  0  0
  6  7  1  0  0  0  0
  7  8  2  0  0  0  0
  7 35  1  0  0  0  0
  8  9  1  0  0  0  0
  9 23  2  0  0  0  0
  9 10  1  0  0  0  0
 10 11  1  0  0  0  0
 10 20  2  0  0  0  0
 11 19  1  0  0  0  0
 11 12  1  0  0  0  0
 12 13  1  0  0  0  0
 12 36  1  0  0  0  0
 12 37  1  0  0  0  0
 13 14  1  0  0  0  0
 13 38  1  0  0  0  0
 13 39  1  0  0  0  0
 14 19  2  0  0  0  0
 14 15  1  0  0  0  0
 15 16  2  0  0  0  0
 15 40  1  0  0  0  0
 16 17  1  0  0  0  0
 16 41  1  0  0  0  0
 17 18  2  0  0  0  0
 17 42  1  0  0  0  0
 18 19  1  0  0  0  0
 18 43  1  0  0  0  0
 20 21  1  0  0  0  0
 21 22  2  0  0  0  0
 21 44  1  0  0  0  0
 22 23  1  0  0  0  0
 24 30  1  0  0  0  0
 24 25  1  0  0  0  0
 24 26  1  0  0  0  0
 25 45  1  0  0  0  0
 26 31  1  0  0  0  0
 26 27  1  0  0  0  0
 27 46  1  0  0  0  0
M  END
> <s_m_source_file>
AV-unprocessed.smi

> <i_m_source_file_index>
110

> <i_lp_mmshare_version>
43012

> <i_f3d_flags>
0

> <s_epik_input>
W09IXVtDSDJdW0NASF0xT1tDQEhdKFtDQEhdKFtPSF0pW0NAQEhdMVtPSF0pbihbY0hdbjIpYyhjMjMpbltjSF1uYzNOKFtDSDJdW0NIMl00KWMoYzQ1KVtjSF1bY0hdW2NIXVtjSF01

> <s_epik_cmdline>
J2VwaWtfcHl0aG9uJywgJy1waCcsICc3LjAnLCAnLXRuJywgJzgnLCAnLW1hJywgJzIwMCcsICctbWV0YWxfYmluZGluZycsICctaW1hZScsICc8aW5maWxlLm1hZT4nLCAnLW9tYWUnLCAnPG91dGZpbGUubWFlPic=

> <r_lp_tautomer_probability>
1

> <r_epik_Ionization_Penalty>
0.00068475

> <r_epik_Ionization_Penalty_Charging>
0

> <r_epik_Ionization_Penalty_Neutral>
0.00068475

> <r_epik_State_Penalty>
0.000417442

> <r_epik_Charging_Adjusted_Penalty>
0.000417442

> <i_epik_Tot_Q>
0

> <i_epik_Tot_abs_Q>
0

> <r_epik_Metal_State_Penalty>
-0

> <b_epik_Metal_Only>
0

> <s_epik_Chemistry_Notes>
This compound contains an acetal/aminal-like group ( X-CH(R)-Y where X, Y are N, S, or O) that may be acid/base labile, releasing an aldehyde.

> <s_lp_Force_Field>
OPLS_2005

> <r_lp_Energy>
66.8802

> <b_lp_Chiralities_Consistent>
1

> <s_lp_Variant>
AV-unprocessed.smi:110-14

> <Gold.Version>
5.8.1

> <Gold.Id.Protein>
6NUR|6NUR_protein|mol2

> <Gold.PLP.Fitness>
57.3954

> <Gold.PLP.PLP>
-50.4322

> <Gold.PLP.part.hbond>
-3.4420

> <Gold.PLP.part.metal>
0.0000

> <Gold.PLP.part.buried>
-2.0032

> <Gold.PLP.part.nonpolar>
-48.3578

> <Gold.PLP.part.repulsive>
2.3206

> <Gold.PLP.ligand.clash>
0.0000

> <Gold.PLP.ligand.torsion>
0.4029

> <Gold.PLP.Chemscore.Hbond>
1.7500

> <Gold.PLP.Chemscore.CHOScore>
0.8148

> <Gold.PLP.Chemscore.Metal>
0.0000

> <Gold.Chemscore.Hbonds>
donor molecule, donor type, donor heavy atom, donor atom, acceptor molecule, acceptor atom, score
      P1  H  7989  7998       L1    22  0.75
      P1  H  7997  8010       L1    20  0.96
      L1  C     7    35       P1  8028  0.79

> <Gold.PLP.Chemscore.Internal.Correction>
0.0744

> <Gold.Rescore>
     Score         DG    S(hbond)    S(metal)    S(lipo)     H(rot)  DE(clash)    DE(int)     intcor
      6.75     -10.10       0.07        0.00     111.47       3.38       1.03       2.32       ----

> <Gold.Chemscore.Fitness>
6.7452

> <Gold.Chemscore.DG>
-10.0976

> <Gold.Chemscore.ZeroCoef>
-5.4800

> <Gold.Chemscore.Hbond>
0.0711

> <Gold.Chemscore.Metal>
0.0000

> <Gold.Chemscore.Lipo>
111.4724

> <Gold.Chemscore.Internal_Hbond>
0.0000

> <Gold.Chemscore.DEClash>
1.0290

> <Gold.Chemscore.DEInternal>
2.3233

> <Gold.Chemscore.Rot>
3.3837

> <Gold.Chemscore.Internal.Correction>
   9.000000E+99

> <Gold.Chemscore.Hbonds>
donor molecule, donor type, donor heavy atom, donor atom, acceptor molecule, acceptor atom, score
      P1  H  7989  7998       L1    22  0.09
      P1  H  7997  8010       L1    20  0.11

> <Gold.Chemscore.Hbond.Weighted>
-0.2375

> <Gold.Chemscore.Metal.Weighted>
-0.0000

> <Gold.Chemscore.Lipo.Weighted>
-13.0423

> <Gold.Chemscore.Internal_Hbond.Weighted>
0.0000

> <Gold.Chemscore.DEClash.Weighted>
1.0290

> <Gold.Chemscore.DEInternal.Weighted>
2.3233

> <Gold.Chemscore.Rot.Weighted>
8.6622

> <Gold.Chemscore.Internal.Correction.Weighted>
   9.000000E+99

> <Gold.Protein.RotatedTorsions>
[ 6907 6896 6895 6894 ] final  172.00 input  -60.11 | X-H torsion
[ 7974 7965 7964 7962 ] final -168.29 input  175.53 | X-H torsion
[ 8008 7997 7996 7995 ] final   62.31 input   59.86 | X-H torsion
[ 10167 10162 10161 10158 ] final -147.15 input  -65.29 | X-H torsion
[ 10718 10713 10712 10709 ] final   17.45 input   66.30 | X-H torsion
[ 10763 10752 10751 10750 ] final  -21.43 input  -60.55 | X-H torsion
[ 11005 11000 10999 10996 ] final   21.10 input  -57.11 | X-H torsion

> <Gold.Protein.ActiveResidues>
 VAL166  LYS551  ARG553  GLY616  TRP617  ASP618  TYR619  PRO620  LYS621  CYS622 
 ASP623  PHE694  ASN695  SER759  ASP760  ASP761  ALA762  ILE779  LEU786  VAL792 
 PHE793  MET794  SER795  GLU796  ALA797  LYS798  CYS799  TRP800  GLU811  SER814 

> <Gold.Protein.RotatedAtoms>
  151.7912  133.3359  159.3499 H   0  0  0  0  0  0  0  0  0  0  0  0  # atno 6907 bound_to 6896
  150.7391  134.5840  159.5963 H   0  0  0  0  0  0  0  0  0  0  0  0  # atno 6908 bound_to 6896
  152.3208  134.7383  160.0365 H   0  0  0  0  0  0  0  0  0  0  0  0  # atno 6909 bound_to 6896
  144.7206  140.2392  143.6294 H   0  0  0  0  0  0  0  0  0  0  0  0  # atno 7974 bound_to 7965
  155.6123  140.3495  155.4626 H   0  0  0  0  0  0  0  0  0  0  0  0  # atno 8008 bound_to 7997
  156.0144  140.1240  157.0445 H   0  0  0  0  0  0  0  0  0  0  0  0  # atno 8009 bound_to 7997
  154.4292  140.1075  156.5861 H   0  0  0  0  0  0  0  0  0  0  0  0  # atno 8010 bound_to 7997
  139.7648  143.8324  152.2614 H   0  0  0  0  0  0  0  0  0  0  0  0  # atno 10167 bound_to 10162
  157.0822  130.6393  149.5829 H   0  0  0  0  0  0  0  0  0  0  0  0  # atno 10718 bound_to 10713
  153.6360  135.6987  153.5258 H   0  0  0  0  0  0  0  0  0  0  0  0  # atno 10763 bound_to 10752
  153.2820  135.4182  155.1087 H   0  0  0  0  0  0  0  0  0  0  0  0  # atno 10764 bound_to 10752
  154.8511  135.3604  154.5904 H   0  0  0  0  0  0  0  0  0  0  0  0  # atno 10765 bound_to 10752
  140.3953  134.1775  155.7663 H   0  0  0  0  0  0  0  0  0  0  0  0  # atno 11005 bound_to 11000
  145.8336  139.2097  143.1868 LP  0  0  0  0  0  0  0  0  0  0  0  0  # atno 17320 bound_to 7965
  146.0409  140.8166  142.9829 LP  0  0  0  0  0  0  0  0  0  0  0  0  # atno 17321 bound_to 7965
  139.8341  144.7240  150.9413 LP  0  0  0  0  0  0  0  0  0  0  0  0  # atno 17342 bound_to 10162
  140.7810  143.4043  151.1097 LP  0  0  0  0  0  0  0  0  0  0  0  0  # atno 17343 bound_to 10162
  155.9920  130.4977  150.7323 LP  0  0  0  0  0  0  0  0  0  0  0  0  # atno 17370 bound_to 10713
  157.4790  131.0900  151.0557 LP  0  0  0  0  0  0  0  0  0  0  0  0  # atno 17371 bound_to 10713
  141.1876  133.8277  157.1025 LP  0  0  0  0  0  0  0  0  0  0  0  0  # atno 17394 bound_to 11000
  140.0376  134.9870  157.0901 LP  0  0  0  0  0  0  0  0  0  0  0  0  # atno 17395 bound_to 11000

$$$$
