AV-unprocessed.smi:2324|AV-procd|sdf|9292|dock6
  -GOLD-   2272012513D 1   1.00000     0.00000
 Structure written by MMmdl.
 37 39  0  0  0  0  0  0  0  0  1 V2000
  152.7873  134.9617  153.7672 O   0  0  0  0  0  0  0  0  0  0  0  0
  151.7020  135.3040  153.3005 C   0  0  0  0  0  0  0  0  0  0  0  0
  151.0065  134.4817  152.4860 N   0  0  0  0  0  0  0  0  0  0  0  0
  151.2848  133.1686  152.0061 C   0  0  0  0  0  0  0  0  0  0  0  0
  152.6557  132.8355  151.9610 C   0  0  0  0  0  0  0  0  0  0  0  0
  153.0206  131.5587  151.5011 C   0  0  0  0  0  0  0  0  0  0  0  0
  151.9832  130.6930  151.1161 C   0  0  0  0  0  0  0  0  0  0  0  0
  150.6823  131.0504  151.1764 N   0  0  0  0  0  0  0  0  0  0  0  0
  150.3444  132.2679  151.6146 N   0  0  0  0  0  0  0  0  0  0  0  0
  151.1463  136.4994  153.5587 N   0  0  0  0  0  0  0  0  0  0  0  0
  151.7256  137.5425  154.3991 C   0  0  1  0  0  0  0  0  0  0  0  0
  152.4128  138.6183  153.5412 C   0  0  0  0  0  0  0  0  0  0  0  0
  152.8726  139.7958  154.4147 C   0  0  0  0  0  0  0  0  0  0  0  0
  151.7669  140.3278  155.1367 O   0  0  0  0  0  0  0  0  0  0  0  0
  151.1851  139.3928  156.0400 C   0  0  1  0  0  0  0  0  0  0  0  0
  150.1030  140.1081  156.8243 C   0  0  0  0  0  0  0  0  0  0  0  0
  148.9594  139.3380  157.4422 C   0  0  0  0  0  0  0  0  0  0  0  0
  148.7067  140.2476  156.2640 C   0  0  0  0  0  0  0  0  0  0  0  0
  150.6256  138.1958  155.2487 C   0  0  0  0  0  0  0  0  0  0  0  0
  150.1314  134.8652  152.1601 H   0  0  0  0  0  0  0  0  0  0  0  0
  153.4137  133.5408  152.2699 H   0  0  0  0  0  0  0  0  0  0  0  0
  154.0553  131.2547  151.4461 H   0  0  0  0  0  0  0  0  0  0  0  0
  152.1981  129.6982  150.7552 H   0  0  0  0  0  0  0  0  0  0  0  0
  150.2512  136.7019  153.1357 H   0  0  0  0  0  0  0  0  0  0  0  0
  152.4607  137.0977  155.0726 H   0  0  0  0  0  0  0  0  0  0  0  0
  153.2656  138.1958  153.0087 H   0  0  0  0  0  0  0  0  0  0  0  0
  151.7206  138.9853  152.7820 H   0  0  0  0  0  0  0  0  0  0  0  0
  153.6567  139.4839  155.1064 H   0  0  0  0  0  0  0  0  0  0  0  0
  153.2952  140.5825  153.7898 H   0  0  0  0  0  0  0  0  0  0  0  0
  151.9490  139.0473  156.7391 H   0  0  0  0  0  0  0  0  0  0  0  0
  150.4685  140.9562  157.4006 H   0  0  0  0  0  0  0  0  0  0  0  0
  148.9168  138.2649  157.2664 H   0  0  0  0  0  0  0  0  0  0  0  0
  148.6027  139.6651  158.4168 H   0  0  0  0  0  0  0  0  0  0  0  0
  148.1819  141.1820  156.4523 H   0  0  0  0  0  0  0  0  0  0  0  0
  148.4956  139.7792  155.3047 H   0  0  0  0  0  0  0  0  0  0  0  0
  149.8132  138.5349  154.6037 H   0  0  0  0  0  0  0  0  0  0  0  0
  150.1954  137.4627  155.9322 H   0  0  0  0  0  0  0  0  0  0  0  0
  1  2  2  0  0  0  0
  2  3  1  0  0  0  0
  2 10  1  0  0  0  0
  3  4  1  0  0  0  0
  3 20  1  0  0  0  0
  4  9  1  0  0  0  0
  4  5  2  0  0  0  0
  5  6  1  0  0  0  0
  5 21  1  0  0  0  0
  6  7  2  0  0  0  0
  6 22  1  0  0  0  0
  7  8  1  0  0  0  0
  7 23  1  0  0  0  0
  8  9  2  0  0  0  0
 10 11  1  0  0  0  0
 10 24  1  0  0  0  0
 11 19  1  0  0  0  0
 11 12  1  0  0  0  0
 11 25  1  0  0  0  0
 12 13  1  0  0  0  0
 12 26  1  0  0  0  0
 12 27  1  0  0  0  0
 13 14  1  0  0  0  0
 13 28  1  0  0  0  0
 13 29  1  0  0  0  0
 14 15  1  0  0  0  0
 15 16  1  0  0  0  0
 15 19  1  0  0  0  0
 15 30  1  0  0  0  0
 16 18  1  0  0  0  0
 16 17  1  0  0  0  0
 16 31  1  0  0  0  0
 17 18  1  0  0  0  0
 17 32  1  0  0  0  0
 17 33  1  0  0  0  0
 18 34  1  0  0  0  0
 18 35  1  0  0  0  0
 19 36  1  0  0  0  0
 19 37  1  0  0  0  0
M  END
> <s_m_source_file>
AV-unprocessed.smi

> <i_m_source_file_index>
2324

> <i_lp_mmshare_version>
43012

> <i_f3d_flags>
0

> <s_epik_input>
bjFuW2NIXVtjSF1bY0hdYzFbTkhdQyg9TylbTkhdW0NAQEhdMltDSDJdW0NIMl1PW0NASF0oW0NIMl0yKVtDSF0zW0NIMl1bQ0gyXTM=

> <s_epik_cmdline>
J2VwaWtfcHl0aG9uJywgJy1waCcsICc3LjAnLCAnLXRuJywgJzgnLCAnLW1hJywgJzIwMCcsICctbWV0YWxfYmluZGluZycsICctaW1hZScsICc8aW5maWxlLm1hZT4nLCAnLW9tYWUnLCAnPG91dGZpbGUubWFlPic=

> <r_lp_tautomer_probability>
1

> <r_epik_Ionization_Penalty>
0.00521499

> <r_epik_Ionization_Penalty_Charging>
0

> <r_epik_Ionization_Penalty_Neutral>
0.00521499

> <r_epik_State_Penalty>
-0

> <r_epik_Charging_Adjusted_Penalty>
0

> <i_epik_Tot_Q>
0

> <i_epik_Tot_abs_Q>
0

> <r_epik_Metal_State_Penalty>
-0

> <b_epik_Metal_Only>
0

> <s_lp_Force_Field>
OPLS_2005

> <r_lp_Energy>
26.0147

> <b_lp_Chiralities_Consistent>
1

> <s_lp_Variant>
AV-unprocessed.smi:2324-2

> <Gold.Version>
5.8.1

> <Gold.Id.Protein>
6NUR|6NUR_protein|mol2

> <Gold.PLP.Fitness>
40.0344

> <Gold.PLP.PLP>
-32.5968

> <Gold.PLP.part.hbond>
-3.4358

> <Gold.PLP.part.metal>
0.0000

> <Gold.PLP.part.buried>
-2.8993

> <Gold.PLP.part.nonpolar>
-27.5385

> <Gold.PLP.part.repulsive>
0.3472

> <Gold.PLP.ligand.clash>
0.0000

> <Gold.PLP.ligand.torsion>
0.9592

> <Gold.PLP.Chemscore.Hbond>
2.7616

> <Gold.PLP.Chemscore.CHOScore>
0.0000

> <Gold.PLP.Chemscore.Metal>
0.0000

> <Gold.Chemscore.Hbonds>
donor molecule, donor type, donor heavy atom, donor atom, acceptor molecule, acceptor atom, score
      L1  H    10    24       P1  7948  0.32

> <Gold.PLP.Chemscore.Internal.Correction>
1.0712

> <Gold.Rescore>
     Score         DG    S(hbond)    S(metal)    S(lipo)     H(rot)  DE(clash)    DE(int)     intcor
     14.50     -16.95       2.02        0.00      67.52       1.25       0.06       2.39       ----

> <Gold.Chemscore.Fitness>
14.4984

> <Gold.Chemscore.DG>
-16.9469

> <Gold.Chemscore.ZeroCoef>
-5.4800

> <Gold.Chemscore.Hbond>
2.0243

> <Gold.Chemscore.Metal>
0.0000

> <Gold.Chemscore.Lipo>
67.5172

> <Gold.Chemscore.Internal_Hbond>
0.0000

> <Gold.Chemscore.DEClash>
0.0614

> <Gold.Chemscore.DEInternal>
2.3872

> <Gold.Chemscore.Rot>
1.2476

> <Gold.Chemscore.Internal.Correction>
   9.000000E+99

> <Gold.Chemscore.Hbonds>
donor molecule, donor type, donor heavy atom, donor atom, acceptor molecule, acceptor atom, score
      L1  H    10    24       P1  7948  0.01

> <Gold.Chemscore.Hbond.Weighted>
-6.7612

> <Gold.Chemscore.Metal.Weighted>
-0.0000

> <Gold.Chemscore.Lipo.Weighted>
-7.8995

> <Gold.Chemscore.Internal_Hbond.Weighted>
0.0000

> <Gold.Chemscore.DEClash.Weighted>
0.0614

> <Gold.Chemscore.DEInternal.Weighted>
2.3872

> <Gold.Chemscore.Rot.Weighted>
3.1938

> <Gold.Chemscore.Internal.Correction.Weighted>
   9.000000E+99

> <Gold.Protein.RotatedTorsions>
[ 6907 6896 6895 6894 ] final -151.83 input  -60.11 | X-H torsion
[ 7974 7965 7964 7962 ] final  141.22 input  175.53 | X-H torsion
[ 8008 7997 7996 7995 ] final  131.23 input   59.86 | X-H torsion
[ 10167 10162 10161 10158 ] final  -25.00 input  -65.29 | X-H torsion
[ 10718 10713 10712 10709 ] final   -2.10 input   66.30 | X-H torsion
[ 10763 10752 10751 10750 ] final -174.91 input  -60.55 | X-H torsion
[ 11005 11000 10999 10996 ] final   24.54 input  -57.11 | X-H torsion

> <Gold.Protein.ActiveResidues>
 VAL166  LYS551  ARG553  GLY616  TRP617  ASP618  TYR619  PRO620  LYS621  CYS622 
 ASP623  PHE694  ASN695  SER759  ASP760  ASP761  ALA762  ILE779  LEU786  VAL792 
 PHE793  MET794  SER795  GLU796  ALA797  LYS798  CYS799  TRP800  GLU811  SER814 

> <Gold.Protein.RotatedAtoms>
  151.2189  133.4513  159.2599 H   0  0  0  0  0  0  0  0  0  0  0  0  # atno 6907 bound_to 6896
  151.0904  134.9912  159.8410 H   0  0  0  0  0  0  0  0  0  0  0  0  # atno 6908 bound_to 6896
  152.5434  134.2123  159.8808 H   0  0  0  0  0  0  0  0  0  0  0  0  # atno 6909 bound_to 6896
  144.9116  139.5285  143.5706 H   0  0  0  0  0  0  0  0  0  0  0  0  # atno 7974 bound_to 7965
  156.2967  140.2576  156.2892 H   0  0  0  0  0  0  0  0  0  0  0  0  # atno 8008 bound_to 7997
  154.9526  140.0394  157.2170 H   0  0  0  0  0  0  0  0  0  0  0  0  # atno 8009 bound_to 7997
  154.8022  140.2830  155.5918 H   0  0  0  0  0  0  0  0  0  0  0  0  # atno 8010 bound_to 7997
  140.7287  143.4303  151.0812 H   0  0  0  0  0  0  0  0  0  0  0  0  # atno 10167 bound_to 10162
  156.7957  130.5376  149.5729 H   0  0  0  0  0  0  0  0  0  0  0  0  # atno 10718 bound_to 10713
  154.5906  135.2845  155.0639 H   0  0  0  0  0  0  0  0  0  0  0  0  # atno 10763 bound_to 10752
  154.1941  135.6435  153.5072 H   0  0  0  0  0  0  0  0  0  0  0  0  # atno 10764 bound_to 10752
  153.0120  135.5453  154.6591 H   0  0  0  0  0  0  0  0  0  0  0  0  # atno 10765 bound_to 10752
  140.3576  134.2160  155.7674 H   0  0  0  0  0  0  0  0  0  0  0  0  # atno 11005 bound_to 11000
  146.3161  139.7926  142.8982 LP  0  0  0  0  0  0  0  0  0  0  0  0  # atno 17320 bound_to 7965
  145.3445  141.0294  143.3374 LP  0  0  0  0  0  0  0  0  0  0  0  0  # atno 17321 bound_to 7965
  139.7959  143.8152  152.3157 LP  0  0  0  0  0  0  0  0  0  0  0  0  # atno 17342 bound_to 10162
  139.8152  144.7319  150.9645 LP  0  0  0  0  0  0  0  0  0  0  0  0  # atno 17343 bound_to 10162
  156.1131  130.6055  151.0079 LP  0  0  0  0  0  0  0  0  0  0  0  0  # atno 17370 bound_to 10713
  157.6578  131.0886  150.7907 LP  0  0  0  0  0  0  0  0  0  0  0  0  # atno 17371 bound_to 10713
  141.1993  133.8013  157.0540 LP  0  0  0  0  0  0  0  0  0  0  0  0  # atno 17394 bound_to 11000
  140.0652  134.9733  157.1374 LP  0  0  0  0  0  0  0  0  0  0  0  0  # atno 17395 bound_to 11000

$$$$
