AV-unprocessed.smi:2848|AV-procd|sdf|10956|dock8
  -GOLD-   2272015413D 1   1.00000     0.00000
 Structure written by MMmdl.
 26 27  0  0  0  0  0  0  0  0  1 V2000
  153.5376  143.3769  161.6459 Cl  0  0  0  0  0  0  0  0  0  0  0  0
  152.7893  143.8528  160.1614 C   0  0  0  0  0  0  0  0  0  0  0  0
  152.5042  145.2138  159.9280 C   0  0  0  0  0  0  0  0  0  0  0  0
  151.9232  145.6696  158.7984 N   0  0  0  0  0  0  0  0  0  0  0  0
  151.6018  144.7658  157.8495 C   0  0  0  0  0  0  0  0  0  0  0  0
  151.8425  143.3835  157.9807 C   0  0  0  0  0  0  0  0  0  0  0  0
  152.4526  142.9072  159.1653 C   0  0  0  0  0  0  0  0  0  0  0  0
  152.7276  141.5481  159.3803 N   0  0  0  0  0  0  0  0  0  0  0  0
  152.0555  140.5201  158.5996 C   0  0  0  0  0  0  0  0  0  0  0  0
  152.6707  139.1453  158.7743 C   0  0  0  0  0  0  0  0  0  0  0  0
  152.0705  138.1239  159.4195 C   0  0  0  0  0  0  0  0  0  0  0  0
  152.6015  136.8615  159.4989 O   0  0  0  0  0  0  0  0  0  0  0  0
  153.6811  136.6225  158.6027 C   0  0  0  0  0  0  0  0  0  0  0  0
  154.6259  137.8346  158.5622 C   0  0  0  0  0  0  0  0  0  0  0  0
  153.9183  139.0196  158.2092 O   0  0  0  0  0  0  0  0  0  0  0  0
  152.7499  145.9591  160.6702 H   0  0  0  0  0  0  0  0  0  0  0  0
  151.1367  145.1561  156.9566 H   0  0  0  0  0  0  0  0  0  0  0  0
  151.5556  142.7198  157.1791 H   0  0  0  0  0  0  0  0  0  0  0  0
  153.5873  141.2994  159.8490 H   0  0  0  0  0  0  0  0  0  0  0  0
  151.0089  140.4625  158.8992 H   0  0  0  0  0  0  0  0  0  0  0  0
  152.0820  140.7928  157.5439 H   0  0  0  0  0  0  0  0  0  0  0  0
  151.0966  138.1848  159.8827 H   0  0  0  0  0  0  0  0  0  0  0  0
  154.2192  135.7293  158.9204 H   0  0  0  0  0  0  0  0  0  0  0  0
  153.2820  136.4195  157.6078 H   0  0  0  0  0  0  0  0  0  0  0  0
  155.0972  137.9795  159.5351 H   0  0  0  0  0  0  0  0  0  0  0  0
  155.4266  137.6698  157.8411 H   0  0  0  0  0  0  0  0  0  0  0  0
  1  2  1  0  0  0  0
  2  7  1  0  0  0  0
  2  3  2  0  0  0  0
  3  4  1  0  0  0  0
  3 16  1  0  0  0  0
  4  5  2  0  0  0  0
  5  6  1  0  0  0  0
  5 17  1  0  0  0  0
  6  7  2  0  0  0  0
  6 18  1  0  0  0  0
  7  8  1  0  0  0  0
  8  9  1  0  0  0  0
  8 19  1  0  0  0  0
  9 10  1  0  0  0  0
  9 20  1  0  0  0  0
  9 21  1  0  0  0  0
 10 15  1  0  0  0  0
 10 11  2  0  0  0  0
 11 12  1  0  0  0  0
 11 22  1  0  0  0  0
 12 13  1  0  0  0  0
 13 14  1  0  0  0  0
 13 23  1  0  0  0  0
 13 24  1  0  0  0  0
 14 15  1  0  0  0  0
 14 25  1  0  0  0  0
 14 26  1  0  0  0  0
M  END
> <s_m_source_file>
AV-unprocessed.smi

> <i_m_source_file_index>
2848

> <i_lp_mmshare_version>
43012

> <i_f3d_flags>
0

> <s_epik_input>
Q2xjMVtjSF1uW2NIXVtjSF1jMVtOSF1bQ0gyXUMyPVtDSF1PW0NIMl1bQ0gyXU8y

> <s_epik_cmdline>
J2VwaWtfcHl0aG9uJywgJy1waCcsICc3LjAnLCAnLXRuJywgJzgnLCAnLW1hJywgJzIwMCcsICctbWV0YWxfYmluZGluZycsICctaW1hZScsICc8aW5maWxlLm1hZT4nLCAnLW9tYWUnLCAnPG91dGZpbGUubWFlPic=

> <r_lp_tautomer_probability>
0.999999

> <r_epik_Ionization_Penalty>
1.20444

> <r_epik_Ionization_Penalty_Charging>
0

> <r_epik_Ionization_Penalty_Neutral>
1.20444

> <r_epik_State_Penalty>
1.27033

> <r_epik_Charging_Adjusted_Penalty>
1.27033

> <i_epik_Tot_Q>
0

> <i_epik_Tot_abs_Q>
0

> <r_epik_Metal_State_Penalty>
0.00444713

> <b_epik_Metal_Only>
0

> <s_lp_Force_Field>
OPLS_2005

> <r_lp_Energy>
2.57385

> <b_lp_Chiralities_Consistent>
1

> <s_lp_Variant>
AV-unprocessed.smi:2848-2

> <Gold.Version>
5.8.1

> <Gold.Id.Protein>
6NUR|6NUR_protein|mol2

> <Gold.PLP.Fitness>
41.5183

> <Gold.PLP.PLP>
-32.9974

> <Gold.PLP.part.hbond>
-3.0000

> <Gold.PLP.part.metal>
0.0000

> <Gold.PLP.part.buried>
-5.6317

> <Gold.PLP.part.nonpolar>
-24.2320

> <Gold.PLP.part.repulsive>
0.2582

> <Gold.PLP.ligand.clash>
0.0000

> <Gold.PLP.ligand.torsion>
0.2254

> <Gold.PLP.Chemscore.Hbond>
2.0000

> <Gold.PLP.Chemscore.CHOScore>
0.9906

> <Gold.PLP.Chemscore.Metal>
0.0000

> <Gold.Chemscore.Hbonds>
donor molecule, donor type, donor heavy atom, donor atom, acceptor molecule, acceptor atom, score
      P1  H  6896  6908       L1    12  1.00
      P1  H  7997  8008       L1    15  1.00
      L1  C     5    17       P1  8028  0.87

> <Gold.PLP.Chemscore.Internal.Correction>
0.0000

> <Gold.Rescore>
     Score         DG    S(hbond)    S(metal)    S(lipo)     H(rot)  DE(clash)    DE(int)     intcor
     19.40     -19.83       1.92        0.00      94.04       1.19       0.00       0.42       ----

> <Gold.Chemscore.Fitness>
19.4043

> <Gold.Chemscore.DG>
-19.8256

> <Gold.Chemscore.ZeroCoef>
-5.4800

> <Gold.Chemscore.Hbond>
1.9158

> <Gold.Chemscore.Metal>
0.0000

> <Gold.Chemscore.Lipo>
94.0383

> <Gold.Chemscore.Internal_Hbond>
0.0000

> <Gold.Chemscore.DEClash>
0.0000

> <Gold.Chemscore.DEInternal>
0.4213

> <Gold.Chemscore.Rot>
1.1937

> <Gold.Chemscore.Internal.Correction>
   9.000000E+99

> <Gold.Chemscore.Hbonds>
donor molecule, donor type, donor heavy atom, donor atom, acceptor molecule, acceptor atom, score
      P1  H  6896  6908       L1    12  0.68
      P1  H  7997  8008       L1    15  0.74

> <Gold.Chemscore.Hbond.Weighted>
-6.3989

> <Gold.Chemscore.Metal.Weighted>
-0.0000

> <Gold.Chemscore.Lipo.Weighted>
-11.0025

> <Gold.Chemscore.Internal_Hbond.Weighted>
0.0000

> <Gold.Chemscore.DEClash.Weighted>
0.0000

> <Gold.Chemscore.DEInternal.Weighted>
0.4213

> <Gold.Chemscore.Rot.Weighted>
3.0558

> <Gold.Chemscore.Internal.Correction.Weighted>
   9.000000E+99

> <Gold.Protein.RotatedTorsions>
[ 6907 6896 6895 6894 ] final -106.00 input  -60.11 | X-H torsion
[ 7974 7965 7964 7962 ] final  -44.81 input  175.53 | X-H torsion
[ 8008 7997 7996 7995 ] final -108.13 input   59.86 | X-H torsion
[ 10167 10162 10161 10158 ] final  -33.32 input  -65.29 | X-H torsion
[ 10718 10713 10712 10709 ] final   71.50 input   66.30 | X-H torsion
[ 10763 10752 10751 10750 ] final -177.33 input  -60.55 | X-H torsion
[ 11005 11000 10999 10996 ] final  162.78 input  -57.11 | X-H torsion

> <Gold.Protein.ActiveResidues>
 VAL166  LYS551  ARG553  GLY616  TRP617  ASP618  TYR619  PRO620  LYS621  CYS622 
 ASP623  PHE694  ASN695  SER759  ASP760  ASP761  ALA762  ILE779  LEU786  VAL792 
 PHE793  MET794  SER795  GLU796  ALA797  LYS798  CYS799  TRP800  GLU811  SER814 

> <Gold.Protein.RotatedAtoms>
  150.7366  134.0041  159.3647 H   0  0  0  0  0  0  0  0  0  0  0  0  # atno 6907 bound_to 6896
  151.7997  135.0710  160.0408 H   0  0  0  0  0  0  0  0  0  0  0  0  # atno 6908 bound_to 6896
  152.3149  133.5756  159.5742 H   0  0  0  0  0  0  0  0  0  0  0  0  # atno 6909 bound_to 6896
  145.9883  140.7209  142.9329 H   0  0  0  0  0  0  0  0  0  0  0  0  # atno 7974 bound_to 7965
  154.9396  140.0403  157.2090 H   0  0  0  0  0  0  0  0  0  0  0  0  # atno 8008 bound_to 7997
  154.8081  140.2863  155.5851 H   0  0  0  0  0  0  0  0  0  0  0  0  # atno 8009 bound_to 7997
  156.2968  140.2542  156.2964 H   0  0  0  0  0  0  0  0  0  0  0  0  # atno 8010 bound_to 7997
  140.7206  143.3629  151.1927 H   0  0  0  0  0  0  0  0  0  0  0  0  # atno 10167 bound_to 10162
  157.6455  130.9531  150.0798 H   0  0  0  0  0  0  0  0  0  0  0  0  # atno 10718 bound_to 10713
  154.5615  135.2820  155.0915 H   0  0  0  0  0  0  0  0  0  0  0  0  # atno 10763 bound_to 10752
  154.2322  135.6372  153.5183 H   0  0  0  0  0  0  0  0  0  0  0  0  # atno 10764 bound_to 10752
  153.0030  135.5540  154.6210 H   0  0  0  0  0  0  0  0  0  0  0  0  # atno 10765 bound_to 10752
  140.2292  134.8137  157.3299 H   0  0  0  0  0  0  0  0  0  0  0  0  # atno 11005 bound_to 11000
  144.6881  140.3026  143.7261 LP  0  0  0  0  0  0  0  0  0  0  0  0  # atno 17320 bound_to 7965
  145.7668  139.1843  143.2235 LP  0  0  0  0  0  0  0  0  0  0  0  0  # atno 17321 bound_to 7965
  139.7185  143.9262  152.2976 LP  0  0  0  0  0  0  0  0  0  0  0  0  # atno 17342 bound_to 10162
  139.9011  144.6911  150.8665 LP  0  0  0  0  0  0  0  0  0  0  0  0  # atno 17343 bound_to 10162
  156.1777  130.3649  149.9077 LP  0  0  0  0  0  0  0  0  0  0  0  0  # atno 17370 bound_to 10713
  156.7037  130.8943  151.3602 LP  0  0  0  0  0  0  0  0  0  0  0  0  # atno 17371 bound_to 10713
  140.1769  134.4539  155.7796 LP  0  0  0  0  0  0  0  0  0  0  0  0  # atno 17394 bound_to 11000
  141.2219  133.6966  156.7802 LP  0  0  0  0  0  0  0  0  0  0  0  0  # atno 17395 bound_to 11000

$$$$
