AV-unprocessed.smi:1616|AV-procd|sdf|6483|dock3
  -GOLD-   22720 7143D 1   1.00000     0.00000
 Structure written by MMmdl.
 38 39  0  0  0  0  0  0  0  0  1 V2000
  146.8083  139.1535  154.6421 C   0  0  0  0  0  0  0  0  0  0  0  0
  148.1592  138.4930  154.7003 C   0  0  0  0  0  0  0  0  0  0  0  0
  148.1720  137.2025  154.7718 N   0  0  0  0  0  0  0  0  0  0  0  0
  149.3583  136.4973  154.8364 N   0  0  0  0  0  0  0  0  0  0  0  0
  149.1860  135.0404  154.9348 C   0  0  0  0  0  0  0  0  0  0  0  0
  147.7453  134.5805  154.6678 C   0  0  0  0  0  0  0  0  0  0  0  0
  147.1198  133.9436  155.5166 O   0  0  0  0  0  0  0  0  0  0  0  0
  147.2261  134.9346  153.4821 N   0  0  0  0  0  0  0  0  0  0  0  0
  145.8839  134.6083  153.0102 C   0  0  1  0  0  0  0  0  0  0  0  0
  144.8376  135.2846  153.9101 C   0  0  0  0  0  0  0  0  0  0  0  0
  145.6736  134.9877  151.5565 C   0  0  0  0  0  0  0  0  0  0  0  0
  145.2259  136.3773  151.1702 C   0  0  0  0  0  0  0  0  0  0  0  0
  144.2869  135.2039  151.0001 C   0  0  0  0  0  0  0  0  0  0  0  0
  150.5997  137.0631  154.8234 C   0  0  0  0  0  0  0  0  0  0  0  0
  151.6329  136.3941  154.8784 O   0  0  0  0  0  0  0  0  0  0  0  0
  150.5775  138.5250  154.7401 C   0  0  0  0  0  0  0  0  0  0  0  0
  151.8569  139.1578  154.7289 C   0  0  0  0  0  0  0  0  0  0  0  0
  152.9031  139.6532  154.7136 N   0  0  0  0  0  0  0  0  0  0  0  0
  149.4193  139.2287  154.6793 C   0  0  0  0  0  0  0  0  0  0  0  0
  149.3419  140.7470  154.5933 C   0  0  0  0  0  0  0  0  0  0  0  0
  146.6855  139.7012  153.7076 H   0  0  0  0  0  0  0  0  0  0  0  0
  146.6854  139.8568  155.4659 H   0  0  0  0  0  0  0  0  0  0  0  0
  145.9970  138.4268  154.7072 H   0  0  0  0  0  0  0  0  0  0  0  0
  149.8380  134.5341  154.2209 H   0  0  0  0  0  0  0  0  0  0  0  0
  149.5061  134.6935  155.9192 H   0  0  0  0  0  0  0  0  0  0  0  0
  147.8114  135.4618  152.8505 H   0  0  0  0  0  0  0  0  0  0  0  0
  145.7427  133.5283  153.0844 H   0  0  0  0  0  0  0  0  0  0  0  0
  143.8257  135.0289  153.5942 H   0  0  0  0  0  0  0  0  0  0  0  0
  144.9305  136.3708  153.8795 H   0  0  0  0  0  0  0  0  0  0  0  0
  144.9439  134.9701  154.9488 H   0  0  0  0  0  0  0  0  0  0  0  0
  146.3876  134.5225  150.8791 H   0  0  0  0  0  0  0  0  0  0  0  0
  145.0081  137.0818  151.9705 H   0  0  0  0  0  0  0  0  0  0  0  0
  145.6562  136.8118  150.2704 H   0  0  0  0  0  0  0  0  0  0  0  0
  144.0928  134.8559  149.9876 H   0  0  0  0  0  0  0  0  0  0  0  0
  143.4466  135.1290  151.6878 H   0  0  0  0  0  0  0  0  0  0  0  0
  150.3269  141.2070  154.5195 H   0  0  0  0  0  0  0  0  0  0  0  0
  148.8540  141.1539  155.4793 H   0  0  0  0  0  0  0  0  0  0  0  0
  148.7735  141.0547  153.7152 H   0  0  0  0  0  0  0  0  0  0  0  0
  1  2  1  0  0  0  0
  1 21  1  0  0  0  0
  1 22  1  0  0  0  0
  1 23  1  0  0  0  0
  2 19  1  0  0  0  0
  2  3  2  0  0  0  0
  3  4  1  0  0  0  0
  4  5  1  0  0  0  0
  4 14  1  0  0  0  0
  5  6  1  0  0  0  0
  5 24  1  0  0  0  0
  5 25  1  0  0  0  0
  6  7  2  0  0  0  0
  6  8  1  0  0  0  0
  8  9  1  0  0  0  0
  8 26  1  0  0  0  0
  9 10  1  0  0  0  0
  9 11  1  0  0  0  0
  9 27  1  0  0  0  0
 10 28  1  0  0  0  0
 10 29  1  0  0  0  0
 10 30  1  0  0  0  0
 11 13  1  0  0  0  0
 11 12  1  0  0  0  0
 11 31  1  0  0  0  0
 12 13  1  0  0  0  0
 12 32  1  0  0  0  0
 12 33  1  0  0  0  0
 13 34  1  0  0  0  0
 13 35  1  0  0  0  0
 14 15  2  0  0  0  0
 14 16  1  0  0  0  0
 16 17  1  0  0  0  0
 16 19  2  0  0  0  0
 17 18  3  0  0  0  0
 19 20  1  0  0  0  0
 20 36  1  0  0  0  0
 20 37  1  0  0  0  0
 20 38  1  0  0  0  0
M  END
> <s_m_source_file>
AV-unprocessed.smi

> <i_m_source_file_index>
1616

> <i_lp_mmshare_version>
43012

> <i_f3d_flags>
0

> <s_epik_input>
TiNDYyhjMVtDSDNdKWMoPU8pbihuYzFbQ0gzXSlbQ0gyXUMoPU8pW05IXVtDQEhdKFtDSDNdKVtDSF0yW0NIMl1bQ0gyXTI=

> <s_epik_cmdline>
J2VwaWtfcHl0aG9uJywgJy1waCcsICc3LjAnLCAnLXRuJywgJzgnLCAnLW1hJywgJzIwMCcsICctbWV0YWxfYmluZGluZycsICctaW1hZScsICc8aW5maWxlLm1hZT4nLCAnLW9tYWUnLCAnPG91dGZpbGUubWFlPic=

> <r_lp_tautomer_probability>
1

> <r_epik_Ionization_Penalty>
1.93246e-08

> <r_epik_Ionization_Penalty_Charging>
2.27031e-11

> <r_epik_Ionization_Penalty_Neutral>
1.93019e-08

> <r_epik_State_Penalty>
-0

> <r_epik_Charging_Adjusted_Penalty>
2.27031e-11

> <i_epik_Tot_Q>
0

> <i_epik_Tot_abs_Q>
0

> <r_epik_Metal_State_Penalty>
-0

> <b_epik_Metal_Only>
0

> <s_lp_Force_Field>
OPLS_2005

> <r_lp_Energy>
27.6916

> <b_lp_Chiralities_Consistent>
1

> <s_lp_Variant>
AV-unprocessed.smi:1616-2

> <Gold.Version>
5.8.1

> <Gold.Id.Protein>
6NUR|6NUR_protein|mol2

> <Gold.PLP.Fitness>
38.7453

> <Gold.PLP.PLP>
-30.0435

> <Gold.PLP.part.hbond>
-4.0000

> <Gold.PLP.part.metal>
0.0000

> <Gold.PLP.part.buried>
-4.0750

> <Gold.PLP.part.nonpolar>
-23.7770

> <Gold.PLP.part.repulsive>
0.8006

> <Gold.PLP.ligand.clash>
0.0000

> <Gold.PLP.ligand.torsion>
0.6864

> <Gold.PLP.Chemscore.Hbond>
3.0000

> <Gold.PLP.Chemscore.CHOScore>
0.0000

> <Gold.PLP.Chemscore.Metal>
0.0000

> <Gold.Chemscore.Hbonds>
donor molecule, donor type, donor heavy atom, donor atom, acceptor molecule, acceptor atom, score
      L1  H     8    26       P1  7948  1.00
      P1  H  7997  8010       L1    18  1.00
      P1  H 10752 10763       L1    15  1.00

> <Gold.PLP.Chemscore.Internal.Correction>
1.0746

> <Gold.Rescore>
     Score         DG    S(hbond)    S(metal)    S(lipo)     H(rot)  DE(clash)    DE(int)     intcor
     16.74     -17.64       3.00        0.00      55.14       1.68       0.08       0.83       ----

> <Gold.Chemscore.Fitness>
16.7352

> <Gold.Chemscore.DG>
-17.6360

> <Gold.Chemscore.ZeroCoef>
-5.4800

> <Gold.Chemscore.Hbond>
2.9963

> <Gold.Chemscore.Metal>
0.0000

> <Gold.Chemscore.Lipo>
55.1408

> <Gold.Chemscore.Internal_Hbond>
0.0000

> <Gold.Chemscore.DEClash>
0.0754

> <Gold.Chemscore.DEInternal>
0.8254

> <Gold.Chemscore.Rot>
1.6809

> <Gold.Chemscore.Internal.Correction>
   9.000000E+99

> <Gold.Chemscore.Hbonds>
donor molecule, donor type, donor heavy atom, donor atom, acceptor molecule, acceptor atom, score
      L1  H     8    26       P1  7948  1.00
      P1  H  7997  8010       L1    18  0.94
      P1  H 10752 10763       L1    15  0.95

> <Gold.Chemscore.Hbond.Weighted>
-10.0076

> <Gold.Chemscore.Metal.Weighted>
-0.0000

> <Gold.Chemscore.Lipo.Weighted>
-6.4515

> <Gold.Chemscore.Internal_Hbond.Weighted>
0.0000

> <Gold.Chemscore.DEClash.Weighted>
0.0754

> <Gold.Chemscore.DEInternal.Weighted>
0.8254

> <Gold.Chemscore.Rot.Weighted>
4.3030

> <Gold.Chemscore.Internal.Correction.Weighted>
   9.000000E+99

> <Gold.Protein.RotatedTorsions>
[ 6907 6896 6895 6894 ] final  162.01 input  -60.11 | X-H torsion
[ 7974 7965 7964 7962 ] final  119.02 input  175.53 | X-H torsion
[ 8008 7997 7996 7995 ] final  102.96 input   59.86 | X-H torsion
[ 10167 10162 10161 10158 ] final   80.41 input  -65.29 | X-H torsion
[ 10718 10713 10712 10709 ] final   34.70 input   66.30 | X-H torsion
[ 10763 10752 10751 10750 ] final   59.93 input  -60.55 | X-H torsion
[ 11005 11000 10999 10996 ] final -101.22 input  -57.11 | X-H torsion

> <Gold.Protein.ActiveResidues>
 VAL166  LYS551  ARG553  GLY616  TRP617  ASP618  TYR619  PRO620  LYS621  CYS622 
 ASP623  PHE694  ASN695  SER759  ASP760  ASP761  ALA762  ILE779  LEU786  VAL792 
 PHE793  MET794  SER795  GLU796  ALA797  LYS798  CYS799  TRP800  GLU811  SER814 

> <Gold.Protein.RotatedAtoms>
  151.9470  133.3654  159.3985 H   0  0  0  0  0  0  0  0  0  0  0  0  # atno 6907 bound_to 6896
  150.6988  134.4380  159.5288 H   0  0  0  0  0  0  0  0  0  0  0  0  # atno 6908 bound_to 6896
  152.2047  134.8556  160.0555 H   0  0  0  0  0  0  0  0  0  0  0  0  # atno 6909 bound_to 6896
  145.1482  139.3226  143.4580 H   0  0  0  0  0  0  0  0  0  0  0  0  # atno 7974 bound_to 7965
  156.1440  140.3172  155.8541 H   0  0  0  0  0  0  0  0  0  0  0  0  # atno 8008 bound_to 7997
  155.4099  140.0505  157.3049 H   0  0  0  0  0  0  0  0  0  0  0  0  # atno 8009 bound_to 7997
  154.5001  140.2126  155.9377 H   0  0  0  0  0  0  0  0  0  0  0  0  # atno 8010 bound_to 7997
  139.9501  144.6032  150.8169 H   0  0  0  0  0  0  0  0  0  0  0  0  # atno 10167 bound_to 10162
  157.3135  130.7411  149.6740 H   0  0  0  0  0  0  0  0  0  0  0  0  # atno 10718 bound_to 10713
  152.9907  135.5554  154.5792 H   0  0  0  0  0  0  0  0  0  0  0  0  # atno 10763 bound_to 10752
  154.5177  135.2806  155.1291 H   0  0  0  0  0  0  0  0  0  0  0  0  # atno 10764 bound_to 10752
  154.2657  135.6372  153.5344 H   0  0  0  0  0  0  0  0  0  0  0  0  # atno 10765 bound_to 10752
  141.1239  133.8461  157.1204 H   0  0  0  0  0  0  0  0  0  0  0  0  # atno 11005 bound_to 11000
  146.3497  140.1545  142.8592 LP  0  0  0  0  0  0  0  0  0  0  0  0  # atno 17320 bound_to 7965
  145.0459  140.8981  143.5024 LP  0  0  0  0  0  0  0  0  0  0  0  0  # atno 17321 bound_to 7965
  140.7585  143.3109  151.2846 LP  0  0  0  0  0  0  0  0  0  0  0  0  # atno 17342 bound_to 10162
  139.6636  144.0146  152.2708 LP  0  0  0  0  0  0  0  0  0  0  0  0  # atno 17343 bound_to 10162
  155.9679  130.4244  150.4607 LP  0  0  0  0  0  0  0  0  0  0  0  0  # atno 17370 bound_to 10713
  157.2610  131.0567  151.2320 LP  0  0  0  0  0  0  0  0  0  0  0  0  # atno 17371 bound_to 10713
  140.0220  134.9941  157.0611 LP  0  0  0  0  0  0  0  0  0  0  0  0  # atno 17394 bound_to 11000
  140.4423  134.1668  155.7175 LP  0  0  0  0  0  0  0  0  0  0  0  0  # atno 17395 bound_to 11000

$$$$
