AV-unprocessed.smi:2229|AV-procd|sdf|9032|dock5
  -GOLD-   2272012233D 1   1.00000     0.00000
 Structure written by MMmdl.
 43 44  0  0  0  0  0  0  0  0  2 V2000
  151.8835  144.5218  158.0950 C   0  0  0  0  0  0  0  0  0  0  0  0
  151.6392  144.3673  159.6062 C   0  0  0  0  0  0  0  0  0  0  0  0
  151.4825  145.7446  160.2682 C   0  0  0  0  0  0  0  0  0  0  0  0
  152.7418  143.5474  160.3091 C   0  0  0  0  0  0  0  0  0  0  0  0
  152.8255  142.0899  159.8260 C   0  0  0  0  0  0  0  0  0  0  0  0
  153.8972  141.2401  160.5454 C   0  0  1  0  0  0  0  0  0  0  0  0
  153.7052  141.1543  162.0637 C   0  0  0  0  0  0  0  0  0  0  0  0
  154.5467  139.9530  162.4791 C   0  0  0  0  0  0  0  0  0  0  0  0
  154.3538  138.9424  161.3479 C   0  0  0  0  0  0  0  0  0  0  0  0
  154.0356  139.7630  160.0815 C   0  0  1  0  0  0  0  0  0  0  0  0
  152.8265  139.2483  159.4361 N   0  0  0  0  0  0  0  0  0  0  0  0
  152.7131  138.0541  158.8337 C   0  0  0  0  0  0  0  0  0  0  0  0
  153.6062  137.2066  158.8288 O   0  0  0  0  0  0  0  0  0  0  0  0
  151.3909  137.7751  158.1149 C   0  0  0  0  0  0  0  0  0  0  0  0
  151.6020  137.6177  156.6749 N   0  0  0  0  0  0  0  0  0  0  0  0
  151.2703  136.4785  155.9850 C   0  0  0  0  0  0  0  0  0  0  0  0
  151.5916  136.5874  154.7458 N   0  0  0  0  0  0  0  0  0  0  0  0
  152.1794  137.8836  154.5914 N   0  5  0  0  0  0  0  0  0  0  0  0
  152.1600  138.4664  155.8102 C   0  0  0  0  0  0  0  0  0  0  0  0
  152.5698  139.5815  156.1297 O   0  0  0  0  0  0  0  0  0  0  0  0
  152.8453  144.9941  157.8935 H   0  0  0  0  0  0  0  0  0  0  0  0
  151.1091  145.1360  157.6348 H   0  0  0  0  0  0  0  0  0  0  0  0
  151.8674  143.5602  157.5823 H   0  0  0  0  0  0  0  0  0  0  0  0
  150.6932  143.8391  159.7343 H   0  0  0  0  0  0  0  0  0  0  0  0
  152.3968  146.3324  160.1810 H   0  0  0  0  0  0  0  0  0  0  0  0
  151.2480  145.6476  161.3286 H   0  0  0  0  0  0  0  0  0  0  0  0
  150.6750  146.3133  159.8065 H   0  0  0  0  0  0  0  0  0  0  0  0
  153.7086  144.0349  160.1774 H   0  0  0  0  0  0  0  0  0  0  0  0
  152.5438  143.5511  161.3810 H   0  0  0  0  0  0  0  0  0  0  0  0
  151.8491  141.6208  159.9437 H   0  0  0  0  0  0  0  0  0  0  0  0
  153.0445  142.0923  158.7589 H   0  0  0  0  0  0  0  0  0  0  0  0
  154.8650  141.7133  160.3705 H   0  0  0  0  0  0  0  0  0  0  0  0
  154.0070  142.0663  162.5796 H   0  0  0  0  0  0  0  0  0  0  0  0
  152.6565  140.9676  162.2999 H   0  0  0  0  0  0  0  0  0  0  0  0
  155.5963  140.2447  162.5364 H   0  0  0  0  0  0  0  0  0  0  0  0
  154.2590  139.5545  163.4523 H   0  0  0  0  0  0  0  0  0  0  0  0
  155.2342  138.3124  161.2167 H   0  0  0  0  0  0  0  0  0  0  0  0
  153.5230  138.2813  161.6004 H   0  0  0  0  0  0  0  0  0  0  0  0
  154.8797  139.6882  159.3933 H   0  0  0  0  0  0  0  0  0  0  0  0
  152.0379  139.8769  159.3827 H   0  0  0  0  0  0  0  0  0  0  0  0
  150.9420  136.8734  158.5348 H   0  0  0  0  0  0  0  0  0  0  0  0
  150.6807  138.5833  158.2974 H   0  0  0  0  0  0  0  0  0  0  0  0
  150.8029  135.6388  156.5021 H   0  0  0  0  0  0  0  0  0  0  0  0
  1  2  1  0  0  0  0
  1 21  1  0  0  0  0
  1 22  1  0  0  0  0
  1 23  1  0  0  0  0
  2  3  1  0  0  0  0
  2  4  1  0  0  0  0
  2 24  1  0  0  0  0
  3 25  1  0  0  0  0
  3 26  1  0  0  0  0
  3 27  1  0  0  0  0
  4  5  1  0  0  0  0
  4 28  1  0  0  0  0
  4 29  1  0  0  0  0
  5  6  1  0  0  0  0
  5 30  1  0  0  0  0
  5 31  1  0  0  0  0
  6 10  1  0  0  0  0
  6  7  1  0  0  0  0
  6 32  1  0  0  0  0
  7  8  1  0  0  0  0
  7 33  1  0  0  0  0
  7 34  1  0  0  0  0
  8  9  1  0  0  0  0
  8 35  1  0  0  0  0
  8 36  1  0  0  0  0
  9 10  1  0  0  0  0
  9 37  1  0  0  0  0
  9 38  1  0  0  0  0
 10 11  1  0  0  0  0
 10 39  1  0  0  0  0
 11 12  1  0  0  0  0
 11 40  1  0  0  0  0
 12 13  2  0  0  0  0
 12 14  1  0  0  0  0
 14 15  1  0  0  0  0
 14 41  1  0  0  0  0
 14 42  1  0  0  0  0
 15 19  1  0  0  0  0
 15 16  1  0  0  0  0
 16 17  2  0  0  0  0
 16 43  1  0  0  0  0
 17 18  1  0  0  0  0
 18 19  1  0  0  0  0
 19 20  2  0  0  0  0
M  CHG  1  18  -1
M  END
> <s_m_source_file>
AV-unprocessed.smi

> <i_m_source_file_index>
2229

> <i_lp_mmshare_version>
43012

> <i_f3d_flags>
0

> <s_epik_input>
W0NIM11bQ0hdKFtDSDNdKVtDSDJdW0NIMl1bQ0BASF0xW0NIMl1bQ0gyXVtDSDJdW0NASF0xW05IXUMoPU8pW0NIMl1uMltjSF1uW25IXWMyPU8=

> <s_epik_cmdline>
J2VwaWtfcHl0aG9uJywgJy1waCcsICc3LjAnLCAnLXRuJywgJzgnLCAnLW1hJywgJzIwMCcsICctbWV0YWxfYmluZGluZycsICctaW1hZScsICc8aW5maWxlLm1hZT4nLCAnLW9tYWUnLCAnPG91dGZpbGUubWFlPic=

> <r_lp_tautomer_probability>
1

> <r_epik_Ionization_Penalty>
13.6733

> <r_epik_Ionization_Penalty_Charging>
13.6725

> <r_epik_Ionization_Penalty_Neutral>
0.000837689

> <r_epik_State_Penalty>
5.67062

> <r_epik_Charging_Adjusted_Penalty>
19.3431

> <i_epik_Tot_Q>
-1

> <i_epik_Tot_abs_Q>
1

> <r_epik_Metal_State_Penalty>
1.61781

> <b_epik_Metal_Only>
1

> <s_lp_Force_Field>
OPLS_2005

> <r_lp_Energy>
25.9104

> <b_lp_Chiralities_Consistent>
1

> <s_lp_Variant>
AV-unprocessed.smi:2229-6

> <Gold.Version>
5.8.1

> <Gold.Id.Protein>
6NUR|6NUR_protein|mol2

> <Gold.PLP.Fitness>
47.3809

> <Gold.PLP.PLP>
-41.5019

> <Gold.PLP.part.hbond>
-2.6146

> <Gold.PLP.part.metal>
0.0000

> <Gold.PLP.part.buried>
-4.7010

> <Gold.PLP.part.nonpolar>
-34.3693

> <Gold.PLP.part.repulsive>
0.3411

> <Gold.PLP.ligand.clash>
0.0000

> <Gold.PLP.ligand.torsion>
0.0919

> <Gold.PLP.Chemscore.Hbond>
2.0000

> <Gold.PLP.Chemscore.CHOScore>
0.0000

> <Gold.PLP.Chemscore.Metal>
0.0000

> <Gold.Chemscore.Hbonds>
donor molecule, donor type, donor heavy atom, donor atom, acceptor molecule, acceptor atom, score
      P1  H  7997  8010       L1    20  1.00
      P1  H 10752 10764       L1    17  1.00

> <Gold.PLP.Chemscore.Internal.Correction>
0.0628

> <Gold.Rescore>
     Score         DG    S(hbond)    S(metal)    S(lipo)     H(rot)  DE(clash)    DE(int)     intcor
     16.32     -16.67       1.60        0.00     106.61       2.59       0.21       0.14       ----

> <Gold.Chemscore.Fitness>
16.3231

> <Gold.Chemscore.DG>
-16.6722

> <Gold.Chemscore.ZeroCoef>
-5.4800

> <Gold.Chemscore.Hbond>
1.6046

> <Gold.Chemscore.Metal>
0.0000

> <Gold.Chemscore.Lipo>
106.6103

> <Gold.Chemscore.Internal_Hbond>
0.0000

> <Gold.Chemscore.DEClash>
0.2120

> <Gold.Chemscore.DEInternal>
0.1370

> <Gold.Chemscore.Rot>
2.5939

> <Gold.Chemscore.Internal.Correction>
   9.000000E+99

> <Gold.Chemscore.Hbonds>
donor molecule, donor type, donor heavy atom, donor atom, acceptor molecule, acceptor atom, score
      P1  H  7997  8010       L1    20  1.00
      P1  H 10752 10764       L1    17  0.18

> <Gold.Chemscore.Hbond.Weighted>
-5.3593

> <Gold.Chemscore.Metal.Weighted>
-0.0000

> <Gold.Chemscore.Lipo.Weighted>
-12.4734

> <Gold.Chemscore.Internal_Hbond.Weighted>
0.0000

> <Gold.Chemscore.DEClash.Weighted>
0.2120

> <Gold.Chemscore.DEInternal.Weighted>
0.1370

> <Gold.Chemscore.Rot.Weighted>
6.6405

> <Gold.Chemscore.Internal.Correction.Weighted>
   9.000000E+99

> <Gold.Protein.RotatedTorsions>
[ 6907 6896 6895 6894 ] final  152.26 input  -60.11 | X-H torsion
[ 7974 7965 7964 7962 ] final    6.98 input  175.53 | X-H torsion
[ 8008 7997 7996 7995 ] final   84.83 input   59.86 | X-H torsion
[ 10167 10162 10161 10158 ] final  143.85 input  -65.29 | X-H torsion
[ 10718 10713 10712 10709 ] final  103.49 input   66.30 | X-H torsion
[ 10763 10752 10751 10750 ] final  -68.67 input  -60.55 | X-H torsion
[ 11005 11000 10999 10996 ] final   13.93 input  -57.11 | X-H torsion

> <Gold.Protein.ActiveResidues>
 VAL166  LYS551  ARG553  GLY616  TRP617  ASP618  TYR619  PRO620  LYS621  CYS622 
 ASP623  PHE694  ASN695  SER759  ASP760  ASP761  ALA762  ILE779  LEU786  VAL792 
 PHE793  MET794  SER795  GLU796  ALA797  LYS798  CYS799  TRP800  GLU811  SER814 

> <Gold.Protein.RotatedAtoms>
  152.0893  133.4192  159.4536 H   0  0  0  0  0  0  0  0  0  0  0  0  # atno 6907 bound_to 6896
  150.6862  134.2891  159.4668 H   0  0  0  0  0  0  0  0  0  0  0  0  # atno 6908 bound_to 6896
  152.0740  134.9514  160.0625 H   0  0  0  0  0  0  0  0  0  0  0  0  # atno 6909 bound_to 6896
  146.2430  140.0151  142.8403 H   0  0  0  0  0  0  0  0  0  0  0  0  # atno 7974 bound_to 7965
  155.9422  140.3407  155.6336 H   0  0  0  0  0  0  0  0  0  0  0  0  # atno 8008 bound_to 7997
  155.7026  140.0762  157.2422 H   0  0  0  0  0  0  0  0  0  0  0  0  # atno 8009 bound_to 7997
  154.4105  140.1637  156.2195 H   0  0  0  0  0  0  0  0  0  0  0  0  # atno 8010 bound_to 7997
  139.4960  144.6012  151.6476 H   0  0  0  0  0  0  0  0  0  0  0  0  # atno 10167 bound_to 10162
  157.6770  131.0780  150.5564 H   0  0  0  0  0  0  0  0  0  0  0  0  # atno 10718 bound_to 10713
  154.3924  135.6049  153.5850 H   0  0  0  0  0  0  0  0  0  0  0  0  # atno 10763 bound_to 10752
  152.9787  135.5887  154.4282 H   0  0  0  0  0  0  0  0  0  0  0  0  # atno 10764 bound_to 10752
  154.4068  135.2843  155.2040 H   0  0  0  0  0  0  0  0  0  0  0  0  # atno 10765 bound_to 10752
  140.4752  134.0990  155.7740 H   0  0  0  0  0  0  0  0  0  0  0  0  # atno 11005 bound_to 11000
  145.1292  140.9508  143.4554 LP  0  0  0  0  0  0  0  0  0  0  0  0  # atno 17320 bound_to 7965
  145.0405  139.3264  143.5979 LP  0  0  0  0  0  0  0  0  0  0  0  0  # atno 17321 bound_to 7965
  140.5662  144.0185  150.6194 LP  0  0  0  0  0  0  0  0  0  0  0  0  # atno 17342 bound_to 10162
  140.3288  143.3091  152.0709 LP  0  0  0  0  0  0  0  0  0  0  0  0  # atno 17343 bound_to 10162
  156.5867  130.4318  149.5954 LP  0  0  0  0  0  0  0  0  0  0  0  0  # atno 17370 bound_to 10713
  156.2616  130.6966  151.1736 LP  0  0  0  0  0  0  0  0  0  0  0  0  # atno 17371 bound_to 10713
  141.1558  133.8886  157.1982 LP  0  0  0  0  0  0  0  0  0  0  0  0  # atno 17394 bound_to 11000
  139.9860  135.0082  156.9864 LP  0  0  0  0  0  0  0  0  0  0  0  0  # atno 17395 bound_to 11000

$$$$
