AV-unprocessed.smi:1756|AV-procd|sdf|7072|dock10
  -GOLD-   22720 8293D 1   1.00000     0.00000
 Structure written by MMmdl.
 38 39  0  0  0  0  0  0  0  0  1 V2000
  143.7851  136.8110  155.3018 O   0  0  0  0  0  0  0  0  0  0  0  0
  143.1627  135.7546  155.4057 C   0  0  0  0  0  0  0  0  0  0  0  0
  142.5771  135.3544  156.5432 N   0  0  0  0  0  0  0  0  0  0  0  0
  142.5709  136.0960  157.8009 C   0  0  0  0  0  0  0  0  0  0  0  0
  142.9478  135.2102  159.0026 C   0  0  1  0  0  0  0  0  0  0  0  0
  143.0088  135.9790  160.3402 C   0  0  0  0  0  0  0  0  0  0  0  0
  143.2788  135.0212  161.5060 C   0  0  0  0  0  0  0  0  0  0  0  0
  142.2611  133.8767  161.4829 C   0  0  0  0  0  0  0  0  0  0  0  0
  142.2410  133.2118  160.0983 C   0  0  0  0  0  0  0  0  0  0  0  0
  141.9607  134.1854  159.0973 O   0  0  0  0  0  0  0  0  0  0  0  0
  142.9884  134.8419  154.4320 N   0  0  0  0  0  0  0  0  0  0  0  0
  143.4199  134.8682  153.0947 C   0  0  0  0  0  0  0  0  0  0  0  0
  143.9099  133.8001  152.4119 C   0  0  0  0  0  0  0  0  0  0  0  0
  144.3475  133.9022  151.0296 C   0  0  0  0  0  0  0  0  0  0  0  0
  144.8135  132.6830  150.2494 C   0  0  0  0  0  0  0  0  0  0  0  0
  144.1212  132.5395  149.1186 F   0  0  0  0  0  0  0  0  0  0  0  0
  146.1012  132.8126  149.9337 F   0  0  0  0  0  0  0  0  0  0  0  0
  144.6732  131.5706  150.9704 F   0  0  0  0  0  0  0  0  0  0  0  0
  144.2367  135.1130  150.4529 C   0  0  0  0  0  0  0  0  0  0  0  0
  143.7564  136.2209  151.1541 N   0  0  0  0  0  0  0  0  0  0  0  0
  143.3392  136.1843  152.4396 C   0  0  0  0  0  0  0  0  0  0  0  0
  142.9266  137.2062  152.9871 O   0  0  0  0  0  0  0  0  0  0  0  0
  143.7203  137.0988  150.6561 H   0  0  0  0  0  0  0  0  0  0  0  0
  142.0944  134.4678  156.5400 H   0  0  0  0  0  0  0  0  0  0  0  0
  143.2242  136.9687  157.7504 H   0  0  0  0  0  0  0  0  0  0  0  0
  141.5618  136.4836  157.9424 H   0  0  0  0  0  0  0  0  0  0  0  0
  143.9152  134.7451  158.8039 H   0  0  0  0  0  0  0  0  0  0  0  0
  143.7861  136.7424  160.3112 H   0  0  0  0  0  0  0  0  0  0  0  0
  142.0651  136.5002  160.5070 H   0  0  0  0  0  0  0  0  0  0  0  0
  144.2884  134.6171  161.4225 H   0  0  0  0  0  0  0  0  0  0  0  0
  143.2311  135.5543  162.4557 H   0  0  0  0  0  0  0  0  0  0  0  0
  142.5001  133.1422  162.2524 H   0  0  0  0  0  0  0  0  0  0  0  0
  141.2681  134.2633  161.7157 H   0  0  0  0  0  0  0  0  0  0  0  0
  143.1918  132.7200  159.8876 H   0  0  0  0  0  0  0  0  0  0  0  0
  141.4706  132.4413  160.0642 H   0  0  0  0  0  0  0  0  0  0  0  0
  142.5052  133.9958  154.6966 H   0  0  0  0  0  0  0  0  0  0  0  0
  144.0092  132.8363  152.8828 H   0  0  0  0  0  0  0  0  0  0  0  0
  144.4963  135.3236  149.4256 H   0  0  0  0  0  0  0  0  0  0  0  0
  1  2  2  0  0  0  0
  2  3  1  0  0  0  0
  2 11  1  0  0  0  0
  3  4  1  0  0  0  0
  3 24  1  0  0  0  0
  4  5  1  0  0  0  0
  4 25  1  0  0  0  0
  4 26  1  0  0  0  0
  5 10  1  0  0  0  0
  5  6  1  0  0  0  0
  5 27  1  0  0  0  0
  6  7  1  0  0  0  0
  6 28  1  0  0  0  0
  6 29  1  0  0  0  0
  7  8  1  0  0  0  0
  7 30  1  0  0  0  0
  7 31  1  0  0  0  0
  8  9  1  0  0  0  0
  8 32  1  0  0  0  0
  8 33  1  0  0  0  0
  9 10  1  0  0  0  0
  9 34  1  0  0  0  0
  9 35  1  0  0  0  0
 11 12  1  0  0  0  0
 11 36  1  0  0  0  0
 12 21  1  0  0  0  0
 12 13  2  0  0  0  0
 13 14  1  0  0  0  0
 13 37  1  0  0  0  0
 14 15  1  0  0  0  0
 14 19  2  0  0  0  0
 15 16  1  0  0  0  0
 15 17  1  0  0  0  0
 15 18  1  0  0  0  0
 19 20  1  0  0  0  0
 19 38  1  0  0  0  0
 20 23  1  0  0  0  0
 20 21  1  0  0  0  0
 21 22  2  0  0  0  0
M  END
> <s_m_source_file>
AV-unprocessed.smi

> <i_m_source_file_index>
1756

> <i_lp_mmshare_version>
43012

> <i_f3d_flags>
0

> <s_epik_input>
Tz1jMVtuSF1bY0hdYyhDKEYpKEYpRilbY0hdYzFbTkhdQyg9TylbTkhdW0NIMl1bQ0BASF0yW0NIMl1bQ0gyXVtDSDJdW0NIMl1PMg==

> <s_epik_cmdline>
J2VwaWtfcHl0aG9uJywgJy1waCcsICc3LjAnLCAnLXRuJywgJzgnLCAnLW1hJywgJzIwMCcsICctbWV0YWxfYmluZGluZycsICctaW1hZScsICc8aW5maWxlLm1hZT4nLCAnLW9tYWUnLCAnPG91dGZpbGUubWFlPic=

> <r_lp_tautomer_probability>
1

> <r_epik_Ionization_Penalty>
0.00380944

> <r_epik_Ionization_Penalty_Charging>
0.00379057

> <r_epik_Ionization_Penalty_Neutral>
1.88732e-05

> <r_epik_State_Penalty>
-0

> <r_epik_Charging_Adjusted_Penalty>
0.00379057

> <i_epik_Tot_Q>
0

> <i_epik_Tot_abs_Q>
0

> <r_epik_Metal_State_Penalty>
0.371099

> <b_epik_Metal_Only>
0

> <s_lp_Force_Field>
OPLS_2005

> <r_lp_Energy>
19.4394

> <b_lp_Chiralities_Consistent>
1

> <s_lp_Variant>
AV-unprocessed.smi:1756-2

> <Gold.Version>
5.8.1

> <Gold.Id.Protein>
6NUR|6NUR_protein|mol2

> <Gold.PLP.Fitness>
42.0854

> <Gold.PLP.PLP>
-32.9843

> <Gold.PLP.part.hbond>
-3.8708

> <Gold.PLP.part.metal>
0.0000

> <Gold.PLP.part.buried>
-5.7791

> <Gold.PLP.part.nonpolar>
-24.2955

> <Gold.PLP.part.repulsive>
0.2080

> <Gold.PLP.ligand.clash>
0.0000

> <Gold.PLP.ligand.torsion>
0.5108

> <Gold.PLP.Chemscore.Hbond>
2.3619

> <Gold.PLP.Chemscore.CHOScore>
1.0000

> <Gold.PLP.Chemscore.Metal>
0.0000

> <Gold.Chemscore.Hbonds>
donor molecule, donor type, donor heavy atom, donor atom, acceptor molecule, acceptor atom, score
      L1  H    11    36       P1 10957  0.45
      L1  H    20    23       P1 10171  1.00
      P1  H 11000 11005       L1    10  1.00
      L1  C    19    38       P1  7921  1.00

> <Gold.PLP.Chemscore.Internal.Correction>
0.0368

> <Gold.Rescore>
     Score         DG    S(hbond)    S(metal)    S(lipo)     H(rot)  DE(clash)    DE(int)     intcor
     14.98     -16.03       2.43        0.00      50.13       1.33       0.26       0.80       ----

> <Gold.Chemscore.Fitness>
14.9767

> <Gold.Chemscore.DG>
-16.0325

> <Gold.Chemscore.ZeroCoef>
-5.4800

> <Gold.Chemscore.Hbond>
2.4260

> <Gold.Chemscore.Metal>
0.0000

> <Gold.Chemscore.Lipo>
50.1332

> <Gold.Chemscore.Internal_Hbond>
0.0000

> <Gold.Chemscore.DEClash>
0.2561

> <Gold.Chemscore.DEInternal>
0.7996

> <Gold.Chemscore.Rot>
1.3344

> <Gold.Chemscore.Internal.Correction>
   9.000000E+99

> <Gold.Chemscore.Hbonds>
donor molecule, donor type, donor heavy atom, donor atom, acceptor molecule, acceptor atom, score
      L1  H    11    36       P1 10957  0.44
      L1  H    20    23       P1 10171  1.00
      P1  H 11000 11005       L1    10  0.70

> <Gold.Chemscore.Hbond.Weighted>
-8.1028

> <Gold.Chemscore.Metal.Weighted>
-0.0000

> <Gold.Chemscore.Lipo.Weighted>
-5.8656

> <Gold.Chemscore.Internal_Hbond.Weighted>
0.0000

> <Gold.Chemscore.DEClash.Weighted>
0.2561

> <Gold.Chemscore.DEInternal.Weighted>
0.7996

> <Gold.Chemscore.Rot.Weighted>
3.4160

> <Gold.Chemscore.Internal.Correction.Weighted>
   9.000000E+99

> <Gold.Protein.RotatedTorsions>
[ 6907 6896 6895 6894 ] final   -2.97 input  -60.11 | X-H torsion
[ 7974 7965 7964 7962 ] final  115.76 input  175.53 | X-H torsion
[ 8008 7997 7996 7995 ] final  169.86 input   59.86 | X-H torsion
[ 10167 10162 10161 10158 ] final  173.63 input  -65.29 | X-H torsion
[ 10718 10713 10712 10709 ] final  164.09 input   66.30 | X-H torsion
[ 10763 10752 10751 10750 ] final   12.90 input  -60.55 | X-H torsion
[ 11005 11000 10999 10996 ] final -140.09 input  -57.11 | X-H torsion

> <Gold.Protein.ActiveResidues>
 VAL166  LYS551  ARG553  GLY616  TRP617  ASP618  TYR619  PRO620  LYS621  CYS622 
 ASP623  PHE694  ASN695  SER759  ASP760  ASP761  ALA762  ILE779  LEU786  VAL792 
 PHE793  MET794  SER795  GLU796  ALA797  LYS798  CYS799  TRP800  GLU811  SER814 

> <Gold.Protein.RotatedAtoms>
  151.5213  135.1067  159.9878 H   0  0  0  0  0  0  0  0  0  0  0  0  # atno 6907 bound_to 6896
  152.4619  133.7836  159.6874 H   0  0  0  0  0  0  0  0  0  0  0  0  # atno 6908 bound_to 6896
  150.8585  133.7615  159.3026 H   0  0  0  0  0  0  0  0  0  0  0  0  # atno 6909 bound_to 6896
  145.1880  139.3015  143.4383 H   0  0  0  0  0  0  0  0  0  0  0  0  # atno 7974 bound_to 7965
  156.1419  140.1553  156.8907 H   0  0  0  0  0  0  0  0  0  0  0  0  # atno 8008 bound_to 7997
  154.4995  140.0829  156.7805 H   0  0  0  0  0  0  0  0  0  0  0  0  # atno 8009 bound_to 7997
  155.4062  140.3416  155.4262 H   0  0  0  0  0  0  0  0  0  0  0  0  # atno 8010 bound_to 7997
  139.5115  144.3238  152.0177 H   0  0  0  0  0  0  0  0  0  0  0  0  # atno 10167 bound_to 10162
  157.0993  131.0438  151.2504 H   0  0  0  0  0  0  0  0  0  0  0  0  # atno 10718 bound_to 10713
  153.1775  135.6822  153.8523 H   0  0  0  0  0  0  0  0  0  0  0  0  # atno 10763 bound_to 10752
  153.7866  135.3175  155.3374 H   0  0  0  0  0  0  0  0  0  0  0  0  # atno 10764 bound_to 10752
  154.8038  135.4761  154.0436 H   0  0  0  0  0  0  0  0  0  0  0  0  # atno 10765 bound_to 10752
  140.8456  134.2348  157.4787 H   0  0  0  0  0  0  0  0  0  0  0  0  # atno 11005 bound_to 11000
  146.3441  140.2083  142.8590 LP  0  0  0  0  0  0  0  0  0  0  0  0  # atno 17320 bound_to 7965
  145.0069  140.8681  143.5247 LP  0  0  0  0  0  0  0  0  0  0  0  0  # atno 17321 bound_to 7965
  140.2680  144.3995  150.6161 LP  0  0  0  0  0  0  0  0  0  0  0  0  # atno 17342 bound_to 10162
  140.6109  143.2169  151.6887 LP  0  0  0  0  0  0  0  0  0  0  0  0  # atno 17343 bound_to 10162
  157.4654  130.7678  149.7274 LP  0  0  0  0  0  0  0  0  0  0  0  0  # atno 17370 bound_to 10713
  155.9878  130.3964  150.3149 LP  0  0  0  0  0  0  0  0  0  0  0  0  # atno 17371 bound_to 10713
  139.8703  134.9658  156.4540 LP  0  0  0  0  0  0  0  0  0  0  0  0  # atno 17394 bound_to 11000
  140.8847  133.7892  155.9505 LP  0  0  0  0  0  0  0  0  0  0  0  0  # atno 17395 bound_to 11000

$$$$
