AV-unprocessed.smi:1533|AV-procd|sdf|6163|dock2
  -GOLD-   22720 6313D 1   1.00000     0.00000
 Structure written by MMmdl.
 37 39  0  0  0  0  0  0  0  0  1 V2000
  146.2955  143.1117  154.5697 C   0  0  0  0  0  0  0  0  0  0  0  0
  147.6076  142.4439  154.3395 C   0  0  0  0  0  0  0  0  0  0  0  0
  148.5687  143.0427  153.6470 N   0  0  0  0  0  0  0  0  0  0  0  0
  149.6126  142.1069  153.6680 O   0  0  0  0  0  0  0  0  0  0  0  0
  149.1439  141.0457  154.3689 C   0  0  0  0  0  0  0  0  0  0  0  0
  150.0559  139.8908  154.6309 C   0  0  0  0  0  0  0  0  0  0  0  0
  151.3542  140.2714  155.3681 C   0  0  0  0  0  0  0  0  0  0  0  0
  151.1064  141.0718  156.5653 N   0  0  0  0  0  0  0  0  0  0  0  0
  151.7849  140.9804  157.7202 C   0  0  0  0  0  0  0  0  0  0  0  0
  152.7165  140.1929  157.8907 O   0  0  0  0  0  0  0  0  0  0  0  0
  151.3023  141.8950  158.8595 C   0  0  1  0  0  0  0  0  0  0  0  0
  152.3724  142.2023  159.9362 C   0  0  0  0  0  0  0  0  0  0  0  0
  152.3590  143.7410  160.0072 C   0  0  1  0  0  0  0  0  0  0  0  0
  153.0282  144.3200  158.7468 C   0  0  0  0  0  0  0  0  0  0  0  0
  151.9658  144.0806  157.6583 C   0  0  0  0  0  0  0  0  0  0  0  0
  150.8615  143.3174  158.4225 C   0  0  2  0  0  0  0  0  0  0  0  0
  150.8875  144.0539  159.7587 C   0  0  0  0  0  0  0  0  0  0  0  0
  147.9011  141.2034  154.8173 N   0  0  0  0  0  0  0  0  0  0  0  0
  145.8211  143.3515  153.6177 H   0  0  0  0  0  0  0  0  0  0  0  0
  146.4358  144.0354  155.1315 H   0  0  0  0  0  0  0  0  0  0  0  0
  145.6257  142.4630  155.1347 H   0  0  0  0  0  0  0  0  0  0  0  0
  149.5105  139.1468  155.2125 H   0  0  0  0  0  0  0  0  0  0  0  0
  150.2968  139.4177  153.6784 H   0  0  0  0  0  0  0  0  0  0  0  0
  151.9217  139.3724  155.6155 H   0  0  0  0  0  0  0  0  0  0  0  0
  151.9898  140.8551  154.7022 H   0  0  0  0  0  0  0  0  0  0  0  0
  150.3506  141.7396  156.5163 H   0  0  0  0  0  0  0  0  0  0  0  0
  150.4582  141.4075  159.3515 H   0  0  0  0  0  0  0  0  0  0  0  0
  152.0739  141.7740  160.8940 H   0  0  0  0  0  0  0  0  0  0  0  0
  153.3662  141.8146  159.7079 H   0  0  0  0  0  0  0  0  0  0  0  0
  152.7649  144.1379  160.9381 H   0  0  0  0  0  0  0  0  0  0  0  0
  153.2259  145.3864  158.8622 H   0  0  0  0  0  0  0  0  0  0  0  0
  153.9737  143.8261  158.5195 H   0  0  0  0  0  0  0  0  0  0  0  0
  151.5804  145.0346  157.2964 H   0  0  0  0  0  0  0  0  0  0  0  0
  152.3560  143.5487  156.7916 H   0  0  0  0  0  0  0  0  0  0  0  0
  149.8927  143.3357  157.9223 H   0  0  0  0  0  0  0  0  0  0  0  0
  150.2203  143.6225  160.5072 H   0  0  0  0  0  0  0  0  0  0  0  0
  150.6809  145.1222  159.6708 H   0  0  0  0  0  0  0  0  0  0  0  0
  1  2  1  0  0  0  0
  1 19  1  0  0  0  0
  1 20  1  0  0  0  0
  1 21  1  0  0  0  0
  2 18  1  0  0  0  0
  2  3  2  0  0  0  0
  3  4  1  0  0  0  0
  4  5  1  0  0  0  0
  5  6  1  0  0  0  0
  5 18  2  0  0  0  0
  6  7  1  0  0  0  0
  6 22  1  0  0  0  0
  6 23  1  0  0  0  0
  7  8  1  0  0  0  0
  7 24  1  0  0  0  0
  7 25  1  0  0  0  0
  8  9  1  0  0  0  0
  8 26  1  0  0  0  0
  9 10  2  0  0  0  0
  9 11  1  0  0  0  0
 11 16  1  0  0  0  0
 11 12  1  0  0  0  0
 11 27  1  0  0  0  0
 12 13  1  0  0  0  0
 12 28  1  0  0  0  0
 12 29  1  0  0  0  0
 13 17  1  0  0  0  0
 13 14  1  0  0  0  0
 13 30  1  0  0  0  0
 14 15  1  0  0  0  0
 14 31  1  0  0  0  0
 14 32  1  0  0  0  0
 15 16  1  0  0  0  0
 15 33  1  0  0  0  0
 15 34  1  0  0  0  0
 16 17  1  0  0  0  0
 16 35  1  0  0  0  0
 17 36  1  0  0  0  0
 17 37  1  0  0  0  0
M  END
> <s_m_source_file>
AV-unprocessed.smi

> <i_m_source_file_index>
1533

> <i_lp_mmshare_version>
43012

> <i_f3d_flags>
0

> <s_epik_input>
W0NIM11jMW5vYyhuMSlbQ0gyXVtDSDJdW05IXUMoPU8pW0NASF0oW0NIMl1bQ0BASF0yMylbQ0BASF0oW0NIMl0zKVtDSDJdW0NIMl0y

> <s_epik_cmdline>
J2VwaWtfcHl0aG9uJywgJy1waCcsICc3LjAnLCAnLXRuJywgJzgnLCAnLW1hJywgJzIwMCcsICctbWV0YWxfYmluZGluZycsICctaW1hZScsICc8aW5maWxlLm1hZT4nLCAnLW9tYWUnLCAnPG91dGZpbGUubWFlPic=

> <r_lp_tautomer_probability>
1

> <r_epik_Ionization_Penalty>
1.90116e-08

> <r_epik_Ionization_Penalty_Charging>
0

> <r_epik_Ionization_Penalty_Neutral>
1.90116e-08

> <r_epik_State_Penalty>
-0

> <r_epik_Charging_Adjusted_Penalty>
0

> <i_epik_Tot_Q>
0

> <i_epik_Tot_abs_Q>
0

> <r_epik_Metal_State_Penalty>
-0

> <b_epik_Metal_Only>
0

> <s_lp_Force_Field>
OPLS_2005

> <r_lp_Energy>
44.7071

> <b_lp_Chiralities_Consistent>
1

> <s_lp_Variant>
AV-unprocessed.smi:1533-2

> <Gold.Version>
5.8.1

> <Gold.Id.Protein>
6NUR|6NUR_protein|mol2

> <Gold.PLP.Fitness>
41.9203

> <Gold.PLP.PLP>
-38.5759

> <Gold.PLP.part.hbond>
-4.5829

> <Gold.PLP.part.metal>
0.0000

> <Gold.PLP.part.buried>
0.6159

> <Gold.PLP.part.nonpolar>
-35.2397

> <Gold.PLP.part.repulsive>
1.8527

> <Gold.PLP.ligand.clash>
0.0000

> <Gold.PLP.ligand.torsion>
0.8444

> <Gold.PLP.Chemscore.Hbond>
1.6710

> <Gold.PLP.Chemscore.CHOScore>
0.0000

> <Gold.PLP.Chemscore.Metal>
0.0000

> <Gold.Chemscore.Hbonds>
donor molecule, donor type, donor heavy atom, donor atom, acceptor molecule, acceptor atom, score
      P1  H  7997  8010       L1    10  0.99
      P1  H  8011  8017       L1     4  0.07
      P1  H  8022  8030       L1     3  0.86

> <Gold.PLP.Chemscore.Internal.Correction>
0.0202

> <Gold.Rescore>
     Score         DG    S(hbond)    S(metal)    S(lipo)     H(rot)  DE(clash)    DE(int)     intcor
     14.77     -15.70       1.21        0.00      93.17       1.85       0.35       0.58       ----

> <Gold.Chemscore.Fitness>
14.7730

> <Gold.Chemscore.DG>
-15.6993

> <Gold.Chemscore.ZeroCoef>
-5.4800

> <Gold.Chemscore.Hbond>
1.2130

> <Gold.Chemscore.Metal>
0.0000

> <Gold.Chemscore.Lipo>
93.1724

> <Gold.Chemscore.Internal_Hbond>
0.0000

> <Gold.Chemscore.DEClash>
0.3461

> <Gold.Chemscore.DEInternal>
0.5802

> <Gold.Chemscore.Rot>
1.8490

> <Gold.Chemscore.Internal.Correction>
   9.000000E+99

> <Gold.Chemscore.Hbonds>
donor molecule, donor type, donor heavy atom, donor atom, acceptor molecule, acceptor atom, score
      P1  H  7997  8010       L1    10  0.87
      P1  H  8022  8030       L1     3  0.82

> <Gold.Chemscore.Hbond.Weighted>
-4.0515

> <Gold.Chemscore.Metal.Weighted>
-0.0000

> <Gold.Chemscore.Lipo.Weighted>
-10.9012

> <Gold.Chemscore.Internal_Hbond.Weighted>
0.0000

> <Gold.Chemscore.DEClash.Weighted>
0.3461

> <Gold.Chemscore.DEInternal.Weighted>
0.5802

> <Gold.Chemscore.Rot.Weighted>
4.7334

> <Gold.Chemscore.Internal.Correction.Weighted>
   9.000000E+99

> <Gold.Protein.RotatedTorsions>
[ 6907 6896 6895 6894 ] final   18.70 input  -60.11 | X-H torsion
[ 7974 7965 7964 7962 ] final  -53.57 input  175.53 | X-H torsion
[ 8008 7997 7996 7995 ] final   47.28 input   59.86 | X-H torsion
[ 10167 10162 10161 10158 ] final  -12.44 input  -65.29 | X-H torsion
[ 10718 10713 10712 10709 ] final  140.10 input   66.30 | X-H torsion
[ 10763 10752 10751 10750 ] final  -55.64 input  -60.55 | X-H torsion
[ 11005 11000 10999 10996 ] final   74.66 input  -57.11 | X-H torsion

> <Gold.Protein.ActiveResidues>
 VAL166  LYS551  ARG553  GLY616  TRP617  ASP618  TYR619  PRO620  LYS621  CYS622 
 ASP623  PHE694  ASN695  SER759  ASP760  ASP761  ALA762  ILE779  LEU786  VAL792 
 PHE793  MET794  SER795  GLU796  ALA797  LYS798  CYS799  TRP800  GLU811  SER814 

> <Gold.Protein.RotatedAtoms>
  151.8694  135.0495  160.0477 H   0  0  0  0  0  0  0  0  0  0  0  0  # atno 6907 bound_to 6896
  152.2600  133.5284  159.5384 H   0  0  0  0  0  0  0  0  0  0  0  0  # atno 6908 bound_to 6896
  150.7113  134.0759  159.3923 H   0  0  0  0  0  0  0  0  0  0  0  0  # atno 6909 bound_to 6896
  145.8954  140.8037  142.9770 H   0  0  0  0  0  0  0  0  0  0  0  0  # atno 7974 bound_to 7965
  155.3664  140.3421  155.4242 H   0  0  0  0  0  0  0  0  0  0  0  0  # atno 8008 bound_to 7997
  156.1686  140.1624  156.8522 H   0  0  0  0  0  0  0  0  0  0  0  0  # atno 8009 bound_to 7997
  154.5210  140.0767  156.8154 H   0  0  0  0  0  0  0  0  0  0  0  0  # atno 8010 bound_to 7997
  140.7161  143.5532  150.9278 H   0  0  0  0  0  0  0  0  0  0  0  0  # atno 10167 bound_to 10162
  157.4071  131.1023  151.0493 H   0  0  0  0  0  0  0  0  0  0  0  0  # atno 10718 bound_to 10713
  154.1941  135.6422  153.5068 H   0  0  0  0  0  0  0  0  0  0  0  0  # atno 10763 bound_to 10752
  153.0028  135.5435  154.6385 H   0  0  0  0  0  0  0  0  0  0  0  0  # atno 10764 bound_to 10752
  154.5781  135.2922  155.0733 H   0  0  0  0  0  0  0  0  0  0  0  0  # atno 10765 bound_to 10752
  139.9380  134.7451  156.1175 H   0  0  0  0  0  0  0  0  0  0  0  0  # atno 11005 bound_to 11000
  144.6732  140.1594  143.7423 LP  0  0  0  0  0  0  0  0  0  0  0  0  # atno 17320 bound_to 7965
  145.8857  139.2347  143.1579 LP  0  0  0  0  0  0  0  0  0  0  0  0  # atno 17321 bound_to 7965
  139.9257  143.6553  152.3087 LP  0  0  0  0  0  0  0  0  0  0  0  0  # atno 17342 bound_to 10162
  139.6986  144.7638  151.1313 LP  0  0  0  0  0  0  0  0  0  0  0  0  # atno 17343 bound_to 10162
  157.1470  130.6168  149.5571 LP  0  0  0  0  0  0  0  0  0  0  0  0  # atno 17370 bound_to 10713
  155.9839  130.4862  150.6959 LP  0  0  0  0  0  0  0  0  0  0  0  0  # atno 17371 bound_to 10713
  141.1003  133.6680  156.2739 LP  0  0  0  0  0  0  0  0  0  0  0  0  # atno 17394 bound_to 11000
  140.6024  134.5541  157.5520 LP  0  0  0  0  0  0  0  0  0  0  0  0  # atno 17395 bound_to 11000

$$$$
