#       Name:                AV-unprocessed.smi:754
#       Creating user name   scv26
#       Creation time:       Fri Mar 27 01:00:14 2020


#       File generated by GOLD software.
#

@<TRIPOS>MOLECULE
AV-unprocessed.smi:754
    44    45     1
SMALL
NO_CHARGES


@<TRIPOS>ATOM
      1 ****        -4.9106   1.4493   0.2032 C.3            1 S1                 0.0000
      2 ****        -3.3848   1.4987   0.3086 C.3            1 S1                 0.0000
      3 ****        -2.8717   0.1845   0.1686 O.3            1 S1                 0.0000
      4 ****        -1.4550   0.1352   0.2377 C.3            1 S1                 0.0000
      5 ****        -0.7400   0.5793  -1.0415 C.3            1 S1                 0.0000
      6 ****         0.2130  -0.6029  -0.8372 C.3            1 S1                 0.0000
      7 ****         1.4045  -0.1915  -0.0942 N.am           1 S1                 0.0000
      8 ****         2.5493  -0.8893  -0.0435 C.2            1 S1                 0.0000
      9 ****         2.7085  -1.9720  -0.6060 O.2            1 S1                 0.0000
     10 ****         3.6886  -0.2753   0.7701 C.3            1 S1                 0.0000
     11 ****         4.3702   0.7582   0.0140 N.pl3          1 S1                 0.0000
     12 ****         4.1117   2.0606  -0.1218 C.2            1 S1                 0.0000
     13 ****         4.9855   2.6521  -0.9219 N.2            1 S1                 0.0000
     14 ****         5.8277   1.6155  -1.2885 N.2            1 S1                 0.0000
     15 ****         5.4671   0.4892  -0.7369 N.2            1 S1                 0.0000
     16 ****        -0.8788  -1.2870   0.0353 C.3            1 S1                 0.0000
     17 ****        -0.4396  -2.0165   1.3103 C.3            1 S1                 0.0000
     18 ****        -1.7702  -2.2661  -0.7409 C.3            1 S1                 0.0000
     19 ****        -5.3409   2.4455   0.3072 H              1 S1                 0.0000
     20 ****        -5.3364   0.8175   0.9830 H              1 S1                 0.0000
     21 ****        -5.2232   1.0493  -0.7616 H              1 S1                 0.0000
     22 ****        -2.9815   2.1493  -0.4684 H              1 S1                 0.0000
     23 ****        -3.0913   1.9148   1.2734 H              1 S1                 0.0000
     24 ****        -1.0534   0.6182   1.1313 H              1 S1                 0.0000
     25 ****        -1.3587   0.4742  -1.9341 H              1 S1                 0.0000
     26 ****        -0.2817   1.5675  -0.9874 H              1 S1                 0.0000
     27 ****         0.4299  -1.1310  -1.7677 H              1 S1                 0.0000
     28 ****         1.3549   0.6861   0.4027 H              1 S1                 0.0000
     29 ****         3.3004   0.1583   1.6927 H              1 S1                 0.0000
     30 ****         4.4057  -1.0473   1.0534 H              1 S1                 0.0000
     31 ****         3.2885   2.5690   0.3579 H              1 S1                 0.0000
     32 ****         0.1957  -2.8726   1.0811 H              1 S1                 0.0000
     33 ****        -1.2963  -2.3839   1.8761 H              1 S1                 0.0000
     34 ****         0.1219  -1.3658   1.9810 H              1 S1                 0.0000
     35 ****        -1.2269  -3.1738  -1.0056 H              1 S1                 0.0000
     36 ****        -2.1389  -1.8323  -1.6707 H              1 S1                 0.0000
     37 ****        -2.6429  -2.5642  -0.1591 H              1 S1                 0.0000
     38 ****        -3.1609  -0.1784  -0.7172 LP             1 S1                 0.0000
     39 ****        -3.2470  -0.3844   0.9004 LP             1 S1                 0.0000
     40 ****         1.9618  -2.3752  -1.1351 LP             1 S1                 0.0000
     41 ****         3.5846  -2.4488  -0.5341 LP             1 S1                 0.0000
     42 ****         5.0271   3.6132  -1.1949 LP             1 S1                 0.0000
     43 ****         6.6131   1.7173  -1.8990 LP             1 S1                 0.0000
     44 ****         5.9128  -0.3993  -0.8465 LP             1 S1                 0.0000
@<TRIPOS>BOND
    1    1    2 1     
    2    1   19 1     
    3    1   20 1     
    4    1   21 1     
    5    2    3 1     
    6    2   22 1     
    7    2   23 1     
    8    3    4 1     
    9    4   16 1     
   10    4    5 1     
   11    4   24 1     
   12    5    6 1     
   13    5   25 1     
   14    5   26 1     
   15    6    7 1     
   16    6   16 1     
   17    6   27 1     
   18    7    8 am    
   19    7   28 1     
   20    8    9 2     
   21    8   10 1     
   22   10   11 1     
   23   10   29 1     
   24   10   30 1     
   25   11   15 1     
   26   11   12 1     
   27   12   13 2     
   28   12   31 1     
   29   13   14 1     
   30   14   15 2     
   31   16   17 1     
   32   16   18 1     
   33   17   32 1     
   34   17   33 1     
   35   17   34 1     
   36   18   35 1     
   37   18   36 1     
   38   18   37 1     
   39    3   38 1     
   40    3   39 1     
   41    9   40 1     
   42    9   41 1     
   43   13   42 1     
   44   14   43 1     
   45   15   44 1     
@<TRIPOS>SUBSTRUCTURE
      1 S1             1
@<TRIPOS>SET
LONE_PAIRS      STATIC     ATOMS    <user>   **** ""
7 38 39 40 41 42 43 44
DONOR_HYDROGENS      STATIC     ATOMS    <user>   **** ""
1 28
ATOM$BLUE        STATIC     ATOMS    COLORGROUP SYSTEM
7 38 39 40 41 42 43 44
ATOM$RED        STATIC     ATOMS    COLORGROUP SYSTEM
1 28
