AV-unprocessed.smi:210|AV-procd|sdf|1613|dock10
  -GOLD-   2262019533D 1   1.00000     0.00000
 Structure written by MMmdl.
 57 61  0  0  0  0  0  0  0  0  1 V2000
  150.6017  141.6169  156.7737 C   0  0  0  0  0  0  0  0  0  0  0  0
  149.3166  141.1805  157.1803 O   0  0  0  0  0  0  0  0  0  0  0  0
  148.3363  141.3463  156.1679 C   0  0  2  0  0  0  0  0  0  0  0  0
  146.9000  141.0332  156.6127 C   0  0  0  0  0  0  0  0  0  0  0  0
  146.7082  140.3817  155.2316 C   0  0  2  0  0  0  0  0  0  0  0  0
  145.8642  139.1772  155.1878 N   0  0  0  0  0  0  0  0  0  0  0  0
  145.4914  138.4379  156.3920 C   0  0  0  0  0  0  0  0  0  0  0  0
  145.8412  138.5183  153.9973 C   0  0  0  0  0  0  0  0  0  0  0  0
  146.6808  138.9506  153.0196 N   0  0  0  0  0  0  0  0  0  0  0  0
  146.7079  138.3470  151.8288 C   0  0  0  0  0  0  0  0  0  0  0  0
  145.9956  137.3014  151.4079 N   0  0  0  0  0  0  0  0  0  0  0  0
  145.1594  136.8478  152.3844 C   0  0  0  0  0  0  0  0  0  0  0  0
  145.0133  137.3943  153.6930 C   0  0  0  0  0  0  0  0  0  0  0  0
  144.0640  136.6594  154.3969 N   0  0  0  0  0  0  0  0  0  0  0  0
  143.6625  135.7506  153.5524 C   0  0  0  0  0  0  0  0  0  0  0  0
  144.2893  135.7725  152.3283 N   0  0  0  0  0  0  0  0  0  0  0  0
  144.0166  134.9168  151.2104 C   0  0  0  0  0  0  0  0  0  0  0  0
  143.9137  133.3968  151.3790 C   0  0  0  0  0  0  0  0  0  0  0  0
  144.4950  133.2130  149.9579 C   0  0  0  0  0  0  0  0  0  0  0  0
  145.4904  132.0521  149.7632 C   0  0  0  0  0  0  0  0  0  0  0  0
  146.4611  131.9917  150.7888 O   0  0  0  0  0  0  0  0  0  0  0  0
  143.4284  133.0876  148.8532 C   0  0  0  0  0  0  0  0  0  0  0  0
  143.6577  134.0033  147.8014 O   0  0  0  0  0  0  0  0  0  0  0  0
  145.0860  134.6289  150.1525 C   0  0  0  0  0  0  0  0  0  0  0  0
  148.2328  140.1448  155.2046 C   0  0  0  0  0  0  0  0  0  0  0  0
  148.8966  138.7955  155.5444 C   0  0  0  0  0  0  0  0  0  0  0  0
  150.0092  139.1634  154.5579 C   0  0  0  0  0  0  0  0  0  0  0  0
  149.0278  140.1348  153.8930 C   0  0  0  0  0  0  0  0  0  0  0  0
  151.3164  141.4503  157.5796 H   0  0  0  0  0  0  0  0  0  0  0  0
  150.6037  142.6818  156.5386 H   0  0  0  0  0  0  0  0  0  0  0  0
  150.9464  141.0644  155.8989 H   0  0  0  0  0  0  0  0  0  0  0  0
  148.4179  142.2944  155.6315 H   0  0  0  0  0  0  0  0  0  0  0  0
  146.8913  140.3521  157.4640 H   0  0  0  0  0  0  0  0  0  0  0  0
  146.2799  141.9115  156.7933 H   0  0  0  0  0  0  0  0  0  0  0  0
  146.4181  141.1439  154.5060 H   0  0  0  0  0  0  0  0  0  0  0  0
  144.7560  137.6636  156.1720 H   0  0  0  0  0  0  0  0  0  0  0  0
  145.0242  139.1008  157.1194 H   0  0  0  0  0  0  0  0  0  0  0  0
  146.3599  137.9718  156.8567 H   0  0  0  0  0  0  0  0  0  0  0  0
  147.4010  138.7598  151.1108 H   0  0  0  0  0  0  0  0  0  0  0  0
  142.8985  135.0302  153.8058 H   0  0  0  0  0  0  0  0  0  0  0  0
  143.1137  135.3147  150.7443 H   0  0  0  0  0  0  0  0  0  0  0  0
  144.5639  133.0242  152.1719 H   0  0  0  0  0  0  0  0  0  0  0  0
  142.8964  133.0269  151.5100 H   0  0  0  0  0  0  0  0  0  0  0  0
  144.9697  131.0942  149.7392 H   0  0  0  0  0  0  0  0  0  0  0  0
  146.0216  132.1452  148.8155 H   0  0  0  0  0  0  0  0  0  0  0  0
  147.2233  131.5440  150.4548 H   0  0  0  0  0  0  0  0  0  0  0  0
  143.4085  132.0784  148.4404 H   0  0  0  0  0  0  0  0  0  0  0  0
  142.4285  133.2756  149.2445 H   0  0  0  0  0  0  0  0  0  0  0  0
  144.5899  134.1302  147.7108 H   0  0  0  0  0  0  0  0  0  0  0  0
  145.0344  135.2759  149.2764 H   0  0  0  0  0  0  0  0  0  0  0  0
  146.0930  134.6286  150.5730 H   0  0  0  0  0  0  0  0  0  0  0  0
  149.2212  138.6771  156.5783 H   0  0  0  0  0  0  0  0  0  0  0  0
  148.3326  137.9278  155.2036 H   0  0  0  0  0  0  0  0  0  0  0  0
  150.8463  139.6726  155.0382 H   0  0  0  0  0  0  0  0  0  0  0  0
  150.3437  138.3451  153.9199 H   0  0  0  0  0  0  0  0  0  0  0  0
  148.4774  139.6784  153.0688 H   0  0  0  0  0  0  0  0  0  0  0  0
  149.4585  141.0952  153.6084 H   0  0  0  0  0  0  0  0  0  0  0  0
  1  2  1  0  0  0  0
  1 29  1  0  0  0  0
  1 30  1  0  0  0  0
  1 31  1  0  0  0  0
  2  3  1  0  0  0  0
  3 25  1  0  0  0  0
  3  4  1  0  0  0  0
  3 32  1  0  0  0  0
  4  5  1  0  0  0  0
  4 33  1  0  0  0  0
  4 34  1  0  0  0  0
  5  6  1  0  0  0  0
  5 25  1  0  0  0  0
  5 35  1  0  0  0  0
  6  7  1  0  0  0  0
  6  8  1  0  0  0  0
  7 36  1  0  0  0  0
  7 37  1  0  0  0  0
  7 38  1  0  0  0  0
  8 13  1  0  0  0  0
  8  9  2  0  0  0  0
  9 10  1  0  0  0  0
 10 11  2  0  0  0  0
 10 39  1  0  0  0  0
 11 12  1  0  0  0  0
 12 16  1  0  0  0  0
 12 13  2  0  0  0  0
 13 14  1  0  0  0  0
 14 15  2  0  0  0  0
 15 16  1  0  0  0  0
 15 40  1  0  0  0  0
 16 17  1  0  0  0  0
 17 24  1  0  0  0  0
 17 18  1  0  0  0  0
 17 41  1  0  0  0  0
 18 19  1  0  0  0  0
 18 42  1  0  0  0  0
 18 43  1  0  0  0  0
 19 20  1  0  0  0  0
 19 22  1  0  0  0  0
 19 24  1  0  0  0  0
 20 21  1  0  0  0  0
 20 44  1  0  0  0  0
 20 45  1  0  0  0  0
 21 46  1  0  0  0  0
 22 23  1  0  0  0  0
 22 47  1  0  0  0  0
 22 48  1  0  0  0  0
 23 49  1  0  0  0  0
 24 50  1  0  0  0  0
 24 51  1  0  0  0  0
 25 28  1  0  0  0  0
 25 26  1  0  0  0  0
 26 27  1  0  0  0  0
 26 52  1  0  0  0  0
 26 53  1  0  0  0  0
 27 28  1  0  0  0  0
 27 54  1  0  0  0  0
 27 55  1  0  0  0  0
 28 56  1  0  0  0  0
 28 57  1  0  0  0  0
M  END
> <s_m_source_file>
AV-unprocessed.smi

> <i_m_source_file_index>
210

> <i_lp_mmshare_version>
43012

> <i_f3d_flags>
0

> <s_epik_input>
W0NIMl0xW0NIMl1bQ0gyXUMxMltDQEhdKE9bQ0gzXSlbQ0gyXVtDQEhdMk4oW0NIM10pYyhuW2NIXW4zKWMoYzM0KW5bY0hdbjRbQ0hdKFtDSDJdNSlbQ0gyXUM1KFtDSDJdW09IXSlbQ0gyXVtPSF0=

> <s_epik_cmdline>
J2VwaWtfcHl0aG9uJywgJy1waCcsICc3LjAnLCAnLXRuJywgJzgnLCAnLW1hJywgJzIwMCcsICctbWV0YWxfYmluZGluZycsICctaW1hZScsICc8aW5maWxlLm1hZT4nLCAnLW9tYWUnLCAnPG91dGZpbGUubWFlPic=

> <r_lp_tautomer_probability>
1

> <r_epik_Ionization_Penalty>
0.00313676

> <r_epik_Ionization_Penalty_Charging>
0

> <r_epik_Ionization_Penalty_Neutral>
0.00313676

> <r_epik_State_Penalty>
0.00199132

> <r_epik_Charging_Adjusted_Penalty>
0.00199132

> <i_epik_Tot_Q>
0

> <i_epik_Tot_abs_Q>
0

> <r_epik_Metal_State_Penalty>
-0

> <b_epik_Metal_Only>
0

> <s_lp_Force_Field>
OPLS_2005

> <r_lp_Energy>
62.7777

> <b_lp_Chiralities_Consistent>
1

> <s_lp_Variant>
AV-unprocessed.smi:210-3

> <Gold.Version>
5.8.1

> <Gold.Id.Protein>
6NUR|6NUR_protein|mol2

> <Gold.PLP.Fitness>
45.8101

> <Gold.PLP.PLP>
-36.6100

> <Gold.PLP.part.hbond>
-4.7201

> <Gold.PLP.part.metal>
0.0000

> <Gold.PLP.part.buried>
1.0461

> <Gold.PLP.part.nonpolar>
-35.8846

> <Gold.PLP.part.repulsive>
2.0137

> <Gold.PLP.ligand.clash>
0.0000

> <Gold.PLP.ligand.torsion>
2.1312

> <Gold.PLP.Chemscore.Hbond>
3.0000

> <Gold.PLP.Chemscore.CHOScore>
1.0000

> <Gold.PLP.Chemscore.Metal>
0.0000

> <Gold.Chemscore.Hbonds>
donor molecule, donor type, donor heavy atom, donor atom, acceptor molecule, acceptor atom, score
      L1  H    21    46       P1 10747  1.00
      L1  H    23    49       P1  7921  1.00
      P1  H 10192 10197       L1    23  0.80
      L1  C    10    39       P1  7957  1.00

> <Gold.PLP.Chemscore.Internal.Correction>
1.4624

> <Gold.Rescore>
     Score         DG    S(hbond)    S(metal)    S(lipo)     H(rot)  DE(clash)    DE(int)     intcor
     10.85     -16.35       2.93        0.00      81.12       3.29       2.32       3.18       ----

> <Gold.Chemscore.Fitness>
10.8486

> <Gold.Chemscore.DG>
-16.3550

> <Gold.Chemscore.ZeroCoef>
-5.4800

> <Gold.Chemscore.Hbond>
2.9338

> <Gold.Chemscore.Metal>
0.0000

> <Gold.Chemscore.Lipo>
81.1182

> <Gold.Chemscore.Internal_Hbond>
0.0000

> <Gold.Chemscore.DEClash>
2.3238

> <Gold.Chemscore.DEInternal>
3.1826

> <Gold.Chemscore.Rot>
3.2870

> <Gold.Chemscore.Internal.Correction>
   9.000000E+99

> <Gold.Chemscore.Hbonds>
donor molecule, donor type, donor heavy atom, donor atom, acceptor molecule, acceptor atom, score
      L1  H    21    46       P1 10747  1.00
      L1  H    23    49       P1  7921  1.00
      P1  H 10192 10197       L1    23  0.75

> <Gold.Chemscore.Hbond.Weighted>
-9.7989

> <Gold.Chemscore.Metal.Weighted>
-0.0000

> <Gold.Chemscore.Lipo.Weighted>
-9.4908

> <Gold.Chemscore.Internal_Hbond.Weighted>
0.0000

> <Gold.Chemscore.DEClash.Weighted>
2.3238

> <Gold.Chemscore.DEInternal.Weighted>
3.1826

> <Gold.Chemscore.Rot.Weighted>
8.4147

> <Gold.Chemscore.Internal.Correction.Weighted>
   9.000000E+99

> <Gold.Protein.RotatedTorsions>
[ 6907 6896 6895 6894 ] final   25.04 input  -60.11 | X-H torsion
[ 7974 7965 7964 7962 ] final  -30.80 input  175.53 | X-H torsion
[ 8008 7997 7996 7995 ] final   63.12 input   59.86 | X-H torsion
[ 10167 10162 10161 10158 ] final -163.12 input  -65.29 | X-H torsion
[ 10718 10713 10712 10709 ] final   24.08 input   66.30 | X-H torsion
[ 10763 10752 10751 10750 ] final -177.54 input  -60.55 | X-H torsion
[ 11005 11000 10999 10996 ] final -156.88 input  -57.11 | X-H torsion

> <Gold.Protein.ActiveResidues>
 VAL166  LYS551  ARG553  GLY616  TRP617  ASP618  TYR619  PRO620  LYS621  CYS622 
 ASP623  PHE694  ASN695  SER759  ASP760  ASP761  ALA762  ILE779  LEU786  VAL792 
 PHE793  MET794  SER795  GLU796  ALA797  LYS798  CYS799  TRP800  GLU811  SER814 

> <Gold.Protein.RotatedAtoms>
  151.9665  135.0098  160.0550 H   0  0  0  0  0  0  0  0  0  0  0  0  # atno 6907 bound_to 6896
  152.1822  133.4710  159.4972 H   0  0  0  0  0  0  0  0  0  0  0  0  # atno 6908 bound_to 6896
  150.6919  134.1736  159.4265 H   0  0  0  0  0  0  0  0  0  0  0  0  # atno 6909 bound_to 6896
  146.1116  140.5586  142.8775 H   0  0  0  0  0  0  0  0  0  0  0  0  # atno 7974 bound_to 7965
  155.6252  140.3496  155.4665 H   0  0  0  0  0  0  0  0  0  0  0  0  # atno 8008 bound_to 7997
  156.0048  140.1220  157.0536 H   0  0  0  0  0  0  0  0  0  0  0  0  # atno 8009 bound_to 7997
  154.4260  140.1093  156.5733 H   0  0  0  0  0  0  0  0  0  0  0  0  # atno 8010 bound_to 7997
  139.6343  144.0380  152.2041 H   0  0  0  0  0  0  0  0  0  0  0  0  # atno 10167 bound_to 10162
  157.1748  130.6776  149.6091 H   0  0  0  0  0  0  0  0  0  0  0  0  # atno 10718 bound_to 10713
  154.5588  135.2818  155.0939 H   0  0  0  0  0  0  0  0  0  0  0  0  # atno 10763 bound_to 10752
  154.2356  135.6366  153.5193 H   0  0  0  0  0  0  0  0  0  0  0  0  # atno 10764 bound_to 10752
  153.0023  135.5547  154.6176 H   0  0  0  0  0  0  0  0  0  0  0  0  # atno 10765 bound_to 10752
  140.6707  134.4250  157.5231 H   0  0  0  0  0  0  0  0  0  0  0  0  # atno 11005 bound_to 11000
  144.7516  140.5206  143.6797 LP  0  0  0  0  0  0  0  0  0  0  0  0  # atno 17320 bound_to 7965
  145.5652  139.1481  143.3319 LP  0  0  0  0  0  0  0  0  0  0  0  0  # atno 17321 bound_to 7965
  140.0053  144.6263  150.7694 LP  0  0  0  0  0  0  0  0  0  0  0  0  # atno 17342 bound_to 10162
  140.7456  143.2879  151.3413 LP  0  0  0  0  0  0  0  0  0  0  0  0  # atno 17343 bound_to 10162
  155.9733  130.4666  150.6297 LP  0  0  0  0  0  0  0  0  0  0  0  0  # atno 17370 bound_to 10713
  157.4009  131.0809  151.1310 LP  0  0  0  0  0  0  0  0  0  0  0  0  # atno 17371 bound_to 10713
  139.8982  134.8618  156.2009 LP  0  0  0  0  0  0  0  0  0  0  0  0  # atno 17394 bound_to 11000
  141.0394  133.6945  156.1571 LP  0  0  0  0  0  0  0  0  0  0  0  0  # atno 17395 bound_to 11000

$$$$
