AV-unprocessed.smi:1005|AV-procd|sdf|4381|dock9
  -GOLD-   22720 2303D 1   1.00000     0.00000
 Structure written by MMmdl.
 58 60  0  0  0  0  0  0  0  0  4 V2000
  152.1811  143.3218  160.4031 C   0  0  0  0  0  0  0  0  0  0  0  0
  151.8862  142.4523  159.1927 C   0  0  0  0  0  0  0  0  0  0  0  0
  151.0522  142.9709  158.1772 C   0  0  0  0  0  0  0  0  0  0  0  0
  150.8013  142.1524  157.0825 C   0  0  0  0  0  0  0  0  0  0  0  0
  150.0343  142.3704  155.9366 N   0  3  0  0  0  0  0  0  0  0  0  0
  150.0897  141.2704  155.1362 C   0  0  0  0  0  0  0  0  0  0  0  0
  150.8807  140.3511  155.7541 N   0  0  0  0  0  0  0  0  0  0  0  0
  151.2641  139.0006  155.3167 C   0  0  0  0  0  0  0  0  0  0  0  0
  150.0523  138.1302  154.9279 C   0  0  1  0  0  0  0  0  0  0  0  0
  149.6347  138.4547  153.6156 O   0  0  0  0  0  0  0  0  0  0  0  0
  150.3835  136.6254  154.9830 C   0  0  0  0  0  0  0  0  0  0  0  0
  149.2745  135.7842  154.4560 N   0  3  2  0  0  0  0  0  0  0  0  0
  147.9429  136.0695  155.0482 C   0  0  0  0  0  0  0  0  0  0  0  0
  147.7868  135.4135  156.4334 C   0  0  0  0  0  0  0  0  0  0  0  0
  148.0553  134.0195  156.3409 O   0  0  0  0  0  0  0  0  0  0  0  0
  149.3832  133.7453  155.9060 C   0  0  1  0  0  0  0  0  0  0  0  0
  149.5845  132.2176  155.9202 C   0  0  0  0  0  0  0  0  0  0  0  0
  151.0124  131.8169  155.8263 N   0  3  0  0  0  0  0  0  0  0  0  0
  151.2059  130.3763  155.5401 C   0  0  0  0  0  0  0  0  0  0  0  0
  151.7855  132.2395  157.0154 C   0  0  0  0  0  0  0  0  0  0  0  0
  149.5574  134.3277  154.4866 C   0  0  0  0  0  0  0  0  0  0  0  0
  151.3465  140.8580  156.9743 C   0  0  0  0  0  0  0  0  0  0  0  0
  152.1702  140.3319  157.9675 C   0  0  0  0  0  0  0  0  0  0  0  0
  152.4381  141.1493  159.0890 C   0  0  0  0  0  0  0  0  0  0  0  0
  153.3342  140.6020  160.1871 C   0  0  0  0  0  0  0  0  0  0  0  0
  151.6798  144.2876  160.3321 H   0  0  0  0  0  0  0  0  0  0  0  0
  153.2518  143.5084  160.4894 H   0  0  0  0  0  0  0  0  0  0  0  0
  151.8385  142.8356  161.3169 H   0  0  0  0  0  0  0  0  0  0  0  0
  150.6290  143.9624  158.2492 H   0  0  0  0  0  0  0  0  0  0  0  0
  149.5947  141.1508  154.1831 H   0  0  0  0  0  0  0  0  0  0  0  0
  151.9812  139.0748  154.4989 H   0  0  0  0  0  0  0  0  0  0  0  0
  151.7989  138.5384  156.1474 H   0  0  0  0  0  0  0  0  0  0  0  0
  149.2318  138.3610  155.6071 H   0  0  0  0  0  0  0  0  0  0  0  0
  149.5878  137.6606  153.1053 H   0  0  0  0  0  0  0  0  0  0  0  0
  151.2895  136.4522  154.4000 H   0  0  0  0  0  0  0  0  0  0  0  0
  150.6237  136.3270  156.0035 H   0  0  0  0  0  0  0  0  0  0  0  0
  147.7586  137.1415  155.1092 H   0  0  0  0  0  0  0  0  0  0  0  0
  147.1822  135.6682  154.3771 H   0  0  0  0  0  0  0  0  0  0  0  0
  148.4443  135.8744  157.1714 H   0  0  0  0  0  0  0  0  0  0  0  0
  146.7678  135.5495  156.7959 H   0  0  0  0  0  0  0  0  0  0  0  0
  150.0975  134.2210  156.5784 H   0  0  0  0  0  0  0  0  0  0  0  0
  149.1615  131.8266  156.8471 H   0  0  0  0  0  0  0  0  0  0  0  0
  149.0256  131.7508  155.1079 H   0  0  0  0  0  0  0  0  0  0  0  0
  150.7725  129.7590  156.3282 H   0  0  0  0  0  0  0  0  0  0  0  0
  152.2683  130.1393  155.4720 H   0  0  0  0  0  0  0  0  0  0  0  0
  150.7534  130.0896  154.5918 H   0  0  0  0  0  0  0  0  0  0  0  0
  151.4162  131.7490  157.9172 H   0  0  0  0  0  0  0  0  0  0  0  0
  151.7177  133.3182  157.1601 H   0  0  0  0  0  0  0  0  0  0  0  0
  152.8410  131.9905  156.8993 H   0  0  0  0  0  0  0  0  0  0  0  0
  148.8636  133.8354  153.8034 H   0  0  0  0  0  0  0  0  0  0  0  0
  150.5571  134.1256  154.1002 H   0  0  0  0  0  0  0  0  0  0  0  0
  152.5943  139.3422  157.8920 H   0  0  0  0  0  0  0  0  0  0  0  0
  153.6846  139.5965  159.9525 H   0  0  0  0  0  0  0  0  0  0  0  0
  152.7947  140.5546  161.1333 H   0  0  0  0  0  0  0  0  0  0  0  0
  154.2106  141.2367  160.3190 H   0  0  0  0  0  0  0  0  0  0  0  0
  151.4051  132.3268  155.0472 H   0  0  0  0  0  0  0  0  0  0  0  0
  149.2124  136.0298  153.4774 H   0  0  0  0  0  0  0  0  0  0  0  0
  149.5106  143.2079  155.7152 H   0  0  0  0  0  0  0  0  0  0  0  0
  1  2  1  0  0  0  0
  1 26  1  0  0  0  0
  1 27  1  0  0  0  0
  1 28  1  0  0  0  0
  2 24  1  0  0  0  0
  2  3  2  0  0  0  0
  3  4  1  0  0  0  0
  3 29  1  0  0  0  0
  4 22  2  0  0  0  0
  4  5  1  0  0  0  0
  5  6  2  0  0  0  0
  5 58  1  0  0  0  0
  6  7  1  0  0  0  0
  6 30  1  0  0  0  0
  7  8  1  0  0  0  0
  7 22  1  0  0  0  0
  8  9  1  0  0  0  0
  8 31  1  0  0  0  0
  8 32  1  0  0  0  0
  9 10  1  0  0  0  0
  9 11  1  0  0  0  0
  9 33  1  0  0  0  0
 10 34  1  0  0  0  0
 11 12  1  0  0  0  0
 11 35  1  0  0  0  0
 11 36  1  0  0  0  0
 12 21  1  0  0  0  0
 12 13  1  0  0  0  0
 12 57  1  0  0  0  0
 13 14  1  0  0  0  0
 13 37  1  0  0  0  0
 13 38  1  0  0  0  0
 14 15  1  0  0  0  0
 14 39  1  0  0  0  0
 14 40  1  0  0  0  0
 15 16  1  0  0  0  0
 16 17  1  0  0  0  0
 16 21  1  0  0  0  0
 16 41  1  0  0  0  0
 17 18  1  0  0  0  0
 17 42  1  0  0  0  0
 17 43  1  0  0  0  0
 18 19  1  0  0  0  0
 18 20  1  0  0  0  0
 18 56  1  0  0  0  0
 19 44  1  0  0  0  0
 19 45  1  0  0  0  0
 19 46  1  0  0  0  0
 20 47  1  0  0  0  0
 20 48  1  0  0  0  0
 20 49  1  0  0  0  0
 21 50  1  0  0  0  0
 21 51  1  0  0  0  0
 22 23  1  0  0  0  0
 23 24  2  0  0  0  0
 23 52  1  0  0  0  0
 24 25  1  0  0  0  0
 25 53  1  0  0  0  0
 25 54  1  0  0  0  0
 25 55  1  0  0  0  0
M  CHG  1   5   1
M  CHG  1  12   1
M  CHG  1  18   1
M  END
> <s_m_source_file>
AV-unprocessed.smi

> <i_m_source_file_index>
1005

> <i_lp_mmshare_version>
43012

> <i_f3d_flags>
0

> <s_epik_input>
W0NIM11jKFtjSF0xKWMoW0NIM10pW2NIXWMoYzEyKW4oW2NIXW4yKVtDSDJdW0NASF0oW09IXSlbQ0gyXU4zW0NIMl1bQ0gyXU9bQ0BIXShbQ0gyXTMpW0NIMl1OKFtDSDNdKVtDSDNd

> <s_epik_cmdline>
J2VwaWtfcHl0aG9uJywgJy1waCcsICc3LjAnLCAnLXRuJywgJzgnLCAnLW1hJywgJzIwMCcsICctbWV0YWxfYmluZGluZycsICctaW1hZScsICc8aW5maWxlLm1hZT4nLCAnLW9tYWUnLCAnPG91dGZpbGUubWFlPic=

> <r_epik_Ionization_Penalty>
2.30802

> <r_epik_Ionization_Penalty_Charging>
2.30798

> <r_epik_Ionization_Penalty_Neutral>
3.4851e-05

> <r_epik_State_Penalty>
2.52618

> <r_epik_Charging_Adjusted_Penalty>
4.83416

> <i_epik_Tot_Q>
3

> <i_epik_Tot_abs_Q>
3

> <r_epik_Metal_State_Penalty>
6.53149

> <b_epik_Metal_Only>
0

> <s_lp_Force_Field>
OPLS_2005

> <r_lp_Energy>
46.6076

> <b_lp_Chiralities_Consistent>
1

> <s_lp_Variant>
AV-unprocessed.smi:1005-20

> <Gold.Version>
5.8.1

> <Gold.Id.Protein>
6NUR|6NUR_protein|mol2

> <Gold.PLP.Fitness>
59.0876

> <Gold.PLP.PLP>
-44.8701

> <Gold.PLP.part.hbond>
-4.0000

> <Gold.PLP.part.metal>
0.0000

> <Gold.PLP.part.buried>
-3.8484

> <Gold.PLP.part.nonpolar>
-36.2446

> <Gold.PLP.part.repulsive>
0.1928

> <Gold.PLP.ligand.clash>
0.0000

> <Gold.PLP.ligand.torsion>
0.4750

> <Gold.PLP.Chemscore.Hbond>
5.0000

> <Gold.PLP.Chemscore.CHOScore>
0.0000

> <Gold.PLP.Chemscore.Metal>
0.0000

> <Gold.Chemscore.Hbonds>
donor molecule, donor type, donor heavy atom, donor atom, acceptor molecule, acceptor atom, score
      L1  H     5    58       P1  8028  2.00
      L1  H    10    34       P1  7948  1.00
      L1  H    12    57       P1  7948  2.00

> <Gold.PLP.Chemscore.Internal.Correction>
0.1675

> <Gold.Rescore>
     Score         DG    S(hbond)    S(metal)    S(lipo)     H(rot)  DE(clash)    DE(int)     intcor
     21.64     -22.19       2.92        0.00     115.32       2.56       0.12       0.43       ----

> <Gold.Chemscore.Fitness>
21.6431

> <Gold.Chemscore.DG>
-22.1911

> <Gold.Chemscore.ZeroCoef>
-5.4800

> <Gold.Chemscore.Hbond>
2.9231

> <Gold.Chemscore.Metal>
0.0000

> <Gold.Chemscore.Lipo>
115.3240

> <Gold.Chemscore.Internal_Hbond>
0.0000

> <Gold.Chemscore.DEClash>
0.1172

> <Gold.Chemscore.DEInternal>
0.4307

> <Gold.Chemscore.Rot>
2.5566

> <Gold.Chemscore.Internal.Correction>
   9.000000E+99

> <Gold.Chemscore.Hbonds>
donor molecule, donor type, donor heavy atom, donor atom, acceptor molecule, acceptor atom, score
      L1  H     5    58       P1  8028  1.00
      L1  H    10    34       P1  7948  0.77
      L1  H    12    57       P1  7948  0.81

> <Gold.Chemscore.Hbond.Weighted>
-9.7631

> <Gold.Chemscore.Metal.Weighted>
-0.0000

> <Gold.Chemscore.Lipo.Weighted>
-13.4929

> <Gold.Chemscore.Internal_Hbond.Weighted>
0.0000

> <Gold.Chemscore.DEClash.Weighted>
0.1172

> <Gold.Chemscore.DEInternal.Weighted>
0.4307

> <Gold.Chemscore.Rot.Weighted>
6.5450

> <Gold.Chemscore.Internal.Correction.Weighted>
   9.000000E+99

> <Gold.Protein.RotatedTorsions>
[ 6907 6896 6895 6894 ] final  176.78 input  -60.11 | X-H torsion
[ 7974 7965 7964 7962 ] final   -7.39 input  175.53 | X-H torsion
[ 8008 7997 7996 7995 ] final -154.85 input   59.86 | X-H torsion
[ 10167 10162 10161 10158 ] final  -51.54 input  -65.29 | X-H torsion
[ 10718 10713 10712 10709 ] final -170.22 input   66.30 | X-H torsion
[ 10763 10752 10751 10750 ] final   41.01 input  -60.55 | X-H torsion
[ 11005 11000 10999 10996 ] final  -34.23 input  -57.11 | X-H torsion

> <Gold.Protein.ActiveResidues>
 VAL166  LYS551  ARG553  GLY616  TRP617  ASP618  TYR619  PRO620  LYS621  CYS622 
 ASP623  PHE694  ASN695  SER759  ASP760  ASP761  ALA762  ILE779  LEU786  VAL792 
 PHE793  MET794  SER795  GLU796  ALA797  LYS798  CYS799  TRP800  GLU811  SER814 

> <Gold.Protein.RotatedAtoms>
  151.7146  133.3313  159.3299 H   0  0  0  0  0  0  0  0  0  0  0  0  # atno 6907 bound_to 6896
  150.7679  134.6502  159.6293 H   0  0  0  0  0  0  0  0  0  0  0  0  # atno 6908 bound_to 6896
  152.3690  134.6764  160.0234 H   0  0  0  0  0  0  0  0  0  0  0  0  # atno 6909 bound_to 6896
  146.2308  140.2313  142.8340 H   0  0  0  0  0  0  0  0  0  0  0  0  # atno 7974 bound_to 7965
  155.6927  140.0757  157.2442 H   0  0  0  0  0  0  0  0  0  0  0  0  # atno 8008 bound_to 7997
  154.4086  140.1661  156.2156 H   0  0  0  0  0  0  0  0  0  0  0  0  # atno 8009 bound_to 7997
  155.9438  140.3382  155.6352 H   0  0  0  0  0  0  0  0  0  0  0  0  # atno 8010 bound_to 7997
  140.6583  143.2616  151.4519 H   0  0  0  0  0  0  0  0  0  0  0  0  # atno 10167 bound_to 10162
  156.7230  130.9277  151.3099 H   0  0  0  0  0  0  0  0  0  0  0  0  # atno 10718 bound_to 10713
  152.9920  135.6174  154.2719 H   0  0  0  0  0  0  0  0  0  0  0  0  # atno 10763 bound_to 10752
  154.2451  135.2787  155.2840 H   0  0  0  0  0  0  0  0  0  0  0  0  # atno 10764 bound_to 10752
  154.5336  135.5781  153.6837 H   0  0  0  0  0  0  0  0  0  0  0  0  # atno 10765 bound_to 10752
  140.9699  133.7115  156.1506 H   0  0  0  0  0  0  0  0  0  0  0  0  # atno 11005 bound_to 11000
  144.9556  140.8223  143.5545 LP  0  0  0  0  0  0  0  0  0  0  0  0  # atno 17320 bound_to 7965
  145.2278  139.2129  143.5059 LP  0  0  0  0  0  0  0  0  0  0  0  0  # atno 17321 bound_to 7965
  139.5810  144.1709  152.1968 LP  0  0  0  0  0  0  0  0  0  0  0  0  # atno 17342 bound_to 10162
  140.1034  144.5520  150.6973 LP  0  0  0  0  0  0  0  0  0  0  0  0  # atno 17343 bound_to 10162
  157.6890  130.9214  150.0463 LP  0  0  0  0  0  0  0  0  0  0  0  0  # atno 17370 bound_to 10713
  156.1581  130.3643  149.9339 LP  0  0  0  0  0  0  0  0  0  0  0  0  # atno 17371 bound_to 10713
  140.7344  134.4219  157.5562 LP  0  0  0  0  0  0  0  0  0  0  0  0  # atno 17394 bound_to 11000
  139.8908  134.8795  156.2350 LP  0  0  0  0  0  0  0  0  0  0  0  0  # atno 17395 bound_to 11000

$$$$
