#       Name:                AV-unprocessed.smi:1938
#       Creating user name   scv26
#       Creation time:       Fri Mar 27 09:58:18 2020


#       File generated by GOLD software.
#

@<TRIPOS>MOLECULE
AV-unprocessed.smi:1938
    42    43     1
SMALL
NO_CHARGES


@<TRIPOS>ATOM
      1 ****        -2.9049  -4.4099   0.5714 C.3            1 S1                 0.0000
      2 ****        -2.2159  -3.1645   0.6024 O.3            1 S1                 0.0000
      3 ****        -2.9513  -1.9997   0.4880 C.ar           1 S1                 0.0000
      4 ****        -4.2991  -2.0993   0.3684 N.ar           1 S1                 0.0000
      5 ****        -5.0194  -0.9656   0.2509 C.ar           1 S1                 0.0000
      6 ****        -4.4406   0.3161   0.2415 C.ar           1 S1                 0.0000
      7 ****        -3.0428   0.4225   0.3646 C.ar           1 S1                 0.0000
      8 ****        -2.2716  -0.7585   0.4995 C.ar           1 S1                 0.0000
      9 ****        -0.8529  -0.7820   0.6200 N.am           1 S1                 0.0000
     10 ****         0.0056   0.2270   0.8466 C.2            1 S1                 0.0000
     11 ****        -0.3015   1.4064   1.0152 O.2            1 S1                 0.0000
     12 ****         1.2697  -0.2181   0.8741 N.am           1 S1                 0.0000
     13 ****         2.4557   0.6072   1.0797 C.3            1 S1                 0.0000
     14 ****         3.1267   0.9799  -0.2533 C.3            1 S1                 0.0000
     15 ****         2.3096   1.9046  -1.1558 C.3            1 S1                 0.0000
     16 ****         3.3916   2.5293  -2.0060 C.3            1 S1                 0.0000
     17 ****         4.5250   2.7018  -0.9980 C.3            1 S1                 0.0000
     18 ****         4.3397   1.6873  -0.0130 O.3            1 S1                 0.0000
     19 ****        -2.1840  -5.2220   0.6636 H              1 S1                 0.0000
     20 ****        -3.4385  -4.5471  -0.3702 H              1 S1                 0.0000
     21 ****        -3.6096  -4.4977   1.3996 H              1 S1                 0.0000
     22 ****        -6.0887  -1.0844   0.1570 H              1 S1                 0.0000
     23 ****        -5.0548   1.1983   0.1388 H              1 S1                 0.0000
     24 ****        -2.6012   1.4055   0.3418 H              1 S1                 0.0000
     25 ****        -0.4388  -1.7003   0.5526 H              1 S1                 0.0000
     26 ****         1.4270  -1.2051   0.7316 H              1 S1                 0.0000
     27 ****         2.2190   1.5049   1.6533 H              1 S1                 0.0000
     28 ****         3.1550   0.0340   1.6885 H              1 S1                 0.0000
     29 ****         3.3831   0.0747  -0.8067 H              1 S1                 0.0000
     30 ****         1.5578   1.3747  -1.7413 H              1 S1                 0.0000
     31 ****         1.8075   2.6737  -0.5670 H              1 S1                 0.0000
     32 ****         3.6918   1.8381  -2.7949 H              1 S1                 0.0000
     33 ****         3.0866   3.4676  -2.4700 H              1 S1                 0.0000
     34 ****         5.5070   2.6268  -1.4654 H              1 S1                 0.0000
     35 ****         4.4568   3.6739  -0.5084 H              1 S1                 0.0000
     36 ****        -1.5575  -3.1728  -0.1502 LP             1 S1                 0.0000
     37 ****        -1.7262  -3.1199   1.4732 LP             1 S1                 0.0000
     38 ****        -4.7479  -2.9929   0.3674 LP             1 S1                 0.0000
     39 ****        -1.2626   1.6815   0.9892 LP             1 S1                 0.0000
     40 ****         0.4100   2.0899   1.1783 LP             1 S1                 0.0000
     41 ****         5.1074   1.0476  -0.0499 LP             1 S1                 0.0000
     42 ****         4.3012   2.1099   0.8925 LP             1 S1                 0.0000
@<TRIPOS>BOND
    1    1    2 1     
    2    1   19 1     
    3    1   20 1     
    4    1   21 1     
    5    2    3 1     
    6    3    8 ar    
    7    3    4 ar    
    8    4    5 ar    
    9    5    6 ar    
   10    5   22 1     
   11    6    7 ar    
   12    6   23 1     
   13    7    8 ar    
   14    7   24 1     
   15    8    9 1     
   16    9   10 am    
   17    9   25 1     
   18   10   11 2     
   19   10   12 am    
   20   12   13 1     
   21   12   26 1     
   22   13   14 1     
   23   13   27 1     
   24   13   28 1     
   25   14   18 1     
   26   14   15 1     
   27   14   29 1     
   28   15   16 1     
   29   15   30 1     
   30   15   31 1     
   31   16   17 1     
   32   16   32 1     
   33   16   33 1     
   34   17   18 1     
   35   17   34 1     
   36   17   35 1     
   37    2   36 1     
   38    2   37 1     
   39    4   38 1     
   40   11   39 1     
   41   11   40 1     
   42   18   41 1     
   43   18   42 1     
@<TRIPOS>SUBSTRUCTURE
      1 S1             1
@<TRIPOS>SET
LONE_PAIRS      STATIC     ATOMS    <user>   **** ""
7 36 37 38 39 40 41 42
DONOR_HYDROGENS      STATIC     ATOMS    <user>   **** ""
2 25 26
ATOM$BLUE        STATIC     ATOMS    COLORGROUP SYSTEM
7 36 37 38 39 40 41 42
ATOM$RED        STATIC     ATOMS    COLORGROUP SYSTEM
2 25 26
