#       Name:                AV-unprocessed.smi:1893
#       Creating user name   scv26
#       Creation time:       Fri Mar 27 09:41:20 2020


#       File generated by GOLD software.
#

@<TRIPOS>MOLECULE
AV-unprocessed.smi:1893
    47    48     1
SMALL
NO_CHARGES


@<TRIPOS>ATOM
      1 ****        -1.7170   2.1065  -1.8331 C.3            1 S1                 0.0000
      2 ****        -2.4189   1.5878  -0.5624 C.3            1 S1                 0.0000
      3 ****        -3.9474   1.6187  -0.7832 C.3            1 S1                 0.0000
      4 ****        -4.7148   1.0969   0.4351 C.3            1 S1                 0.0000
      5 ****        -4.2236  -0.3095   0.7828 C.3            1 S1                 0.0000
      6 ****        -2.7060  -0.3069   1.0117 C.3            1 S1                 0.0000
      7 ****        -1.9654   0.2152  -0.1698 N.4            1 S1                 1.0000
      8 ****        -0.4940   0.0846   0.0156 C.3            1 S1                 0.0000
      9 ****         0.1647  -0.6340  -1.1766 C.3            1 S1                 0.0000
     10 ****         1.6045  -0.7614  -0.9890 N.am           1 S1                 0.0000
     11 ****         2.2004  -1.6817  -0.2139 C.2            1 S1                 0.0000
     12 ****         1.5728  -2.5451   0.4008 O.2            1 S1                 0.0000
     13 ****         3.7323  -1.5995  -0.1149 C.3            1 S1                 0.0000
     14 ****         4.3751  -2.9211   0.3529 C.3            1 S1                 0.0000
     15 ****         4.1223  -0.4745   0.7262 N.pl3          1 S1                 0.0000
     16 ****         4.5569   0.7411   0.3866 C.2            1 S1                 0.0000
     17 ****         4.7779   1.5420   1.4193 N.2            1 S1                 0.0000
     18 ****         4.4319   0.7012   2.4387 C.2            1 S1                 0.0000
     19 ****         4.0195  -0.5139   2.0783 N.2            1 S1                 0.0000
     20 ****        -2.1075   3.0834  -2.1197 H              1 S1                 0.0000
     21 ****        -1.8736   1.4324  -2.6759 H              1 S1                 0.0000
     22 ****        -0.6434   2.2304  -1.6948 H              1 S1                 0.0000
     23 ****        -2.1792   2.2657   0.2586 H              1 S1                 0.0000
     24 ****        -4.2730   2.6358  -1.0049 H              1 S1                 0.0000
     25 ****        -4.2063   1.0177  -1.6563 H              1 S1                 0.0000
     26 ****        -4.5655   1.7652   1.2842 H              1 S1                 0.0000
     27 ****        -5.7857   1.0832   0.2298 H              1 S1                 0.0000
     28 ****        -4.7348  -0.6724   1.6750 H              1 S1                 0.0000
     29 ****        -4.4750  -1.0008  -0.0228 H              1 S1                 0.0000
     30 ****        -2.4612   0.2939   1.8893 H              1 S1                 0.0000
     31 ****        -2.3815  -1.3267   1.2239 H              1 S1                 0.0000
     32 ****        -0.0357   1.0598   0.1863 H              1 S1                 0.0000
     33 ****        -0.2800  -0.4876   0.9197 H              1 S1                 0.0000
     34 ****        -0.2810  -1.6197  -1.3218 H              1 S1                 0.0000
     35 ****        -0.0016  -0.0838  -2.1017 H              1 S1                 0.0000
     36 ****         2.1900  -0.0905  -1.4652 H              1 S1                 0.0000
     37 ****         4.1092  -1.3953  -1.1187 H              1 S1                 0.0000
     38 ****         4.1151  -3.7433  -0.3147 H              1 S1                 0.0000
     39 ****         4.0573  -3.1992   1.3586 H              1 S1                 0.0000
     40 ****         5.4624  -2.8413   0.3621 H              1 S1                 0.0000
     41 ****         4.7097   1.0489  -0.6376 H              1 S1                 0.0000
     42 ****         4.4773   0.9960   3.4769 H              1 S1                 0.0000
     43 ****        -2.2076  -0.3972  -0.9357 H              1 S1                 0.0000
     44 ****         0.5757  -2.5810   0.3343 LP             1 S1                 0.0000
     45 ****         2.0604  -3.2102   0.9664 LP             1 S1                 0.0000
     46 ****         5.1034   2.4872   1.4448 LP             1 S1                 0.0000
     47 ****         3.7112  -1.2669   2.6597 LP             1 S1                 0.0000
@<TRIPOS>BOND
    1    1    2 1     
    2    1   20 1     
    3    1   21 1     
    4    1   22 1     
    5    2    7 1     
    6    2    3 1     
    7    2   23 1     
    8    3    4 1     
    9    3   24 1     
   10    3   25 1     
   11    4    5 1     
   12    4   26 1     
   13    4   27 1     
   14    5    6 1     
   15    5   28 1     
   16    5   29 1     
   17    6    7 1     
   18    6   30 1     
   19    6   31 1     
   20    7    8 1     
   21    7   43 1     
   22    8    9 1     
   23    8   32 1     
   24    8   33 1     
   25    9   10 1     
   26    9   34 1     
   27    9   35 1     
   28   10   11 am    
   29   10   36 1     
   30   11   12 2     
   31   11   13 1     
   32   13   14 1     
   33   13   15 1     
   34   13   37 1     
   35   14   38 1     
   36   14   39 1     
   37   14   40 1     
   38   15   19 1     
   39   15   16 1     
   40   16   17 2     
   41   16   41 1     
   42   17   18 1     
   43   18   19 2     
   44   18   42 1     
   45   12   44 1     
   46   12   45 1     
   47   17   46 1     
   48   19   47 1     
@<TRIPOS>SUBSTRUCTURE
      1 S1             1
@<TRIPOS>SET
LONE_PAIRS      STATIC     ATOMS    <user>   **** ""
4 44 45 46 47
DONOR_HYDROGENS      STATIC     ATOMS    <user>   **** ""
2 43 36
ATOM$BLUE        STATIC     ATOMS    COLORGROUP SYSTEM
4 44 45 46 47
ATOM$RED        STATIC     ATOMS    COLORGROUP SYSTEM
2 43 36
