#       Name:                AV-unprocessed.smi:15
#       Creating user name   scv26
#       Creation time:       Thu Mar 26 15:21:04 2020


#       File generated by GOLD software.
#

@<TRIPOS>MOLECULE
AV-unprocessed.smi:15
    62    65     1
SMALL
NO_CHARGES


@<TRIPOS>ATOM
      1 ****        -4.1711  -3.0381   1.8867 C.3            1 S1                 0.0000
      2 ****        -2.9479  -2.4378   1.1818 C.3            1 S1                 0.0000
      3 ****        -2.4216  -1.2570   1.8666 N.pl3          1 S1                 0.0000
      4 ****        -3.2321  -0.0413   1.9637 C.3            1 S1                 0.0000
      5 ****        -3.3665   0.7058   0.6232 C.3            1 S1                 0.0000
      6 ****        -4.3581   1.8660   0.6674 C.3            1 S1                 0.0000
      7 ****        -3.8801   2.7867  -0.4454 C.3            1 S1                 0.0000
      8 ****        -2.4606   2.2987  -0.7493 C.3            1 S1                 0.0000
      9 ****        -2.1607   1.3744   0.2855 O.3            1 S1                 0.0000
     10 ****        -1.0884  -1.0302   1.7746 C.ar           1 S1                 0.0000
     11 ****        -0.4673  -0.5038   2.8610 N.ar           1 S1                 0.0000
     12 ****         0.8405  -0.2336   2.8238 C.ar           1 S1                 0.0000
     13 ****         1.6985  -0.4001   1.8159 N.ar           1 S1                 0.0000
     14 ****         1.0775  -0.9173   0.7174 C.ar           1 S1                 0.0000
     15 ****        -0.2993  -1.2638   0.6104 C.ar           1 S1                 0.0000
     16 ****        -0.5633  -1.7459  -0.6672 N.2            1 S1                 0.0000
     17 ****         0.5901  -1.6960  -1.2748 C.2            1 S1                 0.0000
     18 ****         1.6282  -1.1993  -0.5203 N.pl3          1 S1                 0.0000
     19 ****         3.0084  -1.0244  -0.9434 C.3            1 S1                 0.0000
     20 ****         3.2601   0.2822  -1.7445 C.3            1 S1                 0.0000
     21 ****         2.5498   0.2301  -2.9677 O.3            1 S1                 0.0000
     22 ****         2.8670   1.5526  -0.9998 C.3            1 S1                 0.0000
     23 ****         4.0885   1.8136  -0.1239 C.3            1 S1                 0.0000
     24 ****         5.1998   1.2955  -0.8498 O.3            1 S1                 0.0000
     25 ****         4.7495   0.5839  -2.0003 C.3            1 S1                 0.0000
     26 ****         5.6596  -0.6200  -2.2852 C.3            1 S1                 0.0000
     27 ****        -4.4857  -3.9564   1.3907 H              1 S1                 0.0000
     28 ****        -5.0212  -2.3567   1.8748 H              1 S1                 0.0000
     29 ****        -3.9464  -3.2830   2.9252 H              1 S1                 0.0000
     30 ****        -2.1729  -3.2041   1.1342 H              1 S1                 0.0000
     31 ****        -3.2024  -2.1863   0.1524 H              1 S1                 0.0000
     32 ****        -4.2240  -0.3164   2.3204 H              1 S1                 0.0000
     33 ****        -2.8267   0.6274   2.7241 H              1 S1                 0.0000
     34 ****        -3.6423   0.0242  -0.1830 H              1 S1                 0.0000
     35 ****        -5.3906   1.5410   0.5361 H              1 S1                 0.0000
     36 ****        -4.2879   2.3847   1.6245 H              1 S1                 0.0000
     37 ****        -4.5116   2.7036  -1.3306 H              1 S1                 0.0000
     38 ****        -3.8901   3.8280  -0.1214 H              1 S1                 0.0000
     39 ****        -2.4284   1.7827  -1.7101 H              1 S1                 0.0000
     40 ****        -1.7324   3.1097  -0.7730 H              1 S1                 0.0000
     41 ****         1.2583   0.1790   3.7303 H              1 S1                 0.0000
     42 ****         0.7145  -2.0150  -2.2995 H              1 S1                 0.0000
     43 ****         3.6409  -1.0528  -0.0555 H              1 S1                 0.0000
     44 ****         3.2856  -1.8947  -1.5395 H              1 S1                 0.0000
     45 ****         1.6259   0.1845  -2.7746 H              1 S1                 0.0000
     46 ****         2.7558   2.3816  -1.7011 H              1 S1                 0.0000
     47 ****         1.9384   1.4851  -0.4340 H              1 S1                 0.0000
     48 ****         4.2182   2.8723   0.1013 H              1 S1                 0.0000
     49 ****         4.0063   1.2753   0.8209 H              1 S1                 0.0000
     50 ****         4.8279   1.2819  -2.8363 H              1 S1                 0.0000
     51 ****         5.3020  -1.1858  -3.1455 H              1 S1                 0.0000
     52 ****         5.7143  -1.2971  -1.4328 H              1 S1                 0.0000
     53 ****         6.6755  -0.2911  -2.5045 H              1 S1                 0.0000
     54 ****        -1.4816   0.7133  -0.0335 LP             1 S1                 0.0000
     55 ****        -1.8042   1.8596   1.0839 LP             1 S1                 0.0000
     56 ****        -0.9909  -0.3176   3.6924 LP             1 S1                 0.0000
     57 ****         2.6717  -0.1747   1.8602 LP             1 S1                 0.0000
     58 ****        -1.4383  -2.0595  -1.0362 LP             1 S1                 0.0000
     59 ****         2.8270  -0.5796  -3.4850 LP             1 S1                 0.0000
     60 ****         2.7423   1.0510  -3.5052 LP             1 S1                 0.0000
     61 ****         5.7190   0.6761  -0.2609 LP             1 S1                 0.0000
     62 ****         5.7871   2.0516  -1.1383 LP             1 S1                 0.0000
@<TRIPOS>BOND
    1    1    2 1     
    2    1   27 1     
    3    1   28 1     
    4    1   29 1     
    5    2    3 1     
    6    2   30 1     
    7    2   31 1     
    8    3    4 1     
    9    3   10 1     
   10    4    5 1     
   11    4   32 1     
   12    4   33 1     
   13    5    9 1     
   14    5    6 1     
   15    5   34 1     
   16    6    7 1     
   17    6   35 1     
   18    6   36 1     
   19    7    8 1     
   20    7   37 1     
   21    7   38 1     
   22    8    9 1     
   23    8   39 1     
   24    8   40 1     
   25   10   15 ar    
   26   10   11 ar    
   27   11   12 ar    
   28   12   13 ar    
   29   12   41 1     
   30   13   14 ar    
   31   14   18 1     
   32   14   15 ar    
   33   15   16 1     
   34   16   17 2     
   35   17   18 1     
   36   17   42 1     
   37   18   19 1     
   38   19   20 1     
   39   19   43 1     
   40   19   44 1     
   41   20   25 1     
   42   20   21 1     
   43   20   22 1     
   44   21   45 1     
   45   22   23 1     
   46   22   46 1     
   47   22   47 1     
   48   23   24 1     
   49   23   48 1     
   50   23   49 1     
   51   24   25 1     
   52   25   26 1     
   53   25   50 1     
   54   26   51 1     
   55   26   52 1     
   56   26   53 1     
   57    9   54 1     
   58    9   55 1     
   59   11   56 1     
   60   13   57 1     
   61   16   58 1     
   62   21   59 1     
   63   21   60 1     
   64   24   61 1     
   65   24   62 1     
@<TRIPOS>SUBSTRUCTURE
      1 S1             1
@<TRIPOS>SET
LONE_PAIRS      STATIC     ATOMS    <user>   **** ""
9 54 55 56 57 58 59 60 61 62
DONOR_HYDROGENS      STATIC     ATOMS    <user>   **** ""
1 45
ATOM$BLUE        STATIC     ATOMS    COLORGROUP SYSTEM
9 54 55 56 57 58 59 60 61 62
ATOM$RED        STATIC     ATOMS    COLORGROUP SYSTEM
1 45
