AV-unprocessed.smi:1535|AV-procd|sdf|6171|dock3
  -GOLD-   22720 6323D 1   1.00000     0.00000
 Structure written by MMmdl.
 46 47  0  0  0  0  0  0  0  0  1 V2000
  151.5991  145.5396  159.9566 C   0  0  0  0  0  0  0  0  0  0  0  0
  151.7193  144.0964  159.4998 C   0  0  0  0  0  0  0  0  0  0  0  0
  151.3023  143.7524  158.1942 C   0  0  0  0  0  0  0  0  0  0  0  0
  151.3964  142.4218  157.7307 C   0  0  0  0  0  0  0  0  0  0  0  0
  151.0528  141.8695  156.5087 N   0  0  0  0  0  0  0  0  0  0  0  0
  151.3778  140.5928  156.6913 C   0  0  0  0  0  0  0  0  0  0  0  0
  151.8912  140.2519  157.8892 N   0  0  0  0  0  0  0  0  0  0  0  0
  152.3209  138.9322  158.3171 C   0  0  0  0  0  0  0  0  0  0  0  0
  151.2437  137.8546  158.0880 C   0  0  1  0  0  0  0  0  0  0  0  0
  151.7294  136.6075  158.5471 O   0  0  0  0  0  0  0  0  0  0  0  0
  149.9435  138.1868  158.8496 C   0  0  0  0  0  0  0  0  0  0  0  0
  148.8203  137.2698  158.6216 N   0  0  0  0  0  0  0  0  0  0  0  0
  147.8159  137.8669  157.7453 C   0  0  0  0  0  0  0  0  0  0  0  0
  148.1906  136.8536  159.8771 C   0  0  0  0  0  0  0  0  0  0  0  0
  147.4500  135.5017  159.8397 C   0  0  2  0  0  0  0  0  0  0  0  0
  147.0825  135.0013  161.2441 C   0  0  0  0  0  0  0  0  0  0  0  0
  148.2588  134.4956  159.1334 C   0  0  0  0  0  0  0  0  0  0  0  0
  148.8946  133.7044  158.5783 N   0  0  0  0  0  0  0  0  0  0  0  0
  151.9252  141.4372  158.6157 C   0  0  0  0  0  0  0  0  0  0  0  0
  152.3443  141.7672  159.9166 C   0  0  0  0  0  0  0  0  0  0  0  0
  152.2403  143.1007  160.3649 C   0  0  0  0  0  0  0  0  0  0  0  0
  152.6914  143.4460  161.7730 C   0  0  0  0  0  0  0  0  0  0  0  0
  151.2282  146.1811  159.1567 H   0  0  0  0  0  0  0  0  0  0  0  0
  152.5697  145.9248  160.2697 H   0  0  0  0  0  0  0  0  0  0  0  0
  150.9078  145.6171  160.7961 H   0  0  0  0  0  0  0  0  0  0  0  0
  150.9044  144.5098  157.5352 H   0  0  0  0  0  0  0  0  0  0  0  0
  151.2329  139.8620  155.9090 H   0  0  0  0  0  0  0  0  0  0  0  0
  153.2398  138.6741  157.7881 H   0  0  0  0  0  0  0  0  0  0  0  0
  152.5762  138.9885  159.3760 H   0  0  0  0  0  0  0  0  0  0  0  0
  151.0616  137.7769  157.0176 H   0  0  0  0  0  0  0  0  0  0  0  0
  152.2898  136.2392  157.8816 H   0  0  0  0  0  0  0  0  0  0  0  0
  150.1922  138.2233  159.9088 H   0  0  0  0  0  0  0  0  0  0  0  0
  149.6273  139.1988  158.5919 H   0  0  0  0  0  0  0  0  0  0  0  0
  146.9780  137.1848  157.5964 H   0  0  0  0  0  0  0  0  0  0  0  0
  148.2196  138.0842  156.7578 H   0  0  0  0  0  0  0  0  0  0  0  0
  147.4242  138.7935  158.1670 H   0  0  0  0  0  0  0  0  0  0  0  0
  148.9432  136.8300  160.6668 H   0  0  0  0  0  0  0  0  0  0  0  0
  147.4667  137.6103  160.1838 H   0  0  0  0  0  0  0  0  0  0  0  0
  146.5382  135.5865  159.2509 H   0  0  0  0  0  0  0  0  0  0  0  0
  146.5690  134.0409  161.1932 H   0  0  0  0  0  0  0  0  0  0  0  0
  146.4202  135.7009  161.7544 H   0  0  0  0  0  0  0  0  0  0  0  0
  147.9717  134.8707  161.8617 H   0  0  0  0  0  0  0  0  0  0  0  0
  152.7402  140.9992  160.5645 H   0  0  0  0  0  0  0  0  0  0  0  0
  153.0027  142.5558  162.3203 H   0  0  0  0  0  0  0  0  0  0  0  0
  151.8803  143.9139  162.3315 H   0  0  0  0  0  0  0  0  0  0  0  0
  153.5357  144.1349  161.7443 H   0  0  0  0  0  0  0  0  0  0  0  0
  1  2  1  0  0  0  0
  1 23  1  0  0  0  0
  1 24  1  0  0  0  0
  1 25  1  0  0  0  0
  2 21  1  0  0  0  0
  2  3  2  0  0  0  0
  3  4  1  0  0  0  0
  3 26  1  0  0  0  0
  4 19  2  0  0  0  0
  4  5  1  0  0  0  0
  5  6  2  0  0  0  0
  6  7  1  0  0  0  0
  6 27  1  0  0  0  0
  7  8  1  0  0  0  0
  7 19  1  0  0  0  0
  8  9  1  0  0  0  0
  8 28  1  0  0  0  0
  8 29  1  0  0  0  0
  9 10  1  0  0  0  0
  9 11  1  0  0  0  0
  9 30  1  0  0  0  0
 10 31  1  0  0  0  0
 11 12  1  0  0  0  0
 11 32  1  0  0  0  0
 11 33  1  0  0  0  0
 12 13  1  0  0  0  0
 12 14  1  0  0  0  0
 13 34  1  0  0  0  0
 13 35  1  0  0  0  0
 13 36  1  0  0  0  0
 14 15  1  0  0  0  0
 14 37  1  0  0  0  0
 14 38  1  0  0  0  0
 15 16  1  0  0  0  0
 15 17  1  0  0  0  0
 15 39  1  0  0  0  0
 16 40  1  0  0  0  0
 16 41  1  0  0  0  0
 16 42  1  0  0  0  0
 17 18  3  0  0  0  0
 19 20  1  0  0  0  0
 20 21  2  0  0  0  0
 20 43  1  0  0  0  0
 21 22  1  0  0  0  0
 22 44  1  0  0  0  0
 22 45  1  0  0  0  0
 22 46  1  0  0  0  0
M  END
> <s_m_source_file>
AV-unprocessed.smi

> <i_m_source_file_index>
1535

> <i_lp_mmshare_version>
43012

> <i_f3d_flags>
0

> <s_epik_input>
W0NIM11jKFtjSF0xKWMoW0NIM10pW2NIXWMoYzEyKW4oW2NIXW4yKVtDSDJdW0NASF0oW09IXSlbQ0gyXU4oW0NIM10pW0NIMl1bQ0BIXShbQ0gzXSlDI04=

> <s_epik_cmdline>
J2VwaWtfcHl0aG9uJywgJy1waCcsICc3LjAnLCAnLXRuJywgJzgnLCAnLW1hJywgJzIwMCcsICctbWV0YWxfYmluZGluZycsICctaW1hZScsICc8aW5maWxlLm1hZT4nLCAnLW9tYWUnLCAnPG91dGZpbGUubWFlPic=

> <r_epik_Ionization_Penalty>
0.098511

> <r_epik_Ionization_Penalty_Charging>
0

> <r_epik_Ionization_Penalty_Neutral>
0.098511

> <r_epik_State_Penalty>
0.0881608

> <r_epik_Charging_Adjusted_Penalty>
0.0881608

> <i_epik_Tot_Q>
0

> <i_epik_Tot_abs_Q>
0

> <r_epik_Metal_State_Penalty>
0.0128087

> <b_epik_Metal_Only>
0

> <s_lp_Force_Field>
OPLS_2005

> <r_lp_Energy>
24.761

> <b_lp_Chiralities_Consistent>
1

> <s_lp_Variant>
AV-unprocessed.smi:1535-2

> <Gold.Version>
5.8.1

> <Gold.Id.Protein>
6NUR|6NUR_protein|mol2

> <Gold.PLP.Fitness>
45.3951

> <Gold.PLP.PLP>
-42.4516

> <Gold.PLP.part.hbond>
-2.0000

> <Gold.PLP.part.metal>
0.0000

> <Gold.PLP.part.buried>
-6.2040

> <Gold.PLP.part.nonpolar>
-34.9702

> <Gold.PLP.part.repulsive>
0.0711

> <Gold.PLP.ligand.clash>
0.0000

> <Gold.PLP.ligand.torsion>
1.0725

> <Gold.PLP.Chemscore.Hbond>
1.6800

> <Gold.PLP.Chemscore.CHOScore>
0.0000

> <Gold.PLP.Chemscore.Metal>
0.0000

> <Gold.Chemscore.Hbonds>
donor molecule, donor type, donor heavy atom, donor atom, acceptor molecule, acceptor atom, score
      P1  H  6896  6907       L1    18  0.99
      P1  H  6896  6908       L1    10  0.69

> <Gold.PLP.Chemscore.Internal.Correction>
0.0484

> <Gold.Rescore>
     Score         DG    S(hbond)    S(metal)    S(lipo)     H(rot)  DE(clash)    DE(int)     intcor
     15.37     -16.51       1.27        0.00     112.92       2.51       0.14       1.00       ----

> <Gold.Chemscore.Fitness>
15.3747

> <Gold.Chemscore.DG>
-16.5136

> <Gold.Chemscore.ZeroCoef>
-5.4800

> <Gold.Chemscore.Hbond>
1.2729

> <Gold.Chemscore.Metal>
0.0000

> <Gold.Chemscore.Lipo>
112.9158

> <Gold.Chemscore.Internal_Hbond>
0.0000

> <Gold.Chemscore.DEClash>
0.1359

> <Gold.Chemscore.DEInternal>
1.0030

> <Gold.Chemscore.Rot>
2.5113

> <Gold.Chemscore.Internal.Correction>
   9.000000E+99

> <Gold.Chemscore.Hbonds>
donor molecule, donor type, donor heavy atom, donor atom, acceptor molecule, acceptor atom, score
      P1  H  6896  6907       L1    18  0.66
      P1  H  6896  6908       L1    10  0.32

> <Gold.Chemscore.Hbond.Weighted>
-4.2513

> <Gold.Chemscore.Metal.Weighted>
-0.0000

> <Gold.Chemscore.Lipo.Weighted>
-13.2112

> <Gold.Chemscore.Internal_Hbond.Weighted>
0.0000

> <Gold.Chemscore.DEClash.Weighted>
0.1359

> <Gold.Chemscore.DEInternal.Weighted>
1.0030

> <Gold.Chemscore.Rot.Weighted>
6.4289

> <Gold.Chemscore.Internal.Correction.Weighted>
   9.000000E+99

> <Gold.Protein.RotatedTorsions>
[ 6907 6896 6895 6894 ] final -123.43 input  -60.11 | X-H torsion
[ 7974 7965 7964 7962 ] final  143.00 input  175.53 | X-H torsion
[ 8008 7997 7996 7995 ] final  117.14 input   59.86 | X-H torsion
[ 10167 10162 10161 10158 ] final -159.90 input  -65.29 | X-H torsion
[ 10718 10713 10712 10709 ] final -121.42 input   66.30 | X-H torsion
[ 10763 10752 10751 10750 ] final   41.23 input  -60.55 | X-H torsion
[ 11005 11000 10999 10996 ] final  103.55 input  -57.11 | X-H torsion

> <Gold.Protein.ActiveResidues>
 VAL166  LYS551  ARG553  GLY616  TRP617  ASP618  TYR619  PRO620  LYS621  CYS622 
 ASP623  PHE694  ASN695  SER759  ASP760  ASP761  ALA762  ILE779  LEU786  VAL792 
 PHE793  MET794  SER795  GLU796  ALA797  LYS798  CYS799  TRP800  GLU811  SER814 

> <Gold.Protein.RotatedAtoms>
  150.8670  133.7560  159.2973 H   0  0  0  0  0  0  0  0  0  0  0  0  # atno 6907 bound_to 6896
  151.5184  135.1065  159.9882 H   0  0  0  0  0  0  0  0  0  0  0  0  # atno 6908 bound_to 6896
  152.4668  133.7896  159.6950 H   0  0  0  0  0  0  0  0  0  0  0  0  # atno 6909 bound_to 6896
  144.8958  139.5492  143.5777 H   0  0  0  0  0  0  0  0  0  0  0  0  # atno 7974 bound_to 7965
  156.2478  140.2902  156.0632 H   0  0  0  0  0  0  0  0  0  0  0  0  # atno 8008 bound_to 7997
  155.1752  140.0403  157.2888 H   0  0  0  0  0  0  0  0  0  0  0  0  # atno 8009 bound_to 7997
  154.6298  140.2496  155.7455 H   0  0  0  0  0  0  0  0  0  0  0  0  # atno 8010 bound_to 7997
  139.6580  143.9964  152.2207 H   0  0  0  0  0  0  0  0  0  0  0  0  # atno 10167 bound_to 10162
  156.1335  130.6413  150.9660 H   0  0  0  0  0  0  0  0  0  0  0  0  # atno 10718 bound_to 10713
  152.9914  135.6168  154.2753 H   0  0  0  0  0  0  0  0  0  0  0  0  # atno 10763 bound_to 10752
  154.2485  135.2786  155.2828 H   0  0  0  0  0  0  0  0  0  0  0  0  # atno 10764 bound_to 10752
  154.5309  135.5788  153.6815 H   0  0  0  0  0  0  0  0  0  0  0  0  # atno 10765 bound_to 10752
  139.8784  134.9267  156.5226 H   0  0  0  0  0  0  0  0  0  0  0  0  # atno 11005 bound_to 11000
  146.3081  139.7648  142.9041 LP  0  0  0  0  0  0  0  0  0  0  0  0  # atno 17320 bound_to 7965
  145.3702  141.0341  143.3235 LP  0  0  0  0  0  0  0  0  0  0  0  0  # atno 17321 bound_to 7965
  139.9695  144.6503  150.8002 LP  0  0  0  0  0  0  0  0  0  0  0  0  # atno 17342 bound_to 10162
  140.7568  143.3072  151.2932 LP  0  0  0  0  0  0  0  0  0  0  0  0  # atno 17343 bound_to 10162
  157.6511  131.0897  150.8049 LP  0  0  0  0  0  0  0  0  0  0  0  0  # atno 17370 bound_to 10713
  156.8131  130.4959  149.5353 LP  0  0  0  0  0  0  0  0  0  0  0  0  # atno 17371 bound_to 10713
  140.8439  133.8184  155.9102 LP  0  0  0  0  0  0  0  0  0  0  0  0  # atno 17394 bound_to 11000
  140.9210  134.2141  157.4926 LP  0  0  0  0  0  0  0  0  0  0  0  0  # atno 17395 bound_to 11000

$$$$
