AV-unprocessed.smi:671|AV-procd|sdf|3280|dock6
  -GOLD-   22720 0243D 1   1.00000     0.00000
 Structure written by MMmdl.
 49 50  0  0  0  0  0  0  0  0  1 V2000
  152.6757  137.4897  156.6888 C   0  0  0  0  0  0  0  0  0  0  0  0
  151.3865  136.9114  156.1794 C   0  0  0  0  0  0  0  0  0  0  0  0
  151.3690  135.6683  155.7279 N   0  0  0  0  0  0  0  0  0  0  0  0
  150.0917  135.4552  155.3532 N   0  0  0  0  0  0  0  0  0  0  0  0
  149.7207  134.1668  154.8007 C   0  0  0  0  0  0  0  0  0  0  0  0
  149.3015  136.5686  155.5626 C   0  0  0  0  0  0  0  0  0  0  0  0
  147.8455  136.5911  155.2236 C   0  0  0  0  0  0  0  0  0  0  0  0
  150.1067  137.5352  156.1030 C   0  0  0  0  0  0  0  0  0  0  0  0
  149.7356  138.9347  156.5211 C   0  0  0  0  0  0  0  0  0  0  0  0
  150.3208  140.0049  155.5732 C   0  0  1  0  0  0  0  0  0  0  0  0
  149.3900  140.3157  154.3904 C   0  0  0  0  0  0  0  0  0  0  0  0
  150.5890  141.2470  156.3022 N   0  0  0  0  0  0  0  0  0  0  0  0
  151.5556  141.4879  157.2073 C   0  0  0  0  0  0  0  0  0  0  0  0
  152.3768  140.6295  157.5242 O   0  0  0  0  0  0  0  0  0  0  0  0
  151.5519  142.7335  157.7106 N   0  0  0  0  0  0  0  0  0  0  0  0
  152.4865  143.2535  158.7037 C   0  0  1  0  0  0  0  0  0  0  0  0
  152.2278  144.7533  158.9349 C   0  0  0  0  0  0  0  0  0  0  0  0
  151.5553  144.8551  160.3028 C   0  0  0  0  0  0  0  0  0  0  0  0
  152.1634  143.7018  161.0933 C   0  0  0  0  0  0  0  0  0  0  0  0
  152.2864  142.5638  160.0735 C   0  0  2  0  0  0  0  0  0  0  0  0
  153.3883  141.5547  160.4234 C   0  0  0  0  0  0  0  0  0  0  0  0
  153.1421  138.1225  155.9339 H   0  0  0  0  0  0  0  0  0  0  0  0
  153.3892  136.7098  156.9566 H   0  0  0  0  0  0  0  0  0  0  0  0
  152.5093  138.0997  157.5764 H   0  0  0  0  0  0  0  0  0  0  0  0
  149.6359  134.2455  153.7170 H   0  0  0  0  0  0  0  0  0  0  0  0
  148.7626  133.8483  155.2116 H   0  0  0  0  0  0  0  0  0  0  0  0
  150.4720  133.4145  155.0451 H   0  0  0  0  0  0  0  0  0  0  0  0
  147.4269  137.5893  155.3466 H   0  0  0  0  0  0  0  0  0  0  0  0
  147.2876  135.9136  155.8701 H   0  0  0  0  0  0  0  0  0  0  0  0
  147.6813  136.2868  154.1898 H   0  0  0  0  0  0  0  0  0  0  0  0
  148.6524  139.0515  156.5701 H   0  0  0  0  0  0  0  0  0  0  0  0
  150.0841  139.1131  157.5387 H   0  0  0  0  0  0  0  0  0  0  0  0
  151.2591  139.6371  155.1544 H   0  0  0  0  0  0  0  0  0  0  0  0
  149.2180  139.4322  153.7752 H   0  0  0  0  0  0  0  0  0  0  0  0
  149.8207  141.0806  153.7434 H   0  0  0  0  0  0  0  0  0  0  0  0
  148.4196  140.6772  154.7324 H   0  0  0  0  0  0  0  0  0  0  0  0
  150.0027  142.0316  156.0562 H   0  0  0  0  0  0  0  0  0  0  0  0
  150.8401  143.3698  157.3832 H   0  0  0  0  0  0  0  0  0  0  0  0
  153.5117  143.1316  158.3490 H   0  0  0  0  0  0  0  0  0  0  0  0
  153.1827  145.2793  158.9682 H   0  0  0  0  0  0  0  0  0  0  0  0
  151.6351  145.2203  158.1470 H   0  0  0  0  0  0  0  0  0  0  0  0
  151.7151  145.8228  160.7788 H   0  0  0  0  0  0  0  0  0  0  0  0
  150.4799  144.7052  160.1989 H   0  0  0  0  0  0  0  0  0  0  0  0
  153.1505  143.9927  161.4557 H   0  0  0  0  0  0  0  0  0  0  0  0
  151.5612  143.4245  161.9589 H   0  0  0  0  0  0  0  0  0  0  0  0
  151.3316  142.0345  160.0686 H   0  0  0  0  0  0  0  0  0  0  0  0
  154.3682  142.0313  160.4539 H   0  0  0  0  0  0  0  0  0  0  0  0
  153.4309  140.7528  159.6862 H   0  0  0  0  0  0  0  0  0  0  0  0
  153.2074  141.1001  161.3978 H   0  0  0  0  0  0  0  0  0  0  0  0
  1  2  1  0  0  0  0
  1 22  1  0  0  0  0
  1 23  1  0  0  0  0
  1 24  1  0  0  0  0
  2  8  1  0  0  0  0
  2  3  2  0  0  0  0
  3  4  1  0  0  0  0
  4  5  1  0  0  0  0
  4  6  1  0  0  0  0
  5 25  1  0  0  0  0
  5 26  1  0  0  0  0
  5 27  1  0  0  0  0
  6  7  1  0  0  0  0
  6  8  2  0  0  0  0
  7 28  1  0  0  0  0
  7 29  1  0  0  0  0
  7 30  1  0  0  0  0
  8  9  1  0  0  0  0
  9 10  1  0  0  0  0
  9 31  1  0  0  0  0
  9 32  1  0  0  0  0
 10 11  1  0  0  0  0
 10 12  1  0  0  0  0
 10 33  1  0  0  0  0
 11 34  1  0  0  0  0
 11 35  1  0  0  0  0
 11 36  1  0  0  0  0
 12 13  1  0  0  0  0
 12 37  1  0  0  0  0
 13 14  2  0  0  0  0
 13 15  1  0  0  0  0
 15 16  1  0  0  0  0
 15 38  1  0  0  0  0
 16 20  1  0  0  0  0
 16 17  1  0  0  0  0
 16 39  1  0  0  0  0
 17 18  1  0  0  0  0
 17 40  1  0  0  0  0
 17 41  1  0  0  0  0
 18 19  1  0  0  0  0
 18 42  1  0  0  0  0
 18 43  1  0  0  0  0
 19 20  1  0  0  0  0
 19 44  1  0  0  0  0
 19 45  1  0  0  0  0
 20 21  1  0  0  0  0
 20 46  1  0  0  0  0
 21 47  1  0  0  0  0
 21 48  1  0  0  0  0
 21 49  1  0  0  0  0
M  END
> <s_m_source_file>
AV-unprocessed.smi

> <i_m_source_file_index>
671

> <i_lp_mmshare_version>
43012

> <i_f3d_flags>
0

> <s_epik_input>
W0NIM11jMW5uKFtDSDNdKWMoW0NIM10pYzFbQ0gyXVtDQEhdKFtDSDNdKVtOSF1DKD1PKVtOSF1bQ0BASF0yW0NIMl1bQ0gyXVtDSDJdW0NASF0yW0NIM10=

> <s_epik_cmdline>
J2VwaWtfcHl0aG9uJywgJy1waCcsICc3LjAnLCAnLXRuJywgJzgnLCAnLW1hJywgJzIwMCcsICctbWV0YWxfYmluZGluZycsICctaW1hZScsICc8aW5maWxlLm1hZT4nLCAnLW9tYWUnLCAnPG91dGZpbGUubWFlPic=

> <r_lp_tautomer_probability>
1

> <r_epik_Ionization_Penalty>
0.0126855

> <r_epik_Ionization_Penalty_Charging>
0

> <r_epik_Ionization_Penalty_Neutral>
0.0126855

> <r_epik_State_Penalty>
0.00977547

> <r_epik_Charging_Adjusted_Penalty>
0.00977547

> <i_epik_Tot_Q>
0

> <i_epik_Tot_abs_Q>
0

> <r_epik_Metal_State_Penalty>
0.00957132

> <b_epik_Metal_Only>
0

> <s_lp_Force_Field>
OPLS_2005

> <r_lp_Energy>
22.0213

> <b_lp_Chiralities_Consistent>
1

> <s_lp_Variant>
AV-unprocessed.smi:671-8

> <Gold.Version>
5.8.1

> <Gold.Id.Protein>
6NUR|6NUR_protein|mol2

> <Gold.PLP.Fitness>
42.7866

> <Gold.PLP.PLP>
-39.5487

> <Gold.PLP.part.hbond>
-2.0000

> <Gold.PLP.part.metal>
0.0000

> <Gold.PLP.part.buried>
-3.6555

> <Gold.PLP.part.nonpolar>
-33.2047

> <Gold.PLP.part.repulsive>
0.1531

> <Gold.PLP.ligand.clash>
0.0000

> <Gold.PLP.ligand.torsion>
0.6749

> <Gold.PLP.Chemscore.Hbond>
1.5200

> <Gold.PLP.Chemscore.CHOScore>
0.0000

> <Gold.PLP.Chemscore.Metal>
0.0000

> <Gold.Chemscore.Hbonds>
donor molecule, donor type, donor heavy atom, donor atom, acceptor molecule, acceptor atom, score
      P1  H  7997  8009       L1    14  0.38
      P1  H 10752 10763       L1     3  0.94

> <Gold.PLP.Chemscore.Internal.Correction>
0.0277

> <Gold.Rescore>
     Score         DG    S(hbond)    S(metal)    S(lipo)     H(rot)  DE(clash)    DE(int)     intcor
     18.77     -19.52       1.47        0.00     109.67       1.45       0.07       0.68       ----

> <Gold.Chemscore.Fitness>
18.7702

> <Gold.Chemscore.DG>
-19.5172

> <Gold.Chemscore.ZeroCoef>
-5.4800

> <Gold.Chemscore.Hbond>
1.4724

> <Gold.Chemscore.Metal>
0.0000

> <Gold.Chemscore.Lipo>
109.6687

> <Gold.Chemscore.Internal_Hbond>
0.0000

> <Gold.Chemscore.DEClash>
0.0680

> <Gold.Chemscore.DEInternal>
0.6790

> <Gold.Chemscore.Rot>
1.4499

> <Gold.Chemscore.Internal.Correction>
   9.000000E+99

> <Gold.Chemscore.Hbonds>
donor molecule, donor type, donor heavy atom, donor atom, acceptor molecule, acceptor atom, score
      P1  H  7997  8009       L1    14  0.36
      P1  H 10752 10763       L1     3  0.31

> <Gold.Chemscore.Hbond.Weighted>
-4.9178

> <Gold.Chemscore.Metal.Weighted>
-0.0000

> <Gold.Chemscore.Lipo.Weighted>
-12.8312

> <Gold.Chemscore.Internal_Hbond.Weighted>
0.0000

> <Gold.Chemscore.DEClash.Weighted>
0.0680

> <Gold.Chemscore.DEInternal.Weighted>
0.6790

> <Gold.Chemscore.Rot.Weighted>
3.7118

> <Gold.Chemscore.Internal.Correction.Weighted>
   9.000000E+99

> <Gold.Protein.RotatedTorsions>
[ 6907 6896 6895 6894 ] final    8.43 input  -60.11 | X-H torsion
[ 7974 7965 7964 7962 ] final -137.00 input  175.53 | X-H torsion
[ 8008 7997 7996 7995 ] final  170.18 input   59.86 | X-H torsion
[ 10167 10162 10161 10158 ] final  -75.49 input  -65.29 | X-H torsion
[ 10718 10713 10712 10709 ] final -138.06 input   66.30 | X-H torsion
[ 10763 10752 10751 10750 ] final   97.16 input  -60.55 | X-H torsion
[ 11005 11000 10999 10996 ] final -112.95 input  -57.11 | X-H torsion

> <Gold.Protein.ActiveResidues>
 VAL166  LYS551  ARG553  GLY616  TRP617  ASP618  TYR619  PRO620  LYS621  CYS622 
 ASP623  PHE694  ASN695  SER759  ASP760  ASP761  ALA762  ILE779  LEU786  VAL792 
 PHE793  MET794  SER795  GLU796  ALA797  LYS798  CYS799  TRP800  GLU811  SER814 

> <Gold.Protein.RotatedAtoms>
  151.7059  135.0921  160.0258 H   0  0  0  0  0  0  0  0  0  0  0  0  # atno 6907 bound_to 6896
  152.3691  133.6391  159.6082 H   0  0  0  0  0  0  0  0  0  0  0  0  # atno 6908 bound_to 6896
  150.7660  133.9215  159.3441 H   0  0  0  0  0  0  0  0  0  0  0  0  # atno 6909 bound_to 6896
  144.8879  140.6601  143.5164 H   0  0  0  0  0  0  0  0  0  0  0  0  # atno 7974 bound_to 7965
  156.1389  140.1544  156.8951 H   0  0  0  0  0  0  0  0  0  0  0  0  # atno 8008 bound_to 7997
  154.4971  140.0835  156.7757 H   0  0  0  0  0  0  0  0  0  0  0  0  # atno 8009 bound_to 7997
  155.4116  140.3419  155.4266 H   0  0  0  0  0  0  0  0  0  0  0  0  # atno 8010 bound_to 7997
  140.4938  143.2375  151.7864 H   0  0  0  0  0  0  0  0  0  0  0  0  # atno 10167 bound_to 10162
  156.2951  130.7397  151.1433 H   0  0  0  0  0  0  0  0  0  0  0  0  # atno 10718 bound_to 10713
  153.2736  135.4193  155.1011 H   0  0  0  0  0  0  0  0  0  0  0  0  # atno 10763 bound_to 10752
  154.8465  135.3478  154.6210 H   0  0  0  0  0  0  0  0  0  0  0  0  # atno 10764 bound_to 10752
  153.6630  135.7047  153.5229 H   0  0  0  0  0  0  0  0  0  0  0  0  # atno 10765 bound_to 10752
  141.0644  133.9483  157.2606 H   0  0  0  0  0  0  0  0  0  0  0  0  # atno 11005 bound_to 11000
  145.3836  139.1631  143.4267 LP  0  0  0  0  0  0  0  0  0  0  0  0  # atno 17320 bound_to 7965
  146.3036  140.3919  142.8695 LP  0  0  0  0  0  0  0  0  0  0  0  0  # atno 17321 bound_to 7965
  139.4857  144.4614  151.9537 LP  0  0  0  0  0  0  0  0  0  0  0  0  # atno 17342 bound_to 10162
  140.3701  144.2866  150.5921 LP  0  0  0  0  0  0  0  0  0  0  0  0  # atno 17343 bound_to 10162
  157.7353  131.0573  150.5478 LP  0  0  0  0  0  0  0  0  0  0  0  0  # atno 17370 bound_to 10713
  156.5598  130.4253  149.6068 LP  0  0  0  0  0  0  0  0  0  0  0  0  # atno 17371 bound_to 10713
  139.9463  135.0183  156.8860 LP  0  0  0  0  0  0  0  0  0  0  0  0  # atno 17394 bound_to 11000
  140.5803  134.0359  155.7461 LP  0  0  0  0  0  0  0  0  0  0  0  0  # atno 17395 bound_to 11000

$$$$
