AV-unprocessed.smi:2279|AV-procd|sdf|9186|dock8
  -GOLD-   2272012403D 1   1.00000     0.00000
 Structure written by MMmdl.
 58 60  0  0  0  0  0  0  0  0  3 V2000
  151.0363  145.0244  159.2982 C   0  0  0  0  0  0  0  0  0  0  0  0
  151.7722  143.8304  159.8690 C   0  0  0  0  0  0  0  0  0  0  0  0
  152.2156  143.8261  161.2054 C   0  0  0  0  0  0  0  0  0  0  0  0
  152.8938  142.6850  161.6771 C   0  0  0  0  0  0  0  0  0  0  0  0
  153.4037  142.6148  163.1012 C   0  0  0  0  0  0  0  0  0  0  0  0
  153.1303  141.5993  160.9103 N   0  0  0  0  0  0  0  0  0  0  0  0
  152.7062  141.5910  159.6222 C   0  0  0  0  0  0  0  0  0  0  0  0
  152.9137  140.5025  158.7333 N   0  0  0  0  0  0  0  0  0  0  0  0
  152.1102  140.0803  157.7409 C   0  0  0  0  0  0  0  0  0  0  0  0
  151.0548  140.6169  157.4024 O   0  0  0  0  0  0  0  0  0  0  0  0
  152.6093  138.9913  157.1365 N   0  0  0  0  0  0  0  0  0  0  0  0
  151.9879  138.3047  156.0072 C   0  0  2  0  0  0  0  0  0  0  0  0
  151.3928  139.3261  155.0234 C   0  0  0  0  0  0  0  0  0  0  0  0
  150.6480  138.6068  153.8832 C   0  0  0  0  0  0  0  0  0  0  0  0
  149.5536  137.7353  154.4001 N   0  3  2  0  0  0  0  0  0  0  0  0
  148.3427  138.4472  154.9404 C   0  0  2  0  0  0  0  0  0  0  0  0
  147.2742  137.4720  155.4914 C   0  0  0  0  0  0  0  0  0  0  0  0
  146.6053  136.6558  154.3693 C   0  0  0  0  0  0  0  0  0  0  0  0
  145.9837  137.5449  153.3561 N   0  3  2  0  0  0  0  0  0  0  0  0
  145.2694  136.7881  152.3054 C   0  0  0  0  0  0  0  0  0  0  0  0
  146.9501  138.5200  152.7919 C   0  0  0  0  0  0  0  0  0  0  0  0
  147.6176  139.3454  153.9078 C   0  0  0  0  0  0  0  0  0  0  0  0
  150.1329  136.7057  155.3122 C   0  0  0  0  0  0  0  0  0  0  0  0
  150.8951  137.3351  156.4959 C   0  0  0  0  0  0  0  0  0  0  0  0
  152.0245  142.6980  159.0682 C   0  0  0  0  0  0  0  0  0  0  0  0
  151.0495  145.8663  159.9913 H   0  0  0  0  0  0  0  0  0  0  0  0
  149.9971  144.7649  159.0950 H   0  0  0  0  0  0  0  0  0  0  0  0
  151.4997  145.3453  158.3649 H   0  0  0  0  0  0  0  0  0  0  0  0
  152.0417  144.6745  161.8511 H   0  0  0  0  0  0  0  0  0  0  0  0
  153.3247  143.5824  163.5973 H   0  0  0  0  0  0  0  0  0  0  0  0
  154.4511  142.3113  163.1170 H   0  0  0  0  0  0  0  0  0  0  0  0
  152.8261  141.8885  163.6736 H   0  0  0  0  0  0  0  0  0  0  0  0
  153.7709  139.9879  158.8705 H   0  0  0  0  0  0  0  0  0  0  0  0
  153.4829  138.6172  157.4779 H   0  0  0  0  0  0  0  0  0  0  0  0
  152.7468  137.7323  155.4698 H   0  0  0  0  0  0  0  0  0  0  0  0
  150.7166  140.0066  155.5424 H   0  0  0  0  0  0  0  0  0  0  0  0
  152.1894  139.9440  154.6069 H   0  0  0  0  0  0  0  0  0  0  0  0
  150.2967  139.3119  153.1328 H   0  0  0  0  0  0  0  0  0  0  0  0
  151.3562  137.9737  153.3462 H   0  0  0  0  0  0  0  0  0  0  0  0
  148.6684  139.0927  155.7557 H   0  0  0  0  0  0  0  0  0  0  0  0
  147.6711  136.8080  156.2564 H   0  0  0  0  0  0  0  0  0  0  0  0
  146.5035  138.0499  156.0039 H   0  0  0  0  0  0  0  0  0  0  0  0
  147.3351  136.0021  153.8890 H   0  0  0  0  0  0  0  0  0  0  0  0
  145.8386  136.0097  154.7991 H   0  0  0  0  0  0  0  0  0  0  0  0
  145.9596  136.1701  151.7293 H   0  0  0  0  0  0  0  0  0  0  0  0
  144.7628  137.4666  151.6182 H   0  0  0  0  0  0  0  0  0  0  0  0
  144.5136  136.1370  152.7458 H   0  0  0  0  0  0  0  0  0  0  0  0
  147.7035  137.9937  152.2040 H   0  0  0  0  0  0  0  0  0  0  0  0
  146.4278  139.1898  152.1078 H   0  0  0  0  0  0  0  0  0  0  0  0
  146.8410  139.9115  154.4245 H   0  0  0  0  0  0  0  0  0  0  0  0
  148.2719  140.1099  153.4919 H   0  0  0  0  0  0  0  0  0  0  0  0
  149.3828  136.0060  155.6733 H   0  0  0  0  0  0  0  0  0  0  0  0
  150.8277  136.0961  154.7327 H   0  0  0  0  0  0  0  0  0  0  0  0
  151.3455  136.5448  157.0980 H   0  0  0  0  0  0  0  0  0  0  0  0
  150.2003  137.8543  157.1565 H   0  0  0  0  0  0  0  0  0  0  0  0
  151.6928  142.6801  158.0399 H   0  0  0  0  0  0  0  0  0  0  0  0
  149.2190  137.2273  153.5938 H   0  0  0  0  0  0  0  0  0  0  0  0
  145.2818  138.0860  153.8416 H   0  0  0  0  0  0  0  0  0  0  0  0
  1  2  1  0  0  0  0
  1 26  1  0  0  0  0
  1 27  1  0  0  0  0
  1 28  1  0  0  0  0
  2 25  1  0  0  0  0
  2  3  2  0  0  0  0
  3  4  1  0  0  0  0
  3 29  1  0  0  0  0
  4  5  1  0  0  0  0
  4  6  2  0  0  0  0
  5 30  1  0  0  0  0
  5 31  1  0  0  0  0
  5 32  1  0  0  0  0
  6  7  1  0  0  0  0
  7  8  1  0  0  0  0
  7 25  2  0  0  0  0
  8  9  1  0  0  0  0
  8 33  1  0  0  0  0
  9 10  2  0  0  0  0
  9 11  1  0  0  0  0
 11 12  1  0  0  0  0
 11 34  1  0  0  0  0
 12 24  1  0  0  0  0
 12 13  1  0  0  0  0
 12 35  1  0  0  0  0
 13 14  1  0  0  0  0
 13 36  1  0  0  0  0
 13 37  1  0  0  0  0
 14 15  1  0  0  0  0
 14 38  1  0  0  0  0
 14 39  1  0  0  0  0
 15 16  1  0  0  0  0
 15 23  1  0  0  0  0
 15 57  1  0  0  0  0
 16 22  1  0  0  0  0
 16 17  1  0  0  0  0
 16 40  1  0  0  0  0
 17 18  1  0  0  0  0
 17 41  1  0  0  0  0
 17 42  1  0  0  0  0
 18 19  1  0  0  0  0
 18 43  1  0  0  0  0
 18 44  1  0  0  0  0
 19 20  1  0  0  0  0
 19 21  1  0  0  0  0
 19 58  1  0  0  0  0
 20 45  1  0  0  0  0
 20 46  1  0  0  0  0
 20 47  1  0  0  0  0
 21 22  1  0  0  0  0
 21 48  1  0  0  0  0
 21 49  1  0  0  0  0
 22 50  1  0  0  0  0
 22 51  1  0  0  0  0
 23 24  1  0  0  0  0
 23 52  1  0  0  0  0
 23 53  1  0  0  0  0
 24 54  1  0  0  0  0
 24 55  1  0  0  0  0
 25 56  1  0  0  0  0
M  CHG  1  15   1
M  CHG  1  19   1
M  END
> <s_m_source_file>
AV-unprocessed.smi

> <i_m_source_file_index>
2279

> <i_lp_mmshare_version>
43012

> <i_f3d_flags>
0

> <s_epik_input>
W0NIM11jMVtjSF1jKFtDSDNdKW5jKFtjSF0xKVtOSF1DKD1PKVtOSF1bQ0hdMltDSDJdW0NIMl1OKFtDSDJdW0NIMl0yKVtDSF0zW0NIMl1bQ0gyXU4oW0NIM10pW0NIMl1bQ0gyXTM=

> <s_epik_cmdline>
J2VwaWtfcHl0aG9uJywgJy1waCcsICc3LjAnLCAnLXRuJywgJzgnLCAnLW1hJywgJzIwMCcsICctbWV0YWxfYmluZGluZycsICctaW1hZScsICc8aW5maWxlLm1hZT4nLCAnLW9tYWUnLCAnPG91dGZpbGUubWFlPic=

> <r_epik_Ionization_Penalty>
0.180973

> <r_epik_Ionization_Penalty_Charging>
0.180787

> <r_epik_Ionization_Penalty_Neutral>
0.000186186

> <r_epik_State_Penalty>
0.153592

> <r_epik_Charging_Adjusted_Penalty>
0.334379

> <i_epik_Tot_Q>
2

> <i_epik_Tot_abs_Q>
2

> <r_epik_Metal_State_Penalty>
0.153604

> <b_epik_Metal_Only>
0

> <s_lp_Force_Field>
OPLS_2005

> <r_lp_Energy>
49.6144

> <b_lp_Chiralities_Consistent>
1

> <s_lp_Variant>
AV-unprocessed.smi:2279-4

> <Gold.Version>
5.8.1

> <Gold.Id.Protein>
6NUR|6NUR_protein|mol2

> <Gold.PLP.Fitness>
47.8953

> <Gold.PLP.PLP>
-43.8252

> <Gold.PLP.part.hbond>
-1.0000

> <Gold.PLP.part.metal>
0.0000

> <Gold.PLP.part.buried>
-5.3453

> <Gold.PLP.part.nonpolar>
-37.6009

> <Gold.PLP.part.repulsive>
0.2051

> <Gold.PLP.ligand.clash>
0.8109

> <Gold.PLP.ligand.torsion>
0.5829

> <Gold.PLP.Chemscore.Hbond>
2.0000

> <Gold.PLP.Chemscore.CHOScore>
0.0000

> <Gold.PLP.Chemscore.Metal>
0.0000

> <Gold.Chemscore.Hbonds>
donor molecule, donor type, donor heavy atom, donor atom, acceptor molecule, acceptor atom, score
      L1  H    15    57       P1  7948  2.00

> <Gold.PLP.Chemscore.Internal.Correction>
0.0467

> <Gold.Rescore>
     Score         DG    S(hbond)    S(metal)    S(lipo)     H(rot)  DE(clash)    DE(int)     intcor
     16.59     -20.20       0.99        0.00     123.92       1.21       0.07       3.54       ----

> <Gold.Chemscore.Fitness>
16.5879

> <Gold.Chemscore.DG>
-20.2010

> <Gold.Chemscore.ZeroCoef>
-5.4800

> <Gold.Chemscore.Hbond>
0.9937

> <Gold.Chemscore.Metal>
0.0000

> <Gold.Chemscore.Lipo>
123.9164

> <Gold.Chemscore.Internal_Hbond>
0.0000

> <Gold.Chemscore.DEClash>
0.0682

> <Gold.Chemscore.DEInternal>
3.5449

> <Gold.Chemscore.Rot>
1.2095

> <Gold.Chemscore.Internal.Correction>
   9.000000E+99

> <Gold.Chemscore.Hbonds>
donor molecule, donor type, donor heavy atom, donor atom, acceptor molecule, acceptor atom, score
      L1  H    15    57       P1  7948  0.96

> <Gold.Chemscore.Hbond.Weighted>
-3.3190

> <Gold.Chemscore.Metal.Weighted>
-0.0000

> <Gold.Chemscore.Lipo.Weighted>
-14.4982

> <Gold.Chemscore.Internal_Hbond.Weighted>
0.0000

> <Gold.Chemscore.DEClash.Weighted>
0.0682

> <Gold.Chemscore.DEInternal.Weighted>
3.5449

> <Gold.Chemscore.Rot.Weighted>
3.0963

> <Gold.Chemscore.Internal.Correction.Weighted>
   9.000000E+99

> <Gold.Protein.RotatedTorsions>
[ 6907 6896 6895 6894 ] final  -99.18 input  -60.11 | X-H torsion
[ 7974 7965 7964 7962 ] final  100.31 input  175.53 | X-H torsion
[ 8008 7997 7996 7995 ] final  -67.20 input   59.86 | X-H torsion
[ 10167 10162 10161 10158 ] final  -10.39 input  -65.29 | X-H torsion
[ 10718 10713 10712 10709 ] final  150.82 input   66.30 | X-H torsion
[ 10763 10752 10751 10750 ] final  -91.94 input  -60.55 | X-H torsion
[ 11005 11000 10999 10996 ] final  103.01 input  -57.11 | X-H torsion

> <Gold.Protein.ActiveResidues>
 VAL166  LYS551  ARG553  GLY616  TRP617  ASP618  TYR619  PRO620  LYS621  CYS622 
 ASP623  PHE694  ASN695  SER759  ASP760  ASP761  ALA762  ILE779  LEU786  VAL792 
 PHE793  MET794  SER795  GLU796  ALA797  LYS798  CYS799  TRP800  GLU811  SER814 

> <Gold.Protein.RotatedAtoms>
  150.7071  134.1080  159.3989 H   0  0  0  0  0  0  0  0  0  0  0  0  # atno 6907 bound_to 6896
  151.9066  135.0354  160.0520 H   0  0  0  0  0  0  0  0  0  0  0  0  # atno 6908 bound_to 6896
  152.2370  133.5069  159.5285 H   0  0  0  0  0  0  0  0  0  0  0  0  # atno 6909 bound_to 6896
  145.3873  139.2369  143.3371 H   0  0  0  0  0  0  0  0  0  0  0  0  # atno 7974 bound_to 7965
  154.4784  140.0897  156.7318 H   0  0  0  0  0  0  0  0  0  0  0  0  # atno 8008 bound_to 7997
  155.4535  140.3458  155.4285 H   0  0  0  0  0  0  0  0  0  0  0  0  # atno 8009 bound_to 7997
  156.1153  140.1459  156.9270 H   0  0  0  0  0  0  0  0  0  0  0  0  # atno 8010 bound_to 7997
  140.7112  143.5753  150.9049 H   0  0  0  0  0  0  0  0  0  0  0  0  # atno 10167 bound_to 10162
  157.2785  131.0831  151.1548 H   0  0  0  0  0  0  0  0  0  0  0  0  # atno 10718 bound_to 10713
  154.6811  135.5249  153.8264 H   0  0  0  0  0  0  0  0  0  0  0  0  # atno 10763 bound_to 10752
  153.0565  135.6552  154.0574 H   0  0  0  0  0  0  0  0  0  0  0  0  # atno 10764 bound_to 10752
  154.0461  135.2973  155.3327 H   0  0  0  0  0  0  0  0  0  0  0  0  # atno 10765 bound_to 10752
  139.8781  134.9246  156.5144 H   0  0  0  0  0  0  0  0  0  0  0  0  # atno 11005 bound_to 11000
  146.2814  140.4550  142.8775 LP  0  0  0  0  0  0  0  0  0  0  0  0  # atno 17320 bound_to 7965
  144.8465  140.6937  143.6196 LP  0  0  0  0  0  0  0  0  0  0  0  0  # atno 17321 bound_to 7965
  139.9479  143.6306  152.3037 LP  0  0  0  0  0  0  0  0  0  0  0  0  # atno 17342 bound_to 10162
  139.6814  144.7655  151.1601 LP  0  0  0  0  0  0  0  0  0  0  0  0  # atno 17343 bound_to 10162
  157.2992  130.6834  149.6155 LP  0  0  0  0  0  0  0  0  0  0  0  0  # atno 17370 bound_to 10713
  155.9664  130.4397  150.5270 LP  0  0  0  0  0  0  0  0  0  0  0  0  # atno 17371 bound_to 10713
  140.8496  133.8142  155.9155 LP  0  0  0  0  0  0  0  0  0  0  0  0  # atno 17394 bound_to 11000
  140.9157  134.2204  157.4958 LP  0  0  0  0  0  0  0  0  0  0  0  0  # atno 17395 bound_to 11000

$$$$
