AV-unprocessed.smi:517|AV-procd|sdf|2790|dock2
  -GOLD-   2262023263D 1   1.00000     0.00000
 Structure written by MMmdl.
 36 37  0  0  0  0  0  0  0  0  2 V2000
  154.3965  140.0580  160.6993 C   0  0  0  0  0  0  0  0  0  0  0  0
  153.3955  139.2810  159.8412 C   0  0  0  0  0  0  0  0  0  0  0  0
  153.4707  139.7617  158.5110 O   0  0  0  0  0  0  0  0  0  0  0  0
  152.4659  139.2214  157.6680 C   0  0  0  0  0  0  0  0  0  0  0  0
  151.0983  139.7766  158.0901 C   0  0  0  0  0  0  0  0  0  0  0  0
  150.9386  141.1898  157.7182 N   0  0  0  0  0  0  0  0  0  0  0  0
  150.2312  141.7642  156.7017 C   0  0  0  0  0  0  0  0  0  0  0  0
  149.4215  141.0626  155.6551 C   0  0  2  0  0  0  0  0  0  0  0  0
  150.2899  140.0773  154.8624 C   0  0  0  0  0  0  0  0  0  0  0  0
  148.8203  141.9682  154.7536 O   0  0  0  0  0  0  0  0  0  0  0  0
  150.4114  143.1127  156.8004 N   0  3  0  0  0  0  0  0  0  0  0  0
  151.2275  143.4036  157.8937 C   0  0  0  0  0  0  0  0  0  0  0  0
  151.6828  144.6198  158.3940 C   0  0  0  0  0  0  0  0  0  0  0  0
  152.5059  144.5651  159.5381 C   0  0  0  0  0  0  0  0  0  0  0  0
  152.8440  143.3361  160.1412 C   0  0  0  0  0  0  0  0  0  0  0  0
  152.3760  142.1097  159.6249 C   0  0  0  0  0  0  0  0  0  0  0  0
  151.5665  142.1726  158.4910 C   0  0  0  0  0  0  0  0  0  0  0  0
  154.3699  139.7172  161.7346 H   0  0  0  0  0  0  0  0  0  0  0  0
  154.1719  141.1248  160.6923 H   0  0  0  0  0  0  0  0  0  0  0  0
  155.4134  139.9265  160.3290 H   0  0  0  0  0  0  0  0  0  0  0  0
  153.6276  138.2155  159.8713 H   0  0  0  0  0  0  0  0  0  0  0  0
  152.3859  139.4122  160.2332 H   0  0  0  0  0  0  0  0  0  0  0  0
  152.6713  139.4831  156.6289 H   0  0  0  0  0  0  0  0  0  0  0  0
  152.4620  138.1327  157.7365 H   0  0  0  0  0  0  0  0  0  0  0  0
  150.2856  139.1969  157.6517 H   0  0  0  0  0  0  0  0  0  0  0  0
  150.9787  139.6999  159.1710 H   0  0  0  0  0  0  0  0  0  0  0  0
  148.6143  140.5130  156.1390 H   0  0  0  0  0  0  0  0  0  0  0  0
  150.7353  139.3315  155.5216 H   0  0  0  0  0  0  0  0  0  0  0  0
  151.1007  140.5883  154.3420 H   0  0  0  0  0  0  0  0  0  0  0  0
  149.6987  139.5449  154.1164 H   0  0  0  0  0  0  0  0  0  0  0  0
  149.1611  142.8328  154.9262 H   0  0  0  0  0  0  0  0  0  0  0  0
  151.4228  145.5625  157.9350 H   0  0  0  0  0  0  0  0  0  0  0  0
  152.8844  145.4837  159.9623 H   0  0  0  0  0  0  0  0  0  0  0  0
  153.4754  143.3337  161.0180 H   0  0  0  0  0  0  0  0  0  0  0  0
  152.6394  141.1743  160.0959 H   0  0  0  0  0  0  0  0  0  0  0  0
  149.9976  143.7813  156.1634 H   0  0  0  0  0  0  0  0  0  0  0  0
  1  2  1  0  0  0  0
  1 18  1  0  0  0  0
  1 19  1  0  0  0  0
  1 20  1  0  0  0  0
  2  3  1  0  0  0  0
  2 21  1  0  0  0  0
  2 22  1  0  0  0  0
  3  4  1  0  0  0  0
  4  5  1  0  0  0  0
  4 23  1  0  0  0  0
  4 24  1  0  0  0  0
  5  6  1  0  0  0  0
  5 25  1  0  0  0  0
  5 26  1  0  0  0  0
  6 17  1  0  0  0  0
  6  7  1  0  0  0  0
  7  8  1  0  0  0  0
  7 11  2  0  0  0  0
  8  9  1  0  0  0  0
  8 10  1  0  0  0  0
  8 27  1  0  0  0  0
  9 28  1  0  0  0  0
  9 29  1  0  0  0  0
  9 30  1  0  0  0  0
 10 31  1  0  0  0  0
 11 12  1  0  0  0  0
 11 36  1  0  0  0  0
 12 17  2  0  0  0  0
 12 13  1  0  0  0  0
 13 14  2  0  0  0  0
 13 32  1  0  0  0  0
 14 15  1  0  0  0  0
 14 33  1  0  0  0  0
 15 16  2  0  0  0  0
 15 34  1  0  0  0  0
 16 17  1  0  0  0  0
 16 35  1  0  0  0  0
M  CHG  1  11   1
M  END
> <s_m_source_file>
AV-unprocessed.smi

> <i_m_source_file_index>
517

> <i_lp_mmshare_version>
43012

> <i_f3d_flags>
0

> <s_epik_input>
W0NIM11bQ0gyXU9bQ0gyXVtDSDJdbihjKG4xKVtDQEhdKFtDSDNdKVtPSF0pYyhjMTIpW2NIXVtjSF1bY0hdW2NIXTI=

> <s_epik_cmdline>
J2VwaWtfcHl0aG9uJywgJy1waCcsICc3LjAnLCAnLXRuJywgJzgnLCAnLW1hJywgJzIwMCcsICctbWV0YWxfYmluZGluZycsICctaW1hZScsICc8aW5maWxlLm1hZT4nLCAnLW9tYWUnLCAnPG91dGZpbGUubWFlPic=

> <r_epik_Ionization_Penalty>
1.46962

> <r_epik_Ionization_Penalty_Charging>
1.46959

> <r_epik_Ionization_Penalty_Neutral>
2.92192e-05

> <r_epik_State_Penalty>
1.55729

> <r_epik_Charging_Adjusted_Penalty>
3.02688

> <i_epik_Tot_Q>
1

> <i_epik_Tot_abs_Q>
1

> <r_epik_Metal_State_Penalty>
5.60569

> <b_epik_Metal_Only>
0

> <s_lp_Force_Field>
OPLS_2005

> <r_lp_Energy>
10.0589

> <b_lp_Chiralities_Consistent>
1

> <s_lp_Variant>
AV-unprocessed.smi:517-3

> <Gold.Version>
5.8.1

> <Gold.Id.Protein>
6NUR|6NUR_protein|mol2

> <Gold.PLP.Fitness>
49.6975

> <Gold.PLP.PLP>
-38.2627

> <Gold.PLP.part.hbond>
-3.1882

> <Gold.PLP.part.metal>
0.0000

> <Gold.PLP.part.buried>
-4.3631

> <Gold.PLP.part.nonpolar>
-31.5414

> <Gold.PLP.part.repulsive>
0.0360

> <Gold.PLP.ligand.clash>
0.0000

> <Gold.PLP.ligand.torsion>
0.3002

> <Gold.PLP.Chemscore.Hbond>
3.9920

> <Gold.PLP.Chemscore.CHOScore>
0.0000

> <Gold.PLP.Chemscore.Metal>
0.0000

> <Gold.Chemscore.Hbonds>
donor molecule, donor type, donor heavy atom, donor atom, acceptor molecule, acceptor atom, score
      L1  H    10    31       P1  8028  0.99
      L1  H    11    36       P1  8028  2.00
      P1  H  7997  8009       L1     3  1.00

> <Gold.PLP.Chemscore.Internal.Correction>
0.0593

> <Gold.Rescore>
     Score         DG    S(hbond)    S(metal)    S(lipo)     H(rot)  DE(clash)    DE(int)     intcor
     20.88     -21.39       2.95        0.00      99.33       2.18       0.06       0.45       ----

> <Gold.Chemscore.Fitness>
20.8810

> <Gold.Chemscore.DG>
-21.3897

> <Gold.Chemscore.ZeroCoef>
-5.4800

> <Gold.Chemscore.Hbond>
2.9547

> <Gold.Chemscore.Metal>
0.0000

> <Gold.Chemscore.Lipo>
99.3259

> <Gold.Chemscore.Internal_Hbond>
0.0000

> <Gold.Chemscore.DEClash>
0.0580

> <Gold.Chemscore.DEInternal>
0.4508

> <Gold.Chemscore.Rot>
2.1797

> <Gold.Chemscore.Internal.Correction>
   9.000000E+99

> <Gold.Chemscore.Hbonds>
donor molecule, donor type, donor heavy atom, donor atom, acceptor molecule, acceptor atom, score
      L1  H    10    31       P1  8028  0.87
      L1  H    11    36       P1  8028  0.92
      P1  H  7997  8009       L1     3  0.25

> <Gold.Chemscore.Hbond.Weighted>
-9.8687

> <Gold.Chemscore.Metal.Weighted>
-0.0000

> <Gold.Chemscore.Lipo.Weighted>
-11.6211

> <Gold.Chemscore.Internal_Hbond.Weighted>
0.0000

> <Gold.Chemscore.DEClash.Weighted>
0.0580

> <Gold.Chemscore.DEInternal.Weighted>
0.4508

> <Gold.Chemscore.Rot.Weighted>
5.5801

> <Gold.Chemscore.Internal.Correction.Weighted>
   9.000000E+99

> <Gold.Protein.RotatedTorsions>
[ 6907 6896 6895 6894 ] final   50.92 input  -60.11 | X-H torsion
[ 7974 7965 7964 7962 ] final  -10.77 input  175.53 | X-H torsion
[ 8008 7997 7996 7995 ] final  134.29 input   59.86 | X-H torsion
[ 10167 10162 10161 10158 ] final  148.51 input  -65.29 | X-H torsion
[ 10718 10713 10712 10709 ] final  -84.79 input   66.30 | X-H torsion
[ 10763 10752 10751 10750 ] final   88.85 input  -60.55 | X-H torsion
[ 11005 11000 10999 10996 ] final   58.42 input  -57.11 | X-H torsion

> <Gold.Protein.ActiveResidues>
 VAL166  LYS551  ARG553  GLY616  TRP617  ASP618  TYR619  PRO620  LYS621  CYS622 
 ASP623  PHE694  ASN695  SER759  ASP760  ASP761  ALA762  ILE779  LEU786  VAL792 
 PHE793  MET794  SER795  GLU796  ALA797  LYS798  CYS799  TRP800  GLU811  SER814 

> <Gold.Protein.RotatedAtoms>
  152.3070  134.7543  160.0344 H   0  0  0  0  0  0  0  0  0  0  0  0  # atno 6907 bound_to 6896
  151.8037  133.3368  159.3542 H   0  0  0  0  0  0  0  0  0  0  0  0  # atno 6908 bound_to 6896
  150.7301  134.5660  159.5910 H   0  0  0  0  0  0  0  0  0  0  0  0  # atno 6909 bound_to 6896
  146.2210  140.2813  142.8362 H   0  0  0  0  0  0  0  0  0  0  0  0  # atno 7974 bound_to 7965
  156.2998  140.2500  156.3392 H   0  0  0  0  0  0  0  0  0  0  0  0  # atno 8008 bound_to 7997
  154.9071  140.0404  157.1945 H   0  0  0  0  0  0  0  0  0  0  0  0  # atno 8009 bound_to 7997
  154.8443  140.2896  155.5643 H   0  0  0  0  0  0  0  0  0  0  0  0  # atno 8010 bound_to 7997
  139.4874  144.5673  151.7120 H   0  0  0  0  0  0  0  0  0  0  0  0  # atno 10167 bound_to 10162
  156.0002  130.4709  150.4464 H   0  0  0  0  0  0  0  0  0  0  0  0  # atno 10718 bound_to 10713
  153.1811  135.4491  155.0029 H   0  0  0  0  0  0  0  0  0  0  0  0  # atno 10763 bound_to 10752
  154.8030  135.3263  154.7504 H   0  0  0  0  0  0  0  0  0  0  0  0  # atno 10764 bound_to 10752
  153.7968  135.6966  153.4917 H   0  0  0  0  0  0  0  0  0  0  0  0  # atno 10765 bound_to 10752
  140.0379  134.5917  155.9420 H   0  0  0  0  0  0  0  0  0  0  0  0  # atno 11005 bound_to 11000
  144.9195  140.7851  143.5757 LP  0  0  0  0  0  0  0  0  0  0  0  0  # atno 17320 bound_to 7965
  145.2749  139.1940  143.4822 LP  0  0  0  0  0  0  0  0  0  0  0  0  # atno 17321 bound_to 7965
  140.5254  144.0814  150.6036 LP  0  0  0  0  0  0  0  0  0  0  0  0  # atno 17342 bound_to 10162
  140.3786  143.2815  152.0196 LP  0  0  0  0  0  0  0  0  0  0  0  0  # atno 17343 bound_to 10162
  157.2501  131.0544  151.2384 LP  0  0  0  0  0  0  0  0  0  0  0  0  # atno 17370 bound_to 10713
  157.3537  130.7095  149.6457 LP  0  0  0  0  0  0  0  0  0  0  0  0  # atno 17371 bound_to 10713
  141.1867  133.6558  156.5250 LP  0  0  0  0  0  0  0  0  0  0  0  0  # atno 17394 bound_to 11000
  140.4118  134.7266  157.4840 LP  0  0  0  0  0  0  0  0  0  0  0  0  # atno 17395 bound_to 11000

$$$$
