AV-unprocessed.smi:2857|AV-procd|sdf|10998|dock9
  -GOLD-   2272015453D 1   1.00000     0.00000
 Structure written by MMmdl.
 44 46  0  0  0  0  0  0  0  0  1 V2000
  151.3361  144.2464  158.4165 C   0  0  0  0  0  0  0  0  0  0  0  0
  152.0758  143.0371  158.9505 C   0  0  0  0  0  0  0  0  0  0  0  0
  153.2295  143.1993  159.7416 C   0  0  0  0  0  0  0  0  0  0  0  0
  153.9086  142.0698  160.2324 C   0  0  0  0  0  0  0  0  0  0  0  0
  153.4410  140.7728  159.9349 C   0  0  0  0  0  0  0  0  0  0  0  0
  154.1852  139.5657  160.4740 C   0  0  0  0  0  0  0  0  0  0  0  0
  152.2854  140.5952  159.1394 C   0  0  0  0  0  0  0  0  0  0  0  0
  151.8839  139.2998  158.8824 O   0  0  0  0  0  0  0  0  0  0  0  0
  150.5535  139.0837  158.4338 C   0  0  0  0  0  0  0  0  0  0  0  0
  150.3124  137.5727  158.2633 C   0  0  1  0  0  0  0  0  0  0  0  0
  150.9250  136.8981  159.3435 O   0  0  0  0  0  0  0  0  0  0  0  0
  148.8215  137.1743  158.2665 C   0  0  0  0  0  0  0  0  0  0  0  0
  148.6097  135.7634  158.5541 N   0  0  0  0  0  0  0  0  0  0  0  0
  148.5691  134.8726  157.5300 N   0  0  0  0  0  0  0  0  0  0  0  0
  148.3579  133.6836  158.0909 C   0  0  0  0  0  0  0  0  0  0  0  0
  148.2520  133.7733  159.5059 C   0  0  0  0  0  0  0  0  0  0  0  0
  148.0210  132.8217  160.5884 C   0  0  0  0  0  0  0  0  0  0  0  0
  147.9733  133.2733  161.8026 N   0  0  0  0  0  0  0  0  0  0  0  0
  148.1363  134.6356  162.0791 N   0  0  0  0  0  0  0  0  0  0  0  0
  148.0478  134.9878  163.4944 C   0  0  0  0  0  0  0  0  0  0  0  0
  148.3595  135.6049  161.1415 C   0  0  0  0  0  0  0  0  0  0  0  0
  148.4915  136.8003  161.4045 O   0  0  0  0  0  0  0  0  0  0  0  0
  148.4196  135.0966  159.7492 C   0  0  0  0  0  0  0  0  0  0  0  0
  151.6076  141.7422  158.6512 C   0  0  0  0  0  0  0  0  0  0  0  0
  151.7271  145.1718  158.8405 H   0  0  0  0  0  0  0  0  0  0  0  0
  150.2758  144.1822  158.6630 H   0  0  0  0  0  0  0  0  0  0  0  0
  151.4343  144.2987  157.3318 H   0  0  0  0  0  0  0  0  0  0  0  0
  153.5980  144.1875  159.9750 H   0  0  0  0  0  0  0  0  0  0  0  0
  154.7919  142.2040  160.8392 H   0  0  0  0  0  0  0  0  0  0  0  0
  154.4976  138.9159  159.6561 H   0  0  0  0  0  0  0  0  0  0  0  0
  153.5404  138.9923  161.1405 H   0  0  0  0  0  0  0  0  0  0  0  0
  155.0751  139.8597  161.0313 H   0  0  0  0  0  0  0  0  0  0  0  0
  149.8226  139.5182  159.1184 H   0  0  0  0  0  0  0  0  0  0  0  0
  150.4505  139.5828  157.4710 H   0  0  0  0  0  0  0  0  0  0  0  0
  150.7682  137.2318  157.3326 H   0  0  0  0  0  0  0  0  0  0  0  0
  150.3604  136.9644  160.0982 H   0  0  0  0  0  0  0  0  0  0  0  0
  148.2847  137.7568  159.0172 H   0  0  0  0  0  0  0  0  0  0  0  0
  148.3554  137.4173  157.3121 H   0  0  0  0  0  0  0  0  0  0  0  0
  148.2860  132.8100  157.4600 H   0  0  0  0  0  0  0  0  0  0  0  0
  147.8919  131.7608  160.3748 H   0  0  0  0  0  0  0  0  0  0  0  0
  148.9964  135.3953  163.8467 H   0  0  0  0  0  0  0  0  0  0  0  0
  147.8069  134.1241  164.1161 H   0  0  0  0  0  0  0  0  0  0  0  0
  147.2714  135.7364  163.6589 H   0  0  0  0  0  0  0  0  0  0  0  0
  150.7216  141.6549  158.0405 H   0  0  0  0  0  0  0  0  0  0  0  0
  1  2  1  0  0  0  0
  1 25  1  0  0  0  0
  1 26  1  0  0  0  0
  1 27  1  0  0  0  0
  2 24  1  0  0  0  0
  2  3  2  0  0  0  0
  3  4  1  0  0  0  0
  3 28  1  0  0  0  0
  4  5  2  0  0  0  0
  4 29  1  0  0  0  0
  5  6  1  0  0  0  0
  5  7  1  0  0  0  0
  6 30  1  0  0  0  0
  6 31  1  0  0  0  0
  6 32  1  0  0  0  0
  7  8  1  0  0  0  0
  7 24  2  0  0  0  0
  8  9  1  0  0  0  0
  9 10  1  0  0  0  0
  9 33  1  0  0  0  0
  9 34  1  0  0  0  0
 10 11  1  0  0  0  0
 10 12  1  0  0  0  0
 10 35  1  0  0  0  0
 11 36  1  0  0  0  0
 12 13  1  0  0  0  0
 12 37  1  0  0  0  0
 12 38  1  0  0  0  0
 13 23  1  0  0  0  0
 13 14  1  0  0  0  0
 14 15  2  0  0  0  0
 15 16  1  0  0  0  0
 15 39  1  0  0  0  0
 16 23  2  0  0  0  0
 16 17  1  0  0  0  0
 17 18  2  0  0  0  0
 17 40  1  0  0  0  0
 18 19  1  0  0  0  0
 19 20  1  0  0  0  0
 19 21  1  0  0  0  0
 20 41  1  0  0  0  0
 20 42  1  0  0  0  0
 20 43  1  0  0  0  0
 21 22  2  0  0  0  0
 21 23  1  0  0  0  0
 24 44  1  0  0  0  0
M  END
> <s_m_source_file>
AV-unprocessed.smi

> <i_m_source_file_index>
2857

> <i_lp_mmshare_version>
43012

> <i_f3d_flags>
0

> <s_epik_input>
W0NIM11jMVtjSF1bY0hdYyhbQ0gzXSljKFtjSF0xKU9bQ0gyXVtDQEhdKFtPSF0pW0NIMl1uKG5bY0hdMiljKGMyMyljKD1PKW4oW0NIM10pbltjSF0z

> <s_epik_cmdline>
J2VwaWtfcHl0aG9uJywgJy1waCcsICc3LjAnLCAnLXRuJywgJzgnLCAnLW1hJywgJzIwMCcsICctbWV0YWxfYmluZGluZycsICctaW1hZScsICc8aW5maWxlLm1hZT4nLCAnLW9tYWUnLCAnPG91dGZpbGUubWFlPic=

> <r_lp_tautomer_probability>
1

> <r_epik_Ionization_Penalty>
2.24607e-06

> <r_epik_Ionization_Penalty_Charging>
1.42095e-10

> <r_epik_Ionization_Penalty_Neutral>
2.24593e-06

> <r_epik_State_Penalty>
-0

> <r_epik_Charging_Adjusted_Penalty>
1.42095e-10

> <i_epik_Tot_Q>
0

> <i_epik_Tot_abs_Q>
0

> <r_epik_Metal_State_Penalty>
-0

> <b_epik_Metal_Only>
0

> <s_lp_Force_Field>
OPLS_2005

> <r_lp_Energy>
31.6427

> <b_lp_Chiralities_Consistent>
1

> <s_lp_Variant>
AV-unprocessed.smi:2857-2

> <Gold.Version>
5.8.1

> <Gold.Id.Protein>
6NUR|6NUR_protein|mol2

> <Gold.PLP.Fitness>
51.0824

> <Gold.PLP.PLP>
-45.0551

> <Gold.PLP.part.hbond>
-2.8634

> <Gold.PLP.part.metal>
0.0000

> <Gold.PLP.part.buried>
-5.8987

> <Gold.PLP.part.nonpolar>
-36.7929

> <Gold.PLP.part.repulsive>
0.0000

> <Gold.PLP.ligand.clash>
0.0000

> <Gold.PLP.ligand.torsion>
0.9768

> <Gold.PLP.Chemscore.Hbond>
2.6503

> <Gold.PLP.Chemscore.CHOScore>
0.0000

> <Gold.PLP.Chemscore.Metal>
0.0000

> <Gold.Chemscore.Hbonds>
donor molecule, donor type, donor heavy atom, donor atom, acceptor molecule, acceptor atom, score
      P1  H  6896  6909       L1    11  0.30
      P1  H  6931  6943       L1    22  1.00

> <Gold.PLP.Chemscore.Internal.Correction>
0.0302

> <Gold.Rescore>
     Score         DG    S(hbond)    S(metal)    S(lipo)     H(rot)  DE(clash)    DE(int)     intcor
     20.63     -21.42       2.68        0.00     110.55       2.32       0.07       0.73       ----

> <Gold.Chemscore.Fitness>
20.6262

> <Gold.Chemscore.DG>
-21.4231

> <Gold.Chemscore.ZeroCoef>
-5.4800

> <Gold.Chemscore.Hbond>
2.6818

> <Gold.Chemscore.Metal>
0.0000

> <Gold.Chemscore.Lipo>
110.5493

> <Gold.Chemscore.Internal_Hbond>
0.0000

> <Gold.Chemscore.DEClash>
0.0653

> <Gold.Chemscore.DEInternal>
0.7316

> <Gold.Chemscore.Rot>
2.3236

> <Gold.Chemscore.Internal.Correction>
   9.000000E+99

> <Gold.Chemscore.Hbonds>
donor molecule, donor type, donor heavy atom, donor atom, acceptor molecule, acceptor atom, score
      P1  H  6931  6943       L1    22  0.99

> <Gold.Chemscore.Hbond.Weighted>
-8.9572

> <Gold.Chemscore.Metal.Weighted>
-0.0000

> <Gold.Chemscore.Lipo.Weighted>
-12.9343

> <Gold.Chemscore.Internal_Hbond.Weighted>
0.0000

> <Gold.Chemscore.DEClash.Weighted>
0.0653

> <Gold.Chemscore.DEInternal.Weighted>
0.7316

> <Gold.Chemscore.Rot.Weighted>
5.9484

> <Gold.Chemscore.Internal.Correction.Weighted>
   9.000000E+99

> <Gold.Protein.RotatedTorsions>
[ 6907 6896 6895 6894 ] final   99.20 input  -60.11 | X-H torsion
[ 7974 7965 7964 7962 ] final  172.09 input  175.53 | X-H torsion
[ 8008 7997 7996 7995 ] final -158.79 input   59.86 | X-H torsion
[ 10167 10162 10161 10158 ] final -140.89 input  -65.29 | X-H torsion
[ 10718 10713 10712 10709 ] final   85.10 input   66.30 | X-H torsion
[ 10763 10752 10751 10750 ] final  -24.56 input  -60.55 | X-H torsion
[ 11005 11000 10999 10996 ] final   85.43 input  -57.11 | X-H torsion

> <Gold.Protein.ActiveResidues>
 VAL166  LYS551  ARG553  GLY616  TRP617  ASP618  TYR619  PRO620  LYS621  CYS622 
 ASP623  PHE694  ASN695  SER759  ASP760  ASP761  ALA762  ILE779  LEU786  VAL792 
 PHE793  MET794  SER795  GLU796  ALA797  LYS798  CYS799  TRP800  GLU811  SER814 

> <Gold.Protein.RotatedAtoms>
  152.5396  134.0465  159.8090 H   0  0  0  0  0  0  0  0  0  0  0  0  # atno 6907 bound_to 6896
  151.0613  133.5534  159.2641 H   0  0  0  0  0  0  0  0  0  0  0  0  # atno 6908 bound_to 6896
  151.2432  135.0604  159.9087 H   0  0  0  0  0  0  0  0  0  0  0  0  # atno 6909 bound_to 6896
  144.7277  139.9446  143.6430 H   0  0  0  0  0  0  0  0  0  0  0  0  # atno 7974 bound_to 7965
  155.7529  140.0829  157.2192 H   0  0  0  0  0  0  0  0  0  0  0  0  # atno 8008 bound_to 7997
  154.4010  140.1557  156.2801 H   0  0  0  0  0  0  0  0  0  0  0  0  # atno 8009 bound_to 7997
  155.8913  140.3415  155.5961 H   0  0  0  0  0  0  0  0  0  0  0  0  # atno 8010 bound_to 7997
  139.8238  143.7538  152.2666 H   0  0  0  0  0  0  0  0  0  0  0  0  # atno 10167 bound_to 10162
  157.6909  131.0160  150.2771 H   0  0  0  0  0  0  0  0  0  0  0  0  # atno 10718 bound_to 10713
  153.6858  135.6964  153.5104 H   0  0  0  0  0  0  0  0  0  0  0  0  # atno 10763 bound_to 10752
  153.2450  135.4293  155.0737 H   0  0  0  0  0  0  0  0  0  0  0  0  # atno 10764 bound_to 10752
  154.8387  135.3517  154.6401 H   0  0  0  0  0  0  0  0  0  0  0  0  # atno 10765 bound_to 10752
  139.8972  134.8286  156.2581 H   0  0  0  0  0  0  0  0  0  0  0  0  # atno 11005 bound_to 11000
  146.0758  139.3746  143.0495 LP  0  0  0  0  0  0  0  0  0  0  0  0  # atno 17320 bound_to 7965
  145.7907  140.9815  143.1050 LP  0  0  0  0  0  0  0  0  0  0  0  0  # atno 17321 bound_to 7965
  139.7725  144.7472  151.0204 LP  0  0  0  0  0  0  0  0  0  0  0  0  # atno 17342 bound_to 10162
  140.7811  143.4630  151.0252 LP  0  0  0  0  0  0  0  0  0  0  0  0  # atno 17343 bound_to 10162
  156.3324  130.3802  149.7479 LP  0  0  0  0  0  0  0  0  0  0  0  0  # atno 17370 bound_to 10713
  156.5015  130.8131  151.3134 LP  0  0  0  0  0  0  0  0  0  0  0  0  # atno 17371 bound_to 10713
  141.0180  133.7057  156.1221 LP  0  0  0  0  0  0  0  0  0  0  0  0  # atno 17394 bound_to 11000
  140.7274  134.4292  157.5569 LP  0  0  0  0  0  0  0  0  0  0  0  0  # atno 17395 bound_to 11000

$$$$
