AV-unprocessed.smi:1554|AV-procd|sdf|6245|dock10
  -GOLD-   22720 6423D 1   1.00000     0.00000
 Structure written by MMmdl.
 48 50  0  0  0  0  0  0  0  0  2 V2000
  152.8073  143.1927  160.0961 C   0  0  0  0  0  0  0  0  0  0  0  0
  152.0882  142.5197  158.9401 C   0  0  0  0  0  0  0  0  0  0  0  0
  151.8414  141.1296  159.0004 C   0  0  0  0  0  0  0  0  0  0  0  0
  151.1731  140.4662  157.9481 C   0  0  0  0  0  0  0  0  0  0  0  0
  150.8292  139.1333  157.8003 N   0  0  0  0  0  0  0  0  0  0  0  0
  150.2252  139.1419  156.6157 C   0  0  0  0  0  0  0  0  0  0  0  0
  150.1355  140.3245  155.9774 N   0  0  0  0  0  0  0  0  0  0  0  0
  149.5182  140.5756  154.6869 C   0  0  0  0  0  0  0  0  0  0  0  0
  148.3877  141.6200  154.7673 C   0  0  1  0  0  0  0  0  0  0  0  0
  148.7714  142.7872  154.0646 O   0  0  0  0  0  0  0  0  0  0  0  0
  147.0720  141.0917  154.1627 C   0  0  0  0  0  0  0  0  0  0  0  0
  145.8926  141.8846  154.5948 N   0  3  1  0  0  0  0  0  0  0  0  0
  145.9101  142.1935  156.0438 C   0  0  0  0  0  0  0  0  0  0  0  0
  144.6326  142.9493  156.4446 C   0  0  0  0  0  0  0  0  0  0  0  0
  144.5122  144.1310  155.6623 O   0  0  0  0  0  0  0  0  0  0  0  0
  144.4061  143.8493  154.2709 C   0  0  1  0  0  0  0  0  0  0  0  0
  144.1903  145.1732  153.5295 C   0  0  0  0  0  0  0  0  0  0  0  0
  145.6836  143.1236  153.8054 C   0  0  0  0  0  0  0  0  0  0  0  0
  150.7554  141.2377  156.8243 C   0  0  0  0  0  0  0  0  0  0  0  0
  150.9968  142.6213  156.7520 C   0  0  0  0  0  0  0  0  0  0  0  0
  151.6653  143.2682  157.8123 C   0  0  0  0  0  0  0  0  0  0  0  0
  151.9214  144.7624  157.7241 C   0  0  0  0  0  0  0  0  0  0  0  0
  153.0663  142.4760  160.8762 H   0  0  0  0  0  0  0  0  0  0  0  0
  152.1748  143.9595  160.5442 H   0  0  0  0  0  0  0  0  0  0  0  0
  153.7297  143.6611  159.7519 H   0  0  0  0  0  0  0  0  0  0  0  0
  152.1636  140.5591  159.8592 H   0  0  0  0  0  0  0  0  0  0  0  0
  149.8219  138.2361  156.1870 H   0  0  0  0  0  0  0  0  0  0  0  0
  150.2912  140.8967  153.9875 H   0  0  0  0  0  0  0  0  0  0  0  0
  149.1296  139.6302  154.3063 H   0  0  0  0  0  0  0  0  0  0  0  0
  148.2414  141.8886  155.8133 H   0  0  0  0  0  0  0  0  0  0  0  0
  148.5071  143.5440  154.5656 H   0  0  0  0  0  0  0  0  0  0  0  0
  147.1555  141.1187  153.0749 H   0  0  0  0  0  0  0  0  0  0  0  0
  146.9199  140.0445  154.4289 H   0  0  0  0  0  0  0  0  0  0  0  0
  145.9836  141.2703  156.6201 H   0  0  0  0  0  0  0  0  0  0  0  0
  146.7909  142.7924  156.2810 H   0  0  0  0  0  0  0  0  0  0  0  0
  143.7500  142.3206  156.3145 H   0  0  0  0  0  0  0  0  0  0  0  0
  144.6734  143.2256  157.4983 H   0  0  0  0  0  0  0  0  0  0  0  0
  143.5373  143.2110  154.0996 H   0  0  0  0  0  0  0  0  0  0  0  0
  144.0931  145.0107  152.4558 H   0  0  0  0  0  0  0  0  0  0  0  0
  145.0245  145.8567  153.6908 H   0  0  0  0  0  0  0  0  0  0  0  0
  143.2823  145.6691  153.8733 H   0  0  0  0  0  0  0  0  0  0  0  0
  146.5498  143.7778  153.9188 H   0  0  0  0  0  0  0  0  0  0  0  0
  145.5990  142.8881  152.7450 H   0  0  0  0  0  0  0  0  0  0  0  0
  150.6686  143.1803  155.8887 H   0  0  0  0  0  0  0  0  0  0  0  0
  151.5008  145.1849  156.8111 H   0  0  0  0  0  0  0  0  0  0  0  0
  152.9925  144.9656  157.7252 H   0  0  0  0  0  0  0  0  0  0  0  0
  151.4690  145.2800  158.5702 H   0  0  0  0  0  0  0  0  0  0  0  0
  145.0856  141.2959  154.4418 H   0  0  0  0  0  0  0  0  0  0  0  0
  1  2  1  0  0  0  0
  1 23  1  0  0  0  0
  1 24  1  0  0  0  0
  1 25  1  0  0  0  0
  2 21  1  0  0  0  0
  2  3  2  0  0  0  0
  3  4  1  0  0  0  0
  3 26  1  0  0  0  0
  4 19  2  0  0  0  0
  4  5  1  0  0  0  0
  5  6  2  0  0  0  0
  6  7  1  0  0  0  0
  6 27  1  0  0  0  0
  7  8  1  0  0  0  0
  7 19  1  0  0  0  0
  8  9  1  0  0  0  0
  8 28  1  0  0  0  0
  8 29  1  0  0  0  0
  9 10  1  0  0  0  0
  9 11  1  0  0  0  0
  9 30  1  0  0  0  0
 10 31  1  0  0  0  0
 11 12  1  0  0  0  0
 11 32  1  0  0  0  0
 11 33  1  0  0  0  0
 12 18  1  0  0  0  0
 12 13  1  0  0  0  0
 12 48  1  0  0  0  0
 13 14  1  0  0  0  0
 13 34  1  0  0  0  0
 13 35  1  0  0  0  0
 14 15  1  0  0  0  0
 14 36  1  0  0  0  0
 14 37  1  0  0  0  0
 15 16  1  0  0  0  0
 16 17  1  0  0  0  0
 16 18  1  0  0  0  0
 16 38  1  0  0  0  0
 17 39  1  0  0  0  0
 17 40  1  0  0  0  0
 17 41  1  0  0  0  0
 18 42  1  0  0  0  0
 18 43  1  0  0  0  0
 19 20  1  0  0  0  0
 20 21  2  0  0  0  0
 20 44  1  0  0  0  0
 21 22  1  0  0  0  0
 22 45  1  0  0  0  0
 22 46  1  0  0  0  0
 22 47  1  0  0  0  0
M  CHG  1  12   1
M  END
> <s_m_source_file>
AV-unprocessed.smi

> <i_m_source_file_index>
1554

> <i_lp_mmshare_version>
43012

> <i_f3d_flags>
0

> <s_epik_input>
W0NIM11jKFtjSF0xKWMoW0NIM10pW2NIXWMoYzEyKW4oW2NIXW4yKVtDSDJdW0NASF0oW09IXSlbQ0gyXU4zW0NIMl1bQ0gyXU9bQ0BASF0oW0NIM10pW0NIMl0z

> <s_epik_cmdline>
J2VwaWtfcHl0aG9uJywgJy1waCcsICc3LjAnLCAnLXRuJywgJzgnLCAnLW1hJywgJzIwMCcsICctbWV0YWxfYmluZGluZycsICctaW1hZScsICc8aW5maWxlLm1hZT4nLCAnLW9tYWUnLCAnPG91dGZpbGUubWFlPic=

> <r_epik_Ionization_Penalty>
0.695251

> <r_epik_Ionization_Penalty_Charging>
0.608065

> <r_epik_Ionization_Penalty_Neutral>
0.0871863

> <r_epik_State_Penalty>
0.731955

> <r_epik_Charging_Adjusted_Penalty>
1.34002

> <i_epik_Tot_Q>
1

> <i_epik_Tot_abs_Q>
1

> <r_epik_Metal_State_Penalty>
0.652186

> <b_epik_Metal_Only>
0

> <s_lp_Force_Field>
OPLS_2005

> <r_lp_Energy>
21.5252

> <b_lp_Chiralities_Consistent>
1

> <s_lp_Variant>
AV-unprocessed.smi:1554-6

> <Gold.Version>
5.8.1

> <Gold.Id.Protein>
6NUR|6NUR_protein|mol2

> <Gold.PLP.Fitness>
45.7664

> <Gold.PLP.PLP>
-44.8423

> <Gold.PLP.part.hbond>
-2.0741

> <Gold.PLP.part.metal>
0.0000

> <Gold.PLP.part.buried>
-2.4630

> <Gold.PLP.part.nonpolar>
-39.4331

> <Gold.PLP.part.repulsive>
0.1478

> <Gold.PLP.ligand.clash>
0.0000

> <Gold.PLP.ligand.torsion>
1.0493

> <Gold.PLP.Chemscore.Hbond>
1.0000

> <Gold.PLP.Chemscore.CHOScore>
0.0000

> <Gold.PLP.Chemscore.Metal>
0.0000

> <Gold.Chemscore.Hbonds>
donor molecule, donor type, donor heavy atom, donor atom, acceptor molecule, acceptor atom, score
      L1  H    10    31       P1  8028  1.00

> <Gold.PLP.Chemscore.Internal.Correction>
0.0227

> <Gold.Rescore>
     Score         DG    S(hbond)    S(metal)    S(lipo)     H(rot)  DE(clash)    DE(int)     intcor
     17.05     -18.38       1.28        0.00     118.68       2.05       0.29       1.04       ----

> <Gold.Chemscore.Fitness>
17.0529

> <Gold.Chemscore.DG>
-18.3831

> <Gold.Chemscore.ZeroCoef>
-5.4800

> <Gold.Chemscore.Hbond>
1.2807

> <Gold.Chemscore.Metal>
0.0000

> <Gold.Chemscore.Lipo>
118.6781

> <Gold.Chemscore.Internal_Hbond>
0.0000

> <Gold.Chemscore.DEClash>
0.2920

> <Gold.Chemscore.DEInternal>
1.0383

> <Gold.Chemscore.Rot>
2.0546

> <Gold.Chemscore.Internal.Correction>
   9.000000E+99

> <Gold.Chemscore.Hbonds>
donor molecule, donor type, donor heavy atom, donor atom, acceptor molecule, acceptor atom, score
      L1  H    10    31       P1  8028  0.94
      P1  H  8011  8017       L1    10  0.04

> <Gold.Chemscore.Hbond.Weighted>
-4.2775

> <Gold.Chemscore.Metal.Weighted>
-0.0000

> <Gold.Chemscore.Lipo.Weighted>
-13.8853

> <Gold.Chemscore.Internal_Hbond.Weighted>
0.0000

> <Gold.Chemscore.DEClash.Weighted>
0.2920

> <Gold.Chemscore.DEInternal.Weighted>
1.0383

> <Gold.Chemscore.Rot.Weighted>
5.2597

> <Gold.Chemscore.Internal.Correction.Weighted>
   9.000000E+99

> <Gold.Protein.RotatedTorsions>
[ 6907 6896 6895 6894 ] final   -8.01 input  -60.11 | X-H torsion
[ 7974 7965 7964 7962 ] final -163.54 input  175.53 | X-H torsion
[ 8008 7997 7996 7995 ] final -113.98 input   59.86 | X-H torsion
[ 10167 10162 10161 10158 ] final   92.97 input  -65.29 | X-H torsion
[ 10718 10713 10712 10709 ] final  -31.61 input   66.30 | X-H torsion
[ 10763 10752 10751 10750 ] final -121.72 input  -60.55 | X-H torsion
[ 11005 11000 10999 10996 ] final  121.39 input  -57.11 | X-H torsion

> <Gold.Protein.ActiveResidues>
 VAL166  LYS551  ARG553  GLY616  TRP617  ASP618  TYR619  PRO620  LYS621  CYS622 
 ASP623  PHE694  ASN695  SER759  ASP760  ASP761  ALA762  ILE779  LEU786  VAL792 
 PHE793  MET794  SER795  GLU796  ALA797  LYS798  CYS799  TRP800  GLU811  SER814 

> <Gold.Protein.RotatedAtoms>
  151.4404  135.1019  159.9668 H   0  0  0  0  0  0  0  0  0  0  0  0  # atno 6907 bound_to 6896
  152.4924  133.8534  159.7223 H   0  0  0  0  0  0  0  0  0  0  0  0  # atno 6908 bound_to 6896
  150.9092  133.6960  159.2886 H   0  0  0  0  0  0  0  0  0  0  0  0  # atno 6909 bound_to 6896
  144.7323  140.3092  143.6191 H   0  0  0  0  0  0  0  0  0  0  0  0  # atno 7974 bound_to 7965
  155.0292  140.0393  157.2467 H   0  0  0  0  0  0  0  0  0  0  0  0  # atno 8008 bound_to 7997
  154.7311  140.2730  155.6432 H   0  0  0  0  0  0  0  0  0  0  0  0  # atno 8009 bound_to 7997
  156.2841  140.2684  156.2011 H   0  0  0  0  0  0  0  0  0  0  0  0  # atno 8010 bound_to 7997
  139.8225  144.6724  150.9501 H   0  0  0  0  0  0  0  0  0  0  0  0  # atno 10167 bound_to 10162
  156.3852  130.4363  149.7438 H   0  0  0  0  0  0  0  0  0  0  0  0  # atno 10718 bound_to 10713
  154.8674  135.4158  154.2667 H   0  0  0  0  0  0  0  0  0  0  0  0  # atno 10763 bound_to 10752
  153.3584  135.7002  153.6737 H   0  0  0  0  0  0  0  0  0  0  0  0  # atno 10764 bound_to 10752
  153.5648  135.3603  155.2786 H   0  0  0  0  0  0  0  0  0  0  0  0  # atno 10765 bound_to 10752
  139.9224  134.9638  156.7952 H   0  0  0  0  0  0  0  0  0  0  0  0  # atno 11005 bound_to 11000
  145.7682  139.1848  143.2228 LP  0  0  0  0  0  0  0  0  0  0  0  0  # atno 17320 bound_to 7965
  146.0932  140.7631  142.9585 LP  0  0  0  0  0  0  0  0  0  0  0  0  # atno 17321 bound_to 7965
  140.7812  143.4078  151.1043 LP  0  0  0  0  0  0  0  0  0  0  0  0  # atno 17342 bound_to 10162
  139.7737  143.8456  152.3125 LP  0  0  0  0  0  0  0  0  0  0  0  0  # atno 17343 bound_to 10162
  156.4513  130.7908  151.2929 LP  0  0  0  0  0  0  0  0  0  0  0  0  # atno 17370 bound_to 10713
  157.7495  131.0094  150.3268 LP  0  0  0  0  0  0  0  0  0  0  0  0  # atno 17371 bound_to 10713
  140.6435  133.9797  155.7719 LP  0  0  0  0  0  0  0  0  0  0  0  0  # atno 17394 bound_to 11000
  141.0755  134.0141  157.3463 LP  0  0  0  0  0  0  0  0  0  0  0  0  # atno 17395 bound_to 11000

$$$$
