#       Name:                AV-unprocessed.smi:2855
#       Creating user name   scv26
#       Creation time:       Fri Mar 27 15:44:19 2020


#       File generated by GOLD software.
#

@<TRIPOS>MOLECULE
AV-unprocessed.smi:2855
    53    54     1
SMALL
NO_CHARGES


@<TRIPOS>ATOM
      1 ****        -4.7708  -1.1333  -1.5098 C.3            1 S1                 0.0000
      2 ****        -3.2357  -1.1571  -1.5195 C.3            1 S1                 0.0000
      3 ****        -2.6717  -0.5358  -2.8074 C.3            1 S1                 0.0000
      4 ****        -1.1368  -0.5712  -2.8182 C.3            1 S1                 0.0000
      5 ****        -0.5296   0.1495  -1.5908 C.3            1 S1                 0.0000
      6 ****         1.0276   0.2112  -1.6301 C.3            1 S1                 0.0000
      7 ****         1.5516   1.0924  -2.7771 C.3            1 S1                 0.0000
      8 ****         1.7114  -1.1684  -1.6528 C.3            1 S1                 0.0000
      9 ****        -1.1127  -0.4487  -0.2775 C.3            1 S1                 0.0000
     10 ****        -0.6674   0.3077   0.8922 N.am           1 S1                 0.0000
     11 ****         0.2062  -0.1080   1.8224 C.2            1 S1                 0.0000
     12 ****         0.7399  -1.2175   1.8036 O.2            1 S1                 0.0000
     13 ****         0.5077   0.8937   2.9448 C.3            1 S1                 0.0000
     14 ****         1.8828   0.7854   3.4571 N.am           1 S1                 0.0000
     15 ****         2.8754   1.5294   2.7954 C.2            1 S1                 0.0000
     16 ****         4.1633   1.5043   3.1872 C.2            1 S1                 0.0000
     17 ****         4.5193   0.6758   4.3323 C.2            1 S1                 0.0000
     18 ****         5.6886   0.6490   4.7113 O.2            1 S1                 0.0000
     19 ****         3.5226  -0.0371   4.9342 N.pl3          1 S1                -1.0000
     20 ****         2.2170  -0.0046   4.5219 C.2            1 S1                 0.0000
     21 ****         1.3350  -0.6597   5.0781 O.2            1 S1                 0.0000
     22 ****        -2.6546  -0.4382  -0.2902 C.3            1 S1                 0.0000
     23 ****        -5.1522  -0.1123  -1.5463 H              1 S1                 0.0000
     24 ****        -5.1649  -1.6037  -0.6085 H              1 S1                 0.0000
     25 ****        -5.1775  -1.6712  -2.3668 H              1 S1                 0.0000
     26 ****        -2.9219  -2.2015  -1.4809 H              1 S1                 0.0000
     27 ****        -3.0538  -1.0705  -3.6779 H              1 S1                 0.0000
     28 ****        -3.0139   0.4956  -2.9043 H              1 S1                 0.0000
     29 ****        -0.8098  -1.6109  -2.8430 H              1 S1                 0.0000
     30 ****        -0.7864  -0.1154  -3.7434 H              1 S1                 0.0000
     31 ****        -0.8767   1.1833  -1.6345 H              1 S1                 0.0000
     32 ****         1.3612   0.7080  -0.7195 H              1 S1                 0.0000
     33 ****         1.3640   0.6457  -3.7532 H              1 S1                 0.0000
     34 ****         2.6284   1.2398  -2.6911 H              1 S1                 0.0000
     35 ****         1.0864   2.0782  -2.7633 H              1 S1                 0.0000
     36 ****         1.4986  -1.7112  -2.5736 H              1 S1                 0.0000
     37 ****         1.3981  -1.7920  -0.8169 H              1 S1                 0.0000
     38 ****         2.7944  -1.0629  -1.5827 H              1 S1                 0.0000
     39 ****        -0.7983  -1.4900  -0.1938 H              1 S1                 0.0000
     40 ****        -1.0555   1.2331   1.0015 H              1 S1                 0.0000
     41 ****         0.3394   1.9081   2.5789 H              1 S1                 0.0000
     42 ****        -0.2255   0.7551   3.7406 H              1 S1                 0.0000
     43 ****         2.5272   2.1117   1.9547 H              1 S1                 0.0000
     44 ****         4.9139   2.0808   2.6667 H              1 S1                 0.0000
     45 ****        -3.0140   0.5921  -0.2711 H              1 S1                 0.0000
     46 ****        -3.0299  -0.9097   0.6195 H              1 S1                 0.0000
     47 ****         0.5289  -1.8614   1.0682 LP             1 S1                 0.0000
     48 ****         1.3843  -1.4746   2.5238 LP             1 S1                 0.0000
     49 ****         6.3810   1.1912   4.2353 LP             1 S1                 0.0000
     50 ****         5.9472   0.0851   5.4956 LP             1 S1                 0.0000
     51 ****         3.7582  -0.6131   5.7170 LP             1 S1                 0.0000
     52 ****         0.3919  -0.6087   4.7496 LP             1 S1                 0.0000
     53 ****         1.5619  -1.2426   5.8583 LP             1 S1                 0.0000
@<TRIPOS>BOND
    1    1    2 1     
    2    1   23 1     
    3    1   24 1     
    4    1   25 1     
    5    2   22 1     
    6    2    3 1     
    7    2   26 1     
    8    3    4 1     
    9    3   27 1     
   10    3   28 1     
   11    4    5 1     
   12    4   29 1     
   13    4   30 1     
   14    5    6 1     
   15    5    9 1     
   16    5   31 1     
   17    6    7 1     
   18    6    8 1     
   19    6   32 1     
   20    7   33 1     
   21    7   34 1     
   22    7   35 1     
   23    8   36 1     
   24    8   37 1     
   25    8   38 1     
   26    9   10 1     
   27    9   22 1     
   28    9   39 1     
   29   10   11 am    
   30   10   40 1     
   31   11   12 2     
   32   11   13 1     
   33   13   14 1     
   34   13   41 1     
   35   13   42 1     
   36   14   20 am    
   37   14   15 1     
   38   15   16 2     
   39   15   43 1     
   40   16   17 1     
   41   16   44 1     
   42   17   18 2     
   43   17   19 1     
   44   19   20 1     
   45   20   21 2     
   46   22   45 1     
   47   22   46 1     
   48   12   47 1     
   49   12   48 1     
   50   18   49 1     
   51   18   50 1     
   52   19   51 1     
   53   21   52 1     
   54   21   53 1     
@<TRIPOS>SUBSTRUCTURE
      1 S1             1
@<TRIPOS>SET
LONE_PAIRS      STATIC     ATOMS    <user>   **** ""
7 47 48 49 50 51 52 53
DONOR_HYDROGENS      STATIC     ATOMS    <user>   **** ""
1 40
ATOM$BLUE        STATIC     ATOMS    COLORGROUP SYSTEM
7 47 48 49 50 51 52 53
ATOM$RED        STATIC     ATOMS    COLORGROUP SYSTEM
1 40
