#       Name:                AV-unprocessed.smi:2124
#       Creating user name   scv26
#       Creation time:       Fri Mar 27 11:39:59 2020


#       File generated by GOLD software.
#

@<TRIPOS>MOLECULE
AV-unprocessed.smi:2124
    52    54     1
SMALL
NO_CHARGES


@<TRIPOS>ATOM
      1 ****        -3.8971   4.6939  -0.9249 C.3            1 S1                 0.0000
      2 ****        -3.2500   3.3558  -1.2136 C.2            1 S1                 0.0000
      3 ****        -3.3994   2.3078  -0.4723 N.2            1 S1                 0.0000
      4 ****        -2.7520   1.1208  -0.8429 C.2            1 S1                 0.0000
      5 ****        -2.9865  -0.0649   0.0775 C.3            1 S1                 0.0000
      6 ****        -1.9729   1.0510  -1.9627 C.2            1 S1                 0.0000
      7 ****        -1.2433  -0.2191  -2.4015 C.3            1 S1                 0.0000
      8 ****         0.2023  -0.3752  -1.9197 C.2            1 S1                 0.0000
      9 ****         1.0496  -0.8424  -2.6797 O.2            1 S1                 0.0000
     10 ****         0.4676   0.0039  -0.6594 N.am           1 S1                 0.0000
     11 ****         1.7647  -0.0688   0.0077 C.3            1 S1                 0.0000
     12 ****         2.3520   1.3479   0.1062 C.3            1 S1                 0.0000
     13 ****         1.6018  -0.7326   1.3954 C.3            1 S1                 0.0000
     14 ****         2.9268  -1.0535   2.1235 C.3            1 S1                 0.0000
     15 ****         2.7452  -2.5243   2.5438 C.3            1 S1                 0.0000
     16 ****         2.8823  -3.4229   1.3013 C.3            1 S1                 0.0000
     17 ****         1.5738  -3.1464   0.5394 C.3            1 S1                 0.0000
     18 ****         0.8724  -2.1001   1.4305 C.3            1 S1                 0.0000
     19 ****         1.2482  -2.5988   2.8222 C.3            1 S1                 0.0000
     20 ****        -1.8053   2.2553  -2.7987 C.2            1 S1                 0.0000
     21 ****        -1.1200   2.3044  -3.8188 O.2            1 S1                 0.0000
     22 ****        -2.4670   3.3519  -2.3665 N.am           1 S1                 0.0000
     23 ****        -2.3847   4.2014  -2.9059 H              1 S1                 0.0000
     24 ****        -3.6288   5.4416  -1.6725 H              1 S1                 0.0000
     25 ****        -3.5818   5.0605   0.0522 H              1 S1                 0.0000
     26 ****        -4.9825   4.5919  -0.9196 H              1 S1                 0.0000
     27 ****        -3.5392  -0.8473  -0.4428 H              1 S1                 0.0000
     28 ****        -3.5651   0.2241   0.9557 H              1 S1                 0.0000
     29 ****        -2.0424  -0.4813   0.4267 H              1 S1                 0.0000
     30 ****        -1.7947  -1.0952  -2.0618 H              1 S1                 0.0000
     31 ****        -1.2623  -0.2886  -3.4902 H              1 S1                 0.0000
     32 ****        -0.2978   0.3716  -0.1129 H              1 S1                 0.0000
     33 ****         2.4576  -0.6672  -0.5852 H              1 S1                 0.0000
     34 ****         3.3378   1.3388   0.5712 H              1 S1                 0.0000
     35 ****         1.7117   2.0036   0.6971 H              1 S1                 0.0000
     36 ****         2.4629   1.7944  -0.8826 H              1 S1                 0.0000
     37 ****         1.0293  -0.0475   2.0239 H              1 S1                 0.0000
     38 ****         3.8058  -0.9220   1.4912 H              1 S1                 0.0000
     39 ****         3.0483  -0.4091   2.9950 H              1 S1                 0.0000
     40 ****         3.3860  -2.8251   3.3729 H              1 S1                 0.0000
     41 ****         3.7668  -3.1815   0.7106 H              1 S1                 0.0000
     42 ****         2.9457  -4.4740   1.5850 H              1 S1                 0.0000
     43 ****         1.7436  -2.8044  -0.4809 H              1 S1                 0.0000
     44 ****         0.9743  -4.0555   0.4783 H              1 S1                 0.0000
     45 ****        -0.2011  -2.0282   1.2535 H              1 S1                 0.0000
     46 ****         0.8960  -3.6109   3.0301 H              1 S1                 0.0000
     47 ****         0.9230  -1.9350   3.6254 H              1 S1                 0.0000
     48 ****        -3.9665   2.3429   0.3506 LP             1 S1                 0.0000
     49 ****         0.7928  -1.1177  -3.6062 LP             1 S1                 0.0000
     50 ****         1.9950  -0.9468  -2.3710 LP             1 S1                 0.0000
     51 ****        -0.6296   1.4909  -4.1314 LP             1 S1                 0.0000
     52 ****        -1.0532   3.1579  -4.3357 LP             1 S1                 0.0000
@<TRIPOS>BOND
    1    1    2 1     
    2    1   24 1     
    3    1   25 1     
    4    1   26 1     
    5    2   22 1     
    6    2    3 2     
    7    3    4 1     
    8    4    5 1     
    9    4    6 2     
   10    5   27 1     
   11    5   28 1     
   12    5   29 1     
   13    6    7 1     
   14    6   20 1     
   15    7    8 1     
   16    7   30 1     
   17    7   31 1     
   18    8    9 2     
   19    8   10 am    
   20   10   11 1     
   21   10   32 1     
   22   11   12 1     
   23   11   13 1     
   24   11   33 1     
   25   12   34 1     
   26   12   35 1     
   27   12   36 1     
   28   13   18 1     
   29   13   14 1     
   30   13   37 1     
   31   14   15 1     
   32   14   38 1     
   33   14   39 1     
   34   15   19 1     
   35   15   16 1     
   36   15   40 1     
   37   16   17 1     
   38   16   41 1     
   39   16   42 1     
   40   17   18 1     
   41   17   43 1     
   42   17   44 1     
   43   18   19 1     
   44   18   45 1     
   45   19   46 1     
   46   19   47 1     
   47   20   21 2     
   48   20   22 am    
   49   22   23 1     
   50    3   48 1     
   51    9   49 1     
   52    9   50 1     
   53   21   51 1     
   54   21   52 1     
@<TRIPOS>SUBSTRUCTURE
      1 S1             1
@<TRIPOS>SET
LONE_PAIRS      STATIC     ATOMS    <user>   **** ""
5 48 49 50 51 52
DONOR_HYDROGENS      STATIC     ATOMS    <user>   **** ""
2 32 23
ATOM$BLUE        STATIC     ATOMS    COLORGROUP SYSTEM
5 48 49 50 51 52
ATOM$RED        STATIC     ATOMS    COLORGROUP SYSTEM
2 32 23
