AV-unprocessed.smi:24|AV-procd|sdf|176|dock5
  -GOLD-   2262015433D 1   1.00000     0.00000
 Structure written by MMmdl.
 61 65  0  0  0  0  0  0  0  0  1 V2000
  148.0672  129.8027  160.9695 C   0  0  0  0  0  0  0  0  0  0  0  0
  148.2210  128.9956  159.8113 O   0  0  0  0  0  0  0  0  0  0  0  0
  148.5153  129.6218  158.6192 C   0  0  0  0  0  0  0  0  0  0  0  0
  148.6635  128.8010  157.4828 C   0  0  0  0  0  0  0  0  0  0  0  0
  148.9635  129.3569  156.2246 C   0  0  0  0  0  0  0  0  0  0  0  0
  149.1263  130.7497  156.0826 C   0  0  0  0  0  0  0  0  0  0  0  0
  149.4414  131.3367  154.7078 C   0  0  1  0  0  0  0  0  0  0  0  0
  148.3531  131.0101  153.6814 C   0  0  0  0  0  0  0  0  0  0  0  0
  147.9248  132.3733  153.2523 C   0  0  0  0  0  0  0  0  0  0  0  0
  146.8406  132.5726  152.2650 C   0  0  0  0  0  0  0  0  0  0  0  0
  146.4630  133.8860  151.9035 C   0  0  0  0  0  0  0  0  0  0  0  0
  145.4306  134.0765  150.9641 C   0  0  0  0  0  0  0  0  0  0  0  0
  144.7817  132.9651  150.3907 C   0  0  0  0  0  0  0  0  0  0  0  0
  145.1623  131.6578  150.7536 C   0  0  0  0  0  0  0  0  0  0  0  0
  146.1932  131.4545  151.6919 C   0  0  0  0  0  0  0  0  0  0  0  0
  148.5757  133.3223  153.8169 N   0  0  0  0  0  0  0  0  0  0  0  0
  149.4985  132.8039  154.6658 N   0  0  0  0  0  0  0  0  0  0  0  0
  150.4188  133.5554  155.3097 C   0  0  0  0  0  0  0  0  0  0  0  0
  151.3125  133.0480  155.9901 O   0  0  0  0  0  0  0  0  0  0  0  0
  150.3343  135.0906  155.1712 C   0  0  0  0  0  0  0  0  0  0  0  0
  150.2964  135.7983  156.4697 N   0  0  0  0  0  0  0  0  0  0  0  0
  149.2809  135.4603  157.3983 C   0  0  0  0  0  0  0  0  0  0  0  0
  148.4357  134.6030  157.1366 O   0  0  0  0  0  0  0  0  0  0  0  0
  149.3182  136.1853  158.6633 C   0  0  0  0  0  0  0  0  0  0  0  0
  148.3838  135.9410  159.5977 F   0  0  0  0  0  0  0  0  0  0  0  0
  150.2771  137.1007  158.9125 C   0  0  0  0  0  0  0  0  0  0  0  0
  151.2750  137.4065  158.0038 N   0  0  0  0  0  0  0  0  0  0  0  0
  152.3496  138.4319  158.3005 C   0  0  2  0  0  0  0  0  0  0  0  0
  152.2188  138.9535  159.7447 C   0  0  0  0  0  0  0  0  0  0  0  0
  152.2083  140.4578  159.5587 C   0  0  0  0  0  0  0  0  0  0  0  0
  151.5938  140.5991  158.1744 C   0  0  0  0  0  0  0  0  0  0  0  0
  152.2020  139.5360  157.4531 O   0  0  0  0  0  0  0  0  0  0  0  0
  151.2979  136.7581  156.7499 C   0  0  0  0  0  0  0  0  0  0  0  0
  152.1770  137.0188  155.9253 O   0  0  0  0  0  0  0  0  0  0  0  0
  148.9738  131.5792  157.2151 C   0  0  0  0  0  0  0  0  0  0  0  0
  148.6732  131.0227  158.4731 C   0  0  0  0  0  0  0  0  0  0  0  0
  147.8341  129.1664  161.8232 H   0  0  0  0  0  0  0  0  0  0  0  0
  147.2469  130.5124  160.8539 H   0  0  0  0  0  0  0  0  0  0  0  0
  148.9845  130.3450  161.2031 H   0  0  0  0  0  0  0  0  0  0  0  0
  148.5447  127.7315  157.5766 H   0  0  0  0  0  0  0  0  0  0  0  0
  149.0701  128.7078  155.3680 H   0  0  0  0  0  0  0  0  0  0  0  0
  150.3995  130.9447  154.3606 H   0  0  0  0  0  0  0  0  0  0  0  0
  148.7520  130.4374  152.8436 H   0  0  0  0  0  0  0  0  0  0  0  0
  147.5204  130.4577  154.1193 H   0  0  0  0  0  0  0  0  0  0  0  0
  146.9480  134.7509  152.3327 H   0  0  0  0  0  0  0  0  0  0  0  0
  145.1359  135.0768  150.6831 H   0  0  0  0  0  0  0  0  0  0  0  0
  143.9904  133.1155  149.6711 H   0  0  0  0  0  0  0  0  0  0  0  0
  144.6621  130.8088  150.3111 H   0  0  0  0  0  0  0  0  0  0  0  0
  146.4665  130.4428  151.9526 H   0  0  0  0  0  0  0  0  0  0  0  0
  151.1751  135.4359  154.5674 H   0  0  0  0  0  0  0  0  0  0  0  0
  149.4567  135.3403  154.5728 H   0  0  0  0  0  0  0  0  0  0  0  0
  150.2454  137.6032  159.8671 H   0  0  0  0  0  0  0  0  0  0  0  0
  153.2976  137.9344  158.0881 H   0  0  0  0  0  0  0  0  0  0  0  0
  151.2786  138.6179  160.1852 H   0  0  0  0  0  0  0  0  0  0  0  0
  153.0450  138.6030  160.3636 H   0  0  0  0  0  0  0  0  0  0  0  0
  151.6454  140.9810  160.3320 H   0  0  0  0  0  0  0  0  0  0  0  0
  153.2288  140.8429  159.5559 H   0  0  0  0  0  0  0  0  0  0  0  0
  150.5126  140.4594  158.2132 H   0  0  0  0  0  0  0  0  0  0  0  0
  151.8010  141.5664  157.7163 H   0  0  0  0  0  0  0  0  0  0  0  0
  149.0841  132.6499  157.1255 H   0  0  0  0  0  0  0  0  0  0  0  0
  148.5676  131.6942  159.3115 H   0  0  0  0  0  0  0  0  0  0  0  0
  1  2  1  0  0  0  0
  1 37  1  0  0  0  0
  1 38  1  0  0  0  0
  1 39  1  0  0  0  0
  2  3  1  0  0  0  0
  3 36  1  0  0  0  0
  3  4  2  0  0  0  0
  4  5  1  0  0  0  0
  4 40  1  0  0  0  0
  5  6  2  0  0  0  0
  5 41  1  0  0  0  0
  6  7  1  0  0  0  0
  6 35  1  0  0  0  0
  7 17  1  0  0  0  0
  7  8  1  0  0  0  0
  7 42  1  0  0  0  0
  8  9  1  0  0  0  0
  8 43  1  0  0  0  0
  8 44  1  0  0  0  0
  9 10  1  0  0  0  0
  9 16  2  0  0  0  0
 10 15  1  0  0  0  0
 10 11  2  0  0  0  0
 11 12  1  0  0  0  0
 11 45  1  0  0  0  0
 12 13  2  0  0  0  0
 12 46  1  0  0  0  0
 13 14  1  0  0  0  0
 13 47  1  0  0  0  0
 14 15  2  0  0  0  0
 14 48  1  0  0  0  0
 15 49  1  0  0  0  0
 16 17  1  0  0  0  0
 17 18  1  0  0  0  0
 18 19  2  0  0  0  0
 18 20  1  0  0  0  0
 20 21  1  0  0  0  0
 20 50  1  0  0  0  0
 20 51  1  0  0  0  0
 21 33  1  0  0  0  0
 21 22  1  0  0  0  0
 22 23  2  0  0  0  0
 22 24  1  0  0  0  0
 24 25  1  0  0  0  0
 24 26  2  0  0  0  0
 26 27  1  0  0  0  0
 26 52  1  0  0  0  0
 27 28  1  0  0  0  0
 27 33  1  0  0  0  0
 28 32  1  0  0  0  0
 28 29  1  0  0  0  0
 28 53  1  0  0  0  0
 29 30  1  0  0  0  0
 29 54  1  0  0  0  0
 29 55  1  0  0  0  0
 30 31  1  0  0  0  0
 30 56  1  0  0  0  0
 30 57  1  0  0  0  0
 31 32  1  0  0  0  0
 31 58  1  0  0  0  0
 31 59  1  0  0  0  0
 33 34  2  0  0  0  0
 35 36  2  0  0  0  0
 35 60  1  0  0  0  0
 36 61  1  0  0  0  0
M  END
> <s_m_source_file>
AV-unprocessed.smi

> <i_m_source_file_index>
24

> <i_lp_mmshare_version>
43012

> <i_f3d_flags>
0

> <s_epik_input>
W0NIM11PYzFbY0hdW2NIXWMoW2NIXVtjSF0xKVtDQEBIXTJbQ0gyXUMoYzNbY0hdW2NIXVtjSF1bY0hdW2NIXTMpPU5OMkMoPU8pW0NIMl1uNGMoPU8pYyhGKVtjSF1uKGM0PU8pW0NAQEhdNVtDSDJdW0NIMl1bQ0gyXU81

> <s_epik_cmdline>
J2VwaWtfcHl0aG9uJywgJy1waCcsICc3LjAnLCAnLXRuJywgJzgnLCAnLW1hJywgJzIwMCcsICctbWV0YWxfYmluZGluZycsICctaW1hZScsICc8aW5maWxlLm1hZT4nLCAnLW9tYWUnLCAnPG91dGZpbGUubWFlPic=

> <r_lp_tautomer_probability>
1

> <r_epik_Ionization_Penalty>
1.46326e-08

> <r_epik_Ionization_Penalty_Charging>
4.53232e-09

> <r_epik_Ionization_Penalty_Neutral>
1.01002e-08

> <r_epik_State_Penalty>
-0

> <r_epik_Charging_Adjusted_Penalty>
4.53232e-09

> <i_epik_Tot_Q>
0

> <i_epik_Tot_abs_Q>
0

> <r_epik_Metal_State_Penalty>
-0

> <b_epik_Metal_Only>
0

> <s_epik_Chemistry_Notes>
This compound has an imine and may undergo hydrolysis. This compound contains an acetal/aminal-like group ( X-CH(R)-Y where X, Y are N, S, or O) that may be acid/base labile, releasing an aldehyde.

> <s_lp_Force_Field>
OPLS_2005

> <r_lp_Energy>
50.3667

> <b_lp_Chiralities_Consistent>
1

> <s_lp_Variant>
AV-unprocessed.smi:24-2

> <Gold.Version>
5.8.1

> <Gold.Id.Protein>
6NUR|6NUR_protein|mol2

> <Gold.PLP.Fitness>
50.1859

> <Gold.PLP.PLP>
-44.7936

> <Gold.PLP.part.hbond>
-2.0000

> <Gold.PLP.part.metal>
0.0000

> <Gold.PLP.part.buried>
-7.6591

> <Gold.PLP.part.nonpolar>
-35.8929

> <Gold.PLP.part.repulsive>
0.1800

> <Gold.PLP.ligand.clash>
0.0000

> <Gold.PLP.ligand.torsion>
0.1250

> <Gold.PLP.Chemscore.Hbond>
1.8480

> <Gold.PLP.Chemscore.CHOScore>
0.0000

> <Gold.PLP.Chemscore.Metal>
0.0000

> <Gold.Chemscore.Hbonds>
donor molecule, donor type, donor heavy atom, donor atom, acceptor molecule, acceptor atom, score
      P1  H  7997  8010       L1    32  0.13
      P1  H 10752 10764       L1    34  0.96

> <Gold.PLP.Chemscore.Internal.Correction>
0.0983

> <Gold.Rescore>
     Score         DG    S(hbond)    S(metal)    S(lipo)     H(rot)  DE(clash)    DE(int)     intcor
     15.99     -17.62       1.59        0.00     101.58       1.98       0.08       1.54       ----

> <Gold.Chemscore.Fitness>
15.9946

> <Gold.Chemscore.DG>
-17.6170

> <Gold.Chemscore.ZeroCoef>
-5.4800

> <Gold.Chemscore.Hbond>
1.5894

> <Gold.Chemscore.Metal>
0.0000

> <Gold.Chemscore.Lipo>
101.5756

> <Gold.Chemscore.Internal_Hbond>
0.0000

> <Gold.Chemscore.DEClash>
0.0786

> <Gold.Chemscore.DEInternal>
1.5438

> <Gold.Chemscore.Rot>
1.9750

> <Gold.Chemscore.Internal.Correction>
   9.000000E+99

> <Gold.Chemscore.Hbonds>
donor molecule, donor type, donor heavy atom, donor atom, acceptor molecule, acceptor atom, score
      P1  H  7997  8010       L1    32  0.06
      P1  H 10752 10764       L1    34  0.87

> <Gold.Chemscore.Hbond.Weighted>
-5.3087

> <Gold.Chemscore.Metal.Weighted>
-0.0000

> <Gold.Chemscore.Lipo.Weighted>
-11.8843

> <Gold.Chemscore.Internal_Hbond.Weighted>
0.0000

> <Gold.Chemscore.DEClash.Weighted>
0.0786

> <Gold.Chemscore.DEInternal.Weighted>
1.5438

> <Gold.Chemscore.Rot.Weighted>
5.0561

> <Gold.Chemscore.Internal.Correction.Weighted>
   9.000000E+99

> <Gold.Protein.RotatedTorsions>
[ 6907 6896 6895 6894 ] final  -69.20 input  -60.11 | X-H torsion
[ 7974 7965 7964 7962 ] final  113.18 input  175.53 | X-H torsion
[ 8008 7997 7996 7995 ] final   55.59 input   59.86 | X-H torsion
[ 10167 10162 10161 10158 ] final  170.15 input  -65.29 | X-H torsion
[ 10718 10713 10712 10709 ] final -178.82 input   66.30 | X-H torsion
[ 10763 10752 10751 10750 ] final  -40.18 input  -60.55 | X-H torsion
[ 11005 11000 10999 10996 ] final -153.99 input  -57.11 | X-H torsion

> <Gold.Protein.ActiveResidues>
 VAL166  LYS551  ARG553  GLY616  TRP617  ASP618  TYR619  PRO620  LYS621  CYS622 
 ASP623  PHE694  ASN695  SER759  ASP760  ASP761  ALA762  ILE779  LEU786  VAL792 
 PHE793  MET794  SER795  GLU796  ALA797  LYS798  CYS799  TRP800  GLU811  SER814 

> <Gold.Protein.RotatedAtoms>
  150.7317  134.5631  159.5851 H   0  0  0  0  0  0  0  0  0  0  0  0  # atno 6907 bound_to 6896
  152.3089  134.7518  160.0350 H   0  0  0  0  0  0  0  0  0  0  0  0  # atno 6908 bound_to 6896
  151.8073  133.3342  159.3581 H   0  0  0  0  0  0  0  0  0  0  0  0  # atno 6909 bound_to 6896
  145.2202  139.2865  143.4222 H   0  0  0  0  0  0  0  0  0  0  0  0  # atno 7974 bound_to 7965
  155.5036  140.3475  155.4375 H   0  0  0  0  0  0  0  0  0  0  0  0  # atno 8008 bound_to 7997
  156.0897  140.1407  156.9636 H   0  0  0  0  0  0  0  0  0  0  0  0  # atno 8009 bound_to 7997
  154.4627  140.0929  156.6915 H   0  0  0  0  0  0  0  0  0  0  0  0  # atno 8010 bound_to 7997
  139.5011  144.3627  151.9807 H   0  0  0  0  0  0  0  0  0  0  0  0  # atno 10167 bound_to 10162
  156.8500  130.9716  151.3093 H   0  0  0  0  0  0  0  0  0  0  0  0  # atno 10718 bound_to 10713
  153.9417  135.6760  153.4744 H   0  0  0  0  0  0  0  0  0  0  0  0  # atno 10763 bound_to 10752
  153.0928  135.4866  154.8719 H   0  0  0  0  0  0  0  0  0  0  0  0  # atno 10764 bound_to 10752
  154.7373  135.3152  154.8747 H   0  0  0  0  0  0  0  0  0  0  0  0  # atno 10765 bound_to 10752
  140.7022  134.3925  157.5208 H   0  0  0  0  0  0  0  0  0  0  0  0  # atno 11005 bound_to 11000
  146.3378  140.2505  142.8598 LP  0  0  0  0  0  0  0  0  0  0  0  0  # atno 17320 bound_to 7965
  144.9773  140.8426  143.5419 LP  0  0  0  0  0  0  0  0  0  0  0  0  # atno 17321 bound_to 7965
  140.3064  144.3588  150.6046 LP  0  0  0  0  0  0  0  0  0  0  0  0  # atno 17342 bound_to 10162
  140.5833  143.2171  151.7388 LP  0  0  0  0  0  0  0  0  0  0  0  0  # atno 17343 bound_to 10162
  157.6309  130.8728  149.9271 LP  0  0  0  0  0  0  0  0  0  0  0  0  # atno 17370 bound_to 10713
  156.0833  130.3670  150.0536 LP  0  0  0  0  0  0  0  0  0  0  0  0  # atno 17371 bound_to 10713
  139.8894  134.8832  156.2425 LP  0  0  0  0  0  0  0  0  0  0  0  0  # atno 17394 bound_to 11000
  141.0154  133.7071  156.1180 LP  0  0  0  0  0  0  0  0  0  0  0  0  # atno 17395 bound_to 11000

$$$$
