AV-unprocessed.smi:234|AV-procd|sdf|1788|dock2
  -GOLD-   2262020343D 1   1.00000     0.00000
 Structure written by MMmdl.
 59 62  0  0  0  0  0  0  0  0  1 V2000
  153.7638  142.4318  163.1367 C   0  0  0  0  0  0  0  0  0  0  0  0
  152.6826  143.4317  162.7052 C   0  0  0  0  0  0  0  0  0  0  0  0
  151.9638  142.9589  161.5746 O   0  0  0  0  0  0  0  0  0  0  0  0
  152.6771  143.0469  160.3448 C   0  0  1  0  0  0  0  0  0  0  0  0
  152.9278  141.6671  159.7297 C   0  0  0  0  0  0  0  0  0  0  0  0
  151.5678  141.8302  159.0358 C   0  0  2  0  0  0  0  0  0  0  0  0
  151.5261  141.3066  157.6658 N   0  0  0  0  0  0  0  0  0  0  0  0
  150.5051  141.8364  156.7687 C   0  0  0  0  0  0  0  0  0  0  0  0
  151.6871  139.9702  157.4969 C   0  0  0  0  0  0  0  0  0  0  0  0
  152.9187  139.4074  157.6237 N   0  0  0  0  0  0  0  0  0  0  0  0
  153.0738  138.0886  157.4760 C   0  0  0  0  0  0  0  0  0  0  0  0
  152.1494  137.1644  157.2071 N   0  0  0  0  0  0  0  0  0  0  0  0
  150.9120  137.7236  157.0806 C   0  0  0  0  0  0  0  0  0  0  0  0
  150.5948  139.1046  157.2142 C   0  0  0  0  0  0  0  0  0  0  0  0
  149.2327  139.2999  157.0215 N   0  0  0  0  0  0  0  0  0  0  0  0
  148.7699  138.1017  156.7907 C   0  0  0  0  0  0  0  0  0  0  0  0
  149.7110  137.0964  156.7971 N   0  0  0  0  0  0  0  0  0  0  0  0
  149.4705  135.6799  156.5657 C   0  0  0  0  0  0  0  0  0  0  0  0
  148.9854  135.3617  155.1266 C   0  0  1  0  0  0  0  0  0  0  0  0
  149.6852  136.2106  154.2316 O   0  0  0  0  0  0  0  0  0  0  0  0
  149.2426  133.9199  154.6974 C   0  0  0  0  0  0  0  0  0  0  0  0
  148.1344  133.6601  153.6890 C   0  0  0  0  0  0  0  0  0  0  0  0
  147.0259  134.3106  154.2840 O   0  0  0  0  0  0  0  0  0  0  0  0
  147.4646  135.5410  154.8545 C   0  0  1  0  0  0  0  0  0  0  0  0
  146.5727  135.8319  156.0715 C   0  0  0  0  0  0  0  0  0  0  0  0
  151.7521  143.3705  159.1438 C   0  0  0  0  0  0  0  0  0  0  0  0
  150.5035  144.1950  159.4713 C   0  0  0  0  0  0  0  0  0  0  0  0
  152.4635  144.0865  157.9833 C   0  0  0  0  0  0  0  0  0  0  0  0
  154.3629  142.8391  163.9512 H   0  0  0  0  0  0  0  0  0  0  0  0
  154.4372  142.2053  162.3099 H   0  0  0  0  0  0  0  0  0  0  0  0
  153.3338  141.4932  163.4853 H   0  0  0  0  0  0  0  0  0  0  0  0
  152.0117  143.6657  163.5329 H   0  0  0  0  0  0  0  0  0  0  0  0
  153.1626  144.3681  162.4208 H   0  0  0  0  0  0  0  0  0  0  0  0
  153.5607  143.6843  160.3909 H   0  0  0  0  0  0  0  0  0  0  0  0
  153.7761  141.6559  159.0432 H   0  0  0  0  0  0  0  0  0  0  0  0
  152.9773  140.8421  160.4406 H   0  0  0  0  0  0  0  0  0  0  0  0
  150.7506  141.4726  159.6654 H   0  0  0  0  0  0  0  0  0  0  0  0
  149.6468  141.1656  156.7061 H   0  0  0  0  0  0  0  0  0  0  0  0
  150.9112  141.9691  155.7660 H   0  0  0  0  0  0  0  0  0  0  0  0
  150.1401  142.8043  157.1075 H   0  0  0  0  0  0  0  0  0  0  0  0
  154.0830  137.7212  157.5908 H   0  0  0  0  0  0  0  0  0  0  0  0
  147.7221  137.9170  156.6014 H   0  0  0  0  0  0  0  0  0  0  0  0
  150.3950  135.1457  156.7863 H   0  0  0  0  0  0  0  0  0  0  0  0
  148.7357  135.3401  157.2968 H   0  0  0  0  0  0  0  0  0  0  0  0
  149.1037  136.4423  153.5238 H   0  0  0  0  0  0  0  0  0  0  0  0
  150.2418  133.7483  154.2946 H   0  0  0  0  0  0  0  0  0  0  0  0
  149.1046  133.2458  155.5433 H   0  0  0  0  0  0  0  0  0  0  0  0
  148.3608  134.1184  152.7251 H   0  0  0  0  0  0  0  0  0  0  0  0
  147.9431  132.5983  153.5341 H   0  0  0  0  0  0  0  0  0  0  0  0
  147.3007  136.3261  154.1136 H   0  0  0  0  0  0  0  0  0  0  0  0
  146.8441  136.7732  156.5492 H   0  0  0  0  0  0  0  0  0  0  0  0
  146.6390  135.0377  156.8156 H   0  0  0  0  0  0  0  0  0  0  0  0
  145.5278  135.9097  155.7705 H   0  0  0  0  0  0  0  0  0  0  0  0
  149.8937  144.3822  158.5877 H   0  0  0  0  0  0  0  0  0  0  0  0
  150.7690  145.1639  159.8953 H   0  0  0  0  0  0  0  0  0  0  0  0
  149.8650  143.6892  160.1960 H   0  0  0  0  0  0  0  0  0  0  0  0
  151.8157  144.1908  157.1126 H   0  0  0  0  0  0  0  0  0  0  0  0
  153.3551  143.5514  157.6553 H   0  0  0  0  0  0  0  0  0  0  0  0
  152.7811  145.0889  158.2724 H   0  0  0  0  0  0  0  0  0  0  0  0
  1  2  1  0  0  0  0
  1 29  1  0  0  0  0
  1 30  1  0  0  0  0
  1 31  1  0  0  0  0
  2  3  1  0  0  0  0
  2 32  1  0  0  0  0
  2 33  1  0  0  0  0
  3  4  1  0  0  0  0
  4 26  1  0  0  0  0
  4  5  1  0  0  0  0
  4 34  1  0  0  0  0
  5  6  1  0  0  0  0
  5 35  1  0  0  0  0
  5 36  1  0  0  0  0
  6  7  1  0  0  0  0
  6 26  1  0  0  0  0
  6 37  1  0  0  0  0
  7  8  1  0  0  0  0
  7  9  1  0  0  0  0
  8 38  1  0  0  0  0
  8 39  1  0  0  0  0
  8 40  1  0  0  0  0
  9 14  1  0  0  0  0
  9 10  2  0  0  0  0
 10 11  1  0  0  0  0
 11 12  2  0  0  0  0
 11 41  1  0  0  0  0
 12 13  1  0  0  0  0
 13 17  1  0  0  0  0
 13 14  2  0  0  0  0
 14 15  1  0  0  0  0
 15 16  2  0  0  0  0
 16 17  1  0  0  0  0
 16 42  1  0  0  0  0
 17 18  1  0  0  0  0
 18 19  1  0  0  0  0
 18 43  1  0  0  0  0
 18 44  1  0  0  0  0
 19 24  1  0  0  0  0
 19 20  1  0  0  0  0
 19 21  1  0  0  0  0
 20 45  1  0  0  0  0
 21 22  1  0  0  0  0
 21 46  1  0  0  0  0
 21 47  1  0  0  0  0
 22 23  1  0  0  0  0
 22 48  1  0  0  0  0
 22 49  1  0  0  0  0
 23 24  1  0  0  0  0
 24 25  1  0  0  0  0
 24 50  1  0  0  0  0
 25 51  1  0  0  0  0
 25 52  1  0  0  0  0
 25 53  1  0  0  0  0
 26 27  1  0  0  0  0
 26 28  1  0  0  0  0
 27 54  1  0  0  0  0
 27 55  1  0  0  0  0
 27 56  1  0  0  0  0
 28 57  1  0  0  0  0
 28 58  1  0  0  0  0
 28 59  1  0  0  0  0
M  END
> <s_m_source_file>
AV-unprocessed.smi

> <i_m_source_file_index>
234

> <i_lp_mmshare_version>
43012

> <i_f3d_flags>
0

> <s_epik_input>
W0NIM11bQ0gyXU9bQ0BASF0oQzEoW0NIM10pW0NIM10pW0NIMl1bQ0BIXTFOKFtDSDNdKWMobltjSF1uMiljKGMyMyluW2NIXW4zW0NIMl1bQ0BAXTQoW09IXSlbQ0gyXVtDSDJdT1tDQEhdNFtDSDNd

> <s_epik_cmdline>
J2VwaWtfcHl0aG9uJywgJy1waCcsICc3LjAnLCAnLXRuJywgJzgnLCAnLW1hJywgJzIwMCcsICctbWV0YWxfYmluZGluZycsICctaW1hZScsICc8aW5maWxlLm1hZT4nLCAnLW9tYWUnLCAnPG91dGZpbGUubWFlPic=

> <r_lp_tautomer_probability>
1

> <r_epik_Ionization_Penalty>
0.00349132

> <r_epik_Ionization_Penalty_Charging>
0

> <r_epik_Ionization_Penalty_Neutral>
0.00349132

> <r_epik_State_Penalty>
0.00242418

> <r_epik_Charging_Adjusted_Penalty>
0.00242418

> <i_epik_Tot_Q>
0

> <i_epik_Tot_abs_Q>
0

> <r_epik_Metal_State_Penalty>
-0

> <b_epik_Metal_Only>
0

> <s_lp_Force_Field>
OPLS_2005

> <r_lp_Energy>
49.5598

> <b_lp_Chiralities_Consistent>
1

> <s_lp_Variant>
AV-unprocessed.smi:234-4

> <Gold.Version>
5.8.1

> <Gold.Id.Protein>
6NUR|6NUR_protein|mol2

> <Gold.PLP.Fitness>
48.8217

> <Gold.PLP.PLP>
-44.9745

> <Gold.PLP.part.hbond>
-3.6930

> <Gold.PLP.part.metal>
0.0000

> <Gold.PLP.part.buried>
-4.4771

> <Gold.PLP.part.nonpolar>
-37.4944

> <Gold.PLP.part.repulsive>
0.2121

> <Gold.PLP.ligand.clash>
0.0000

> <Gold.PLP.ligand.torsion>
1.7549

> <Gold.PLP.Chemscore.Hbond>
2.0920

> <Gold.PLP.Chemscore.CHOScore>
0.0000

> <Gold.PLP.Chemscore.Metal>
0.0000

> <Gold.Chemscore.Hbonds>
donor molecule, donor type, donor heavy atom, donor atom, acceptor molecule, acceptor atom, score
      L1  H    20    45       P1  7948  0.77
      P1  H  6933  6945       L1     3  0.13
      P1  H  7997  8010       L1    10  1.00

> <Gold.PLP.Chemscore.Internal.Correction>
1.0810

> <Gold.Rescore>
     Score         DG    S(hbond)    S(metal)    S(lipo)     H(rot)  DE(clash)    DE(int)     intcor
     14.01     -17.51       1.62        0.00     114.02       2.62       0.35       3.15       ----

> <Gold.Chemscore.Fitness>
14.0096

> <Gold.Chemscore.DG>
-17.5114

> <Gold.Chemscore.ZeroCoef>
-5.4800

> <Gold.Chemscore.Hbond>
1.6176

> <Gold.Chemscore.Metal>
0.0000

> <Gold.Chemscore.Lipo>
114.0242

> <Gold.Chemscore.Internal_Hbond>
0.0000

> <Gold.Chemscore.DEClash>
0.3496

> <Gold.Chemscore.DEInternal>
3.1522

> <Gold.Chemscore.Rot>
2.6219

> <Gold.Chemscore.Internal.Correction>
   9.000000E+99

> <Gold.Chemscore.Hbonds>
donor molecule, donor type, donor heavy atom, donor atom, acceptor molecule, acceptor atom, score
      L1  H    20    45       P1  7948  0.74
      P1  H  6933  6945       L1     3  0.11
      P1  H  7997  8010       L1    10  0.29

> <Gold.Chemscore.Hbond.Weighted>
-5.4027

> <Gold.Chemscore.Metal.Weighted>
-0.0000

> <Gold.Chemscore.Lipo.Weighted>
-13.3408

> <Gold.Chemscore.Internal_Hbond.Weighted>
0.0000

> <Gold.Chemscore.DEClash.Weighted>
0.3496

> <Gold.Chemscore.DEInternal.Weighted>
3.1522

> <Gold.Chemscore.Rot.Weighted>
6.7121

> <Gold.Chemscore.Internal.Correction.Weighted>
   9.000000E+99

> <Gold.Protein.RotatedTorsions>
[ 6907 6896 6895 6894 ] final   59.46 input  -60.11 | X-H torsion
[ 7974 7965 7964 7962 ] final -139.04 input  175.53 | X-H torsion
[ 8008 7997 7996 7995 ] final   29.95 input   59.86 | X-H torsion
[ 10167 10162 10161 10158 ] final -179.11 input  -65.29 | X-H torsion
[ 10718 10713 10712 10709 ] final   46.54 input   66.30 | X-H torsion
[ 10763 10752 10751 10750 ] final -165.19 input  -60.55 | X-H torsion
[ 11005 11000 10999 10996 ] final   62.90 input  -57.11 | X-H torsion

> <Gold.Protein.ActiveResidues>
 VAL166  LYS551  ARG553  GLY616  TRP617  ASP618  TYR619  PRO620  LYS621  CYS622 
 ASP623  PHE694  ASN695  SER759  ASP760  ASP761  ALA762  ILE779  LEU786  VAL792 
 PHE793  MET794  SER795  GLU796  ALA797  LYS798  CYS799  TRP800  GLU811  SER814 

> <Gold.Protein.RotatedAtoms>
  152.3916  134.6431  160.0104 H   0  0  0  0  0  0  0  0  0  0  0  0  # atno 6907 bound_to 6896
  151.6663  133.3309  159.3194 H   0  0  0  0  0  0  0  0  0  0  0  0  # atno 6908 bound_to 6896
  150.7831  134.6837  159.6503 H   0  0  0  0  0  0  0  0  0  0  0  0  # atno 6909 bound_to 6896
  144.8709  140.6365  143.5267 H   0  0  0  0  0  0  0  0  0  0  0  0  # atno 7974 bound_to 7965
  155.0826  140.3212  155.4597 H   0  0  0  0  0  0  0  0  0  0  0  0  # atno 8008 bound_to 7997
  156.2763  140.2092  156.5900 H   0  0  0  0  0  0  0  0  0  0  0  0  # atno 8009 bound_to 7997
  154.6966  140.0511  157.0404 H   0  0  0  0  0  0  0  0  0  0  0  0  # atno 8010 bound_to 7997
  139.5401  144.2387  152.0877 H   0  0  0  0  0  0  0  0  0  0  0  0  # atno 10167 bound_to 10162
  157.4492  130.8128  149.7771 H   0  0  0  0  0  0  0  0  0  0  0  0  # atno 10718 bound_to 10713
  154.6956  135.2978  154.9416 H   0  0  0  0  0  0  0  0  0  0  0  0  # atno 10763 bound_to 10752
  154.0365  135.6663  153.4790 H   0  0  0  0  0  0  0  0  0  0  0  0  # atno 10764 bound_to 10752
  153.0643  135.5097  154.8072 H   0  0  0  0  0  0  0  0  0  0  0  0  # atno 10765 bound_to 10752
  140.0061  134.6368  155.9853 H   0  0  0  0  0  0  0  0  0  0  0  0  # atno 11005 bound_to 11000
  145.4132  139.1576  143.4114 LP  0  0  0  0  0  0  0  0  0  0  0  0  # atno 17320 bound_to 7965
  146.2929  140.4237  142.8732 LP  0  0  0  0  0  0  0  0  0  0  0  0  # atno 17321 bound_to 7965
  140.1864  144.4795  150.6502 LP  0  0  0  0  0  0  0  0  0  0  0  0  # atno 17342 bound_to 10162
  140.6627  143.2257  151.5817 LP  0  0  0  0  0  0  0  0  0  0  0  0  # atno 17343 bound_to 10162
  155.9980  130.3897  150.2718 LP  0  0  0  0  0  0  0  0  0  0  0  0  # atno 17370 bound_to 10713
  157.0889  131.0164  151.3129 LP  0  0  0  0  0  0  0  0  0  0  0  0  # atno 17371 bound_to 10713
  141.1677  133.6537  156.4540 LP  0  0  0  0  0  0  0  0  0  0  0  0  # atno 17394 bound_to 11000
  140.4639  134.6815  157.5098 LP  0  0  0  0  0  0  0  0  0  0  0  0  # atno 17395 bound_to 11000

$$$$
