#       Name:                AV-unprocessed.smi:1258
#       Creating user name   scv26
#       Creation time:       Fri Mar 27 04:41:05 2020


#       File generated by GOLD software.
#

@<TRIPOS>MOLECULE
AV-unprocessed.smi:1258
    38    39     1
SMALL
NO_CHARGES


@<TRIPOS>ATOM
      1 ****        -2.0362  -2.5039   2.3401 C.3            1 S1                 0.0000
      2 ****        -1.4342  -1.8020   1.1144 C.3            1 S1                 0.0000
      3 ****        -1.9765  -2.4014  -0.1972 C.3            1 S1                 0.0000
      4 ****        -1.3838  -1.6983  -1.4279 C.3            1 S1                 0.0000
      5 ****        -1.6404  -0.1831  -1.3806 C.3            1 S1                 0.0000
      6 ****        -1.1182   0.4542  -0.0746 C.3            1 S1                 0.0000
      7 ****         0.3433   0.4716  -0.0282 N.am           1 S1                 0.0000
      8 ****         1.1345   1.3335  -0.6857 C.2            1 S1                 0.0000
      9 ****         0.7027   2.2187  -1.4251 O.2            1 S1                 0.0000
     10 ****         2.6424   1.1596  -0.4825 C.3            1 S1                 0.0000
     11 ****         3.3147   2.4361  -0.3226 N.pl3          1 S1                 0.0000
     12 ****         3.8586   3.2599  -1.2209 C.2            1 S1                 0.0000
     13 ****         4.3702   4.3388  -0.6480 N.2            1 S1                 0.0000
     14 ****         4.1061   4.1364   0.6964 N.2            1 S1                 0.0000
     15 ****         3.4795   3.0092   0.8957 N.2            1 S1                 0.0000
     16 ****        -1.6830  -0.2790   1.1590 C.3            1 S1                 0.0000
     17 ****        -3.1193  -2.3824   2.3749 H              1 S1                 0.0000
     18 ****        -1.6259  -2.0993   3.2657 H              1 S1                 0.0000
     19 ****        -1.8218  -3.5729   2.3249 H              1 S1                 0.0000
     20 ****        -0.3569  -1.9715   1.1406 H              1 S1                 0.0000
     21 ****        -1.7502  -3.4673  -0.2426 H              1 S1                 0.0000
     22 ****        -3.0637  -2.3162  -0.2203 H              1 S1                 0.0000
     23 ****        -0.3115  -1.8905  -1.4803 H              1 S1                 0.0000
     24 ****        -1.8155  -2.1177  -2.3372 H              1 S1                 0.0000
     25 ****        -1.1945   0.2989  -2.2512 H              1 S1                 0.0000
     26 ****        -2.7135  -0.0040  -1.4573 H              1 S1                 0.0000
     27 ****        -1.4640   1.4887  -0.0315 H              1 S1                 0.0000
     28 ****         0.7850  -0.2248   0.5546 H              1 S1                 0.0000
     29 ****         2.8467   0.5396   0.3923 H              1 S1                 0.0000
     30 ****         3.0643   0.6473  -1.3476 H              1 S1                 0.0000
     31 ****         3.8767   3.0717  -2.2843 H              1 S1                 0.0000
     32 ****        -2.7568  -0.0945   1.2160 H              1 S1                 0.0000
     33 ****        -1.2572   0.1446   2.0696 H              1 S1                 0.0000
     34 ****        -0.2830   2.3215  -1.5592 LP             1 S1                 0.0000
     35 ****         1.3377   2.8346  -1.8913 LP             1 S1                 0.0000
     36 ****         4.8343   5.1116  -1.0808 LP             1 S1                 0.0000
     37 ****         4.3631   4.7737   1.4229 LP             1 S1                 0.0000
     38 ****         3.1793   2.6399   1.7752 LP             1 S1                 0.0000
@<TRIPOS>BOND
    1    1    2 1     
    2    1   17 1     
    3    1   18 1     
    4    1   19 1     
    5    2   16 1     
    6    2    3 1     
    7    2   20 1     
    8    3    4 1     
    9    3   21 1     
   10    3   22 1     
   11    4    5 1     
   12    4   23 1     
   13    4   24 1     
   14    5    6 1     
   15    5   25 1     
   16    5   26 1     
   17    6    7 1     
   18    6   16 1     
   19    6   27 1     
   20    7    8 am    
   21    7   28 1     
   22    8    9 2     
   23    8   10 1     
   24   10   11 1     
   25   10   29 1     
   26   10   30 1     
   27   11   15 1     
   28   11   12 1     
   29   12   13 2     
   30   12   31 1     
   31   13   14 1     
   32   14   15 2     
   33   16   32 1     
   34   16   33 1     
   35    9   34 1     
   36    9   35 1     
   37   13   36 1     
   38   14   37 1     
   39   15   38 1     
@<TRIPOS>SUBSTRUCTURE
      1 S1             1
@<TRIPOS>SET
LONE_PAIRS      STATIC     ATOMS    <user>   **** ""
5 34 35 36 37 38
DONOR_HYDROGENS      STATIC     ATOMS    <user>   **** ""
1 28
ATOM$BLUE        STATIC     ATOMS    COLORGROUP SYSTEM
5 34 35 36 37 38
ATOM$RED        STATIC     ATOMS    COLORGROUP SYSTEM
1 28
