#       Name:                AV-unprocessed.smi:1701
#       Creating user name   scv26
#       Creation time:       Fri Mar 27 08:01:17 2020


#       File generated by GOLD software.
#

@<TRIPOS>MOLECULE
AV-unprocessed.smi:1701
    57    59     1
SMALL
NO_CHARGES


@<TRIPOS>ATOM
      1 ****        -7.1894  -1.2206   2.1795 C.3            1 S1                 0.0000
      2 ****        -6.2329  -1.2678   0.9823 C.3            1 S1                 0.0000
      3 ****        -5.4989  -0.0142   0.8238 N.pl3          1 S1                 0.0000
      4 ****        -6.1618   1.0860   0.1222 C.3            1 S1                 0.0000
      5 ****        -5.8974   2.4535   0.7708 C.3            1 S1                 0.0000
      6 ****        -4.0889  -0.0952   0.8295 C.ar           1 S1                 0.0000
      7 ****        -3.4218  -0.8585   1.8164 C.ar           1 S1                 0.0000
      8 ****        -2.0156  -0.9309   1.8002 C.ar           1 S1                 0.0000
      9 ****        -1.3056  -0.2318   0.7955 C.ar           1 S1                 0.0000
     10 ****         0.1084  -0.2248   0.6463 N.am           1 S1                 0.0000
     11 ****         1.0631  -0.7215   1.4578 C.2            1 S1                 0.0000
     12 ****         0.8590  -1.2579   2.5436 O.2            1 S1                 0.0000
     13 ****         2.3136  -0.5706   0.9861 N.am           1 S1                 0.0000
     14 ****         3.5679  -0.9928   1.6112 C.3            1 S1                 0.0000
     15 ****         3.8657  -2.4986   1.4667 C.3            1 S1                 0.0000
     16 ****         5.3835  -2.5941   1.2135 C.3            1 S1                 0.0000
     17 ****         5.8870  -1.2140   1.3466 N.4            1 S1                 1.0000
     18 ****         7.1558  -0.8875   0.6601 C.3            1 S1                 0.0000
     19 ****         7.5486   0.5677   0.9862 C.3            1 S1                 0.0000
     20 ****         6.4053   1.5550   0.6719 C.3            1 S1                 0.0000
     21 ****         5.0876   1.1109   1.3361 C.3            1 S1                 0.0000
     22 ****         4.7757  -0.3412   0.9391 C.3            1 S1                 0.0000
     23 ****        -2.0594   0.4999  -0.1437 C.ar           1 S1                 0.0000
     24 ****        -3.4061   0.5716  -0.1319 N.ar           1 S1                 0.0000
     25 ****        -7.7355  -2.1592   2.2733 H              1 S1                 0.0000
     26 ****        -7.9219  -0.4200   2.0737 H              1 S1                 0.0000
     27 ****        -6.6457  -1.0569   3.1102 H              1 S1                 0.0000
     28 ****        -5.5595  -2.1194   1.0807 H              1 S1                 0.0000
     29 ****        -6.8041  -1.4512   0.0718 H              1 S1                 0.0000
     30 ****        -5.8507   1.0968  -0.9229 H              1 S1                 0.0000
     31 ****        -7.2371   0.9048   0.1125 H              1 S1                 0.0000
     32 ****        -6.4442   3.2379   0.2479 H              1 S1                 0.0000
     33 ****        -4.8412   2.7213   0.7483 H              1 S1                 0.0000
     34 ****        -6.2220   2.4621   1.8115 H              1 S1                 0.0000
     35 ****        -3.9729  -1.3804   2.5853 H              1 S1                 0.0000
     36 ****        -1.5244  -1.5246   2.5542 H              1 S1                 0.0000
     37 ****         0.4432   0.2282  -0.1910 H              1 S1                 0.0000
     38 ****         2.4007  -0.1000   0.0964 H              1 S1                 0.0000
     39 ****         3.5734  -0.7224   2.6693 H              1 S1                 0.0000
     40 ****         3.5704  -3.0426   2.3646 H              1 S1                 0.0000
     41 ****         3.3225  -2.9353   0.6271 H              1 S1                 0.0000
     42 ****         5.8832  -3.2593   1.9180 H              1 S1                 0.0000
     43 ****         5.5712  -2.9651   0.2047 H              1 S1                 0.0000
     44 ****         7.9382  -1.5718   0.9901 H              1 S1                 0.0000
     45 ****         7.0423  -1.0211  -0.4168 H              1 S1                 0.0000
     46 ****         7.8052   0.6424   2.0439 H              1 S1                 0.0000
     47 ****         8.4461   0.8459   0.4328 H              1 S1                 0.0000
     48 ****         6.6736   2.5581   1.0046 H              1 S1                 0.0000
     49 ****         6.2649   1.6146  -0.4082 H              1 S1                 0.0000
     50 ****         5.1728   1.1951   2.4204 H              1 S1                 0.0000
     51 ****         4.2736   1.7703   1.0331 H              1 S1                 0.0000
     52 ****         4.6631  -0.4065  -0.1459 H              1 S1                 0.0000
     53 ****        -1.5668   1.0478  -0.9338 H              1 S1                 0.0000
     54 ****         6.0294  -1.0540   2.3338 H              1 S1                 0.0000
     55 ****        -0.0755  -1.3522   2.8869 LP             1 S1                 0.0000
     56 ****         1.6273  -1.6003   3.0844 LP             1 S1                 0.0000
     57 ****        -3.8926   1.1082  -0.8215 LP             1 S1                 0.0000
@<TRIPOS>BOND
    1    1    2 1     
    2    1   25 1     
    3    1   26 1     
    4    1   27 1     
    5    2    3 1     
    6    2   28 1     
    7    2   29 1     
    8    3    4 1     
    9    3    6 1     
   10    4    5 1     
   11    4   30 1     
   12    4   31 1     
   13    5   32 1     
   14    5   33 1     
   15    5   34 1     
   16    6   24 ar    
   17    6    7 ar    
   18    7    8 ar    
   19    7   35 1     
   20    8    9 ar    
   21    8   36 1     
   22    9   10 1     
   23    9   23 ar    
   24   10   11 am    
   25   10   37 1     
   26   11   12 2     
   27   11   13 am    
   28   13   14 1     
   29   13   38 1     
   30   14   22 1     
   31   14   15 1     
   32   14   39 1     
   33   15   16 1     
   34   15   40 1     
   35   15   41 1     
   36   16   17 1     
   37   16   42 1     
   38   16   43 1     
   39   17   22 1     
   40   17   18 1     
   41   17   54 1     
   42   18   19 1     
   43   18   44 1     
   44   18   45 1     
   45   19   20 1     
   46   19   46 1     
   47   19   47 1     
   48   20   21 1     
   49   20   48 1     
   50   20   49 1     
   51   21   22 1     
   52   21   50 1     
   53   21   51 1     
   54   22   52 1     
   55   23   24 ar    
   56   23   53 1     
   57   12   55 1     
   58   12   56 1     
   59   24   57 1     
@<TRIPOS>SUBSTRUCTURE
      1 S1             1
@<TRIPOS>SET
LONE_PAIRS      STATIC     ATOMS    <user>   **** ""
3 55 56 57
DONOR_HYDROGENS      STATIC     ATOMS    <user>   **** ""
3 37 38 54
ATOM$BLUE        STATIC     ATOMS    COLORGROUP SYSTEM
3 55 56 57
ATOM$RED        STATIC     ATOMS    COLORGROUP SYSTEM
3 37 38 54
