AV-unprocessed.smi:34|AV-procd|sdf|220|dock4
  -GOLD-   2262015533D 1   1.00000     0.00000
 Structure written by MMmdl.
 55 59  0  0  0  0  0  0  0  0  1 V2000
  153.1752  139.7991  158.3311 O   0  0  0  0  0  0  0  0  0  0  0  0
  152.3206  140.6539  158.0959 C   0  0  0  0  0  0  0  0  0  0  0  0
  151.3300  140.4892  157.0467 N   0  0  0  0  0  0  0  0  0  0  0  0
  151.2135  139.4728  156.1601 C   0  0  0  0  0  0  0  0  0  0  0  0
  151.6805  139.5602  154.8869 N   0  0  0  0  0  0  0  0  0  0  0  0
  151.5466  138.5278  154.0499 C   0  0  0  0  0  0  0  0  0  0  0  0
  150.9868  137.3389  154.2788 N   0  0  0  0  0  0  0  0  0  0  0  0
  150.5085  137.2419  155.5522 C   0  0  0  0  0  0  0  0  0  0  0  0
  150.5815  138.2609  156.5432 C   0  0  0  0  0  0  0  0  0  0  0  0
  149.9937  137.8156  157.7198 N   0  0  0  0  0  0  0  0  0  0  0  0
  149.6010  136.6028  157.4372 C   0  0  0  0  0  0  0  0  0  0  0  0
  149.8754  136.1731  156.1580 N   0  0  0  0  0  0  0  0  0  0  0  0
  149.5567  134.8306  155.5723 C   0  0  1  0  0  0  0  0  0  0  0  0
  148.9774  134.0090  156.5401 O   0  0  0  0  0  0  0  0  0  0  0  0
  147.8614  133.2924  156.0055 C   0  0  1  0  0  0  0  0  0  0  0  0
  146.5780  133.7877  156.6878 C   0  0  0  0  0  0  0  0  0  0  0  0
  146.8726  134.1551  158.0259 O   0  0  0  0  0  0  0  0  0  0  0  0
  145.9273  134.0530  158.9809 C   0  0  0  0  0  0  0  0  0  0  0  0
  144.8112  133.5661  158.7889 O   0  0  0  0  0  0  0  0  0  0  0  0
  146.3706  134.5982  160.2961 C   0  0  0  0  0  0  0  0  0  0  0  0
  147.2974  135.6663  160.3266 C   0  0  0  0  0  0  0  0  0  0  0  0
  147.7350  136.2018  161.5535 C   0  0  0  0  0  0  0  0  0  0  0  0
  147.2505  135.6756  162.7653 C   0  0  0  0  0  0  0  0  0  0  0  0
  146.3286  134.6129  162.7486 C   0  0  0  0  0  0  0  0  0  0  0  0
  145.8908  134.0753  161.5225 C   0  0  0  0  0  0  0  0  0  0  0  0
  147.8685  133.5802  154.4998 C   0  0  2  0  0  0  0  0  0  0  0  0
  148.5811  132.6426  153.8723 F   0  0  0  0  0  0  0  0  0  0  0  0
  148.5866  134.9114  154.3871 C   0  0  1  0  0  0  0  0  0  0  0  0
  147.6821  135.9998  154.4480 O   0  0  0  0  0  0  0  0  0  0  0  0
  152.1873  141.8876  158.9401 C   0  0  0  0  0  0  0  0  0  0  0  0
  151.1936  142.8459  158.6382 C   0  0  0  0  0  0  0  0  0  0  0  0
  151.0521  144.0010  159.4316 C   0  0  0  0  0  0  0  0  0  0  0  0
  151.8970  144.2031  160.5392 C   0  0  0  0  0  0  0  0  0  0  0  0
  152.8810  143.2473  160.8549 C   0  0  0  0  0  0  0  0  0  0  0  0
  153.0243  142.0923  160.0614 C   0  0  0  0  0  0  0  0  0  0  0  0
  150.6397  141.2223  156.9722 H   0  0  0  0  0  0  0  0  0  0  0  0
  151.9454  138.6741  153.0567 H   0  0  0  0  0  0  0  0  0  0  0  0
  149.1021  135.9782  158.1638 H   0  0  0  0  0  0  0  0  0  0  0  0
  150.5240  134.4121  155.2911 H   0  0  0  0  0  0  0  0  0  0  0  0
  147.9798  132.2239  156.1905 H   0  0  0  0  0  0  0  0  0  0  0  0
  146.1519  134.6235  156.1327 H   0  0  0  0  0  0  0  0  0  0  0  0
  145.8295  132.9949  156.7022 H   0  0  0  0  0  0  0  0  0  0  0  0
  147.6829  136.0870  159.4089 H   0  0  0  0  0  0  0  0  0  0  0  0
  148.4432  137.0173  161.5643 H   0  0  0  0  0  0  0  0  0  0  0  0
  147.5857  136.0865  163.7062 H   0  0  0  0  0  0  0  0  0  0  0  0
  145.9555  134.2087  163.6781 H   0  0  0  0  0  0  0  0  0  0  0  0
  145.1843  133.2584  161.5453 H   0  0  0  0  0  0  0  0  0  0  0  0
  146.8764  133.5760  154.0462 H   0  0  0  0  0  0  0  0  0  0  0  0
  149.1524  134.9969  153.4587 H   0  0  0  0  0  0  0  0  0  0  0  0
  147.5196  136.3033  153.5676 H   0  0  0  0  0  0  0  0  0  0  0  0
  150.5364  142.7047  157.7921 H   0  0  0  0  0  0  0  0  0  0  0  0
  150.2941  144.7315  159.1903 H   0  0  0  0  0  0  0  0  0  0  0  0
  151.7878  145.0886  161.1478 H   0  0  0  0  0  0  0  0  0  0  0  0
  153.5253  143.3987  161.7086 H   0  0  0  0  0  0  0  0  0  0  0  0
  153.7799  141.3671  160.3266 H   0  0  0  0  0  0  0  0  0  0  0  0
  1  2  2  0  0  0  0
  2  3  1  0  0  0  0
  2 30  1  0  0  0  0
  3  4  1  0  0  0  0
  3 36  1  0  0  0  0
  4  9  1  0  0  0  0
  4  5  2  0  0  0  0
  5  6  1  0  0  0  0
  6  7  2  0  0  0  0
  6 37  1  0  0  0  0
  7  8  1  0  0  0  0
  8 12  1  0  0  0  0
  8  9  2  0  0  0  0
  9 10  1  0  0  0  0
 10 11  2  0  0  0  0
 11 12  1  0  0  0  0
 11 38  1  0  0  0  0
 12 13  1  0  0  0  0
 13 28  1  0  0  0  0
 13 14  1  0  0  0  0
 13 39  1  0  0  0  0
 14 15  1  0  0  0  0
 15 16  1  0  0  0  0
 15 26  1  0  0  0  0
 15 40  1  0  0  0  0
 16 17  1  0  0  0  0
 16 41  1  0  0  0  0
 16 42  1  0  0  0  0
 17 18  1  0  0  0  0
 18 19  2  0  0  0  0
 18 20  1  0  0  0  0
 20 25  1  0  0  0  0
 20 21  2  0  0  0  0
 21 22  1  0  0  0  0
 21 43  1  0  0  0  0
 22 23  2  0  0  0  0
 22 44  1  0  0  0  0
 23 24  1  0  0  0  0
 23 45  1  0  0  0  0
 24 25  2  0  0  0  0
 24 46  1  0  0  0  0
 25 47  1  0  0  0  0
 26 27  1  0  0  0  0
 26 28  1  0  0  0  0
 26 48  1  0  0  0  0
 28 29  1  0  0  0  0
 28 49  1  0  0  0  0
 29 50  1  0  0  0  0
 30 35  1  0  0  0  0
 30 31  2  0  0  0  0
 31 32  1  0  0  0  0
 31 51  1  0  0  0  0
 32 33  2  0  0  0  0
 32 52  1  0  0  0  0
 33 34  1  0  0  0  0
 33 53  1  0  0  0  0
 34 35  2  0  0  0  0
 34 54  1  0  0  0  0
 35 55  1  0  0  0  0
M  END
> <s_m_source_file>
AV-unprocessed.smi

> <i_m_source_file_index>
34

> <i_lp_mmshare_version>
43012

> <i_f3d_flags>
0

> <s_epik_input>
W2NIXTFbY0hdW2NIXVtjSF1bY0hdYzFDKD1PKVtOSF1jKG5bY0hdbjIpYyhjMjMpbltjSF1uM1tDQEBIXTRPW0NASF0oW0NAQEhdKEYpW0NASF00W09IXSlbQ0gyXU9DKD1PKWM1W2NIXVtjSF1bY0hdW2NIXVtjSF01

> <s_epik_cmdline>
J2VwaWtfcHl0aG9uJywgJy1waCcsICc3LjAnLCAnLXRuJywgJzgnLCAnLW1hJywgJzIwMCcsICctbWV0YWxfYmluZGluZycsICctaW1hZScsICc8aW5maWxlLm1hZT4nLCAnLW9tYWUnLCAnPG91dGZpbGUubWFlPic=

> <r_lp_tautomer_probability>
1

> <r_epik_Ionization_Penalty>
0.00257489

> <r_epik_Ionization_Penalty_Charging>
0

> <r_epik_Ionization_Penalty_Neutral>
0.00257489

> <r_epik_State_Penalty>
0.00519398

> <r_epik_Charging_Adjusted_Penalty>
0.00519398

> <i_epik_Tot_Q>
0

> <i_epik_Tot_abs_Q>
0

> <r_epik_Metal_State_Penalty>
0.335891

> <b_epik_Metal_Only>
0

> <s_epik_Chemistry_Notes>
This compound has an ester and may undergo hydrolysis at high or low pH. This compound contains an acetal/aminal-like group ( X-CH(R)-Y where X, Y are N, S, or O) that may be acid/base labile, releasing an aldehyde.

> <s_lp_Force_Field>
OPLS_2005

> <r_lp_Energy>
51.6643

> <b_lp_Chiralities_Consistent>
1

> <s_lp_Variant>
AV-unprocessed.smi:34-6

> <Gold.Version>
5.8.1

> <Gold.Id.Protein>
6NUR|6NUR_protein|mol2

> <Gold.PLP.Fitness>
65.0701

> <Gold.PLP.PLP>
-56.8501

> <Gold.PLP.part.hbond>
-4.2124

> <Gold.PLP.part.metal>
0.0000

> <Gold.PLP.part.buried>
-8.6562

> <Gold.PLP.part.nonpolar>
-44.1952

> <Gold.PLP.part.repulsive>
0.2639

> <Gold.PLP.ligand.clash>
0.0000

> <Gold.PLP.ligand.torsion>
1.7045

> <Gold.PLP.Chemscore.Hbond>
3.7682

> <Gold.PLP.Chemscore.CHOScore>
0.0000

> <Gold.PLP.Chemscore.Metal>
0.0000

> <Gold.Chemscore.Hbonds>
donor molecule, donor type, donor heavy atom, donor atom, acceptor molecule, acceptor atom, score
      L1  H    29    50       P1  7948  0.27
      P1  H  7989  7998       L1     5  0.70
      P1  H  7997  8009       L1     1  1.00

> <Gold.PLP.Chemscore.Internal.Correction>
0.3244

> <Gold.Rescore>
     Score         DG    S(hbond)    S(metal)    S(lipo)     H(rot)  DE(clash)    DE(int)     intcor
     20.24     -21.83       3.03        0.00     112.66       2.72       0.20       1.39       ----

> <Gold.Chemscore.Fitness>
20.2379

> <Gold.Chemscore.DG>
-21.8284

> <Gold.Chemscore.ZeroCoef>
-5.4800

> <Gold.Chemscore.Hbond>
3.0343

> <Gold.Chemscore.Metal>
0.0000

> <Gold.Chemscore.Lipo>
112.6566

> <Gold.Chemscore.Internal_Hbond>
0.0000

> <Gold.Chemscore.DEClash>
0.2038

> <Gold.Chemscore.DEInternal>
1.3868

> <Gold.Chemscore.Rot>
2.7215

> <Gold.Chemscore.Internal.Correction>
   9.000000E+99

> <Gold.Chemscore.Hbonds>
donor molecule, donor type, donor heavy atom, donor atom, acceptor molecule, acceptor atom, score
      L1  H    29    50       P1  7948  0.26
      P1  H  7989  7998       L1     5  0.07
      P1  H  7997  8009       L1     1  0.60

> <Gold.Chemscore.Hbond.Weighted>
-10.1347

> <Gold.Chemscore.Metal.Weighted>
-0.0000

> <Gold.Chemscore.Lipo.Weighted>
-13.1808

> <Gold.Chemscore.Internal_Hbond.Weighted>
0.0000

> <Gold.Chemscore.DEClash.Weighted>
0.2038

> <Gold.Chemscore.DEInternal.Weighted>
1.3868

> <Gold.Chemscore.Rot.Weighted>
6.9670

> <Gold.Chemscore.Internal.Correction.Weighted>
   9.000000E+99

> <Gold.Protein.RotatedTorsions>
[ 6907 6896 6895 6894 ] final  152.84 input  -60.11 | X-H torsion
[ 7974 7965 7964 7962 ] final   66.96 input  175.53 | X-H torsion
[ 8008 7997 7996 7995 ] final  154.32 input   59.86 | X-H torsion
[ 10167 10162 10161 10158 ] final  161.20 input  -65.29 | X-H torsion
[ 10718 10713 10712 10709 ] final   76.37 input   66.30 | X-H torsion
[ 10763 10752 10751 10750 ] final  172.55 input  -60.55 | X-H torsion
[ 11005 11000 10999 10996 ] final -108.24 input  -57.11 | X-H torsion

> <Gold.Protein.ActiveResidues>
 VAL166  LYS551  ARG553  GLY616  TRP617  ASP618  TYR619  PRO620  LYS621  CYS622 
 ASP623  PHE694  ASN695  SER759  ASP760  ASP761  ALA762  ILE779  LEU786  VAL792 
 PHE793  MET794  SER795  GLU796  ALA797  LYS798  CYS799  TRP800  GLU811  SER814 

> <Gold.Protein.RotatedAtoms>
  152.0810  133.4153  159.4500 H   0  0  0  0  0  0  0  0  0  0  0  0  # atno 6907 bound_to 6896
  150.6862  134.2982  159.4704 H   0  0  0  0  0  0  0  0  0  0  0  0  # atno 6908 bound_to 6896
  152.0824  134.9462  160.0624 H   0  0  0  0  0  0  0  0  0  0  0  0  # atno 6909 bound_to 6896
  145.8203  139.3081  143.1047 H   0  0  0  0  0  0  0  0  0  0  0  0  # atno 7974 bound_to 7965
  156.2537  140.1970  156.6627 H   0  0  0  0  0  0  0  0  0  0  0  0  # atno 8008 bound_to 7997
  154.6452  140.0578  156.9917 H   0  0  0  0  0  0  0  0  0  0  0  0  # atno 8009 bound_to 7997
  155.1502  140.3250  155.4435 H   0  0  0  0  0  0  0  0  0  0  0  0  # atno 8010 bound_to 7997
  139.4847  144.4559  151.8768 H   0  0  0  0  0  0  0  0  0  0  0  0  # atno 10167 bound_to 10162
  157.6671  130.9771  150.1487 H   0  0  0  0  0  0  0  0  0  0  0  0  # atno 10718 bound_to 10713
  154.4276  135.2759  155.1934 H   0  0  0  0  0  0  0  0  0  0  0  0  # atno 10763 bound_to 10752
  154.3853  135.6078  153.5817 H   0  0  0  0  0  0  0  0  0  0  0  0  # atno 10764 bound_to 10752
  152.9835  135.5890  154.4582 H   0  0  0  0  0  0  0  0  0  0  0  0  # atno 10765 bound_to 10752
  141.0912  133.9052  157.2071 H   0  0  0  0  0  0  0  0  0  0  0  0  # atno 11005 bound_to 11000
  145.9682  140.8781  143.0176 LP  0  0  0  0  0  0  0  0  0  0  0  0  # atno 17320 bound_to 7965
  144.6748  140.1908  143.7397 LP  0  0  0  0  0  0  0  0  0  0  0  0  # atno 17321 bound_to 7965
  140.4019  144.2482  150.5892 LP  0  0  0  0  0  0  0  0  0  0  0  0  # atno 17342 bound_to 10162
  140.5049  143.2307  151.8623 LP  0  0  0  0  0  0  0  0  0  0  0  0  # atno 17343 bound_to 10162
  156.2292  130.3680  149.8465 LP  0  0  0  0  0  0  0  0  0  0  0  0  # atno 17370 bound_to 10713
  156.6296  130.8660  151.3492 LP  0  0  0  0  0  0  0  0  0  0  0  0  # atno 17371 bound_to 10713
  139.9738  135.0120  156.9580 LP  0  0  0  0  0  0  0  0  0  0  0  0  # atno 17394 bound_to 11000
  140.5248  134.0872  155.7301 LP  0  0  0  0  0  0  0  0  0  0  0  0  # atno 17395 bound_to 11000

$$$$
