AV-unprocessed.smi:1444|AV-procd|sdf|5882|dock3
  -GOLD-   22720 5563D 1   1.00000     0.00000
 Structure written by MMmdl.
 43 44  0  0  0  0  0  0  0  0  1 V2000
  152.0457  138.4423  154.6913 C   0  0  0  0  0  0  0  0  0  0  0  0
  150.6877  138.2717  154.3000 O   0  0  0  0  0  0  0  0  0  0  0  0
  149.8316  139.3521  154.3980 C   0  0  0  0  0  0  0  0  0  0  0  0
  150.3399  140.5431  154.8032 N   0  0  0  0  0  0  0  0  0  0  0  0
  149.5063  141.5997  154.8964 C   0  0  0  0  0  0  0  0  0  0  0  0
  148.1359  141.5295  154.5866 C   0  0  0  0  0  0  0  0  0  0  0  0
  147.6063  140.2953  154.1665 C   0  0  0  0  0  0  0  0  0  0  0  0
  148.4652  139.1731  154.0790 C   0  0  0  0  0  0  0  0  0  0  0  0
  148.0365  137.8880  153.6467 N   0  0  0  0  0  0  0  0  0  0  0  0
  146.8710  137.2687  153.8988 C   0  0  0  0  0  0  0  0  0  0  0  0
  145.9562  137.7258  154.5839 O   0  0  0  0  0  0  0  0  0  0  0  0
  146.8328  136.0578  153.3240 N   0  0  0  0  0  0  0  0  0  0  0  0
  145.7250  135.1091  153.4117 C   0  0  1  0  0  0  0  0  0  0  0  0
  144.4635  135.8183  152.8943 C   0  0  0  0  0  0  0  0  0  0  0  0
  146.1111  133.8162  152.6503 C   0  0  0  0  0  0  0  0  0  0  0  0
  145.3622  133.5287  151.4233 N   0  0  0  0  0  0  0  0  0  0  0  0
  145.9973  132.4981  150.6012 C   0  0  0  0  0  0  0  0  0  0  0  0
  145.1818  132.1852  149.3343 C   0  0  0  0  0  0  0  0  0  0  0  0
  143.8650  131.7871  149.6986 O   0  0  0  0  0  0  0  0  0  0  0  0
  143.1899  132.7756  150.4681 C   0  0  0  0  0  0  0  0  0  0  0  0
  144.0056  133.0849  151.7354 C   0  0  0  0  0  0  0  0  0  0  0  0
  152.5790  137.5007  154.5619 H   0  0  0  0  0  0  0  0  0  0  0  0
  152.1268  138.7257  155.7417 H   0  0  0  0  0  0  0  0  0  0  0  0
  152.5461  139.1927  154.0777 H   0  0  0  0  0  0  0  0  0  0  0  0
  149.9466  142.5309  155.2209 H   0  0  0  0  0  0  0  0  0  0  0  0
  147.5060  142.4032  154.6646 H   0  0  0  0  0  0  0  0  0  0  0  0
  146.5607  140.2375  153.9066 H   0  0  0  0  0  0  0  0  0  0  0  0
  148.7288  137.3487  153.1474 H   0  0  0  0  0  0  0  0  0  0  0  0
  147.6341  135.7662  152.7834 H   0  0  0  0  0  0  0  0  0  0  0  0
  145.5620  134.8646  154.4631 H   0  0  0  0  0  0  0  0  0  0  0  0
  143.5584  135.2902  153.1888 H   0  0  0  0  0  0  0  0  0  0  0  0
  144.4737  135.9141  151.8081 H   0  0  0  0  0  0  0  0  0  0  0  0
  144.3783  136.8211  153.3147 H   0  0  0  0  0  0  0  0  0  0  0  0
  147.1835  133.7985  152.4502 H   0  0  0  0  0  0  0  0  0  0  0  0
  145.9422  132.9921  153.3455 H   0  0  0  0  0  0  0  0  0  0  0  0
  146.9953  132.7984  150.2982 H   0  0  0  0  0  0  0  0  0  0  0  0
  146.1159  131.5825  151.1828 H   0  0  0  0  0  0  0  0  0  0  0  0
  145.1387  133.0554  148.6774 H   0  0  0  0  0  0  0  0  0  0  0  0
  145.6528  131.3801  148.7703 H   0  0  0  0  0  0  0  0  0  0  0  0
  143.0463  133.6776  149.8710 H   0  0  0  0  0  0  0  0  0  0  0  0
  142.1998  132.4055  150.7343 H   0  0  0  0  0  0  0  0  0  0  0  0
  144.0425  132.1955  152.3666 H   0  0  0  0  0  0  0  0  0  0  0  0
  143.4869  133.8536  152.3099 H   0  0  0  0  0  0  0  0  0  0  0  0
  1  2  1  0  0  0  0
  1 22  1  0  0  0  0
  1 23  1  0  0  0  0
  1 24  1  0  0  0  0
  2  3  1  0  0  0  0
  3  8  1  0  0  0  0
  3  4  2  0  0  0  0
  4  5  1  0  0  0  0
  5  6  2  0  0  0  0
  5 25  1  0  0  0  0
  6  7  1  0  0  0  0
  6 26  1  0  0  0  0
  7  8  2  0  0  0  0
  7 27  1  0  0  0  0
  8  9  1  0  0  0  0
  9 10  1  0  0  0  0
  9 28  1  0  0  0  0
 10 11  2  0  0  0  0
 10 12  1  0  0  0  0
 12 13  1  0  0  0  0
 12 29  1  0  0  0  0
 13 14  1  0  0  0  0
 13 15  1  0  0  0  0
 13 30  1  0  0  0  0
 14 31  1  0  0  0  0
 14 32  1  0  0  0  0
 14 33  1  0  0  0  0
 15 16  1  0  0  0  0
 15 34  1  0  0  0  0
 15 35  1  0  0  0  0
 16 21  1  0  0  0  0
 16 17  1  0  0  0  0
 17 18  1  0  0  0  0
 17 36  1  0  0  0  0
 17 37  1  0  0  0  0
 18 19  1  0  0  0  0
 18 38  1  0  0  0  0
 18 39  1  0  0  0  0
 19 20  1  0  0  0  0
 20 21  1  0  0  0  0
 20 40  1  0  0  0  0
 20 41  1  0  0  0  0
 21 42  1  0  0  0  0
 21 43  1  0  0  0  0
M  END
> <s_m_source_file>
AV-unprocessed.smi

> <i_m_source_file_index>
1444

> <i_lp_mmshare_version>
43012

> <i_f3d_flags>
0

> <s_epik_input>
W0NIM11PYzFuW2NIXVtjSF1bY0hdYzFbTkhdQyg9TylbTkhdW0NASF0oW0NIM10pW0NIMl1OMltDSDJdW0NIMl1PW0NIMl1bQ0gyXTI=

> <s_epik_cmdline>
J2VwaWtfcHl0aG9uJywgJy1waCcsICc3LjAnLCAnLXRuJywgJzgnLCAnLW1hJywgJzIwMCcsICctbWV0YWxfYmluZGluZycsICctaW1hZScsICc8aW5maWxlLm1hZT4nLCAnLW9tYWUnLCAnPG91dGZpbGUubWFlPic=

> <r_lp_tautomer_probability>
1

> <r_epik_Ionization_Penalty>
0.266086

> <r_epik_Ionization_Penalty_Charging>
0

> <r_epik_Ionization_Penalty_Neutral>
0.266086

> <r_epik_State_Penalty>
0.257924

> <r_epik_Charging_Adjusted_Penalty>
0.257924

> <i_epik_Tot_Q>
0

> <i_epik_Tot_abs_Q>
0

> <r_epik_Metal_State_Penalty>
0.25792

> <b_epik_Metal_Only>
0

> <s_lp_Force_Field>
OPLS_2005

> <r_lp_Energy>
29.2348

> <b_lp_Chiralities_Consistent>
1

> <s_lp_Variant>
AV-unprocessed.smi:1444-2

> <Gold.Version>
5.8.1

> <Gold.Id.Protein>
6NUR|6NUR_protein|mol2

> <Gold.PLP.Fitness>
45.0601

> <Gold.PLP.PLP>
-33.3209

> <Gold.PLP.part.hbond>
-4.0000

> <Gold.PLP.part.metal>
0.0000

> <Gold.PLP.part.buried>
-2.8308

> <Gold.PLP.part.nonpolar>
-27.7290

> <Gold.PLP.part.repulsive>
0.6976

> <Gold.PLP.ligand.clash>
0.0000

> <Gold.PLP.ligand.torsion>
1.0986

> <Gold.PLP.Chemscore.Hbond>
3.6320

> <Gold.PLP.Chemscore.CHOScore>
1.0000

> <Gold.PLP.Chemscore.Metal>
0.0000

> <Gold.Chemscore.Hbonds>
donor molecule, donor type, donor heavy atom, donor atom, acceptor molecule, acceptor atom, score
      L1  H     9    28       P1  7948  0.90
      L1  H    12    29       P1  7948  0.96
      P1  H  7989  7998       L1     4  0.96
      P1  H 10785 10796       L1    19  0.82
      L1  C     5    25       P1  8028  1.00

> <Gold.PLP.Chemscore.Internal.Correction>
0.0403

> <Gold.Rescore>
     Score         DG    S(hbond)    S(metal)    S(lipo)     H(rot)  DE(clash)    DE(int)     intcor
     17.09     -20.13       2.89        0.00      80.37       1.72       0.05       2.98       ----

> <Gold.Chemscore.Fitness>
17.0908

> <Gold.Chemscore.DG>
-20.1294

> <Gold.Chemscore.ZeroCoef>
-5.4800

> <Gold.Chemscore.Hbond>
2.8882

> <Gold.Chemscore.Metal>
0.0000

> <Gold.Chemscore.Lipo>
80.3710

> <Gold.Chemscore.Internal_Hbond>
0.0000

> <Gold.Chemscore.DEClash>
0.0549

> <Gold.Chemscore.DEInternal>
2.9837

> <Gold.Chemscore.Rot>
1.7189

> <Gold.Chemscore.Internal.Correction>
   9.000000E+99

> <Gold.Chemscore.Hbonds>
donor molecule, donor type, donor heavy atom, donor atom, acceptor molecule, acceptor atom, score
      L1  H     9    28       P1  7948  0.88
      L1  H    12    29       P1  7948  0.92
      P1  H  7989  7998       L1     4  0.22
      P1  H 10785 10796       L1    19  0.68

> <Gold.Chemscore.Hbond.Weighted>
-9.6464

> <Gold.Chemscore.Metal.Weighted>
-0.0000

> <Gold.Chemscore.Lipo.Weighted>
-9.4034

> <Gold.Chemscore.Internal_Hbond.Weighted>
0.0000

> <Gold.Chemscore.DEClash.Weighted>
0.0549

> <Gold.Chemscore.DEInternal.Weighted>
2.9837

> <Gold.Chemscore.Rot.Weighted>
4.4004

> <Gold.Chemscore.Internal.Correction.Weighted>
   9.000000E+99

> <Gold.Protein.RotatedTorsions>
[ 6907 6896 6895 6894 ] final    7.93 input  -60.11 | X-H torsion
[ 7974 7965 7964 7962 ] final   -3.91 input  175.53 | X-H torsion
[ 8008 7997 7996 7995 ] final   11.60 input   59.86 | X-H torsion
[ 10167 10162 10161 10158 ] final  155.44 input  -65.29 | X-H torsion
[ 10718 10713 10712 10709 ] final -167.32 input   66.30 | X-H torsion
[ 10763 10752 10751 10750 ] final -143.71 input  -60.55 | X-H torsion
[ 11005 11000 10999 10996 ] final  135.59 input  -57.11 | X-H torsion

> <Gold.Protein.ActiveResidues>
 VAL166  LYS551  ARG553  GLY616  TRP617  ASP618  TYR619  PRO620  LYS621  CYS622 
 ASP623  PHE694  ASN695  SER759  ASP760  ASP761  ALA762  ILE779  LEU786  VAL792 
 PHE793  MET794  SER795  GLU796  ALA797  LYS798  CYS799  TRP800  GLU811  SER814 

> <Gold.Protein.RotatedAtoms>
  151.6978  135.0935  160.0245 H   0  0  0  0  0  0  0  0  0  0  0  0  # atno 6907 bound_to 6896
  152.3739  133.6451  159.6117 H   0  0  0  0  0  0  0  0  0  0  0  0  # atno 6908 bound_to 6896
  150.7694  133.9141  159.3419 H   0  0  0  0  0  0  0  0  0  0  0  0  # atno 6909 bound_to 6896
  146.2381  140.1792  142.8332 H   0  0  0  0  0  0  0  0  0  0  0  0  # atno 7974 bound_to 7965
  154.8091  140.2865  155.5866 H   0  0  0  0  0  0  0  0  0  0  0  0  # atno 8008 bound_to 7997
  156.2986  140.2571  156.2905 H   0  0  0  0  0  0  0  0  0  0  0  0  # atno 8009 bound_to 7997
  154.9468  140.0380  157.2114 H   0  0  0  0  0  0  0  0  0  0  0  0  # atno 8010 bound_to 7997
  139.4821  144.5098  151.8042 H   0  0  0  0  0  0  0  0  0  0  0  0  # atno 10167 bound_to 10162
  156.6806  130.9120  151.3056 H   0  0  0  0  0  0  0  0  0  0  0  0  # atno 10718 bound_to 10713
  154.8459  135.3460  154.6230 H   0  0  0  0  0  0  0  0  0  0  0  0  # atno 10763 bound_to 10752
  153.6839  135.6978  153.5114 H   0  0  0  0  0  0  0  0  0  0  0  0  # atno 10764 bound_to 10752
  153.2647  135.4312  155.0884 H   0  0  0  0  0  0  0  0  0  0  0  0  # atno 10765 bound_to 10752
  139.9990  134.9486  157.0028 H   0  0  0  0  0  0  0  0  0  0  0  0  # atno 11005 bound_to 11000
  144.9948  140.8580  143.5317 LP  0  0  0  0  0  0  0  0  0  0  0  0  # atno 17320 bound_to 7965
  145.1803  139.2356  143.5296 LP  0  0  0  0  0  0  0  0  0  0  0  0  # atno 17321 bound_to 7965
  140.4600  144.1736  150.5905 LP  0  0  0  0  0  0  0  0  0  0  0  0  # atno 17342 bound_to 10162
  140.4495  143.2492  151.9367 LP  0  0  0  0  0  0  0  0  0  0  0  0  # atno 17343 bound_to 10162
  157.7045  130.9369  150.0887 LP  0  0  0  0  0  0  0  0  0  0  0  0  # atno 17370 bound_to 10713
  156.1870  130.3653  149.8960 LP  0  0  0  0  0  0  0  0  0  0  0  0  # atno 17371 bound_to 10713
  140.4764  134.1334  155.7210 LP  0  0  0  0  0  0  0  0  0  0  0  0  # atno 17394 bound_to 11000
  141.1627  133.8763  157.1803 LP  0  0  0  0  0  0  0  0  0  0  0  0  # atno 17395 bound_to 11000

$$$$
