AV-unprocessed.smi:3083|AV-procd|sdf|11744|dock3
  -GOLD-   2272017133D 1   1.00000     0.00000
 Structure written by MMmdl.
 28 29  0  0  0  0  0  0  0  0  2 V2000
  151.5893  144.5453  157.0423 N   0  3  0  0  0  0  0  0  0  0  0  0
  151.5161  143.8832  158.3579 C   0  0  2  0  0  0  0  0  0  0  0  0
  152.1223  144.7926  159.4432 C   0  0  0  0  0  0  0  0  0  0  0  0
  152.0764  144.1243  160.8260 C   0  0  0  0  0  0  0  0  0  0  0  0
  152.7812  142.7596  160.8064 C   0  0  0  0  0  0  0  0  0  0  0  0
  152.1858  141.8424  159.7268 C   0  0  0  0  0  0  0  0  0  0  0  0
  152.2267  142.5048  158.3340 C   0  0  1  0  0  0  0  0  0  0  0  0
  151.6779  141.6051  157.3260 N   0  0  0  0  0  0  0  0  0  0  0  0
  150.5394  141.7758  156.5653 C   0  0  0  0  0  0  0  0  0  0  0  0
  150.4351  140.6963  155.7359 C   0  0  0  0  0  0  0  0  0  0  0  0
  151.5804  139.9145  156.0527 C   0  0  0  0  0  0  0  0  0  0  0  0
  152.3244  140.4630  156.9994 N   0  0  0  0  0  0  0  0  0  0  0  0
  152.3230  144.1244  156.4906 H   0  0  0  0  0  0  0  0  0  0  0  0
  151.7831  145.5282  157.1697 H   0  0  0  0  0  0  0  0  0  0  0  0
  150.4588  143.7421  158.5875 H   0  0  0  0  0  0  0  0  0  0  0  0
  153.1568  145.0317  159.1918 H   0  0  0  0  0  0  0  0  0  0  0  0
  151.5864  145.7421  159.4794 H   0  0  0  0  0  0  0  0  0  0  0  0
  152.5434  144.7729  161.5678 H   0  0  0  0  0  0  0  0  0  0  0  0
  151.0388  143.9958  161.1366 H   0  0  0  0  0  0  0  0  0  0  0  0
  153.8469  142.8998  160.6209 H   0  0  0  0  0  0  0  0  0  0  0  0
  152.6981  142.2844  161.7845 H   0  0  0  0  0  0  0  0  0  0  0  0
  152.7323  140.8988  159.7080 H   0  0  0  0  0  0  0  0  0  0  0  0
  151.1564  141.5958  159.9918 H   0  0  0  0  0  0  0  0  0  0  0  0
  153.2743  142.6695  158.0752 H   0  0  0  0  0  0  0  0  0  0  0  0
  149.9039  142.6424  156.6749 H   0  0  0  0  0  0  0  0  0  0  0  0
  149.6626  140.4991  155.0072 H   0  0  0  0  0  0  0  0  0  0  0  0
  151.8927  138.9733  155.6244 H   0  0  0  0  0  0  0  0  0  0  0  0
  150.7047  144.4363  156.5664 H   0  0  0  0  0  0  0  0  0  0  0  0
  1  2  1  0  0  0  0
  1 13  1  0  0  0  0
  1 14  1  0  0  0  0
  1 28  1  0  0  0  0
  2  7  1  0  0  0  0
  2  3  1  0  0  0  0
  2 15  1  0  0  0  0
  3  4  1  0  0  0  0
  3 16  1  0  0  0  0
  3 17  1  0  0  0  0
  4  5  1  0  0  0  0
  4 18  1  0  0  0  0
  4 19  1  0  0  0  0
  5  6  1  0  0  0  0
  5 20  1  0  0  0  0
  5 21  1  0  0  0  0
  6  7  1  0  0  0  0
  6 22  1  0  0  0  0
  6 23  1  0  0  0  0
  7  8  1  0  0  0  0
  7 24  1  0  0  0  0
  8 12  1  0  0  0  0
  8  9  1  0  0  0  0
  9 10  2  0  0  0  0
  9 25  1  0  0  0  0
 10 11  1  0  0  0  0
 10 26  1  0  0  0  0
 11 12  2  0  0  0  0
 11 27  1  0  0  0  0
M  CHG  1   1   1
M  END
> <s_m_source_file>
AV-unprocessed.smi

> <i_m_source_file_index>
3083

> <i_lp_mmshare_version>
43012

> <i_f3d_flags>
0

> <s_epik_input>
W05IMl1bQ0BASF0xW0NIMl1bQ0gyXVtDSDJdW0NIMl1bQ0BIXTFuMltjSF1bY0hdW2NIXW4y

> <s_epik_cmdline>
J2VwaWtfcHl0aG9uJywgJy1waCcsICc3LjAnLCAnLXRuJywgJzgnLCAnLW1hJywgJzIwMCcsICctbWV0YWxfYmluZGluZycsICctaW1hZScsICc8aW5maWxlLm1hZT4nLCAnLW9tYWUnLCAnPG91dGZpbGUubWFlPic=

> <r_lp_tautomer_probability>
1

> <r_epik_Ionization_Penalty>
0.00385053

> <r_epik_Ionization_Penalty_Charging>
0.0038389

> <r_epik_Ionization_Penalty_Neutral>
1.16305e-05

> <r_epik_State_Penalty>
-0

> <r_epik_Charging_Adjusted_Penalty>
0.0038389

> <i_epik_Tot_Q>
1

> <i_epik_Tot_abs_Q>
1

> <r_epik_Metal_State_Penalty>
-0

> <b_epik_Metal_Only>
0

> <s_lp_Force_Field>
OPLS_2005

> <r_lp_Energy>
13.574

> <b_lp_Chiralities_Consistent>
1

> <s_lp_Variant>
AV-unprocessed.smi:3083-1

> <Gold.Version>
5.8.1

> <Gold.Id.Protein>
6NUR|6NUR_protein|mol2

> <Gold.PLP.Fitness>
40.4123

> <Gold.PLP.PLP>
-29.4233

> <Gold.PLP.part.hbond>
-2.0000

> <Gold.PLP.part.metal>
0.0000

> <Gold.PLP.part.buried>
-0.9523

> <Gold.PLP.part.nonpolar>
-25.4520

> <Gold.PLP.part.repulsive>
0.0546

> <Gold.PLP.ligand.clash>
0.0017

> <Gold.PLP.ligand.torsion>
0.1475

> <Gold.PLP.Chemscore.Hbond>
2.7977

> <Gold.PLP.Chemscore.CHOScore>
0.9548

> <Gold.PLP.Chemscore.Metal>
0.0000

> <Gold.Chemscore.Hbonds>
donor molecule, donor type, donor heavy atom, donor atom, acceptor molecule, acceptor atom, score
      L1  H     1    28       P1  8028  2.00
      P1  H  7997  8009       L1    12  0.75
      L1  C     9    25       P1  8028  1.00

> <Gold.PLP.Chemscore.Internal.Correction>
0.0284

> <Gold.Rescore>
     Score         DG    S(hbond)    S(metal)    S(lipo)     H(rot)  DE(clash)    DE(int)     intcor
     17.29     -18.94       1.78        0.00      86.06       1.00       0.49       1.16       ----

> <Gold.Chemscore.Fitness>
17.2920

> <Gold.Chemscore.DG>
-18.9437

> <Gold.Chemscore.ZeroCoef>
-5.4800

> <Gold.Chemscore.Hbond>
1.7830

> <Gold.Chemscore.Metal>
0.0000

> <Gold.Chemscore.Lipo>
86.0561

> <Gold.Chemscore.Internal_Hbond>
0.0000

> <Gold.Chemscore.DEClash>
0.4913

> <Gold.Chemscore.DEInternal>
1.1604

> <Gold.Chemscore.Rot>
1.0000

> <Gold.Chemscore.Internal.Correction>
   9.000000E+99

> <Gold.Chemscore.Hbonds>
donor molecule, donor type, donor heavy atom, donor atom, acceptor molecule, acceptor atom, score
      L1  H     1    28       P1  8028  0.94
      P1  H  7997  8009       L1    12  0.54

> <Gold.Chemscore.Hbond.Weighted>
-5.9552

> <Gold.Chemscore.Metal.Weighted>
-0.0000

> <Gold.Chemscore.Lipo.Weighted>
-10.0686

> <Gold.Chemscore.Internal_Hbond.Weighted>
0.0000

> <Gold.Chemscore.DEClash.Weighted>
0.4913

> <Gold.Chemscore.DEInternal.Weighted>
1.1604

> <Gold.Chemscore.Rot.Weighted>
2.5600

> <Gold.Chemscore.Internal.Correction.Weighted>
   9.000000E+99

> <Gold.Protein.RotatedTorsions>
[ 6907 6896 6895 6894 ] final    9.55 input  -60.11 | X-H torsion
[ 7974 7965 7964 7962 ] final  151.18 input  175.53 | X-H torsion
[ 8008 7997 7996 7995 ] final -177.79 input   59.86 | X-H torsion
[ 10167 10162 10161 10158 ] final  133.21 input  -65.29 | X-H torsion
[ 10718 10713 10712 10709 ] final  -22.26 input   66.30 | X-H torsion
[ 10763 10752 10751 10750 ] final  -37.72 input  -60.55 | X-H torsion
[ 11005 11000 10999 10996 ] final  178.15 input  -57.11 | X-H torsion

> <Gold.Protein.ActiveResidues>
 VAL166  LYS551  ARG553  GLY616  TRP617  ASP618  TYR619  PRO620  LYS621  CYS622 
 ASP623  PHE694  ASN695  SER759  ASP760  ASP761  ALA762  ILE779  LEU786  VAL792 
 PHE793  MET794  SER795  GLU796  ALA797  LYS798  CYS799  TRP800  GLU811  SER814 

> <Gold.Protein.RotatedAtoms>
  151.7240  135.0888  160.0288 H   0  0  0  0  0  0  0  0  0  0  0  0  # atno 6907 bound_to 6896
  152.3584  133.6261  159.6005 H   0  0  0  0  0  0  0  0  0  0  0  0  # atno 6908 bound_to 6896
  150.7587  133.9380  159.3489 H   0  0  0  0  0  0  0  0  0  0  0  0  # atno 6909 bound_to 6896
  144.8311  139.6504  143.6058 H   0  0  0  0  0  0  0  0  0  0  0  0  # atno 7974 bound_to 7965
  156.0111  140.1241  157.0453 H   0  0  0  0  0  0  0  0  0  0  0  0  # atno 8008 bound_to 7997
  154.4276  140.1087  156.5900 H   0  0  0  0  0  0  0  0  0  0  0  0  # atno 8009 bound_to 7997
  155.6078  140.3471  155.4615 H   0  0  0  0  0  0  0  0  0  0  0  0  # atno 8010 bound_to 7997
  139.5306  144.6626  151.4963 H   0  0  0  0  0  0  0  0  0  0  0  0  # atno 10167 bound_to 10162
  156.5070  130.4601  149.6669 H   0  0  0  0  0  0  0  0  0  0  0  0  # atno 10718 bound_to 10713
  153.9009  135.6802  153.4755 H   0  0  0  0  0  0  0  0  0  0  0  0  # atno 10763 bound_to 10752
  153.1129  135.4774  154.9064 H   0  0  0  0  0  0  0  0  0  0  0  0  # atno 10764 bound_to 10752
  154.7575  135.3201  154.8396 H   0  0  0  0  0  0  0  0  0  0  0  0  # atno 10765 bound_to 10752
  140.3919  134.6854  157.4512 H   0  0  0  0  0  0  0  0  0  0  0  0  # atno 11005 bound_to 11000
  146.2613  139.6418  142.9360 LP  0  0  0  0  0  0  0  0  0  0  0  0  # atno 17320 bound_to 7965
  145.4894  141.0438  143.2601 LP  0  0  0  0  0  0  0  0  0  0  0  0  # atno 17321 bound_to 7965
  140.6482  143.8751  150.6758 LP  0  0  0  0  0  0  0  0  0  0  0  0  # atno 17342 bound_to 10162
  140.2107  143.3886  152.1720 LP  0  0  0  0  0  0  0  0  0  0  0  0  # atno 17343 bound_to 10162
  156.3277  130.7315  151.2239 LP  0  0  0  0  0  0  0  0  0  0  0  0  # atno 17370 bound_to 10713
  157.7455  131.0438  150.4763 LP  0  0  0  0  0  0  0  0  0  0  0  0  # atno 17371 bound_to 10713
  140.0400  134.6281  155.8993 LP  0  0  0  0  0  0  0  0  0  0  0  0  # atno 17394 bound_to 11000
  141.1888  133.6563  156.5338 LP  0  0  0  0  0  0  0  0  0  0  0  0  # atno 17395 bound_to 11000

$$$$
