AV-unprocessed.smi:1225|AV-procd|sdf|5141|dock9
  -GOLD-   22720 4203D 1   1.00000     0.00000
 Structure written by MMmdl.
 49 51  0  0  0  0  0  0  0  0  2 V2000
  146.2473  133.9227  152.7629 C   0  0  0  0  0  0  0  0  0  0  0  0
  145.9498  135.3629  153.0061 C   0  0  0  0  0  0  0  0  0  0  0  0
  145.0777  136.0699  152.2838 N   0  0  0  0  0  0  0  0  0  0  0  0
  144.9792  137.3950  152.7129 C   0  0  0  0  0  0  0  0  0  0  0  0
  145.7874  137.6927  153.7825 C   0  0  0  0  0  0  0  0  0  0  0  0
  145.9192  138.9979  154.4956 C   0  0  0  0  0  0  0  0  0  0  0  0
  146.0597  140.1371  153.5525 N   0  3  2  0  0  0  0  0  0  0  0  0
  147.0108  139.8512  152.4532 C   0  0  0  0  0  0  0  0  0  0  0  0
  146.3605  141.4215  154.2327 C   0  0  0  0  0  0  0  0  0  0  0  0
  147.6387  141.3332  155.0964 C   0  0  2  0  0  0  0  0  0  0  0  0
  147.6861  142.4579  155.9502 O   0  0  0  0  0  0  0  0  0  0  0  0
  148.9420  141.3066  154.2729 C   0  0  0  0  0  0  0  0  0  0  0  0
  149.9861  140.5192  154.9037 N   0  0  0  0  0  0  0  0  0  0  0  0
  150.5062  139.3577  154.4611 C   0  0  0  0  0  0  0  0  0  0  0  0
  151.4531  138.7927  155.2039 N   0  0  0  0  0  0  0  0  0  0  0  0
  151.5724  139.6998  156.2424 C   0  0  0  0  0  0  0  0  0  0  0  0
  152.4132  139.6891  157.3766 C   0  0  0  0  0  0  0  0  0  0  0  0
  152.3646  140.7358  158.3248 C   0  0  0  0  0  0  0  0  0  0  0  0
  153.2882  140.6843  159.5291 C   0  0  0  0  0  0  0  0  0  0  0  0
  151.4648  141.8167  158.1444 C   0  0  0  0  0  0  0  0  0  0  0  0
  151.3968  142.9532  159.1492 C   0  0  0  0  0  0  0  0  0  0  0  0
  150.6184  141.8437  157.0163 C   0  0  0  0  0  0  0  0  0  0  0  0
  150.6729  140.7944  156.0818 C   0  0  0  0  0  0  0  0  0  0  0  0
  146.7125  136.3007  154.2840 S   0  0  0  0  0  0  0  0  0  0  0  0
  145.8321  133.6004  151.8075 H   0  0  0  0  0  0  0  0  0  0  0  0
  145.8136  133.3141  153.5564 H   0  0  0  0  0  0  0  0  0  0  0  0
  147.3252  133.7615  152.7463 H   0  0  0  0  0  0  0  0  0  0  0  0
  144.3004  138.0610  152.2007 H   0  0  0  0  0  0  0  0  0  0  0  0
  145.0406  139.1319  155.1261 H   0  0  0  0  0  0  0  0  0  0  0  0
  146.7717  138.9764  155.1763 H   0  0  0  0  0  0  0  0  0  0  0  0
  148.0229  139.7180  152.8377 H   0  0  0  0  0  0  0  0  0  0  0  0
  147.0242  140.6688  151.7317 H   0  0  0  0  0  0  0  0  0  0  0  0
  146.7289  138.9480  151.9117 H   0  0  0  0  0  0  0  0  0  0  0  0
  146.4409  142.2019  153.4751 H   0  0  0  0  0  0  0  0  0  0  0  0
  145.5290  141.7124  154.8768 H   0  0  0  0  0  0  0  0  0  0  0  0
  147.6096  140.4455  155.7266 H   0  0  0  0  0  0  0  0  0  0  0  0
  148.1591  143.1499  155.5124 H   0  0  0  0  0  0  0  0  0  0  0  0
  148.7531  140.8971  153.2790 H   0  0  0  0  0  0  0  0  0  0  0  0
  149.3212  142.3191  154.1277 H   0  0  0  0  0  0  0  0  0  0  0  0
  150.1634  138.8946  153.5473 H   0  0  0  0  0  0  0  0  0  0  0  0
  153.1006  138.8669  157.5125 H   0  0  0  0  0  0  0  0  0  0  0  0
  152.7119  140.6836  160.4546 H   0  0  0  0  0  0  0  0  0  0  0  0
  153.9544  141.5474  159.5357 H   0  0  0  0  0  0  0  0  0  0  0  0
  153.9060  139.7861  159.5192 H   0  0  0  0  0  0  0  0  0  0  0  0
  150.6539  143.6971  158.8596 H   0  0  0  0  0  0  0  0  0  0  0  0
  152.3616  143.4556  159.2237 H   0  0  0  0  0  0  0  0  0  0  0  0
  151.1251  142.5759  160.1353 H   0  0  0  0  0  0  0  0  0  0  0  0
  149.9326  142.6641  156.8669 H   0  0  0  0  0  0  0  0  0  0  0  0
  145.1574  140.2674  153.1169 H   0  0  0  0  0  0  0  0  0  0  0  0
  1  2  1  0  0  0  0
  1 25  1  0  0  0  0
  1 26  1  0  0  0  0
  1 27  1  0  0  0  0
  2 24  1  0  0  0  0
  2  3  2  0  0  0  0
  3  4  1  0  0  0  0
  4  5  2  0  0  0  0
  4 28  1  0  0  0  0
  5  6  1  0  0  0  0
  5 24  1  0  0  0  0
  6  7  1  0  0  0  0
  6 29  1  0  0  0  0
  6 30  1  0  0  0  0
  7  8  1  0  0  0  0
  7  9  1  0  0  0  0
  7 49  1  0  0  0  0
  8 31  1  0  0  0  0
  8 32  1  0  0  0  0
  8 33  1  0  0  0  0
  9 10  1  0  0  0  0
  9 34  1  0  0  0  0
  9 35  1  0  0  0  0
 10 11  1  0  0  0  0
 10 12  1  0  0  0  0
 10 36  1  0  0  0  0
 11 37  1  0  0  0  0
 12 13  1  0  0  0  0
 12 38  1  0  0  0  0
 12 39  1  0  0  0  0
 13 23  1  0  0  0  0
 13 14  1  0  0  0  0
 14 15  2  0  0  0  0
 14 40  1  0  0  0  0
 15 16  1  0  0  0  0
 16 23  2  0  0  0  0
 16 17  1  0  0  0  0
 17 18  2  0  0  0  0
 17 41  1  0  0  0  0
 18 19  1  0  0  0  0
 18 20  1  0  0  0  0
 19 42  1  0  0  0  0
 19 43  1  0  0  0  0
 19 44  1  0  0  0  0
 20 21  1  0  0  0  0
 20 22  2  0  0  0  0
 21 45  1  0  0  0  0
 21 46  1  0  0  0  0
 21 47  1  0  0  0  0
 22 23  1  0  0  0  0
 22 48  1  0  0  0  0
M  CHG  1   7   1
M  END
> <s_m_source_file>
AV-unprocessed.smi

> <i_m_source_file_index>
1225

> <i_lp_mmshare_version>
43012

> <i_f3d_flags>
0

> <s_epik_input>
W0NIM11jMW5bY0hdYyhzMSlbQ0gyXU4oW0NIM10pW0NIMl1bQ0BIXShbT0hdKVtDSDJdbihbY0hdbjIpYyhjMjMpW2NIXWMoW0NIM10pYyhbY0hdMylbQ0gzXQ==

> <s_epik_cmdline>
J2VwaWtfcHl0aG9uJywgJy1waCcsICc3LjAnLCAnLXRuJywgJzgnLCAnLW1hJywgJzIwMCcsICctbWV0YWxfYmluZGluZycsICctaW1hZScsICc8aW5maWxlLm1hZT4nLCAnLW9tYWUnLCAnPG91dGZpbGUubWFlPic=

> <r_epik_Ionization_Penalty>
1.62543

> <r_epik_Ionization_Penalty_Charging>
1.53932

> <r_epik_Ionization_Penalty_Neutral>
0.0861152

> <r_epik_State_Penalty>
1.73127

> <r_epik_Charging_Adjusted_Penalty>
3.27059

> <i_epik_Tot_Q>
1

> <i_epik_Tot_abs_Q>
1

> <r_epik_Metal_State_Penalty>
1.71387

> <b_epik_Metal_Only>
0

> <s_lp_Force_Field>
OPLS_2005

> <r_lp_Energy>
11.3811

> <b_lp_Chiralities_Consistent>
1

> <s_lp_Variant>
AV-unprocessed.smi:1225-6

> <Gold.Version>
5.8.1

> <Gold.Id.Protein>
6NUR|6NUR_protein|mol2

> <Gold.PLP.Fitness>
51.3024

> <Gold.PLP.PLP>
-35.3460

> <Gold.PLP.part.hbond>
-2.0000

> <Gold.PLP.part.metal>
0.0000

> <Gold.PLP.part.buried>
2.7023

> <Gold.PLP.part.nonpolar>
-35.5609

> <Gold.PLP.part.repulsive>
0.2203

> <Gold.PLP.ligand.clash>
0.0000

> <Gold.PLP.ligand.torsion>
0.8338

> <Gold.PLP.Chemscore.Hbond>
3.0000

> <Gold.PLP.Chemscore.CHOScore>
2.8388

> <Gold.PLP.Chemscore.Metal>
0.0000

> <Gold.Chemscore.Hbonds>
donor molecule, donor type, donor heavy atom, donor atom, acceptor molecule, acceptor atom, score
      L1  H     7    49       P1 10175  2.00
      L1  H    11    37       P1  8028  0.93
      L1  C     4    28       P1 10171  1.00
      L1  C     4    28       P1 10175  1.00
      L1  C    14    40       P1  7957  0.59

> <Gold.PLP.Chemscore.Internal.Correction>
0.1076

> <Gold.Rescore>
     Score         DG    S(hbond)    S(metal)    S(lipo)     H(rot)  DE(clash)    DE(int)     intcor
     16.11     -17.01       1.80        0.00      99.22       2.37       0.20       0.69       ----

> <Gold.Chemscore.Fitness>
16.1143

> <Gold.Chemscore.DG>
-17.0074

> <Gold.Chemscore.ZeroCoef>
-5.4800

> <Gold.Chemscore.Hbond>
1.7959

> <Gold.Chemscore.Metal>
0.0000

> <Gold.Chemscore.Lipo>
99.2241

> <Gold.Chemscore.Internal_Hbond>
0.0000

> <Gold.Chemscore.DEClash>
0.1993

> <Gold.Chemscore.DEInternal>
0.6939

> <Gold.Chemscore.Rot>
2.3750

> <Gold.Chemscore.Internal.Correction>
   9.000000E+99

> <Gold.Chemscore.Hbonds>
donor molecule, donor type, donor heavy atom, donor atom, acceptor molecule, acceptor atom, score
      L1  H     7    49       P1 10175  0.99
      L1  H    11    37       P1  8028  0.79

> <Gold.Chemscore.Hbond.Weighted>
-5.9982

> <Gold.Chemscore.Metal.Weighted>
-0.0000

> <Gold.Chemscore.Lipo.Weighted>
-11.6092

> <Gold.Chemscore.Internal_Hbond.Weighted>
0.0000

> <Gold.Chemscore.DEClash.Weighted>
0.1993

> <Gold.Chemscore.DEInternal.Weighted>
0.6939

> <Gold.Chemscore.Rot.Weighted>
6.0800

> <Gold.Chemscore.Internal.Correction.Weighted>
   9.000000E+99

> <Gold.Protein.RotatedTorsions>
[ 6907 6896 6895 6894 ] final -172.01 input  -60.11 | X-H torsion
[ 7974 7965 7964 7962 ] final  -77.24 input  175.53 | X-H torsion
[ 8008 7997 7996 7995 ] final -139.10 input   59.86 | X-H torsion
[ 10167 10162 10161 10158 ] final   56.53 input  -65.29 | X-H torsion
[ 10718 10713 10712 10709 ] final  -24.89 input   66.30 | X-H torsion
[ 10763 10752 10751 10750 ] final  -66.35 input  -60.55 | X-H torsion
[ 11005 11000 10999 10996 ] final  -51.16 input  -57.11 | X-H torsion

> <Gold.Protein.ActiveResidues>
 VAL166  LYS551  ARG553  GLY616  TRP617  ASP618  TYR619  PRO620  LYS621  CYS622 
 ASP623  PHE694  ASN695  SER759  ASP760  ASP761  ALA762  ILE779  LEU786  VAL792 
 PHE793  MET794  SER795  GLU796  ALA797  LYS798  CYS799  TRP800  GLU811  SER814 

> <Gold.Protein.RotatedAtoms>
  151.5331  133.3445  159.2921 H   0  0  0  0  0  0  0  0  0  0  0  0  # atno 6907 bound_to 6896
  150.8581  134.7928  159.7072 H   0  0  0  0  0  0  0  0  0  0  0  0  # atno 6908 bound_to 6896
  152.4609  134.5196  159.9830 H   0  0  0  0  0  0  0  0  0  0  0  0  # atno 6909 bound_to 6896
  145.6023  140.9406  143.1234 H   0  0  0  0  0  0  0  0  0  0  0  0  # atno 7974 bound_to 7965
  155.4393  140.0530  157.3012 H   0  0  0  0  0  0  0  0  0  0  0  0  # atno 8008 bound_to 7997
  154.4825  140.2087  155.9688 H   0  0  0  0  0  0  0  0  0  0  0  0  # atno 8009 bound_to 7997
  156.1226  140.3185  155.8236 H   0  0  0  0  0  0  0  0  0  0  0  0  # atno 8010 bound_to 7997
  140.2077  144.3922  150.6502 H   0  0  0  0  0  0  0  0  0  0  0  0  # atno 10167 bound_to 10162
  156.4716  130.4525  149.6866 H   0  0  0  0  0  0  0  0  0  0  0  0  # atno 10718 bound_to 10713
  154.3585  135.6121  153.5678 H   0  0  0  0  0  0  0  0  0  0  0  0  # atno 10763 bound_to 10752
  152.9794  135.5809  154.4661 H   0  0  0  0  0  0  0  0  0  0  0  0  # atno 10764 bound_to 10752
  154.4394  135.2850  155.1835 H   0  0  0  0  0  0  0  0  0  0  0  0  # atno 10765 bound_to 10752
  141.0856  133.6643  156.3836 H   0  0  0  0  0  0  0  0  0  0  0  0  # atno 11005 bound_to 11000
  144.7305  139.7742  143.7349 LP  0  0  0  0  0  0  0  0  0  0  0  0  # atno 17320 bound_to 7965
  146.1567  139.4667  143.0014 LP  0  0  0  0  0  0  0  0  0  0  0  0  # atno 17321 bound_to 7965
  140.6346  143.2193  151.6423 LP  0  0  0  0  0  0  0  0  0  0  0  0  # atno 17342 bound_to 10162
  139.5192  144.3261  152.0868 LP  0  0  0  0  0  0  0  0  0  0  0  0  # atno 17343 bound_to 10162
  156.3612  130.7482  151.2455 LP  0  0  0  0  0  0  0  0  0  0  0  0  # atno 17370 bound_to 10713
  157.7491  131.0349  150.4341 LP  0  0  0  0  0  0  0  0  0  0  0  0  # atno 17371 bound_to 10713
  140.5371  134.6156  157.5368 LP  0  0  0  0  0  0  0  0  0  0  0  0  # atno 17394 bound_to 11000
  139.9674  134.7351  156.0111 LP  0  0  0  0  0  0  0  0  0  0  0  0  # atno 17395 bound_to 11000

$$$$
