AV-unprocessed.smi:1093|AV-procd|sdf|4738|dock1
  -GOLD-   22720 3273D 1   1.00000     0.00000
 Structure written by MMmdl.
 48 49  0  0  0  0  0  0  0  0  3 V2000
  146.3556  135.1973  153.2895 C   0  0  0  0  0  0  0  0  0  0  0  0
  146.8184  136.2722  154.2837 C   0  0  0  0  0  0  0  0  0  0  0  0
  147.2155  137.5364  153.6135 N   0  3  1  0  0  0  0  0  0  0  0  0
  146.1927  137.9985  152.6394 C   0  0  0  0  0  0  0  0  0  0  0  0
  146.6858  139.2258  151.8555 C   0  0  0  0  0  0  0  0  0  0  0  0
  147.0859  140.3629  152.8041 C   0  0  0  0  0  0  0  0  0  0  0  0
  148.1194  139.8575  153.8260 C   0  0  1  0  0  0  0  0  0  0  0  0
  148.4500  140.9060  154.7877 N   0  0  0  0  0  0  0  0  0  0  0  0
  149.3775  140.8046  155.7510 C   0  0  0  0  0  0  0  0  0  0  0  0
  150.0647  139.7988  155.9257 O   0  0  0  0  0  0  0  0  0  0  0  0
  149.4624  141.9379  156.4697 N   0  0  0  0  0  0  0  0  0  0  0  0
  150.2932  142.2155  157.5896 C   0  0  0  0  0  0  0  0  0  0  0  0
  151.3299  141.3050  157.8834 C   0  0  0  0  0  0  0  0  0  0  0  0
  152.1900  141.5472  158.9742 C   0  0  0  0  0  0  0  0  0  0  0  0
  152.0151  142.7087  159.7659 C   0  0  0  0  0  0  0  0  0  0  0  0
  152.8353  143.0220  160.8717 N   0  0  0  0  0  0  0  0  0  0  0  0
  152.5373  144.1971  161.6827 C   0  0  0  0  0  0  0  0  0  0  0  0
  153.8803  142.0931  161.2827 C   0  0  0  0  0  0  0  0  0  0  0  0
  151.0131  143.5600  159.4368 N   0  3  0  0  0  0  0  0  0  0  0  0
  150.1657  143.3665  158.4030 C   0  0  0  0  0  0  0  0  0  0  0  0
  147.5854  138.6168  154.5673 C   0  0  0  0  0  0  0  0  0  0  0  0
  145.9803  134.3221  153.8204 H   0  0  0  0  0  0  0  0  0  0  0  0
  147.1648  134.8585  152.6436 H   0  0  0  0  0  0  0  0  0  0  0  0
  145.5495  135.5676  152.6553 H   0  0  0  0  0  0  0  0  0  0  0  0
  145.9881  136.4720  154.9624 H   0  0  0  0  0  0  0  0  0  0  0  0
  147.6379  135.9007  154.9008 H   0  0  0  0  0  0  0  0  0  0  0  0
  145.9622  137.1971  151.9366 H   0  0  0  0  0  0  0  0  0  0  0  0
  145.2667  138.2346  153.1663 H   0  0  0  0  0  0  0  0  0  0  0  0
  147.5403  138.9467  151.2374 H   0  0  0  0  0  0  0  0  0  0  0  0
  145.9086  139.5681  151.1716 H   0  0  0  0  0  0  0  0  0  0  0  0
  147.4904  141.1982  152.2313 H   0  0  0  0  0  0  0  0  0  0  0  0
  146.2006  140.7372  153.3202 H   0  0  0  0  0  0  0  0  0  0  0  0
  149.0267  139.5640  153.2937 H   0  0  0  0  0  0  0  0  0  0  0  0
  147.9369  141.7723  154.7112 H   0  0  0  0  0  0  0  0  0  0  0  0
  148.8895  142.7074  156.1549 H   0  0  0  0  0  0  0  0  0  0  0  0
  151.4676  140.4199  157.2794 H   0  0  0  0  0  0  0  0  0  0  0  0
  152.9742  140.8352  159.1835 H   0  0  0  0  0  0  0  0  0  0  0  0
  152.5704  145.1019  161.0749 H   0  0  0  0  0  0  0  0  0  0  0  0
  153.2583  144.3141  162.4919 H   0  0  0  0  0  0  0  0  0  0  0  0
  151.5452  144.1134  162.1279 H   0  0  0  0  0  0  0  0  0  0  0  0
  154.6154  141.9651  160.4874 H   0  0  0  0  0  0  0  0  0  0  0  0
  153.4526  141.1194  161.5247 H   0  0  0  0  0  0  0  0  0  0  0  0
  154.4073  142.4541  162.1661 H   0  0  0  0  0  0  0  0  0  0  0  0
  149.4333  144.1481  158.2679 H   0  0  0  0  0  0  0  0  0  0  0  0
  146.7152  138.8799  155.1715 H   0  0  0  0  0  0  0  0  0  0  0  0
  148.3516  138.2612  155.2557 H   0  0  0  0  0  0  0  0  0  0  0  0
  148.0420  137.3246  153.0725 H   0  0  0  0  0  0  0  0  0  0  0  0
  150.8911  144.4000  160.0026 H   0  0  0  0  0  0  0  0  0  0  0  0
  1  2  1  0  0  0  0
  1 22  1  0  0  0  0
  1 23  1  0  0  0  0
  1 24  1  0  0  0  0
  2  3  1  0  0  0  0
  2 25  1  0  0  0  0
  2 26  1  0  0  0  0
  3 21  1  0  0  0  0
  3  4  1  0  0  0  0
  3 47  1  0  0  0  0
  4  5  1  0  0  0  0
  4 27  1  0  0  0  0
  4 28  1  0  0  0  0
  5  6  1  0  0  0  0
  5 29  1  0  0  0  0
  5 30  1  0  0  0  0
  6  7  1  0  0  0  0
  6 31  1  0  0  0  0
  6 32  1  0  0  0  0
  7  8  1  0  0  0  0
  7 21  1  0  0  0  0
  7 33  1  0  0  0  0
  8  9  1  0  0  0  0
  8 34  1  0  0  0  0
  9 10  2  0  0  0  0
  9 11  1  0  0  0  0
 11 12  1  0  0  0  0
 11 35  1  0  0  0  0
 12 20  1  0  0  0  0
 12 13  2  0  0  0  0
 13 14  1  0  0  0  0
 13 36  1  0  0  0  0
 14 15  2  0  0  0  0
 14 37  1  0  0  0  0
 15 16  1  0  0  0  0
 15 19  1  0  0  0  0
 16 17  1  0  0  0  0
 16 18  1  0  0  0  0
 17 38  1  0  0  0  0
 17 39  1  0  0  0  0
 17 40  1  0  0  0  0
 18 41  1  0  0  0  0
 18 42  1  0  0  0  0
 18 43  1  0  0  0  0
 19 20  2  0  0  0  0
 19 48  1  0  0  0  0
 20 44  1  0  0  0  0
 21 45  1  0  0  0  0
 21 46  1  0  0  0  0
M  CHG  1   3   1
M  CHG  1  19   1
M  END
> <s_m_source_file>
AV-unprocessed.smi

> <i_m_source_file_index>
1093

> <i_lp_mmshare_version>
43012

> <i_f3d_flags>
0

> <s_epik_input>
W0NIM11bQ0gyXU4xW0NIMl1bQ0gyXVtDSDJdW0NASF0oW0NIMl0xKVtOSF1DKD1PKVtOSF1jMltjSF1bY0hdYyhOKFtDSDNdKVtDSDNdKW5bY0hdMg==

> <s_epik_cmdline>
J2VwaWtfcHl0aG9uJywgJy1waCcsICc3LjAnLCAnLXRuJywgJzgnLCAnLW1hJywgJzIwMCcsICctbWV0YWxfYmluZGluZycsICctaW1hZScsICc8aW5maWxlLm1hZT4nLCAnLW9tYWUnLCAnPG91dGZpbGUubWFlPic=

> <r_lp_tautomer_probability>
0.999994

> <r_epik_Ionization_Penalty>
0.346711

> <r_epik_Ionization_Penalty_Charging>
0.346691

> <r_epik_Ionization_Penalty_Neutral>
1.93006e-05

> <r_epik_State_Penalty>
0.339838

> <r_epik_Charging_Adjusted_Penalty>
0.68653

> <i_epik_Tot_Q>
2

> <i_epik_Tot_abs_Q>
2

> <r_epik_Metal_State_Penalty>
0.600835

> <b_epik_Metal_Only>
0

> <s_lp_Force_Field>
OPLS_2005

> <r_lp_Energy>
27.8827

> <b_lp_Chiralities_Consistent>
1

> <s_lp_Variant>
AV-unprocessed.smi:1093-1

> <Gold.Version>
5.8.1

> <Gold.Id.Protein>
6NUR|6NUR_protein|mol2

> <Gold.PLP.Fitness>
43.8831

> <Gold.PLP.PLP>
-34.9980

> <Gold.PLP.part.hbond>
-2.0000

> <Gold.PLP.part.metal>
0.0000

> <Gold.PLP.part.buried>
1.2459

> <Gold.PLP.part.nonpolar>
-32.7798

> <Gold.PLP.part.repulsive>
0.2482

> <Gold.PLP.ligand.clash>
0.0000

> <Gold.PLP.ligand.torsion>
0.0758

> <Gold.PLP.Chemscore.Hbond>
2.9920

> <Gold.PLP.Chemscore.CHOScore>
0.0000

> <Gold.PLP.Chemscore.Metal>
0.0000

> <Gold.Chemscore.Hbonds>
donor molecule, donor type, donor heavy atom, donor atom, acceptor molecule, acceptor atom, score
      L1  H     3    47       P1  7948  2.00
      L1  H    11    35       P1  8028  0.83

> <Gold.PLP.Chemscore.Internal.Correction>
0.0607

> <Gold.Rescore>
     Score         DG    S(hbond)    S(metal)    S(lipo)     H(rot)  DE(clash)    DE(int)     intcor
     15.94     -18.54       1.66        0.00      90.35       1.19       1.08       1.51       ----

> <Gold.Chemscore.Fitness>
15.9434

> <Gold.Chemscore.DG>
-18.5388

> <Gold.Chemscore.ZeroCoef>
-5.4800

> <Gold.Chemscore.Hbond>
1.6607

> <Gold.Chemscore.Metal>
0.0000

> <Gold.Chemscore.Lipo>
90.3522

> <Gold.Chemscore.Internal_Hbond>
0.0000

> <Gold.Chemscore.DEClash>
1.0835

> <Gold.Chemscore.DEInternal>
1.5119

> <Gold.Chemscore.Rot>
1.1949

> <Gold.Chemscore.Internal.Correction>
   9.000000E+99

> <Gold.Chemscore.Hbonds>
donor molecule, donor type, donor heavy atom, donor atom, acceptor molecule, acceptor atom, score
      L1  H     3    47       P1  7948  0.95
      L1  H    11    35       P1  8028  0.77

> <Gold.Chemscore.Hbond.Weighted>
-5.5466

> <Gold.Chemscore.Metal.Weighted>
-0.0000

> <Gold.Chemscore.Lipo.Weighted>
-10.5712

> <Gold.Chemscore.Internal_Hbond.Weighted>
0.0000

> <Gold.Chemscore.DEClash.Weighted>
1.0835

> <Gold.Chemscore.DEInternal.Weighted>
1.5119

> <Gold.Chemscore.Rot.Weighted>
3.0590

> <Gold.Chemscore.Internal.Correction.Weighted>
   9.000000E+99

> <Gold.Protein.RotatedTorsions>
[ 6907 6896 6895 6894 ] final  120.78 input  -60.11 | X-H torsion
[ 7974 7965 7964 7962 ] final   24.64 input  175.53 | X-H torsion
[ 8008 7997 7996 7995 ] final  -44.01 input   59.86 | X-H torsion
[ 10167 10162 10161 10158 ] final  -70.95 input  -65.29 | X-H torsion
[ 10718 10713 10712 10709 ] final   92.74 input   66.30 | X-H torsion
[ 10763 10752 10751 10750 ] final  129.89 input  -60.55 | X-H torsion
[ 11005 11000 10999 10996 ] final  -79.72 input  -57.11 | X-H torsion

> <Gold.Protein.ActiveResidues>
 VAL166  LYS551  ARG553  GLY616  TRP617  ASP618  TYR619  PRO620  LYS621  CYS622 
 ASP623  PHE694  ASN695  SER759  ASP760  ASP761  ALA762  ILE779  LEU786  VAL792 
 PHE793  MET794  SER795  GLU796  ALA797  LYS798  CYS799  TRP800  GLU811  SER814 

> <Gold.Protein.RotatedAtoms>
  152.4372  133.7382  159.6625 H   0  0  0  0  0  0  0  0  0  0  0  0  # atno 6907 bound_to 6896
  150.8257  133.8165  159.3125 H   0  0  0  0  0  0  0  0  0  0  0  0  # atno 6908 bound_to 6896
  151.5834  135.1059  160.0074 H   0  0  0  0  0  0  0  0  0  0  0  0  # atno 6909 bound_to 6896
  146.1928  139.7577  142.8819 H   0  0  0  0  0  0  0  0  0  0  0  0  # atno 7974 bound_to 7965
  154.3997  140.1433  156.3614 H   0  0  0  0  0  0  0  0  0  0  0  0  # atno 8008 bound_to 7997
  155.8178  140.3470  155.5475 H   0  0  0  0  0  0  0  0  0  0  0  0  # atno 8009 bound_to 7997
  155.8320  140.0913  157.1777 H   0  0  0  0  0  0  0  0  0  0  0  0  # atno 8010 bound_to 7997
  140.5311  143.2321  151.7259 H   0  0  0  0  0  0  0  0  0  0  0  0  # atno 10167 bound_to 10162
  157.6957  131.0454  150.3928 H   0  0  0  0  0  0  0  0  0  0  0  0  # atno 10718 bound_to 10713
  153.7491  135.3212  155.3318 H   0  0  0  0  0  0  0  0  0  0  0  0  # atno 10763 bound_to 10752
  154.8269  135.4563  154.0949 H   0  0  0  0  0  0  0  0  0  0  0  0  # atno 10764 bound_to 10752
  153.2147  135.6940  153.8154 H   0  0  0  0  0  0  0  0  0  0  0  0  # atno 10765 bound_to 10752
  141.1667  133.7118  156.8165 H   0  0  0  0  0  0  0  0  0  0  0  0  # atno 11005 bound_to 11000
  145.3740  141.0347  143.3215 LP  0  0  0  0  0  0  0  0  0  0  0  0  # atno 17320 bound_to 7965
  144.8519  139.5308  143.6852 LP  0  0  0  0  0  0  0  0  0  0  0  0  # atno 17321 bound_to 7965
  139.4955  144.4112  152.0079 LP  0  0  0  0  0  0  0  0  0  0  0  0  # atno 17342 bound_to 10162
  140.3214  144.3423  150.6008 LP  0  0  0  0  0  0  0  0  0  0  0  0  # atno 17343 bound_to 10162
  156.4330  130.3976  149.6748 LP  0  0  0  0  0  0  0  0  0  0  0  0  # atno 17370 bound_to 10713
  156.3958  130.7650  151.2654 LP  0  0  0  0  0  0  0  0  0  0  0  0  # atno 17371 bound_to 10713
  140.2150  134.8799  157.3316 LP  0  0  0  0  0  0  0  0  0  0  0  0  # atno 17394 bound_to 11000
  140.2047  134.4212  155.7644 LP  0  0  0  0  0  0  0  0  0  0  0  0  # atno 17395 bound_to 11000

$$$$
