#       Name:                AV-unprocessed.smi:2032
#       Creating user name   scv26
#       Creation time:       Fri Mar 27 10:53:13 2020


#       File generated by GOLD software.
#

@<TRIPOS>MOLECULE
AV-unprocessed.smi:2032
    48    49     1
SMALL
NO_CHARGES


@<TRIPOS>ATOM
      1 ****        -4.1077  -2.8953  -2.0298 C.3            1 S1                 0.0000
      2 ****        -3.4766  -1.8321  -1.1237 C.3            1 S1                 0.0000
      3 ****        -1.9823  -1.6225  -1.4298 C.3            1 S1                 0.0000
      4 ****        -1.3598  -0.6431  -0.4952 N.4            1 S1                 1.0000
      5 ****         0.0948  -0.3937  -0.7744 C.3            1 S1                 0.0000
      6 ****         0.3187   0.0940  -2.2278 C.3            1 S1                 0.0000
      7 ****         0.7251   0.6084   0.2286 C.3            1 S1                 0.0000
      8 ****         2.1388   0.8442  -0.0409 N.am           1 S1                 0.0000
      9 ****         2.8994   1.7621   0.5687 C.2            1 S1                 0.0000
     10 ****         2.4079   2.4890   1.4350 O.2            1 S1                 0.0000
     11 ****         4.1803   1.7770   0.1369 N.pl3          1 S1                -1.0000
     12 ****         5.0577   2.6463   0.6641 C.2            1 S1                 0.0000
     13 ****         5.4269   3.7738   0.0458 N.2            1 S1                 0.0000
     14 ****         6.3554   4.5249   0.7689 C.2            1 S1                 0.0000
     15 ****         6.7077   3.9516   1.9618 C.2            1 S1                 0.0000
     16 ****         5.8791   2.4420   2.2141 S.3            1 S1                 0.0000
     17 ****        -1.6484  -1.0450   0.9106 C.3            1 S1                 0.0000
     18 ****        -3.1530  -1.2823   1.1398 C.3            1 S1                 0.0000
     19 ****        -3.4489  -1.7839   2.5579 C.3            1 S1                 0.0000
     20 ****        -3.6195  -2.2600   0.2223 O.3            1 S1                 0.0000
     21 ****        -4.0350  -2.6110  -3.0798 H              1 S1                 0.0000
     22 ****        -5.1640  -3.0295  -1.7957 H              1 S1                 0.0000
     23 ****        -3.6154  -3.8607  -1.9094 H              1 S1                 0.0000
     24 ****        -4.0169  -0.8942  -1.2656 H              1 S1                 0.0000
     25 ****        -1.4478  -2.5720  -1.3675 H              1 S1                 0.0000
     26 ****        -1.9107  -1.2780  -2.4595 H              1 S1                 0.0000
     27 ****         0.6173  -1.3449  -0.6587 H              1 S1                 0.0000
     28 ****         1.3587   0.3553  -2.4210 H              1 S1                 0.0000
     29 ****        -0.2832   0.9769  -2.4449 H              1 S1                 0.0000
     30 ****         0.0797  -0.6714  -2.9644 H              1 S1                 0.0000
     31 ****         0.1830   1.5553   0.2028 H              1 S1                 0.0000
     32 ****         0.6812   0.2324   1.2499 H              1 S1                 0.0000
     33 ****         2.5785   0.2688  -0.7442 H              1 S1                 0.0000
     34 ****         6.7142   5.4563   0.3567 H              1 S1                 0.0000
     35 ****         7.4005   4.3208   2.7027 H              1 S1                 0.0000
     36 ****        -1.0809  -1.9447   1.1543 H              1 S1                 0.0000
     37 ****        -1.3432  -0.2669   1.6076 H              1 S1                 0.0000
     38 ****        -3.6994  -0.3503   0.9834 H              1 S1                 0.0000
     39 ****        -3.1214  -1.0624   3.3069 H              1 S1                 0.0000
     40 ****        -2.9406  -2.7276   2.7576 H              1 S1                 0.0000
     41 ****        -4.5179  -1.9459   2.6989 H              1 S1                 0.0000
     42 ****        -1.8335   0.2369  -0.6417 H              1 S1                 0.0000
     43 ****         1.4434   2.3922   1.6807 LP             1 S1                 0.0000
     44 ****         2.9738   3.1754   1.8918 LP             1 S1                 0.0000
     45 ****         4.4748   1.1402  -0.5757 LP             1 S1                 0.0000
     46 ****         5.0725   4.0515  -0.8471 LP             1 S1                 0.0000
     47 ****        -3.0948  -3.1014   0.3516 LP             1 S1                 0.0000
     48 ****        -4.5864  -2.4388   0.4039 LP             1 S1                 0.0000
@<TRIPOS>BOND
    1    1    2 1     
    2    1   21 1     
    3    1   22 1     
    4    1   23 1     
    5    2   20 1     
    6    2    3 1     
    7    2   24 1     
    8    3    4 1     
    9    3   25 1     
   10    3   26 1     
   11    4    5 1     
   12    4   17 1     
   13    4   42 1     
   14    5    6 1     
   15    5    7 1     
   16    5   27 1     
   17    6   28 1     
   18    6   29 1     
   19    6   30 1     
   20    7    8 1     
   21    7   31 1     
   22    7   32 1     
   23    8    9 am    
   24    8   33 1     
   25    9   10 2     
   26    9   11 1     
   27   11   12 1     
   28   12   16 1     
   29   12   13 2     
   30   13   14 1     
   31   14   15 2     
   32   14   34 1     
   33   15   16 1     
   34   15   35 1     
   35   17   18 1     
   36   17   36 1     
   37   17   37 1     
   38   18   19 1     
   39   18   20 1     
   40   18   38 1     
   41   19   39 1     
   42   19   40 1     
   43   19   41 1     
   44   10   43 1     
   45   10   44 1     
   46   11   45 1     
   47   13   46 1     
   48   20   47 1     
   49   20   48 1     
@<TRIPOS>SUBSTRUCTURE
      1 S1             1
@<TRIPOS>SET
LONE_PAIRS      STATIC     ATOMS    <user>   **** ""
6 43 44 45 46 47 48
DONOR_HYDROGENS      STATIC     ATOMS    <user>   **** ""
2 42 33
ATOM$BLUE        STATIC     ATOMS    COLORGROUP SYSTEM
6 43 44 45 46 47 48
ATOM$RED        STATIC     ATOMS    COLORGROUP SYSTEM
2 42 33
