AV-unprocessed.smi:1240|AV-procd|sdf|5212|dock9
  -GOLD-   22720 4303D 1   1.00000     0.00000
 Structure written by MMmdl.
 48 50  0  0  0  0  0  0  0  0  4 V2000
  150.9555  137.3425  156.1273 O   0  0  0  0  0  0  0  0  0  0  0  0
  150.5758  137.0220  154.9951 C   0  0  0  0  0  0  0  0  0  0  0  0
  150.6678  135.8010  154.4044 N   0  5  0  0  0  0  0  0  0  0  0  0
  150.6123  134.5261  155.1191 C   0  0  0  0  0  0  0  0  0  0  0  0
  149.8236  133.4521  154.2889 C   0  0  1  0  0  0  0  0  0  0  0  0
  149.5854  132.0947  155.0306 C   0  0  2  0  0  0  0  0  0  0  0  0
  148.8467  132.1564  156.3643 C   0  0  0  0  0  0  0  0  0  0  0  0
  149.2185  130.8304  157.0196 C   0  0  0  0  0  0  0  0  0  0  0  0
  150.5056  130.4949  156.5152 O   0  0  0  0  0  0  0  0  0  0  0  0
  150.8796  131.4157  155.4980 C   0  0  0  0  0  0  0  0  0  0  0  0
  148.5220  133.9464  153.7147 N   0  3  0  0  0  0  0  0  0  0  0  0
  147.8718  133.1350  152.6468 C   0  0  0  0  0  0  0  0  0  0  0  0
  146.7394  133.9449  151.9954 C   0  0  0  0  0  0  0  0  0  0  0  0
  145.8054  134.3498  152.9900 O   0  0  0  0  0  0  0  0  0  0  0  0
  146.3973  135.1928  153.9719 C   0  0  0  0  0  0  0  0  0  0  0  0
  147.5199  134.4350  154.6993 C   0  0  0  0  0  0  0  0  0  0  0  0
  149.9692  137.9231  154.2018 N   0  0  0  0  0  0  0  0  0  0  0  0
  149.6797  139.2893  154.4623 C   0  0  0  0  0  0  0  0  0  0  0  0
  148.5481  139.8518  153.8321 C   0  0  0  0  0  0  0  0  0  0  0  0
  148.2344  141.2086  154.0507 C   0  0  0  0  0  0  0  0  0  0  0  0
  149.0236  141.9615  154.8469 N   0  3  0  0  0  0  0  0  0  0  0  0
  150.1262  141.4728  155.4548 C   0  0  0  0  0  0  0  0  0  0  0  0
  150.4896  140.1228  155.2741 C   0  0  0  0  0  0  0  0  0  0  0  0
  151.6062  134.1418  155.3498 H   0  0  0  0  0  0  0  0  0  0  0  0
  150.1212  134.6508  156.0844 H   0  0  0  0  0  0  0  0  0  0  0  0
  150.4344  133.2139  153.4163 H   0  0  0  0  0  0  0  0  0  0  0  0
  149.0534  131.3938  154.3840 H   0  0  0  0  0  0  0  0  0  0  0  0
  149.2183  132.9867  156.9667 H   0  0  0  0  0  0  0  0  0  0  0  0
  147.7673  132.2704  156.2584 H   0  0  0  0  0  0  0  0  0  0  0  0
  149.2201  130.8922  158.1080 H   0  0  0  0  0  0  0  0  0  0  0  0
  148.5172  130.0491  156.7250 H   0  0  0  0  0  0  0  0  0  0  0  0
  151.4033  130.9062  154.6888 H   0  0  0  0  0  0  0  0  0  0  0  0
  151.5631  132.1469  155.9322 H   0  0  0  0  0  0  0  0  0  0  0  0
  148.5962  132.8506  151.8842 H   0  0  0  0  0  0  0  0  0  0  0  0
  147.4604  132.2132  153.0601 H   0  0  0  0  0  0  0  0  0  0  0  0
  147.1354  134.8178  151.4738 H   0  0  0  0  0  0  0  0  0  0  0  0
  146.2229  133.3375  151.2523 H   0  0  0  0  0  0  0  0  0  0  0  0
  146.7804  136.1016  153.5049 H   0  0  0  0  0  0  0  0  0  0  0  0
  145.6301  135.4997  154.6830 H   0  0  0  0  0  0  0  0  0  0  0  0
  147.0926  133.6007  155.2563 H   0  0  0  0  0  0  0  0  0  0  0  0
  147.9956  135.0964  155.4242 H   0  0  0  0  0  0  0  0  0  0  0  0
  149.6011  137.5560  153.3366 H   0  0  0  0  0  0  0  0  0  0  0  0
  147.9197  139.2479  153.1935 H   0  0  0  0  0  0  0  0  0  0  0  0
  147.3830  141.7101  153.6144 H   0  0  0  0  0  0  0  0  0  0  0  0
  150.6850  142.1723  156.0590 H   0  0  0  0  0  0  0  0  0  0  0  0
  151.3854  139.7527  155.7496 H   0  0  0  0  0  0  0  0  0  0  0  0
  148.8034  134.7898  153.2365 H   0  0  0  0  0  0  0  0  0  0  0  0
  148.7800  142.9416  154.9911 H   0  0  0  0  0  0  0  0  0  0  0  0
  1  2  2  0  0  0  0
  2  3  1  0  0  0  0
  2 17  1  0  0  0  0
  3  4  1  0  0  0  0
  4  5  1  0  0  0  0
  4 24  1  0  0  0  0
  4 25  1  0  0  0  0
  5  6  1  0  0  0  0
  5 11  1  0  0  0  0
  5 26  1  0  0  0  0
  6 10  1  0  0  0  0
  6  7  1  0  0  0  0
  6 27  1  0  0  0  0
  7  8  1  0  0  0  0
  7 28  1  0  0  0  0
  7 29  1  0  0  0  0
  8  9  1  0  0  0  0
  8 30  1  0  0  0  0
  8 31  1  0  0  0  0
  9 10  1  0  0  0  0
 10 32  1  0  0  0  0
 10 33  1  0  0  0  0
 11 16  1  0  0  0  0
 11 12  1  0  0  0  0
 11 47  1  0  0  0  0
 12 13  1  0  0  0  0
 12 34  1  0  0  0  0
 12 35  1  0  0  0  0
 13 14  1  0  0  0  0
 13 36  1  0  0  0  0
 13 37  1  0  0  0  0
 14 15  1  0  0  0  0
 15 16  1  0  0  0  0
 15 38  1  0  0  0  0
 15 39  1  0  0  0  0
 16 40  1  0  0  0  0
 16 41  1  0  0  0  0
 17 18  1  0  0  0  0
 17 42  1  0  0  0  0
 18 23  1  0  0  0  0
 18 19  2  0  0  0  0
 19 20  1  0  0  0  0
 19 43  1  0  0  0  0
 20 21  2  0  0  0  0
 20 44  1  0  0  0  0
 21 22  1  0  0  0  0
 21 48  1  0  0  0  0
 22 23  2  0  0  0  0
 22 45  1  0  0  0  0
 23 46  1  0  0  0  0
M  CHG  1   3  -1
M  CHG  1  11   1
M  CHG  1  21   1
M  END
> <s_m_source_file>
AV-unprocessed.smi

> <i_m_source_file_index>
1240

> <i_lp_mmshare_version>
43012

> <i_f3d_flags>
0

> <s_epik_input>
W2NIXTFbY0hdbltjSF1bY0hdYzFbTkhdQyg9TylbTkhdW0NIMl1bQ0BIXShbQ0BASF0yW0NIMl1bQ0gyXU9bQ0gyXTIpTjNbQ0gyXVtDSDJdT1tDSDJdW0NIMl0z

> <s_epik_cmdline>
J2VwaWtfcHl0aG9uJywgJy1waCcsICc3LjAnLCAnLXRuJywgJzgnLCAnLW1hJywgJzIwMCcsICctbWV0YWxfYmluZGluZycsICctaW1hZScsICc8aW5maWxlLm1hZT4nLCAnLW9tYWUnLCAnPG91dGZpbGUubWFlPic=

> <r_epik_Ionization_Penalty>
8.41087

> <r_epik_Ionization_Penalty_Charging>
8.41087

> <r_epik_Ionization_Penalty_Neutral>
3.12936e-06

> <r_epik_State_Penalty>
8.81894

> <r_epik_Charging_Adjusted_Penalty>
17.2298

> <i_epik_Tot_Q>
1

> <i_epik_Tot_abs_Q>
3

> <r_epik_Metal_State_Penalty>
4.82983

> <b_epik_Metal_Only>
1

> <s_lp_Force_Field>
OPLS_2005

> <r_lp_Energy>
48.6891

> <b_lp_Chiralities_Consistent>
1

> <s_lp_Variant>
AV-unprocessed.smi:1240-18

> <Gold.Version>
5.8.1

> <Gold.Id.Protein>
6NUR|6NUR_protein|mol2

> <Gold.PLP.Fitness>
45.7807

> <Gold.PLP.PLP>
-30.8833

> <Gold.PLP.part.hbond>
-3.3063

> <Gold.PLP.part.metal>
0.0000

> <Gold.PLP.part.buried>
-1.1515

> <Gold.PLP.part.nonpolar>
-27.5326

> <Gold.PLP.part.repulsive>
1.4228

> <Gold.PLP.ligand.clash>
0.0000

> <Gold.PLP.ligand.torsion>
0.7686

> <Gold.PLP.Chemscore.Hbond>
5.3705

> <Gold.PLP.Chemscore.CHOScore>
0.0000

> <Gold.PLP.Chemscore.Metal>
0.0000

> <Gold.Chemscore.Hbonds>
donor molecule, donor type, donor heavy atom, donor atom, acceptor molecule, acceptor atom, score
      L1  H    11    47       P1  7948  2.00
      L1  H    17    42       P1  7948  0.94
      L1  H    21    48       P1  8028  2.00
      P1  H 10752 10764       L1     3  0.24

> <Gold.PLP.Chemscore.Internal.Correction>
0.3232

> <Gold.Rescore>
     Score         DG    S(hbond)    S(metal)    S(lipo)     H(rot)  DE(clash)    DE(int)     intcor
     14.65     -16.68       2.07        0.00      73.97       1.70       0.07       1.97       ----

> <Gold.Chemscore.Fitness>
14.6474

> <Gold.Chemscore.DG>
-16.6812

> <Gold.Chemscore.ZeroCoef>
-5.4800

> <Gold.Chemscore.Hbond>
2.0672

> <Gold.Chemscore.Metal>
0.0000

> <Gold.Chemscore.Lipo>
73.9691

> <Gold.Chemscore.Internal_Hbond>
0.0000

> <Gold.Chemscore.DEClash>
0.0669

> <Gold.Chemscore.DEInternal>
1.9670

> <Gold.Chemscore.Rot>
1.7021

> <Gold.Chemscore.Internal.Correction>
   9.000000E+99

> <Gold.Chemscore.Hbonds>
donor molecule, donor type, donor heavy atom, donor atom, acceptor molecule, acceptor atom, score
      L1  H    11    47       P1  7948  0.29
      L1  H    17    42       P1  7948  0.77
      L1  H    21    48       P1  8028  0.99

> <Gold.Chemscore.Hbond.Weighted>
-6.9043

> <Gold.Chemscore.Metal.Weighted>
-0.0000

> <Gold.Chemscore.Lipo.Weighted>
-8.6544

> <Gold.Chemscore.Internal_Hbond.Weighted>
0.0000

> <Gold.Chemscore.DEClash.Weighted>
0.0669

> <Gold.Chemscore.DEInternal.Weighted>
1.9670

> <Gold.Chemscore.Rot.Weighted>
4.3575

> <Gold.Chemscore.Internal.Correction.Weighted>
   9.000000E+99

> <Gold.Protein.RotatedTorsions>
[ 6907 6896 6895 6894 ] final  -26.39 input  -60.11 | X-H torsion
[ 7974 7965 7964 7962 ] final -105.64 input  175.53 | X-H torsion
[ 8008 7997 7996 7995 ] final -167.34 input   59.86 | X-H torsion
[ 10167 10162 10161 10158 ] final  122.24 input  -65.29 | X-H torsion
[ 10718 10713 10712 10709 ] final  -61.57 input   66.30 | X-H torsion
[ 10763 10752 10751 10750 ] final  -65.55 input  -60.55 | X-H torsion
[ 11005 11000 10999 10996 ] final   17.50 input  -57.11 | X-H torsion

> <Gold.Protein.ActiveResidues>
 VAL166  LYS551  ARG553  GLY616  TRP617  ASP618  TYR619  PRO620  LYS621  CYS622 
 ASP623  PHE694  ASN695  SER759  ASP760  ASP761  ALA762  ILE779  LEU786  VAL792 
 PHE793  MET794  SER795  GLU796  ALA797  LYS798  CYS799  TRP800  GLU811  SER814 

> <Gold.Protein.RotatedAtoms>
  151.1617  135.0276  159.8712 H   0  0  0  0  0  0  0  0  0  0  0  0  # atno 6907 bound_to 6896
  152.5451  134.1272  159.8434 H   0  0  0  0  0  0  0  0  0  0  0  0  # atno 6908 bound_to 6896
  151.1368  133.4953  159.2630 H   0  0  0  0  0  0  0  0  0  0  0  0  # atno 6909 bound_to 6896
  145.2279  140.9159  143.3222 H   0  0  0  0  0  0  0  0  0  0  0  0  # atno 7974 bound_to 7965
  155.8763  140.1001  157.1516 H   0  0  0  0  0  0  0  0  0  0  0  0  # atno 8008 bound_to 7997
  154.4001  140.1337  156.4204 H   0  0  0  0  0  0  0  0  0  0  0  0  # atno 8009 bound_to 7997
  155.7693  140.3461  155.5241 H   0  0  0  0  0  0  0  0  0  0  0  0  # atno 8010 bound_to 7997
  139.5870  144.7010  151.3384 H   0  0  0  0  0  0  0  0  0  0  0  0  # atno 10167 bound_to 10162
  156.0913  130.4200  150.1012 H   0  0  0  0  0  0  0  0  0  0  0  0  # atno 10718 bound_to 10713
  154.3466  135.6145  153.5622 H   0  0  0  0  0  0  0  0  0  0  0  0  # atno 10763 bound_to 10752
  152.9801  135.5782  154.4791 H   0  0  0  0  0  0  0  0  0  0  0  0  # atno 10764 bound_to 10752
  154.4505  135.2852  155.1762 H   0  0  0  0  0  0  0  0  0  0  0  0  # atno 10765 bound_to 10752
  140.4352  134.1378  155.7684 H   0  0  0  0  0  0  0  0  0  0  0  0  # atno 11005 bound_to 11000
  144.9704  139.3886  143.6312 LP  0  0  0  0  0  0  0  0  0  0  0  0  # atno 17320 bound_to 7965
  146.3360  139.8799  142.8826 LP  0  0  0  0  0  0  0  0  0  0  0  0  # atno 17321 bound_to 7965
  140.7140  143.7315  150.7620 LP  0  0  0  0  0  0  0  0  0  0  0  0  # atno 17342 bound_to 10162
  140.0862  143.4921  152.2504 LP  0  0  0  0  0  0  0  0  0  0  0  0  # atno 17343 bound_to 10162
  156.9022  130.9624  151.3575 LP  0  0  0  0  0  0  0  0  0  0  0  0  # atno 17370 bound_to 10713
  157.6063  130.8549  149.8880 LP  0  0  0  0  0  0  0  0  0  0  0  0  # atno 17371 bound_to 10713
  141.1729  133.8573  157.1515 LP  0  0  0  0  0  0  0  0  0  0  0  0  # atno 17394 bound_to 11000
  140.0107  134.9989  157.0388 LP  0  0  0  0  0  0  0  0  0  0  0  0  # atno 17395 bound_to 11000

$$$$
