AV-unprocessed.smi:2221|AV-procd|sdf|8980|dock3
  -GOLD-   2272012193D 1   1.00000     0.00000
 Structure written by MMmdl.
 54 55  0  0  0  0  0  0  0  0  3 V2000
  151.7754  145.9882  160.2801 C   0  0  0  0  0  0  0  0  0  0  0  0
  151.8005  144.5926  159.6926 C   0  0  0  0  0  0  0  0  0  0  0  0
  152.6682  143.6106  160.2069 C   0  0  0  0  0  0  0  0  0  0  0  0
  152.6506  142.3320  159.6164 C   0  0  0  0  0  0  0  0  0  0  0  0
  153.5573  141.2282  160.1193 C   0  0  0  0  0  0  0  0  0  0  0  0
  151.8439  142.0086  158.5829 N   0  0  0  0  0  0  0  0  0  0  0  0
  151.0011  142.9461  158.0819 C   0  0  0  0  0  0  0  0  0  0  0  0
  150.1166  142.7077  156.9966 N   0  0  0  0  0  0  0  0  0  0  0  0
  149.9471  141.5688  156.3031 C   0  0  0  0  0  0  0  0  0  0  0  0
  150.5113  140.5000  156.5396 O   0  0  0  0  0  0  0  0  0  0  0  0
  149.0885  141.7369  155.2861 N   0  0  0  0  0  0  0  0  0  0  0  0
  148.6965  140.7066  154.3258 C   0  0  0  0  0  0  0  0  0  0  0  0
  147.4717  141.1193  153.4819 C   0  0  0  0  0  0  0  0  0  0  0  0
  146.4788  140.0245  153.3350 N   0  3  2  0  0  0  0  0  0  0  0  0
  146.0552  139.4399  154.6282 C   0  0  0  0  0  0  0  0  0  0  0  0
  144.8883  138.4585  154.4263 C   0  0  0  0  0  0  0  0  0  0  0  0
  145.2359  137.3230  153.4306 C   0  0  1  0  0  0  0  0  0  0  0  0
  144.0741  136.4128  153.1704 N   0  3  0  0  0  0  0  0  0  0  0  0
  142.8486  137.1281  152.7339 C   0  0  0  0  0  0  0  0  0  0  0  0
  144.3768  135.2986  152.2375 C   0  0  0  0  0  0  0  0  0  0  0  0
  145.7631  137.9707  152.1264 C   0  0  0  0  0  0  0  0  0  0  0  0
  146.9051  138.9673  152.3866 C   0  0  0  0  0  0  0  0  0  0  0  0
  150.9577  144.2538  158.6147 C   0  0  0  0  0  0  0  0  0  0  0  0
  152.1433  145.9870  161.3066 H   0  0  0  0  0  0  0  0  0  0  0  0
  150.7601  146.3855  160.2853 H   0  0  0  0  0  0  0  0  0  0  0  0
  152.4038  146.6558  159.6904 H   0  0  0  0  0  0  0  0  0  0  0  0
  153.3295  143.8325  161.0319 H   0  0  0  0  0  0  0  0  0  0  0  0
  154.2076  141.5834  160.9192 H   0  0  0  0  0  0  0  0  0  0  0  0
  154.1860  140.8550  159.3106 H   0  0  0  0  0  0  0  0  0  0  0  0
  152.9646  140.3985  160.5055 H   0  0  0  0  0  0  0  0  0  0  0  0
  149.5696  143.5032  156.7014 H   0  0  0  0  0  0  0  0  0  0  0  0
  148.6674  142.6476  155.1683 H   0  0  0  0  0  0  0  0  0  0  0  0
  149.5411  140.4387  153.6895 H   0  0  0  0  0  0  0  0  0  0  0  0
  148.4540  139.8061  154.8905 H   0  0  0  0  0  0  0  0  0  0  0  0
  146.9911  142.0011  153.9083 H   0  0  0  0  0  0  0  0  0  0  0  0
  147.8325  141.4188  152.4969 H   0  0  0  0  0  0  0  0  0  0  0  0
  146.9009  138.9372  155.1001 H   0  0  0  0  0  0  0  0  0  0  0  0
  145.7374  140.2337  155.3055 H   0  0  0  0  0  0  0  0  0  0  0  0
  144.6300  138.0545  155.4047 H   0  0  0  0  0  0  0  0  0  0  0  0
  144.0134  139.0060  154.0717 H   0  0  0  0  0  0  0  0  0  0  0  0
  146.0371  136.7241  153.8675 H   0  0  0  0  0  0  0  0  0  0  0  0
  143.0415  137.7301  151.8448 H   0  0  0  0  0  0  0  0  0  0  0  0
  142.4575  137.7774  153.5158 H   0  0  0  0  0  0  0  0  0  0  0  0
  142.0493  136.4251  152.4962 H   0  0  0  0  0  0  0  0  0  0  0  0
  144.7725  135.6740  151.2929 H   0  0  0  0  0  0  0  0  0  0  0  0
  143.4813  134.7156  152.0197 H   0  0  0  0  0  0  0  0  0  0  0  0
  145.0947  134.5996  152.6657 H   0  0  0  0  0  0  0  0  0  0  0  0
  146.1397  137.2154  151.4381 H   0  0  0  0  0  0  0  0  0  0  0  0
  144.9474  138.4816  151.6121 H   0  0  0  0  0  0  0  0  0  0  0  0
  147.2097  139.4141  151.4403 H   0  0  0  0  0  0  0  0  0  0  0  0
  147.7778  138.4465  152.7843 H   0  0  0  0  0  0  0  0  0  0  0  0
  150.2854  144.9928  158.2026 H   0  0  0  0  0  0  0  0  0  0  0  0
  143.8438  135.9776  154.0525 H   0  0  0  0  0  0  0  0  0  0  0  0
  145.6545  140.4553  152.9392 H   0  0  0  0  0  0  0  0  0  0  0  0
  1  2  1  0  0  0  0
  1 24  1  0  0  0  0
  1 25  1  0  0  0  0
  1 26  1  0  0  0  0
  2 23  1  0  0  0  0
  2  3  2  0  0  0  0
  3  4  1  0  0  0  0
  3 27  1  0  0  0  0
  4  5  1  0  0  0  0
  4  6  2  0  0  0  0
  5 28  1  0  0  0  0
  5 29  1  0  0  0  0
  5 30  1  0  0  0  0
  6  7  1  0  0  0  0
  7  8  1  0  0  0  0
  7 23  2  0  0  0  0
  8  9  1  0  0  0  0
  8 31  1  0  0  0  0
  9 10  2  0  0  0  0
  9 11  1  0  0  0  0
 11 12  1  0  0  0  0
 11 32  1  0  0  0  0
 12 13  1  0  0  0  0
 12 33  1  0  0  0  0
 12 34  1  0  0  0  0
 13 14  1  0  0  0  0
 13 35  1  0  0  0  0
 13 36  1  0  0  0  0
 14 22  1  0  0  0  0
 14 15  1  0  0  0  0
 14 54  1  0  0  0  0
 15 16  1  0  0  0  0
 15 37  1  0  0  0  0
 15 38  1  0  0  0  0
 16 17  1  0  0  0  0
 16 39  1  0  0  0  0
 16 40  1  0  0  0  0
 17 18  1  0  0  0  0
 17 21  1  0  0  0  0
 17 41  1  0  0  0  0
 18 19  1  0  0  0  0
 18 20  1  0  0  0  0
 18 53  1  0  0  0  0
 19 42  1  0  0  0  0
 19 43  1  0  0  0  0
 19 44  1  0  0  0  0
 20 45  1  0  0  0  0
 20 46  1  0  0  0  0
 20 47  1  0  0  0  0
 21 22  1  0  0  0  0
 21 48  1  0  0  0  0
 21 49  1  0  0  0  0
 22 50  1  0  0  0  0
 22 51  1  0  0  0  0
 23 52  1  0  0  0  0
M  CHG  1  14   1
M  CHG  1  18   1
M  END
> <s_m_source_file>
AV-unprocessed.smi

> <i_m_source_file_index>
2221

> <i_lp_mmshare_version>
43012

> <i_f3d_flags>
0

> <s_epik_input>
W0NIM11jMVtjSF1jKFtDSDNdKW5jKFtjSF0xKVtOSF1DKD1PKVtOSF1bQ0gyXVtDSDJdTjJbQ0gyXVtDSDJdW0NIXShOKFtDSDNdKVtDSDNdKVtDSDJdW0NIMl0y

> <s_epik_cmdline>
J2VwaWtfcHl0aG9uJywgJy1waCcsICc3LjAnLCAnLXRuJywgJzgnLCAnLW1hJywgJzIwMCcsICctbWV0YWxfYmluZGluZycsICctaW1hZScsICc8aW5maWxlLm1hZT4nLCAnLW9tYWUnLCAnPG91dGZpbGUubWFlPic=

> <r_epik_Ionization_Penalty>
0.206417

> <r_epik_Ionization_Penalty_Charging>
0.206231

> <r_epik_Ionization_Penalty_Neutral>
0.00018626

> <r_epik_State_Penalty>
0.176025

> <r_epik_Charging_Adjusted_Penalty>
0.382256

> <i_epik_Tot_Q>
2

> <i_epik_Tot_abs_Q>
2

> <r_epik_Metal_State_Penalty>
0.176034

> <b_epik_Metal_Only>
0

> <s_lp_Force_Field>
OPLS_2005

> <r_lp_Energy>
36.2622

> <b_lp_Chiralities_Consistent>
1

> <s_lp_Variant>
AV-unprocessed.smi:2221-1

> <Gold.Version>
5.8.1

> <Gold.Id.Protein>
6NUR|6NUR_protein|mol2

> <Gold.PLP.Fitness>
55.1246

> <Gold.PLP.PLP>
-44.9437

> <Gold.PLP.part.hbond>
-3.0000

> <Gold.PLP.part.metal>
0.0000

> <Gold.PLP.part.buried>
-3.2734

> <Gold.PLP.part.nonpolar>
-39.9401

> <Gold.PLP.part.repulsive>
0.2053

> <Gold.PLP.ligand.clash>
0.0000

> <Gold.PLP.ligand.torsion>
0.4768

> <Gold.PLP.Chemscore.Hbond>
3.6864

> <Gold.PLP.Chemscore.CHOScore>
0.0000

> <Gold.PLP.Chemscore.Metal>
0.0000

> <Gold.Chemscore.Hbonds>
donor molecule, donor type, donor heavy atom, donor atom, acceptor molecule, acceptor atom, score
      L1  H     8    31       P1  8028  1.00
      L1  H    11    32       P1  8028  0.68
      L1  H    14    54       P1 10175  2.00

> <Gold.PLP.Chemscore.Internal.Correction>
0.0752

> <Gold.Rescore>
     Score         DG    S(hbond)    S(metal)    S(lipo)     H(rot)  DE(clash)    DE(int)     intcor
     20.88     -22.84       2.67        0.00     109.03       1.68       0.16       1.80       ----

> <Gold.Chemscore.Fitness>
20.8827

> <Gold.Chemscore.DG>
-22.8407

> <Gold.Chemscore.ZeroCoef>
-5.4800

> <Gold.Chemscore.Hbond>
2.6661

> <Gold.Chemscore.Metal>
0.0000

> <Gold.Chemscore.Lipo>
109.0318

> <Gold.Chemscore.Internal_Hbond>
0.0000

> <Gold.Chemscore.DEClash>
0.1628

> <Gold.Chemscore.DEInternal>
1.7952

> <Gold.Chemscore.Rot>
1.6800

> <Gold.Chemscore.Internal.Correction>
   9.000000E+99

> <Gold.Chemscore.Hbonds>
donor molecule, donor type, donor heavy atom, donor atom, acceptor molecule, acceptor atom, score
      L1  H     8    31       P1  8028  0.99
      L1  H    11    32       P1  8028  0.66
      L1  H    14    54       P1 10175  0.78

> <Gold.Chemscore.Hbond.Weighted>
-8.9049

> <Gold.Chemscore.Metal.Weighted>
-0.0000

> <Gold.Chemscore.Lipo.Weighted>
-12.7567

> <Gold.Chemscore.Internal_Hbond.Weighted>
0.0000

> <Gold.Chemscore.DEClash.Weighted>
0.1628

> <Gold.Chemscore.DEInternal.Weighted>
1.7952

> <Gold.Chemscore.Rot.Weighted>
4.3009

> <Gold.Chemscore.Internal.Correction.Weighted>
   9.000000E+99

> <Gold.Protein.RotatedTorsions>
[ 6907 6896 6895 6894 ] final -158.55 input  -60.11 | X-H torsion
[ 7974 7965 7964 7962 ] final   22.10 input  175.53 | X-H torsion
[ 8008 7997 7996 7995 ] final   77.86 input   59.86 | X-H torsion
[ 10167 10162 10161 10158 ] final  105.23 input  -65.29 | X-H torsion
[ 10718 10713 10712 10709 ] final  -83.88 input   66.30 | X-H torsion
[ 10763 10752 10751 10750 ] final  113.34 input  -60.55 | X-H torsion
[ 11005 11000 10999 10996 ] final  -42.45 input  -57.11 | X-H torsion

> <Gold.Protein.ActiveResidues>
 VAL166  LYS551  ARG553  GLY616  TRP617  ASP618  TYR619  PRO620  LYS621  CYS622 
 ASP623  PHE694  ASN695  SER759  ASP760  ASP761  ALA762  ILE779  LEU786  VAL792 
 PHE793  MET794  SER795  GLU796  ALA797  LYS798  CYS799  TRP800  GLU811  SER814 

> <Gold.Protein.RotatedAtoms>
  151.3199  133.4044  159.2653 H   0  0  0  0  0  0  0  0  0  0  0  0  # atno 6907 bound_to 6896
  151.0043  134.9347  159.7982 H   0  0  0  0  0  0  0  0  0  0  0  0  # atno 6908 bound_to 6896
  152.5283  134.3164  159.9185 H   0  0  0  0  0  0  0  0  0  0  0  0  # atno 6909 bound_to 6896
  146.2043  139.7933  142.8737 H   0  0  0  0  0  0  0  0  0  0  0  0  # atno 7974 bound_to 7965
  155.8476  140.3459  155.5672 H   0  0  0  0  0  0  0  0  0  0  0  0  # atno 8008 bound_to 7997
  155.8073  140.0894  157.1943 H   0  0  0  0  0  0  0  0  0  0  0  0  # atno 8009 bound_to 7997
  154.4006  140.1454  156.3332 H   0  0  0  0  0  0  0  0  0  0  0  0  # atno 8010 bound_to 7997
  139.7110  144.7077  151.1027 H   0  0  0  0  0  0  0  0  0  0  0  0  # atno 10167 bound_to 10162
  156.0013  130.4680  150.4324 H   0  0  0  0  0  0  0  0  0  0  0  0  # atno 10718 bound_to 10713
  153.4910  135.3658  155.2492 H   0  0  0  0  0  0  0  0  0  0  0  0  # atno 10763 bound_to 10752
  154.8752  135.3977  154.3589 H   0  0  0  0  0  0  0  0  0  0  0  0  # atno 10764 bound_to 10752
  153.4208  135.7080  153.6361 H   0  0  0  0  0  0  0  0  0  0  0  0  # atno 10765 bound_to 10752
  141.0316  133.6817  156.2596 H   0  0  0  0  0  0  0  0  0  0  0  0  # atno 11005 bound_to 11000
  145.3374  141.0280  143.3412 LP  0  0  0  0  0  0  0  0  0  0  0  0  # atno 17320 bound_to 7965
  144.8756  139.4976  143.6747 LP  0  0  0  0  0  0  0  0  0  0  0  0  # atno 17321 bound_to 7965
  140.7733  143.5293  150.9442 LP  0  0  0  0  0  0  0  0  0  0  0  0  # atno 17342 bound_to 10162
  139.8978  143.6873  152.3136 LP  0  0  0  0  0  0  0  0  0  0  0  0  # atno 17343 bound_to 10162
  157.2372  131.0517  151.2458 LP  0  0  0  0  0  0  0  0  0  0  0  0  # atno 17370 bound_to 10713
  157.3655  130.7153  149.6530 LP  0  0  0  0  0  0  0  0  0  0  0  0  # atno 17371 bound_to 10713
  140.6396  134.5180  157.5568 LP  0  0  0  0  0  0  0  0  0  0  0  0  # atno 17394 bound_to 11000
  139.9212  134.8145  156.1206 LP  0  0  0  0  0  0  0  0  0  0  0  0  # atno 17395 bound_to 11000

$$$$
