AV-unprocessed.smi:397|AV-procd|sdf|2488|dock2
  -GOLD-   2262022433D 1   1.00000     0.00000
 Structure written by MMmdl.
 37 38  0  0  0  0  0  0  0  0  1 V2000
  144.6956  134.9518  161.7786 C   0  0  0  0  0  0  0  0  0  0  0  0
  145.9664  134.3364  161.6659 O   0  0  0  0  0  0  0  0  0  0  0  0
  146.9766  135.0381  162.3720 C   0  0  0  0  0  0  0  0  0  0  0  0
  147.1995  136.4157  161.7308 C   0  0  0  0  0  0  0  0  0  0  0  0
  148.1365  136.3416  160.6153 N   0  0  0  0  0  0  0  0  0  0  0  0
  148.1476  137.1650  159.5565 C   0  0  0  0  0  0  0  0  0  0  0  0
  147.3302  138.0732  159.3989 O   0  0  0  0  0  0  0  0  0  0  0  0
  149.2547  136.9084  158.5228 C   0  0  0  0  0  0  0  0  0  0  0  0
  150.1690  138.0581  158.3405 N   0  0  0  0  0  0  0  0  0  0  0  0
  151.4908  137.9513  158.8407 C   0  0  0  0  0  0  0  0  0  0  0  0
  151.8756  136.9261  159.4065 O   0  0  0  0  0  0  0  0  0  0  0  0
  152.3337  139.1257  158.6419 C   0  0  0  0  0  0  0  0  0  0  0  0
  153.6728  139.0541  159.1258 C   0  0  0  0  0  0  0  0  0  0  0  0
  154.7656  138.9815  159.4999 N   0  0  0  0  0  0  0  0  0  0  0  0
  151.8592  140.2269  158.0246 C   0  0  0  0  0  0  0  0  0  0  0  0
  150.5637  140.3216  157.5499 N   0  0  0  0  0  0  0  0  0  0  0  0
  150.0468  141.5052  156.8921 C   0  0  0  0  0  0  0  0  0  0  0  0
  150.4216  141.7932  155.4536 C   0  0  0  0  0  0  0  0  0  0  0  0
  150.9744  142.6567  156.5651 C   0  0  0  0  0  0  0  0  0  0  0  0
  149.6801  139.2265  157.7055 C   0  0  0  0  0  0  0  0  0  0  0  0
  148.5140  139.2772  157.3063 O   0  0  0  0  0  0  0  0  0  0  0  0
  143.9590  134.3736  161.2208 H   0  0  0  0  0  0  0  0  0  0  0  0
  144.7100  135.9628  161.3694 H   0  0  0  0  0  0  0  0  0  0  0  0
  144.3701  134.9993  162.8184 H   0  0  0  0  0  0  0  0  0  0  0  0
  146.7039  135.1495  163.4227 H   0  0  0  0  0  0  0  0  0  0  0  0
  147.9049  134.4661  162.3361 H   0  0  0  0  0  0  0  0  0  0  0  0
  146.2531  136.7857  161.3363 H   0  0  0  0  0  0  0  0  0  0  0  0
  147.5262  137.1421  162.4771 H   0  0  0  0  0  0  0  0  0  0  0  0
  148.8414  135.6202  160.6605 H   0  0  0  0  0  0  0  0  0  0  0  0
  149.8126  136.0186  158.8196 H   0  0  0  0  0  0  0  0  0  0  0  0
  148.7837  136.6191  157.5822 H   0  0  0  0  0  0  0  0  0  0  0  0
  152.5311  141.0632  157.9049 H   0  0  0  0  0  0  0  0  0  0  0  0
  149.0382  141.8236  157.1494 H   0  0  0  0  0  0  0  0  0  0  0  0
  151.1078  141.1180  154.9470 H   0  0  0  0  0  0  0  0  0  0  0  0
  149.6539  142.2291  154.8174 H   0  0  0  0  0  0  0  0  0  0  0  0
  150.5712  143.6626  156.6633 H   0  0  0  0  0  0  0  0  0  0  0  0
  152.0319  142.5626  156.8011 H   0  0  0  0  0  0  0  0  0  0  0  0
  1  2  1  0  0  0  0
  1 22  1  0  0  0  0
  1 23  1  0  0  0  0
  1 24  1  0  0  0  0
  2  3  1  0  0  0  0
  3  4  1  0  0  0  0
  3 25  1  0  0  0  0
  3 26  1  0  0  0  0
  4  5  1  0  0  0  0
  4 27  1  0  0  0  0
  4 28  1  0  0  0  0
  5  6  1  0  0  0  0
  5 29  1  0  0  0  0
  6  7  2  0  0  0  0
  6  8  1  0  0  0  0
  8  9  1  0  0  0  0
  8 30  1  0  0  0  0
  8 31  1  0  0  0  0
  9 20  1  0  0  0  0
  9 10  1  0  0  0  0
 10 11  2  0  0  0  0
 10 12  1  0  0  0  0
 12 13  1  0  0  0  0
 12 15  2  0  0  0  0
 13 14  3  0  0  0  0
 15 16  1  0  0  0  0
 15 32  1  0  0  0  0
 16 17  1  0  0  0  0
 16 20  1  0  0  0  0
 17 19  1  0  0  0  0
 17 18  1  0  0  0  0
 17 33  1  0  0  0  0
 18 19  1  0  0  0  0
 18 34  1  0  0  0  0
 18 35  1  0  0  0  0
 19 36  1  0  0  0  0
 19 37  1  0  0  0  0
 20 21  2  0  0  0  0
M  END
> <s_m_source_file>
AV-unprocessed.smi

> <i_m_source_file_index>
397

> <i_lp_mmshare_version>
43012

> <i_f3d_flags>
0

> <s_epik_input>
W0NIM11PW0NIMl1bQ0gyXVtOSF1DKD1PKVtDSDJdbjFjKD1PKWMoQyNOKVtjSF1uKGMxPU8pW0NIXTJbQ0gyXVtDSDJdMg==

> <s_epik_cmdline>
J2VwaWtfcHl0aG9uJywgJy1waCcsICc3LjAnLCAnLXRuJywgJzgnLCAnLW1hJywgJzIwMCcsICctbWV0YWxfYmluZGluZycsICctaW1hZScsICc8aW5maWxlLm1hZT4nLCAnLW9tYWUnLCAnPG91dGZpbGUubWFlPic=

> <r_lp_tautomer_probability>
1

> <r_epik_Ionization_Penalty>
2.64697e-08

> <r_epik_Ionization_Penalty_Charging>
8.39351e-11

> <r_epik_Ionization_Penalty_Neutral>
2.63858e-08

> <r_epik_State_Penalty>
-0

> <r_epik_Charging_Adjusted_Penalty>
8.39351e-11

> <i_epik_Tot_Q>
0

> <i_epik_Tot_abs_Q>
0

> <r_epik_Metal_State_Penalty>
-0

> <b_epik_Metal_Only>
0

> <s_lp_Force_Field>
OPLS_2005

> <r_lp_Energy>
30.955

> <b_lp_Chiralities_Consistent>
1

> <s_lp_Variant>
AV-unprocessed.smi:397-1

> <Gold.Version>
5.8.1

> <Gold.Id.Protein>
6NUR|6NUR_protein|mol2

> <Gold.PLP.Fitness>
39.9952

> <Gold.PLP.PLP>
-32.5687

> <Gold.PLP.part.hbond>
-3.1674

> <Gold.PLP.part.metal>
0.0000

> <Gold.PLP.part.buried>
-4.7048

> <Gold.PLP.part.nonpolar>
-24.7221

> <Gold.PLP.part.repulsive>
0.2032

> <Gold.PLP.ligand.clash>
0.0000

> <Gold.PLP.ligand.torsion>
0.6994

> <Gold.PLP.Chemscore.Hbond>
2.8800

> <Gold.PLP.Chemscore.CHOScore>
0.0000

> <Gold.PLP.Chemscore.Metal>
0.0000

> <Gold.Chemscore.Hbonds>
donor molecule, donor type, donor heavy atom, donor atom, acceptor molecule, acceptor atom, score
      P1  H  6896  6907       L1    11  1.00
      P1  H  6934  6947       L1     7  0.54

> <Gold.PLP.Chemscore.Internal.Correction>
0.1853

> <Gold.Rescore>
     Score         DG    S(hbond)    S(metal)    S(lipo)     H(rot)  DE(clash)    DE(int)     intcor
     13.18     -15.54       2.81        0.00      59.75       2.46       0.03       2.33       ----

> <Gold.Chemscore.Fitness>
13.1801

> <Gold.Chemscore.DG>
-15.5406

> <Gold.Chemscore.ZeroCoef>
-5.4800

> <Gold.Chemscore.Hbond>
2.8066

> <Gold.Chemscore.Metal>
0.0000

> <Gold.Chemscore.Lipo>
59.7516

> <Gold.Chemscore.Internal_Hbond>
0.0000

> <Gold.Chemscore.DEClash>
0.0264

> <Gold.Chemscore.DEInternal>
2.3341

> <Gold.Chemscore.Rot>
2.4626

> <Gold.Chemscore.Internal.Correction>
   9.000000E+99

> <Gold.Chemscore.Hbonds>
donor molecule, donor type, donor heavy atom, donor atom, acceptor molecule, acceptor atom, score
      P1  H  6896  6907       L1    11  0.99
      P1  H  6934  6947       L1     7  0.42

> <Gold.Chemscore.Hbond.Weighted>
-9.3740

> <Gold.Chemscore.Metal.Weighted>
-0.0000

> <Gold.Chemscore.Lipo.Weighted>
-6.9909

> <Gold.Chemscore.Internal_Hbond.Weighted>
0.0000

> <Gold.Chemscore.DEClash.Weighted>
0.0264

> <Gold.Chemscore.DEInternal.Weighted>
2.3341

> <Gold.Chemscore.Rot.Weighted>
6.3043

> <Gold.Chemscore.Internal.Correction.Weighted>
   9.000000E+99

> <Gold.Protein.RotatedTorsions>
[ 6907 6896 6895 6894 ] final    0.06 input  -60.11 | X-H torsion
[ 7974 7965 7964 7962 ] final  -89.76 input  175.53 | X-H torsion
[ 8008 7997 7996 7995 ] final -120.58 input   59.86 | X-H torsion
[ 10167 10162 10161 10158 ] final  114.99 input  -65.29 | X-H torsion
[ 10718 10713 10712 10709 ] final   32.45 input   66.30 | X-H torsion
[ 10763 10752 10751 10750 ] final  -69.46 input  -60.55 | X-H torsion
[ 11005 11000 10999 10996 ] final   54.88 input  -57.11 | X-H torsion

> <Gold.Protein.ActiveResidues>
 VAL166  LYS551  ARG553  GLY616  TRP617  ASP618  TYR619  PRO620  LYS621  CYS622 
 ASP623  PHE694  ASN695  SER759  ASP760  ASP761  ALA762  ILE779  LEU786  VAL792 
 PHE793  MET794  SER795  GLU796  ALA797  LYS798  CYS799  TRP800  GLU811  SER814 

> <Gold.Protein.RotatedAtoms>
  151.5703  135.1062  159.9993 H   0  0  0  0  0  0  0  0  0  0  0  0  # atno 6907 bound_to 6896
  152.4404  133.7434  159.6664 H   0  0  0  0  0  0  0  0  0  0  0  0  # atno 6908 bound_to 6896
  150.8309  133.8024  159.3122 H   0  0  0  0  0  0  0  0  0  0  0  0  # atno 6909 bound_to 6896
  145.4355  140.9557  143.2104 H   0  0  0  0  0  0  0  0  0  0  0  0  # atno 7974 bound_to 7965
  155.1341  140.0400  157.2782 H   0  0  0  0  0  0  0  0  0  0  0  0  # atno 8008 bound_to 7997
  154.6521  140.2571  155.7176 H   0  0  0  0  0  0  0  0  0  0  0  0  # atno 8009 bound_to 7997
  156.2582  140.2834  156.0959 H   0  0  0  0  0  0  0  0  0  0  0  0  # atno 8010 bound_to 7997
  139.6349  144.7119  151.2355 H   0  0  0  0  0  0  0  0  0  0  0  0  # atno 10167 bound_to 10162
  157.2853  130.7275  149.6580 H   0  0  0  0  0  0  0  0  0  0  0  0  # atno 10718 bound_to 10713
  154.4037  135.6025  153.5912 H   0  0  0  0  0  0  0  0  0  0  0  0  # atno 10763 bound_to 10752
  152.9788  135.5912  154.4154 H   0  0  0  0  0  0  0  0  0  0  0  0  # atno 10764 bound_to 10752
  154.3956  135.2842  155.2106 H   0  0  0  0  0  0  0  0  0  0  0  0  # atno 10765 bound_to 10752
  140.0651  134.5548  155.9108 H   0  0  0  0  0  0  0  0  0  0  0  0  # atno 11005 bound_to 11000
  144.8155  139.5885  143.7010 LP  0  0  0  0  0  0  0  0  0  0  0  0  # atno 17320 bound_to 7965
  146.2584  139.6355  142.9379 LP  0  0  0  0  0  0  0  0  0  0  0  0  # atno 17321 bound_to 7965
  140.7460  143.6414  150.8332 LP  0  0  0  0  0  0  0  0  0  0  0  0  # atno 17342 bound_to 10162
  140.0044  143.5710  152.2863 LP  0  0  0  0  0  0  0  0  0  0  0  0  # atno 17343 bound_to 10162
  155.9665  130.4325  150.4967 LP  0  0  0  0  0  0  0  0  0  0  0  0  # atno 17370 bound_to 10713
  157.2919  131.0628  151.2128 LP  0  0  0  0  0  0  0  0  0  0  0  0  # atno 17371 bound_to 10713
  141.1989  133.6604  156.5818 LP  0  0  0  0  0  0  0  0  0  0  0  0  # atno 17394 bound_to 11000
  140.3711  134.7605  157.4599 LP  0  0  0  0  0  0  0  0  0  0  0  0  # atno 17395 bound_to 11000

$$$$
