AV-unprocessed.smi:1762|AV-procd|sdf|7126|dock7
  -GOLD-   22720 8363D 1   1.00000     0.00000
 Structure written by MMmdl.
 52 53  0  0  0  0  0  0  0  0  3 V2000
  149.1609  137.0563  159.5110 C   0  0  0  0  0  0  0  0  0  0  0  0
  148.3368  136.9759  158.2134 C   0  0  1  0  0  0  0  0  0  0  0  0
  148.2018  138.3263  157.4871 C   0  0  0  0  0  0  0  0  0  0  0  0
  149.4796  138.7352  156.8343 N   0  3  2  0  0  0  0  0  0  0  0  0
  149.4099  140.0969  156.2029 C   0  0  1  0  0  0  0  0  0  0  0  0
  150.7988  140.5215  155.6654 C   0  0  0  0  0  0  0  0  0  0  0  0
  151.3695  139.7807  154.8568 O   0  0  0  0  0  0  0  0  0  0  0  0
  151.2131  141.6905  156.2281 N   0  5  0  0  0  0  0  0  0  0  0  0
  150.5401  142.3390  157.3522 C   0  0  0  0  0  0  0  0  0  0  0  0
  151.4295  143.4635  157.9320 C   0  0  0  0  0  0  0  0  0  0  0  0
  151.9617  143.1847  159.3339 C   0  0  0  0  0  0  0  0  0  0  0  0
  152.8704  142.1255  159.5596 C   0  0  0  0  0  0  0  0  0  0  0  0
  153.3492  141.9134  160.8669 C   0  0  0  0  0  0  0  0  0  0  0  0
  152.9087  142.7659  161.8973 C   0  0  0  0  0  0  0  0  0  0  0  0
  152.0066  143.7984  161.5729 C   0  0  0  0  0  0  0  0  0  0  0  0
  151.5427  144.0118  160.3228 N   0  0  0  0  0  0  0  0  0  0  0  0
  148.3065  140.2510  155.1009 C   0  0  0  0  0  0  0  0  0  0  0  0
  148.4624  139.2956  153.8986 C   0  0  0  0  0  0  0  0  0  0  0  0
  148.1493  141.7022  154.6059 C   0  0  0  0  0  0  0  0  0  0  0  0
  149.9278  137.6415  155.9294 C   0  0  0  0  0  0  0  0  0  0  0  0
  150.0634  136.3120  156.6939 C   0  0  2  0  0  0  0  0  0  0  0  0
  150.4427  135.1525  155.7659 C   0  0  0  0  0  0  0  0  0  0  0  0
  148.8264  135.9837  157.3154 O   0  0  0  0  0  0  0  0  0  0  0  0
  148.6812  137.7199  160.2311 H   0  0  0  0  0  0  0  0  0  0  0  0
  150.1668  137.4395  159.3416 H   0  0  0  0  0  0  0  0  0  0  0  0
  149.2492  136.0747  159.9770 H   0  0  0  0  0  0  0  0  0  0  0  0
  147.3351  136.6525  158.4983 H   0  0  0  0  0  0  0  0  0  0  0  0
  147.4241  138.2545  156.7248 H   0  0  0  0  0  0  0  0  0  0  0  0
  147.8560  139.0665  158.2082 H   0  0  0  0  0  0  0  0  0  0  0  0
  149.1195  140.7721  157.0120 H   0  0  0  0  0  0  0  0  0  0  0  0
  149.5709  142.7511  157.0680 H   0  0  0  0  0  0  0  0  0  0  0  0
  150.3288  141.6176  158.1418 H   0  0  0  0  0  0  0  0  0  0  0  0
  152.2788  143.6380  157.2697 H   0  0  0  0  0  0  0  0  0  0  0  0
  150.8724  144.4015  157.9564 H   0  0  0  0  0  0  0  0  0  0  0  0
  153.1906  141.4874  158.7488 H   0  0  0  0  0  0  0  0  0  0  0  0
  154.0428  141.1122  161.0750 H   0  0  0  0  0  0  0  0  0  0  0  0
  153.2545  142.6329  162.9118 H   0  0  0  0  0  0  0  0  0  0  0  0
  151.6502  144.4727  162.3375 H   0  0  0  0  0  0  0  0  0  0  0  0
  147.3464  140.0294  155.5652 H   0  0  0  0  0  0  0  0  0  0  0  0
  149.3282  139.5511  153.2882 H   0  0  0  0  0  0  0  0  0  0  0  0
  147.5880  139.3475  153.2497 H   0  0  0  0  0  0  0  0  0  0  0  0
  148.5729  138.2574  154.2094 H   0  0  0  0  0  0  0  0  0  0  0  0
  149.0142  142.0340  154.0305 H   0  0  0  0  0  0  0  0  0  0  0  0
  148.0215  142.3907  155.4416 H   0  0  0  0  0  0  0  0  0  0  0  0
  147.2746  141.8022  153.9629 H   0  0  0  0  0  0  0  0  0  0  0  0
  149.2210  137.5401  155.1042 H   0  0  0  0  0  0  0  0  0  0  0  0
  150.9012  137.8584  155.4947 H   0  0  0  0  0  0  0  0  0  0  0  0
  150.8431  136.4039  157.4502 H   0  0  0  0  0  0  0  0  0  0  0  0
  151.3981  135.3386  155.2746 H   0  0  0  0  0  0  0  0  0  0  0  0
  149.6904  135.0038  154.9906 H   0  0  0  0  0  0  0  0  0  0  0  0
  150.5334  134.2207  156.3246 H   0  0  0  0  0  0  0  0  0  0  0  0
  150.1709  138.8076  157.5670 H   0  0  0  0  0  0  0  0  0  0  0  0
  1  2  1  0  0  0  0
  1 24  1  0  0  0  0
  1 25  1  0  0  0  0
  1 26  1  0  0  0  0
  2 23  1  0  0  0  0
  2  3  1  0  0  0  0
  2 27  1  0  0  0  0
  3  4  1  0  0  0  0
  3 28  1  0  0  0  0
  3 29  1  0  0  0  0
  4  5  1  0  0  0  0
  4 20  1  0  0  0  0
  4 52  1  0  0  0  0
  5  6  1  0  0  0  0
  5 17  1  0  0  0  0
  5 30  1  0  0  0  0
  6  7  2  0  0  0  0
  6  8  1  0  0  0  0
  8  9  1  0  0  0  0
  9 10  1  0  0  0  0
  9 31  1  0  0  0  0
  9 32  1  0  0  0  0
 10 11  1  0  0  0  0
 10 33  1  0  0  0  0
 10 34  1  0  0  0  0
 11 16  1  0  0  0  0
 11 12  2  0  0  0  0
 12 13  1  0  0  0  0
 12 35  1  0  0  0  0
 13 14  2  0  0  0  0
 13 36  1  0  0  0  0
 14 15  1  0  0  0  0
 14 37  1  0  0  0  0
 15 16  2  0  0  0  0
 15 38  1  0  0  0  0
 17 18  1  0  0  0  0
 17 19  1  0  0  0  0
 17 39  1  0  0  0  0
 18 40  1  0  0  0  0
 18 41  1  0  0  0  0
 18 42  1  0  0  0  0
 19 43  1  0  0  0  0
 19 44  1  0  0  0  0
 19 45  1  0  0  0  0
 20 21  1  0  0  0  0
 20 46  1  0  0  0  0
 20 47  1  0  0  0  0
 21 22  1  0  0  0  0
 21 23  1  0  0  0  0
 21 48  1  0  0  0  0
 22 49  1  0  0  0  0
 22 50  1  0  0  0  0
 22 51  1  0  0  0  0
M  CHG  1   4   1
M  CHG  1   8  -1
M  END
> <s_m_source_file>
AV-unprocessed.smi

> <i_m_source_file_index>
1762

> <i_lp_mmshare_version>
43012

> <i_f3d_flags>
0

> <s_epik_input>
W0NIM11bQ0BASF0xW0NIMl1OKFtDSDJdW0NASF0oTzEpW0NIM10pW0NAQEhdKFtDSF0oW0NIM10pW0NIM10pQyg9TylbTkhdW0NIMl1bQ0gyXWMyW2NIXVtjSF1bY0hdW2NIXW4y

> <s_epik_cmdline>
J2VwaWtfcHl0aG9uJywgJy1waCcsICc3LjAnLCAnLXRuJywgJzgnLCAnLW1hJywgJzIwMCcsICctbWV0YWxfYmluZGluZycsICctaW1hZScsICc8aW5maWxlLm1hZT4nLCAnLW9tYWUnLCAnPG91dGZpbGUubWFlPic=

> <r_epik_Ionization_Penalty>
7.82966

> <r_epik_Ionization_Penalty_Charging>
7.7461

> <r_epik_Ionization_Penalty_Neutral>
0.0835571

> <r_epik_State_Penalty>
8.52273

> <r_epik_Charging_Adjusted_Penalty>
16.2688

> <i_epik_Tot_Q>
0

> <i_epik_Tot_abs_Q>
2

> <r_epik_Metal_State_Penalty>
4.47451

> <b_epik_Metal_Only>
1

> <s_lp_Force_Field>
OPLS_2005

> <r_lp_Energy>
24.57

> <b_lp_Chiralities_Consistent>
1

> <s_lp_Variant>
AV-unprocessed.smi:1762-28

> <Gold.Version>
5.8.1

> <Gold.Id.Protein>
6NUR|6NUR_protein|mol2

> <Gold.PLP.Fitness>
42.6453

> <Gold.PLP.PLP>
-40.7087

> <Gold.PLP.part.hbond>
-1.0000

> <Gold.PLP.part.metal>
0.0000

> <Gold.PLP.part.buried>
-2.2365

> <Gold.PLP.part.nonpolar>
-36.2716

> <Gold.PLP.part.repulsive>
0.2014

> <Gold.PLP.ligand.clash>
0.0000

> <Gold.PLP.ligand.torsion>
0.6494

> <Gold.PLP.Chemscore.Hbond>
1.0000

> <Gold.PLP.Chemscore.CHOScore>
0.0000

> <Gold.PLP.Chemscore.Metal>
0.0000

> <Gold.Chemscore.Hbonds>
donor molecule, donor type, donor heavy atom, donor atom, acceptor molecule, acceptor atom, score
      P1  H  7989  7998       L1     7  1.00

> <Gold.PLP.Chemscore.Internal.Correction>
0.2354

> <Gold.Rescore>
     Score         DG    S(hbond)    S(metal)    S(lipo)     H(rot)  DE(clash)    DE(int)     intcor
     15.22     -17.55       0.92        0.00     111.93       1.60       0.04       2.28       ----

> <Gold.Chemscore.Fitness>
15.2250

> <Gold.Chemscore.DG>
-17.5497

> <Gold.Chemscore.ZeroCoef>
-5.4800

> <Gold.Chemscore.Hbond>
0.9202

> <Gold.Chemscore.Metal>
0.0000

> <Gold.Chemscore.Lipo>
111.9265

> <Gold.Chemscore.Internal_Hbond>
0.0000

> <Gold.Chemscore.DEClash>
0.0411

> <Gold.Chemscore.DEInternal>
2.2836

> <Gold.Chemscore.Rot>
1.6012

> <Gold.Chemscore.Internal.Correction>
   9.000000E+99

> <Gold.Chemscore.Hbonds>
donor molecule, donor type, donor heavy atom, donor atom, acceptor molecule, acceptor atom, score
      P1  H  7989  7998       L1     7  0.35

> <Gold.Chemscore.Hbond.Weighted>
-3.0733

> <Gold.Chemscore.Metal.Weighted>
-0.0000

> <Gold.Chemscore.Lipo.Weighted>
-13.0954

> <Gold.Chemscore.Internal_Hbond.Weighted>
0.0000

> <Gold.Chemscore.DEClash.Weighted>
0.0411

> <Gold.Chemscore.DEInternal.Weighted>
2.2836

> <Gold.Chemscore.Rot.Weighted>
4.0990

> <Gold.Chemscore.Internal.Correction.Weighted>
   9.000000E+99

> <Gold.Protein.RotatedTorsions>
[ 6907 6896 6895 6894 ] final -163.45 input  -60.11 | X-H torsion
[ 7974 7965 7964 7962 ] final  -84.75 input  175.53 | X-H torsion
[ 8008 7997 7996 7995 ] final    4.12 input   59.86 | X-H torsion
[ 10167 10162 10161 10158 ] final -121.13 input  -65.29 | X-H torsion
[ 10718 10713 10712 10709 ] final  -97.48 input   66.30 | X-H torsion
[ 10763 10752 10751 10750 ] final  -77.32 input  -60.55 | X-H torsion
[ 11005 11000 10999 10996 ] final -157.62 input  -57.11 | X-H torsion

> <Gold.Protein.ActiveResidues>
 VAL166  LYS551  ARG553  GLY616  TRP617  ASP618  TYR619  PRO620  LYS621  CYS622 
 ASP623  PHE694  ASN695  SER759  ASP760  ASP761  ALA762  ILE779  LEU786  VAL792 
 PHE793  MET794  SER795  GLU796  ALA797  LYS798  CYS799  TRP800  GLU811  SER814 

> <Gold.Protein.RotatedAtoms>
  151.3962  133.3772  159.2726 H   0  0  0  0  0  0  0  0  0  0  0  0  # atno 6907 bound_to 6896
  150.9468  134.8873  159.7657 H   0  0  0  0  0  0  0  0  0  0  0  0  # atno 6908 bound_to 6896
  152.5095  134.3915  159.9438 H   0  0  0  0  0  0  0  0  0  0  0  0  # atno 6909 bound_to 6896
  145.5024  140.9546  143.1752 H   0  0  0  0  0  0  0  0  0  0  0  0  # atno 7974 bound_to 7965
  154.7121  140.2694  155.6620 H   0  0  0  0  0  0  0  0  0  0  0  0  # atno 8008 bound_to 7997
  156.2798  140.2751  156.1690 H   0  0  0  0  0  0  0  0  0  0  0  0  # atno 8009 bound_to 7997
  155.0621  140.0371  157.2570 H   0  0  0  0  0  0  0  0  0  0  0  0  # atno 8010 bound_to 7997
  140.0284  143.5273  152.2188 H   0  0  0  0  0  0  0  0  0  0  0  0  # atno 10167 bound_to 10162
  156.0084  130.5196  150.6380 H   0  0  0  0  0  0  0  0  0  0  0  0  # atno 10718 bound_to 10713
  154.5114  135.5768  153.6608 H   0  0  0  0  0  0  0  0  0  0  0  0  # atno 10763 bound_to 10752
  152.9898  135.6159  154.2874 H   0  0  0  0  0  0  0  0  0  0  0  0  # atno 10764 bound_to 10752
  154.2789  135.2851  155.2685 H   0  0  0  0  0  0  0  0  0  0  0  0  # atno 10765 bound_to 10752
  140.6626  134.4332  157.5234 H   0  0  0  0  0  0  0  0  0  0  0  0  # atno 11005 bound_to 11000
  144.7772  139.6603  143.7169 LP  0  0  0  0  0  0  0  0  0  0  0  0  # atno 17320 bound_to 7965
  146.2217  139.5649  142.9614 LP  0  0  0  0  0  0  0  0  0  0  0  0  # atno 17321 bound_to 7965
  139.6093  144.7604  151.2990 LP  0  0  0  0  0  0  0  0  0  0  0  0  # atno 17342 bound_to 10162
  140.7313  143.6856  150.7964 LP  0  0  0  0  0  0  0  0  0  0  0  0  # atno 17343 bound_to 10162
  157.4166  131.0831  151.1171 LP  0  0  0  0  0  0  0  0  0  0  0  0  # atno 17370 bound_to 10713
  157.1786  130.6299  149.5664 LP  0  0  0  0  0  0  0  0  0  0  0  0  # atno 17371 bound_to 10713
  139.9008  134.8561  156.1906 LP  0  0  0  0  0  0  0  0  0  0  0  0  # atno 17394 bound_to 11000
  141.0453  133.6916  156.1672 LP  0  0  0  0  0  0  0  0  0  0  0  0  # atno 17395 bound_to 11000

$$$$
