AV-unprocessed.smi:646|AV-procd|sdf|3168|dock10
  -GOLD-   22720 0 93D 1   1.00000     0.00000
 Structure written by MMmdl.
 44 45  0  0  0  0  0  0  0  0  1 V2000
  143.9780  132.7815  148.9117 C   0  0  0  0  0  0  0  0  0  0  0  0
  144.3174  133.9051  149.7139 O   0  0  0  0  0  0  0  0  0  0  0  0
  144.4452  133.6672  151.1165 C   0  0  2  0  0  0  0  0  0  0  0  0
  143.0712  133.3375  151.7207 C   0  0  0  0  0  0  0  0  0  0  0  0
  145.3011  134.7398  151.8150 C   0  0  0  0  0  0  0  0  0  0  0  0
  145.9722  133.5902  152.5636 C   0  0  2  0  0  0  0  0  0  0  0  0
  147.3974  133.8128  152.7725 N   0  0  0  0  0  0  0  0  0  0  0  0
  148.1303  133.2052  153.7172 C   0  0  0  0  0  0  0  0  0  0  0  0
  147.6548  132.4490  154.5636 O   0  0  0  0  0  0  0  0  0  0  0  0
  149.6350  133.4716  153.6851 C   0  0  0  0  0  0  0  0  0  0  0  0
  150.1337  133.7060  155.0888 C   0  0  0  0  0  0  0  0  0  0  0  0
  150.5748  134.9300  155.6692 C   0  0  0  0  0  0  0  0  0  0  0  0
  150.6568  136.2879  155.0334 C   0  0  0  0  0  0  0  0  0  0  0  0
  150.9278  134.7779  156.9345 N   0  0  0  0  0  0  0  0  0  0  0  0
  150.7284  133.4254  157.2278 O   0  0  0  0  0  0  0  0  0  0  0  0
  150.2542  132.8100  156.1151 C   0  0  0  0  0  0  0  0  0  0  0  0
  149.9673  131.3512  156.2286 C   0  0  0  0  0  0  0  0  0  0  0  0
  145.6327  132.6789  151.3557 C   0  0  0  0  0  0  0  0  0  0  0  0
  145.2683  131.2298  151.6931 C   0  0  0  0  0  0  0  0  0  0  0  0
  146.6853  132.5959  150.2300 C   0  0  0  0  0  0  0  0  0  0  0  0
  143.8157  133.1130  147.8863 H   0  0  0  0  0  0  0  0  0  0  0  0
  143.0612  132.2988  149.2503 H   0  0  0  0  0  0  0  0  0  0  0  0
  144.7772  132.0414  148.8885 H   0  0  0  0  0  0  0  0  0  0  0  0
  143.1508  133.0178  152.7596 H   0  0  0  0  0  0  0  0  0  0  0  0
  142.5781  132.5365  151.1698 H   0  0  0  0  0  0  0  0  0  0  0  0
  142.4071  134.2011  151.7166 H   0  0  0  0  0  0  0  0  0  0  0  0
  145.9715  135.2751  151.1399 H   0  0  0  0  0  0  0  0  0  0  0  0
  144.7427  135.4278  152.4503 H   0  0  0  0  0  0  0  0  0  0  0  0
  145.4271  133.3220  153.4715 H   0  0  0  0  0  0  0  0  0  0  0  0
  147.8697  134.4183  152.1170 H   0  0  0  0  0  0  0  0  0  0  0  0
  150.1338  132.6231  153.2158 H   0  0  0  0  0  0  0  0  0  0  0  0
  149.8348  134.3326  153.0462 H   0  0  0  0  0  0  0  0  0  0  0  0
  151.0585  136.2222  154.0222 H   0  0  0  0  0  0  0  0  0  0  0  0
  151.3006  136.9609  155.6007 H   0  0  0  0  0  0  0  0  0  0  0  0
  149.6695  136.7457  154.9684 H   0  0  0  0  0  0  0  0  0  0  0  0
  149.1336  131.0674  155.5862 H   0  0  0  0  0  0  0  0  0  0  0  0
  149.7079  131.0823  157.2529 H   0  0  0  0  0  0  0  0  0  0  0  0
  150.8374  130.7644  155.9337 H   0  0  0  0  0  0  0  0  0  0  0  0
  146.1543  130.6357  151.9201 H   0  0  0  0  0  0  0  0  0  0  0  0
  144.7507  130.7467  150.8638 H   0  0  0  0  0  0  0  0  0  0  0  0
  144.6180  131.1644  152.5649 H   0  0  0  0  0  0  0  0  0  0  0  0
  147.5674  132.0361  150.5423 H   0  0  0  0  0  0  0  0  0  0  0  0
  147.0304  133.5793  149.9107 H   0  0  0  0  0  0  0  0  0  0  0  0
  146.2851  132.0966  149.3470 H   0  0  0  0  0  0  0  0  0  0  0  0
  1  2  1  0  0  0  0
  1 21  1  0  0  0  0
  1 22  1  0  0  0  0
  1 23  1  0  0  0  0
  2  3  1  0  0  0  0
  3 18  1  0  0  0  0
  3  4  1  0  0  0  0
  3  5  1  0  0  0  0
  4 24  1  0  0  0  0
  4 25  1  0  0  0  0
  4 26  1  0  0  0  0
  5  6  1  0  0  0  0
  5 27  1  0  0  0  0
  5 28  1  0  0  0  0
  6  7  1  0  0  0  0
  6 18  1  0  0  0  0
  6 29  1  0  0  0  0
  7  8  1  0  0  0  0
  7 30  1  0  0  0  0
  8  9  2  0  0  0  0
  8 10  1  0  0  0  0
 10 11  1  0  0  0  0
 10 31  1  0  0  0  0
 10 32  1  0  0  0  0
 11 16  2  0  0  0  0
 11 12  1  0  0  0  0
 12 13  1  0  0  0  0
 12 14  2  0  0  0  0
 13 33  1  0  0  0  0
 13 34  1  0  0  0  0
 13 35  1  0  0  0  0
 14 15  1  0  0  0  0
 15 16  1  0  0  0  0
 16 17  1  0  0  0  0
 17 36  1  0  0  0  0
 17 37  1  0  0  0  0
 17 38  1  0  0  0  0
 18 19  1  0  0  0  0
 18 20  1  0  0  0  0
 19 39  1  0  0  0  0
 19 40  1  0  0  0  0
 19 41  1  0  0  0  0
 20 42  1  0  0  0  0
 20 43  1  0  0  0  0
 20 44  1  0  0  0  0
M  END
> <s_m_source_file>
AV-unprocessed.smi

> <i_m_source_file_index>
646

> <i_lp_mmshare_version>
43012

> <i_f3d_flags>
0

> <s_epik_input>
W0NIM11PW0NAQF0xKFtDSDNdKVtDSDJdW0NASF0oQzEoW0NIM10pW0NIM10pW05IXUMoPU8pW0NIMl1jMmMoW0NIM10pbm9jMltDSDNd

> <s_epik_cmdline>
J2VwaWtfcHl0aG9uJywgJy1waCcsICc3LjAnLCAnLXRuJywgJzgnLCAnLW1hJywgJzIwMCcsICctbWV0YWxfYmluZGluZycsICctaW1hZScsICc8aW5maWxlLm1hZT4nLCAnLW9tYWUnLCAnPG91dGZpbGUubWFlPic=

> <r_lp_tautomer_probability>
1

> <r_epik_Ionization_Penalty>
2.13169e-08

> <r_epik_Ionization_Penalty_Charging>
0

> <r_epik_Ionization_Penalty_Neutral>
2.13169e-08

> <r_epik_State_Penalty>
-0

> <r_epik_Charging_Adjusted_Penalty>
0

> <i_epik_Tot_Q>
0

> <i_epik_Tot_abs_Q>
0

> <r_epik_Metal_State_Penalty>
-0

> <b_epik_Metal_Only>
0

> <s_lp_Force_Field>
OPLS_2005

> <r_lp_Energy>
15.4726

> <b_lp_Chiralities_Consistent>
1

> <s_lp_Variant>
AV-unprocessed.smi:646-4

> <Gold.Version>
5.8.1

> <Gold.Id.Protein>
6NUR|6NUR_protein|mol2

> <Gold.PLP.Fitness>
37.2204

> <Gold.PLP.PLP>
-32.7611

> <Gold.PLP.part.hbond>
-2.9296

> <Gold.PLP.part.metal>
0.0000

> <Gold.PLP.part.buried>
-2.1824

> <Gold.PLP.part.nonpolar>
-28.1182

> <Gold.PLP.part.repulsive>
1.7342

> <Gold.PLP.ligand.clash>
0.0000

> <Gold.PLP.ligand.torsion>
0.7092

> <Gold.PLP.Chemscore.Hbond>
1.8320

> <Gold.PLP.Chemscore.CHOScore>
0.0000

> <Gold.PLP.Chemscore.Metal>
0.0000

> <Gold.Chemscore.Hbonds>
donor molecule, donor type, donor heavy atom, donor atom, acceptor molecule, acceptor atom, score
      L1  H     7    30       P1  7948  0.84
      P1  H  6896  6908       L1    15  0.68

> <Gold.PLP.Chemscore.Internal.Correction>
0.3816

> <Gold.Rescore>
     Score         DG    S(hbond)    S(metal)    S(lipo)     H(rot)  DE(clash)    DE(int)     intcor
     14.97     -15.82       1.24        0.00      85.68       1.49       0.19       0.66       ----

> <Gold.Chemscore.Fitness>
14.9706

> <Gold.Chemscore.DG>
-15.8198

> <Gold.Chemscore.ZeroCoef>
-5.4800

> <Gold.Chemscore.Hbond>
1.2385

> <Gold.Chemscore.Metal>
0.0000

> <Gold.Chemscore.Lipo>
85.6834

> <Gold.Chemscore.Internal_Hbond>
0.0000

> <Gold.Chemscore.DEClash>
0.1880

> <Gold.Chemscore.DEInternal>
0.6611

> <Gold.Chemscore.Rot>
1.4928

> <Gold.Chemscore.Internal.Correction>
   9.000000E+99

> <Gold.Chemscore.Hbonds>
donor molecule, donor type, donor heavy atom, donor atom, acceptor molecule, acceptor atom, score
      L1  H     7    30       P1  7948  0.20
      P1  H  6896  6908       L1    15  0.09

> <Gold.Chemscore.Hbond.Weighted>
-4.1365

> <Gold.Chemscore.Metal.Weighted>
-0.0000

> <Gold.Chemscore.Lipo.Weighted>
-10.0250

> <Gold.Chemscore.Internal_Hbond.Weighted>
0.0000

> <Gold.Chemscore.DEClash.Weighted>
0.1880

> <Gold.Chemscore.DEInternal.Weighted>
0.6611

> <Gold.Chemscore.Rot.Weighted>
3.8217

> <Gold.Chemscore.Internal.Correction.Weighted>
   9.000000E+99

> <Gold.Protein.RotatedTorsions>
[ 6907 6896 6895 6894 ] final  105.83 input  -60.11 | X-H torsion
[ 7974 7965 7964 7962 ] final -103.04 input  175.53 | X-H torsion
[ 8008 7997 7996 7995 ] final -148.80 input   59.86 | X-H torsion
[ 10167 10162 10161 10158 ] final   57.51 input  -65.29 | X-H torsion
[ 10718 10713 10712 10709 ] final  147.74 input   66.30 | X-H torsion
[ 10763 10752 10751 10750 ] final  138.46 input  -60.55 | X-H torsion
[ 11005 11000 10999 10996 ] final  149.83 input  -57.11 | X-H torsion

> <Gold.Protein.ActiveResidues>
 VAL166  LYS551  ARG553  GLY616  TRP617  ASP618  TYR619  PRO620  LYS621  CYS622 
 ASP623  PHE694  ASN695  SER759  ASP760  ASP761  ALA762  ILE779  LEU786  VAL792 
 PHE793  MET794  SER795  GLU796  ALA797  LYS798  CYS799  TRP800  GLU811  SER814 

> <Gold.Protein.RotatedAtoms>
  152.5216  133.9470  159.7653 H   0  0  0  0  0  0  0  0  0  0  0  0  # atno 6907 bound_to 6896
  150.9788  133.6258  159.2733 H   0  0  0  0  0  0  0  0  0  0  0  0  # atno 6908 bound_to 6896
  151.3443  135.0876  159.9434 H   0  0  0  0  0  0  0  0  0  0  0  0  # atno 6909 bound_to 6896
  145.2610  140.9269  143.3040 H   0  0  0  0  0  0  0  0  0  0  0  0  # atno 7974 bound_to 7965
  155.5974  140.0658  157.2742 H   0  0  0  0  0  0  0  0  0  0  0  0  # atno 8008 bound_to 7997
  154.4288  140.1824  156.1184 H   0  0  0  0  0  0  0  0  0  0  0  0  # atno 8009 bound_to 7997
  156.0186  140.3319  155.7018 H   0  0  0  0  0  0  0  0  0  0  0  0  # atno 8010 bound_to 7997
  140.1972  144.4026  150.6545 H   0  0  0  0  0  0  0  0  0  0  0  0  # atno 10167 bound_to 10162
  157.3172  131.0898  151.1269 H   0  0  0  0  0  0  0  0  0  0  0  0  # atno 10718 bound_to 10713
  153.8900  135.3034  155.3447 H   0  0  0  0  0  0  0  0  0  0  0  0  # atno 10763 bound_to 10752
  154.7721  135.4880  153.9673 H   0  0  0  0  0  0  0  0  0  0  0  0  # atno 10764 bound_to 10752
  153.1303  135.6802  153.9287 H   0  0  0  0  0  0  0  0  0  0  0  0  # atno 10765 bound_to 10752
  140.1078  134.8943  157.1892 H   0  0  0  0  0  0  0  0  0  0  0  0  # atno 11005 bound_to 11000
  144.9418  139.4180  143.6445 LP  0  0  0  0  0  0  0  0  0  0  0  0  # atno 17320 bound_to 7965
  146.3275  139.8382  142.8895 LP  0  0  0  0  0  0  0  0  0  0  0  0  # atno 17321 bound_to 7965
  140.6416  143.2204  151.6278 LP  0  0  0  0  0  0  0  0  0  0  0  0  # atno 17342 bound_to 10162
  139.5232  144.3140  152.0968 LP  0  0  0  0  0  0  0  0  0  0  0  0  # atno 17343 bound_to 10162
  157.2568  130.6640  149.5956 LP  0  0  0  0  0  0  0  0  0  0  0  0  # atno 17370 bound_to 10713
  155.9682  130.4521  150.5761 LP  0  0  0  0  0  0  0  0  0  0  0  0  # atno 17371 bound_to 10713
  140.3131  134.3001  155.7262 LP  0  0  0  0  0  0  0  0  0  0  0  0  # atno 17394 bound_to 11000
  141.2123  133.7663  156.9805 LP  0  0  0  0  0  0  0  0  0  0  0  0  # atno 17395 bound_to 11000

$$$$
