AV-unprocessed.smi:441|AV-procd|sdf|2582|dock10
  -GOLD-   2262022573D 1   1.00000     0.00000
 Structure written by MMmdl.
 34 35  0  0  0  0  0  0  0  0  1 V2000
  153.1528  139.9201  157.8662 O   0  0  0  0  0  0  0  0  0  0  0  0
  152.0733  140.3417  157.4483 C   0  0  0  0  0  0  0  0  0  0  0  0
  151.2170  139.4999  156.4906 C   0  0  0  0  0  0  0  0  0  0  0  0
  149.9750  140.1697  156.0762 N   0  0  0  0  0  0  0  0  0  0  0  0
  149.9625  140.5651  154.7499 N   0  0  0  0  0  0  0  0  0  0  0  0
  148.9172  141.1467  154.2713 C   0  0  0  0  0  0  0  0  0  0  0  0
  147.7450  141.4093  155.0765 C   0  0  0  0  0  0  0  0  0  0  0  0
  146.3718  142.1934  154.3786 Cl  0  0  0  0  0  0  0  0  0  0  0  0
  147.7699  141.0233  156.3769 C   0  0  0  0  0  0  0  0  0  0  0  0
  146.4061  141.3051  157.4039 Cl  0  0  0  0  0  0  0  0  0  0  0  0
  148.9444  140.3572  156.9571 C   0  0  0  0  0  0  0  0  0  0  0  0
  149.0069  139.9935  158.1323 O   0  0  0  0  0  0  0  0  0  0  0  0
  151.5809  141.5476  157.7701 N   0  0  0  0  0  0  0  0  0  0  0  0
  152.2234  142.5129  158.6572 C   0  0  0  0  0  0  0  0  0  0  0  0
  152.5631  141.8346  159.9980 C   0  0  0  0  0  0  0  0  0  0  0  0
  153.1886  142.8289  160.9897 C   0  0  0  0  0  0  0  0  0  0  0  0
  152.2775  144.0470  161.2073 C   0  0  0  0  0  0  0  0  0  0  0  0
  151.9389  144.7309  159.8736 C   0  0  0  0  0  0  0  0  0  0  0  0
  151.3132  143.7388  158.8798 C   0  0  0  0  0  0  0  0  0  0  0  0
  151.8069  139.2323  155.6118 H   0  0  0  0  0  0  0  0  0  0  0  0
  150.9884  138.5550  156.9866 H   0  0  0  0  0  0  0  0  0  0  0  0
  148.8607  141.4726  153.2326 H   0  0  0  0  0  0  0  0  0  0  0  0
  150.6901  141.8150  157.3771 H   0  0  0  0  0  0  0  0  0  0  0  0
  153.1582  142.8457  158.2016 H   0  0  0  0  0  0  0  0  0  0  0  0
  151.6594  141.4085  160.4365 H   0  0  0  0  0  0  0  0  0  0  0  0
  153.2487  141.0025  159.8328 H   0  0  0  0  0  0  0  0  0  0  0  0
  153.3808  142.3336  161.9418 H   0  0  0  0  0  0  0  0  0  0  0  0
  154.1570  143.1598  160.6125 H   0  0  0  0  0  0  0  0  0  0  0  0
  151.3573  143.7315  161.7007 H   0  0  0  0  0  0  0  0  0  0  0  0
  152.7604  144.7579  161.8781 H   0  0  0  0  0  0  0  0  0  0  0  0
  151.2574  145.5641  160.0453 H   0  0  0  0  0  0  0  0  0  0  0  0
  152.8452  145.1570  159.4413 H   0  0  0  0  0  0  0  0  0  0  0  0
  151.1229  144.2451  157.9328 H   0  0  0  0  0  0  0  0  0  0  0  0
  150.3422  143.4148  159.2566 H   0  0  0  0  0  0  0  0  0  0  0  0
  1  2  2  0  0  0  0
  2  3  1  0  0  0  0
  2 13  1  0  0  0  0
  3  4  1  0  0  0  0
  3 20  1  0  0  0  0
  3 21  1  0  0  0  0
  4 11  1  0  0  0  0
  4  5  1  0  0  0  0
  5  6  2  0  0  0  0
  6  7  1  0  0  0  0
  6 22  1  0  0  0  0
  7  8  1  0  0  0  0
  7  9  2  0  0  0  0
  9 10  1  0  0  0  0
  9 11  1  0  0  0  0
 11 12  2  0  0  0  0
 13 14  1  0  0  0  0
 13 23  1  0  0  0  0
 14 19  1  0  0  0  0
 14 15  1  0  0  0  0
 14 24  1  0  0  0  0
 15 16  1  0  0  0  0
 15 25  1  0  0  0  0
 15 26  1  0  0  0  0
 16 17  1  0  0  0  0
 16 27  1  0  0  0  0
 16 28  1  0  0  0  0
 17 18  1  0  0  0  0
 17 29  1  0  0  0  0
 17 30  1  0  0  0  0
 18 19  1  0  0  0  0
 18 31  1  0  0  0  0
 18 32  1  0  0  0  0
 19 33  1  0  0  0  0
 19 34  1  0  0  0  0
M  END
> <s_m_source_file>
AV-unprocessed.smi

> <i_m_source_file_index>
441

> <i_lp_mmshare_version>
43012

> <i_f3d_flags>
0

> <s_epik_input>
W0NIMl0xW0NIMl1bQ0gyXVtDSDJdW0NIMl1bQ0hdMVtOSF1DKD1PKVtDSDJdbjJuW2NIXWMoQ2wpYyhDbCljMj1P

> <s_epik_cmdline>
J2VwaWtfcHl0aG9uJywgJy1waCcsICc3LjAnLCAnLXRuJywgJzgnLCAnLW1hJywgJzIwMCcsICctbWV0YWxfYmluZGluZycsICctaW1hZScsICc8aW5maWxlLm1hZT4nLCAnLW9tYWUnLCAnPG91dGZpbGUubWFlPic=

> <r_lp_tautomer_probability>
1

> <r_epik_Ionization_Penalty>
1.90776e-08

> <r_epik_Ionization_Penalty_Charging>
3.07389e-11

> <r_epik_Ionization_Penalty_Neutral>
1.90469e-08

> <r_epik_State_Penalty>
-0

> <r_epik_Charging_Adjusted_Penalty>
3.07389e-11

> <i_epik_Tot_Q>
0

> <i_epik_Tot_abs_Q>
0

> <r_epik_Metal_State_Penalty>
-0

> <b_epik_Metal_Only>
0

> <s_lp_Force_Field>
OPLS_2005

> <r_lp_Energy>
22.7857

> <b_lp_Chiralities_Consistent>
1

> <s_lp_Variant>
AV-unprocessed.smi:441-1

> <Gold.Version>
5.8.1

> <Gold.Id.Protein>
6NUR|6NUR_protein|mol2

> <Gold.PLP.Fitness>
47.1204

> <Gold.PLP.PLP>
-38.6600

> <Gold.PLP.part.hbond>
-2.1788

> <Gold.PLP.part.metal>
0.0000

> <Gold.PLP.part.buried>
-3.8736

> <Gold.PLP.part.nonpolar>
-32.1565

> <Gold.PLP.part.repulsive>
0.1645

> <Gold.PLP.ligand.clash>
0.0000

> <Gold.PLP.ligand.torsion>
0.1338

> <Gold.PLP.Chemscore.Hbond>
1.9120

> <Gold.PLP.Chemscore.CHOScore>
0.9958

> <Gold.PLP.Chemscore.Metal>
0.0000

> <Gold.Chemscore.Hbonds>
donor molecule, donor type, donor heavy atom, donor atom, acceptor molecule, acceptor atom, score
      P1  H  7989  7998       L1     5  0.72
      P1  H  7997  8009       L1     1  1.00
      L1  C     6    22       P1  7957  0.72

> <Gold.PLP.Chemscore.Internal.Correction>
0.0047

> <Gold.Rescore>
     Score         DG    S(hbond)    S(metal)    S(lipo)     H(rot)  DE(clash)    DE(int)     intcor
     17.91     -18.17       1.67        0.00      93.86       1.51       0.01       0.24       ----

> <Gold.Chemscore.Fitness>
17.9141

> <Gold.Chemscore.DG>
-18.1667

> <Gold.Chemscore.ZeroCoef>
-5.4800

> <Gold.Chemscore.Hbond>
1.6693

> <Gold.Chemscore.Metal>
0.0000

> <Gold.Chemscore.Lipo>
93.8580

> <Gold.Chemscore.Internal_Hbond>
0.0000

> <Gold.Chemscore.DEClash>
0.0106

> <Gold.Chemscore.DEInternal>
0.2419

> <Gold.Chemscore.Rot>
1.5118

> <Gold.Chemscore.Internal.Correction>
   9.000000E+99

> <Gold.Chemscore.Hbonds>
donor molecule, donor type, donor heavy atom, donor atom, acceptor molecule, acceptor atom, score
      P1  H  7989  7998       L1     5  0.51
      P1  H  7997  8009       L1     1  0.95

> <Gold.Chemscore.Hbond.Weighted>
-5.5755

> <Gold.Chemscore.Metal.Weighted>
-0.0000

> <Gold.Chemscore.Lipo.Weighted>
-10.9814

> <Gold.Chemscore.Internal_Hbond.Weighted>
0.0000

> <Gold.Chemscore.DEClash.Weighted>
0.0106

> <Gold.Chemscore.DEInternal.Weighted>
0.2419

> <Gold.Chemscore.Rot.Weighted>
3.8702

> <Gold.Chemscore.Internal.Correction.Weighted>
   9.000000E+99

> <Gold.Protein.RotatedTorsions>
[ 6907 6896 6895 6894 ] final  139.16 input  -60.11 | X-H torsion
[ 7974 7965 7964 7962 ] final    0.35 input  175.53 | X-H torsion
[ 8008 7997 7996 7995 ] final  148.96 input   59.86 | X-H torsion
[ 10167 10162 10161 10158 ] final  -14.99 input  -65.29 | X-H torsion
[ 10718 10713 10712 10709 ] final -123.09 input   66.30 | X-H torsion
[ 10763 10752 10751 10750 ] final   74.21 input  -60.55 | X-H torsion
[ 11005 11000 10999 10996 ] final  -78.59 input  -57.11 | X-H torsion

> <Gold.Protein.ActiveResidues>
 VAL166  LYS551  ARG553  GLY616  TRP617  ASP618  TYR619  PRO620  LYS621  CYS622 
 ASP623  PHE694  ASN695  SER759  ASP760  ASP761  ALA762  ILE779  LEU786  VAL792 
 PHE793  MET794  SER795  GLU796  ALA797  LYS798  CYS799  TRP800  GLU811  SER814 

> <Gold.Protein.RotatedAtoms>
  152.2581  133.5273  159.5365 H   0  0  0  0  0  0  0  0  0  0  0  0  # atno 6907 bound_to 6896
  150.7116  134.0867  159.3926 H   0  0  0  0  0  0  0  0  0  0  0  0  # atno 6908 bound_to 6896
  151.8786  135.0462  160.0537 H   0  0  0  0  0  0  0  0  0  0  0  0  # atno 6909 bound_to 6896
  146.2433  140.1151  142.8342 H   0  0  0  0  0  0  0  0  0  0  0  0  # atno 7974 bound_to 7965
  156.2772  140.2114  156.5782 H   0  0  0  0  0  0  0  0  0  0  0  0  # atno 8008 bound_to 7997
  154.7080  140.0514  157.0546 H   0  0  0  0  0  0  0  0  0  0  0  0  # atno 8009 bound_to 7997
  155.0644  140.3170  155.4653 H   0  0  0  0  0  0  0  0  0  0  0  0  # atno 8010 bound_to 7997
  140.7211  143.5264  150.9572 H   0  0  0  0  0  0  0  0  0  0  0  0  # atno 10167 bound_to 10162
  156.1473  130.6509  150.9861 H   0  0  0  0  0  0  0  0  0  0  0  0  # atno 10718 bound_to 10713
  153.0572  135.5034  154.8008 H   0  0  0  0  0  0  0  0  0  0  0  0  # atno 10763 bound_to 10752
  154.6825  135.2970  154.9595 H   0  0  0  0  0  0  0  0  0  0  0  0  # atno 10764 bound_to 10752
  154.0377  135.6721  153.4839 H   0  0  0  0  0  0  0  0  0  0  0  0  # atno 10765 bound_to 10752
  141.1665  133.7069  156.7994 H   0  0  0  0  0  0  0  0  0  0  0  0  # atno 11005 bound_to 11000
  145.0454  140.8977  143.5027 LP  0  0  0  0  0  0  0  0  0  0  0  0  # atno 17320 bound_to 7965
  145.1239  139.2675  143.5574 LP  0  0  0  0  0  0  0  0  0  0  0  0  # atno 17321 bound_to 7965
  139.8983  143.6867  152.3135 LP  0  0  0  0  0  0  0  0  0  0  0  0  # atno 17342 bound_to 10162
  139.7208  144.7603  151.0959 LP  0  0  0  0  0  0  0  0  0  0  0  0  # atno 17343 bound_to 10162
  157.6627  131.0877  150.7800 LP  0  0  0  0  0  0  0  0  0  0  0  0  # atno 17370 bound_to 10713
  156.7871  130.4878  149.5391 LP  0  0  0  0  0  0  0  0  0  0  0  0  # atno 17371 bound_to 10713
  140.2267  134.8716  157.3434 LP  0  0  0  0  0  0  0  0  0  0  0  0  # atno 17394 bound_to 11000
  140.1932  134.4345  155.7704 LP  0  0  0  0  0  0  0  0  0  0  0  0  # atno 17395 bound_to 11000

$$$$
