AV-unprocessed.smi:62|AV-procd|sdf|604|dock5
  -GOLD-   2262016493D 1   1.00000     0.00000
 Structure written by MMmdl.
 31 32  0  0  0  0  0  0  0  0  3 V2000
  152.3177  144.7657  159.3200 C   0  0  0  0  0  0  0  0  0  0  0  0
  152.0380  143.5304  158.6201 N   0  0  0  0  0  0  0  0  0  0  0  0
  151.2891  143.3352  157.4835 C   0  0  0  0  0  0  0  0  0  0  0  0
  151.3036  141.9995  157.1867 C   0  0  0  0  0  0  0  0  0  0  0  0
  150.6109  141.3696  155.9985 C   0  0  0  0  0  0  0  0  0  0  0  0
  149.2635  141.9526  155.7962 N   0  3  2  0  0  0  0  0  0  0  0  0
  148.2969  141.6752  156.8848 C   0  0  0  0  0  0  0  0  0  0  0  0
  146.9308  141.4503  156.2194 C   0  0  0  0  0  0  0  0  0  0  0  0
  147.1247  141.9155  154.7769 C   0  0  2  0  0  0  0  0  0  0  0  0
  146.2695  141.2358  153.8823 O   0  0  0  0  0  0  0  0  0  0  0  0
  148.5977  141.6113  154.5227 C   0  0  0  0  0  0  0  0  0  0  0  0
  152.1047  141.4449  158.2452 C   0  0  0  0  0  0  0  0  0  0  0  0
  152.4093  139.9751  158.3646 C   0  0  0  0  0  0  0  0  0  0  0  0
  151.5219  139.1271  158.1304 O   0  0  0  0  0  0  0  0  0  0  0  0
  153.5670  139.6454  158.7034 O   0  5  0  0  0  0  0  0  0  0  0  0
  152.5404  142.3736  159.0863 N   0  0  0  0  0  0  0  0  0  0  0  0
  152.0592  145.6182  158.6912 H   0  0  0  0  0  0  0  0  0  0  0  0
  153.3775  144.8205  159.5717 H   0  0  0  0  0  0  0  0  0  0  0  0
  151.7292  144.8085  160.2369 H   0  0  0  0  0  0  0  0  0  0  0  0
  150.8113  144.1602  156.9758 H   0  0  0  0  0  0  0  0  0  0  0  0
  151.1872  141.4184  155.0764 H   0  0  0  0  0  0  0  0  0  0  0  0
  150.4801  140.3030  156.1861 H   0  0  0  0  0  0  0  0  0  0  0  0
  148.5831  140.7950  157.4630 H   0  0  0  0  0  0  0  0  0  0  0  0
  148.2739  142.5268  157.5651 H   0  0  0  0  0  0  0  0  0  0  0  0
  146.6940  140.3850  156.2428 H   0  0  0  0  0  0  0  0  0  0  0  0
  146.1220  141.9792  156.7244 H   0  0  0  0  0  0  0  0  0  0  0  0
  146.9503  142.9901  154.7060 H   0  0  0  0  0  0  0  0  0  0  0  0
  145.4981  140.9567  154.3522 H   0  0  0  0  0  0  0  0  0  0  0  0
  149.0084  142.1698  153.6807 H   0  0  0  0  0  0  0  0  0  0  0  0
  148.7196  140.5463  154.3222 H   0  0  0  0  0  0  0  0  0  0  0  0
  149.3790  142.9556  155.7863 H   0  0  0  0  0  0  0  0  0  0  0  0
  1  2  1  0  0  0  0
  1 17  1  0  0  0  0
  1 18  1  0  0  0  0
  1 19  1  0  0  0  0
  2 16  1  0  0  0  0
  2  3  1  0  0  0  0
  3  4  2  0  0  0  0
  3 20  1  0  0  0  0
  4  5  1  0  0  0  0
  4 12  1  0  0  0  0
  5  6  1  0  0  0  0
  5 21  1  0  0  0  0
  5 22  1  0  0  0  0
  6 11  1  0  0  0  0
  6  7  1  0  0  0  0
  6 31  1  0  0  0  0
  7  8  1  0  0  0  0
  7 23  1  0  0  0  0
  7 24  1  0  0  0  0
  8  9  1  0  0  0  0
  8 25  1  0  0  0  0
  8 26  1  0  0  0  0
  9 10  1  0  0  0  0
  9 11  1  0  0  0  0
  9 27  1  0  0  0  0
 10 28  1  0  0  0  0
 11 29  1  0  0  0  0
 11 30  1  0  0  0  0
 12 13  1  0  0  0  0
 12 16  2  0  0  0  0
 13 14  2  0  0  0  0
 13 15  1  0  0  0  0
M  CHG  1   6   1
M  CHG  1  15  -1
M  END
> <s_m_source_file>
AV-unprocessed.smi

> <i_m_source_file_index>
62

> <i_lp_mmshare_version>
43012

> <i_f3d_flags>
0

> <s_epik_input>
W0NIM11uMVtjSF1jKGMobjEpQyg9TylbT0hdKVtDSDJdTjJbQ0gyXVtDSDJdW0NAQEhdKFtPSF0pW0NIMl0y

> <s_epik_cmdline>
J2VwaWtfcHl0aG9uJywgJy1waCcsICc3LjAnLCAnLXRuJywgJzgnLCAnLW1hJywgJzIwMCcsICctbWV0YWxfYmluZGluZycsICctaW1hZScsICc8aW5maWxlLm1hZT4nLCAnLW9tYWUnLCAnPG91dGZpbGUubWFlPic=

> <r_epik_Ionization_Penalty>
0.0522993

> <r_epik_Ionization_Penalty_Charging>
0.0522915

> <r_epik_Ionization_Penalty_Neutral>
7.84975e-06

> <r_epik_State_Penalty>
0.0448084

> <r_epik_Charging_Adjusted_Penalty>
0.0970998

> <i_epik_Tot_Q>
0

> <i_epik_Tot_abs_Q>
2

> <r_epik_Metal_State_Penalty>
0.0448097

> <b_epik_Metal_Only>
0

> <s_lp_Force_Field>
OPLS_2005

> <r_lp_Energy>
19.3538

> <b_lp_Chiralities_Consistent>
1

> <s_lp_Variant>
AV-unprocessed.smi:62-4

> <Gold.Version>
5.8.1

> <Gold.Id.Protein>
6NUR|6NUR_protein|mol2

> <Gold.PLP.Fitness>
45.1148

> <Gold.PLP.PLP>
-31.9601

> <Gold.PLP.part.hbond>
-3.0000

> <Gold.PLP.part.metal>
0.0000

> <Gold.PLP.part.buried>
-3.8380

> <Gold.PLP.part.nonpolar>
-24.1895

> <Gold.PLP.part.repulsive>
0.1330

> <Gold.PLP.ligand.clash>
0.0000

> <Gold.PLP.ligand.torsion>
0.9277

> <Gold.PLP.Chemscore.Hbond>
4.0000

> <Gold.PLP.Chemscore.CHOScore>
1.0000

> <Gold.PLP.Chemscore.Metal>
0.0000

> <Gold.Chemscore.Hbonds>
donor molecule, donor type, donor heavy atom, donor atom, acceptor molecule, acceptor atom, score
      L1  H     6    31       P1  8028  2.00
      P1  H  7997  8010       L1    15  1.88
      L1  C     3    20       P1  8028  1.00

> <Gold.PLP.Chemscore.Internal.Correction>
0.0102

> <Gold.Rescore>
     Score         DG    S(hbond)    S(metal)    S(lipo)     H(rot)  DE(clash)    DE(int)     intcor
     14.03     -14.99       1.97        0.00      64.67       1.81       0.04       0.92       ----

> <Gold.Chemscore.Fitness>
14.0346

> <Gold.Chemscore.DG>
-14.9928

> <Gold.Chemscore.ZeroCoef>
-5.4800

> <Gold.Chemscore.Hbond>
1.9695

> <Gold.Chemscore.Metal>
0.0000

> <Gold.Chemscore.Lipo>
64.6683

> <Gold.Chemscore.Internal_Hbond>
0.0000

> <Gold.Chemscore.DEClash>
0.0387

> <Gold.Chemscore.DEInternal>
0.9194

> <Gold.Chemscore.Rot>
1.8091

> <Gold.Chemscore.Internal.Correction>
   9.000000E+99

> <Gold.Chemscore.Hbonds>
donor molecule, donor type, donor heavy atom, donor atom, acceptor molecule, acceptor atom, score
      L1  H     6    31       P1  8028  0.99
      P1  H  7997  8010       L1    15  0.19

> <Gold.Chemscore.Hbond.Weighted>
-6.5780

> <Gold.Chemscore.Metal.Weighted>
-0.0000

> <Gold.Chemscore.Lipo.Weighted>
-7.5662

> <Gold.Chemscore.Internal_Hbond.Weighted>
0.0000

> <Gold.Chemscore.DEClash.Weighted>
0.0387

> <Gold.Chemscore.DEInternal.Weighted>
0.9194

> <Gold.Chemscore.Rot.Weighted>
4.6314

> <Gold.Chemscore.Internal.Correction.Weighted>
   9.000000E+99

> <Gold.Protein.RotatedTorsions>
[ 6907 6896 6895 6894 ] final  -26.99 input  -60.11 | X-H torsion
[ 7974 7965 7964 7962 ] final  -48.61 input  175.53 | X-H torsion
[ 8008 7997 7996 7995 ] final   40.20 input   59.86 | X-H torsion
[ 10167 10162 10161 10158 ] final  -79.74 input  -65.29 | X-H torsion
[ 10718 10713 10712 10709 ] final   -8.12 input   66.30 | X-H torsion
[ 10763 10752 10751 10750 ] final  177.58 input  -60.55 | X-H torsion
[ 11005 11000 10999 10996 ] final  128.98 input  -57.11 | X-H torsion

> <Gold.Protein.ActiveResidues>
 VAL166  LYS551  ARG553  GLY616  TRP617  ASP618  TYR619  PRO620  LYS621  CYS622 
 ASP623  PHE694  ASN695  SER759  ASP760  ASP761  ALA762  ILE779  LEU786  VAL792 
 PHE793  MET794  SER795  GLU796  ALA797  LYS798  CYS799  TRP800  GLU811  SER814 

> <Gold.Protein.RotatedAtoms>
  151.1532  135.0237  159.8677 H   0  0  0  0  0  0  0  0  0  0  0  0  # atno 6907 bound_to 6896
  152.5452  134.1365  159.8471 H   0  0  0  0  0  0  0  0  0  0  0  0  # atno 6908 bound_to 6896
  151.1452  133.4898  159.2629 H   0  0  0  0  0  0  0  0  0  0  0  0  # atno 6909 bound_to 6896
  145.9493  140.7588  142.9513 H   0  0  0  0  0  0  0  0  0  0  0  0  # atno 7974 bound_to 7965
  155.2492  140.3351  155.4284 H   0  0  0  0  0  0  0  0  0  0  0  0  # atno 8008 bound_to 7997
  156.2223  140.1814  156.7491 H   0  0  0  0  0  0  0  0  0  0  0  0  # atno 8009 bound_to 7997
  154.5844  140.0648  156.9135 H   0  0  0  0  0  0  0  0  0  0  0  0  # atno 8010 bound_to 7997
  140.4566  143.2466  151.8410 H   0  0  0  0  0  0  0  0  0  0  0  0  # atno 10167 bound_to 10162
  156.7072  130.5111  149.5901 H   0  0  0  0  0  0  0  0  0  0  0  0  # atno 10718 bound_to 10713
  154.4964  135.2781  155.1456 H   0  0  0  0  0  0  0  0  0  0  0  0  # atno 10763 bound_to 10752
  154.3107  135.6229  153.5468 H   0  0  0  0  0  0  0  0  0  0  0  0  # atno 10764 bound_to 10752
  152.9895  135.5719  154.5397 H   0  0  0  0  0  0  0  0  0  0  0  0  # atno 10765 bound_to 10752
  139.9590  134.9606  156.9081 H   0  0  0  0  0  0  0  0  0  0  0  0  # atno 11005 bound_to 11000
  144.6793  140.2408  143.7344 LP  0  0  0  0  0  0  0  0  0  0  0  0  # atno 17320 bound_to 7965
  145.8193  139.2037  143.1947 LP  0  0  0  0  0  0  0  0  0  0  0  0  # atno 17321 bound_to 7965
  139.4802  144.5057  151.9000 LP  0  0  0  0  0  0  0  0  0  0  0  0  # atno 17342 bound_to 10162
  140.4143  144.2327  150.5888 LP  0  0  0  0  0  0  0  0  0  0  0  0  # atno 17343 bound_to 10162
  156.1686  130.6422  151.0810 LP  0  0  0  0  0  0  0  0  0  0  0  0  # atno 17370 bound_to 10713
  157.6950  131.0797  150.6995 LP  0  0  0  0  0  0  0  0  0  0  0  0  # atno 17371 bound_to 10713
  140.5543  134.0597  155.7379 LP  0  0  0  0  0  0  0  0  0  0  0  0  # atno 17394 bound_to 11000
  141.1265  133.9374  157.2624 LP  0  0  0  0  0  0  0  0  0  0  0  0  # atno 17395 bound_to 11000

$$$$
