#       Name:                AV-unprocessed.smi:2118
#       Creating user name   scv26
#       Creation time:       Fri Mar 27 11:37:12 2020


#       File generated by GOLD software.
#

@<TRIPOS>MOLECULE
AV-unprocessed.smi:2118
    42    43     1
SMALL
NO_CHARGES


@<TRIPOS>ATOM
      1 ****        -0.6220   4.0848  -0.1975 C.3            1 S1                 0.0000
      2 ****        -1.8143   3.1248  -0.0814 C.3            1 S1                 0.0000
      3 ****        -1.7462   2.2872   1.2065 C.3            1 S1                 0.0000
      4 ****        -2.9290   1.3068   1.3049 C.3            1 S1                 0.0000
      5 ****        -3.0244   0.4516   0.1052 N.pl3          1 S1                 0.0000
      6 ****        -2.2731  -1.1173   0.1218 S.o2           1 S1                 0.0000
      7 ****        -2.4793  -1.7327   1.4419 O.2            1 S1                 0.0000
      8 ****        -2.6346  -1.8364  -1.1095 O.2            1 S1                 0.0000
      9 ****        -0.6194  -0.6539   0.0018 N.3            1 S1                 0.0000
     10 ****         0.4002  -1.6983  -0.0078 C.3            1 S1                 0.0000
     11 ****         1.7987  -1.0698  -0.0454 C.3            1 S1                 0.0000
     12 ****         2.8959  -2.1158  -0.0478 C.ar           1 S1                 0.0000
     13 ****         3.4622  -2.5737   1.1598 C.ar           1 S1                 0.0000
     14 ****         4.4779  -3.5477   1.1064 C.ar           1 S1                 0.0000
     15 ****         4.8844  -4.0240  -0.1561 C.ar           1 S1                 0.0000
     16 ****         4.3483  -3.5938  -1.3188 N.ar           1 S1                 0.0000
     17 ****         3.3748  -2.6596  -1.2586 C.ar           1 S1                 0.0000
     18 ****        -3.0887   1.2063  -1.1620 C.3            1 S1                 0.0000
     19 ****        -1.9090   2.1867  -1.2962 C.3            1 S1                 0.0000
     20 ****         0.3225   3.5413  -0.2407 H              1 S1                 0.0000
     21 ****        -0.5784   4.7609   0.6568 H              1 S1                 0.0000
     22 ****        -0.6962   4.6959  -1.0975 H              1 S1                 0.0000
     23 ****        -2.7238   3.7265  -0.0462 H              1 S1                 0.0000
     24 ****        -0.8045   1.7398   1.2474 H              1 S1                 0.0000
     25 ****        -1.7502   2.9452   2.0761 H              1 S1                 0.0000
     26 ****        -2.8428   0.6927   2.2011 H              1 S1                 0.0000
     27 ****        -3.8593   1.8670   1.4051 H              1 S1                 0.0000
     28 ****        -0.4726   0.0481  -0.7227 H              1 S1                 0.0000
     29 ****         0.2838  -2.3186   0.8816 H              1 S1                 0.0000
     30 ****         0.2450  -2.3397  -0.8762 H              1 S1                 0.0000
     31 ****         1.9047  -0.4436  -0.9324 H              1 S1                 0.0000
     32 ****         1.9365  -0.4119   0.8140 H              1 S1                 0.0000
     33 ****         3.1253  -2.1873   2.1106 H              1 S1                 0.0000
     34 ****         4.9343  -3.9212   2.0112 H              1 S1                 0.0000
     35 ****         5.6602  -4.7712  -0.2342 H              1 S1                 0.0000
     36 ****         2.9654  -2.3379  -2.2049 H              1 S1                 0.0000
     37 ****        -3.1155   0.5213  -2.0090 H              1 S1                 0.0000
     38 ****        -4.0277   1.7605  -1.1857 H              1 S1                 0.0000
     39 ****        -2.0304   2.7736  -2.2072 H              1 S1                 0.0000
     40 ****        -0.9769   1.6344  -1.4154 H              1 S1                 0.0000
     41 ****        -0.4559  -0.2437   0.8990 LP             1 S1                 0.0000
     42 ****         4.6623  -3.9556  -2.1965 LP             1 S1                 0.0000
@<TRIPOS>BOND
    1    1    2 1     
    2    1   20 1     
    3    1   21 1     
    4    1   22 1     
    5    2   19 1     
    6    2    3 1     
    7    2   23 1     
    8    3    4 1     
    9    3   24 1     
   10    3   25 1     
   11    4    5 1     
   12    4   26 1     
   13    4   27 1     
   14    5    6 1     
   15    5   18 1     
   16    6    7 2     
   17    6    8 2     
   18    6    9 1     
   19    9   10 1     
   20    9   28 1     
   21   10   11 1     
   22   10   29 1     
   23   10   30 1     
   24   11   12 1     
   25   11   31 1     
   26   11   32 1     
   27   12   17 ar    
   28   12   13 ar    
   29   13   14 ar    
   30   13   33 1     
   31   14   15 ar    
   32   14   34 1     
   33   15   16 ar    
   34   15   35 1     
   35   16   17 ar    
   36   17   36 1     
   37   18   19 1     
   38   18   37 1     
   39   18   38 1     
   40   19   39 1     
   41   19   40 1     
   42    9   41 1     
   43   16   42 1     
@<TRIPOS>SUBSTRUCTURE
      1 S1             1
@<TRIPOS>SET
LONE_PAIRS      STATIC     ATOMS    <user>   **** ""
4 7 8 41 42
DONOR_HYDROGENS      STATIC     ATOMS    <user>   **** ""
1 28
ATOM$BLUE        STATIC     ATOMS    COLORGROUP SYSTEM
4 7 8 41 42
ATOM$RED        STATIC     ATOMS    COLORGROUP SYSTEM
1 28
