AV-unprocessed.smi:232|AV-procd|sdf|1778|dock10
  -GOLD-   2262020323D 1   1.00000     0.00000
 Structure written by MMmdl.
 52 55  0  0  0  0  0  0  0  0  1 V2000
  148.3571  132.9886  152.8766 C   0  0  0  0  0  0  0  0  0  0  0  0
  149.2850  133.4808  153.9947 C   0  0  0  0  0  0  0  0  0  0  0  0
  148.5212  134.0216  155.2231 C   0  0  1  0  0  0  0  0  0  0  0  0
  147.6628  132.9509  155.9257 C   0  0  0  0  0  0  0  0  0  0  0  0
  148.0436  133.0231  157.4085 C   0  0  0  0  0  0  0  0  0  0  0  0
  148.7682  134.3612  157.5570 C   0  0  2  0  0  0  0  0  0  0  0  0
  147.7915  135.5033  157.9059 C   0  0  0  0  0  0  0  0  0  0  0  0
  149.4146  134.5372  156.2612 N   0  0  0  0  0  0  0  0  0  0  0  0
  150.1320  135.6775  156.0743 C   0  0  0  0  0  0  0  0  0  0  0  0
  150.5115  136.0435  154.8206 N   0  0  0  0  0  0  0  0  0  0  0  0
  151.2001  137.1711  154.6232 C   0  0  0  0  0  0  0  0  0  0  0  0
  151.6072  138.0680  155.5225 N   0  0  0  0  0  0  0  0  0  0  0  0
  151.2332  137.7061  156.7828 C   0  0  0  0  0  0  0  0  0  0  0  0
  150.5018  136.5397  157.1453 C   0  0  0  0  0  0  0  0  0  0  0  0
  150.3214  136.5071  158.5234 N   0  0  0  0  0  0  0  0  0  0  0  0
  150.9139  137.5885  158.9506 C   0  0  0  0  0  0  0  0  0  0  0  0
  151.4916  138.3640  157.9723 N   0  0  0  0  0  0  0  0  0  0  0  0
  152.2251  139.6008  158.1682 C   0  0  0  0  0  0  0  0  0  0  0  0
  151.3179  140.8492  158.1480 C   0  0  2  0  0  0  0  0  0  0  0  0
  150.5784  140.8090  156.9441 O   0  0  0  0  0  0  0  0  0  0  0  0
  152.0790  142.1913  158.2308 C   0  0  1  0  0  0  0  0  0  0  0  0
  151.2948  143.4059  157.7291 C   0  0  0  0  0  0  0  0  0  0  0  0
  151.9490  144.5778  158.4446 C   0  0  0  0  0  0  0  0  0  0  0  0
  152.7361  143.9226  159.5820 C   0  0  0  0  0  0  0  0  0  0  0  0
  152.3167  142.5667  159.5794 O   0  0  0  0  0  0  0  0  0  0  0  0
  148.9348  132.6427  152.0192 H   0  0  0  0  0  0  0  0  0  0  0  0
  147.6998  133.7881  152.5334 H   0  0  0  0  0  0  0  0  0  0  0  0
  147.7321  132.1595  153.2084 H   0  0  0  0  0  0  0  0  0  0  0  0
  149.9506  132.6729  154.3012 H   0  0  0  0  0  0  0  0  0  0  0  0
  149.9289  134.2559  153.5798 H   0  0  0  0  0  0  0  0  0  0  0  0
  147.8629  134.8315  154.9046 H   0  0  0  0  0  0  0  0  0  0  0  0
  146.6043  133.1738  155.7865 H   0  0  0  0  0  0  0  0  0  0  0  0
  147.8380  131.9469  155.5381 H   0  0  0  0  0  0  0  0  0  0  0  0
  147.1863  132.9186  158.0743 H   0  0  0  0  0  0  0  0  0  0  0  0
  148.7367  132.2127  157.6388 H   0  0  0  0  0  0  0  0  0  0  0  0
  149.5120  134.2727  158.3484 H   0  0  0  0  0  0  0  0  0  0  0  0
  147.2850  135.3044  158.8505 H   0  0  0  0  0  0  0  0  0  0  0  0
  147.0252  135.6298  157.1406 H   0  0  0  0  0  0  0  0  0  0  0  0
  148.3131  136.4546  158.0148 H   0  0  0  0  0  0  0  0  0  0  0  0
  151.4615  137.3850  153.5974 H   0  0  0  0  0  0  0  0  0  0  0  0
  150.9533  137.8483  159.9985 H   0  0  0  0  0  0  0  0  0  0  0  0
  152.7644  139.5377  159.1144 H   0  0  0  0  0  0  0  0  0  0  0  0
  152.9815  139.6721  157.3853 H   0  0  0  0  0  0  0  0  0  0  0  0
  150.6041  140.7909  158.9709 H   0  0  0  0  0  0  0  0  0  0  0  0
  150.4424  139.9046  156.7064 H   0  0  0  0  0  0  0  0  0  0  0  0
  153.0323  142.1221  157.7027 H   0  0  0  0  0  0  0  0  0  0  0  0
  151.3203  143.5063  156.6437 H   0  0  0  0  0  0  0  0  0  0  0  0
  150.2502  143.3296  158.0349 H   0  0  0  0  0  0  0  0  0  0  0  0
  152.6186  145.1269  157.7820 H   0  0  0  0  0  0  0  0  0  0  0  0
  151.1990  145.2751  158.8197 H   0  0  0  0  0  0  0  0  0  0  0  0
  153.8083  143.9659  159.3843 H   0  0  0  0  0  0  0  0  0  0  0  0
  152.5473  144.3895  160.5488 H   0  0  0  0  0  0  0  0  0  0  0  0
  1  2  1  0  0  0  0
  1 26  1  0  0  0  0
  1 27  1  0  0  0  0
  1 28  1  0  0  0  0
  2  3  1  0  0  0  0
  2 29  1  0  0  0  0
  2 30  1  0  0  0  0
  3  8  1  0  0  0  0
  3  4  1  0  0  0  0
  3 31  1  0  0  0  0
  4  5  1  0  0  0  0
  4 32  1  0  0  0  0
  4 33  1  0  0  0  0
  5  6  1  0  0  0  0
  5 34  1  0  0  0  0
  5 35  1  0  0  0  0
  6  7  1  0  0  0  0
  6  8  1  0  0  0  0
  6 36  1  0  0  0  0
  7 37  1  0  0  0  0
  7 38  1  0  0  0  0
  7 39  1  0  0  0  0
  8  9  1  0  0  0  0
  9 14  1  0  0  0  0
  9 10  2  0  0  0  0
 10 11  1  0  0  0  0
 11 12  2  0  0  0  0
 11 40  1  0  0  0  0
 12 13  1  0  0  0  0
 13 17  1  0  0  0  0
 13 14  2  0  0  0  0
 14 15  1  0  0  0  0
 15 16  2  0  0  0  0
 16 17  1  0  0  0  0
 16 41  1  0  0  0  0
 17 18  1  0  0  0  0
 18 19  1  0  0  0  0
 18 42  1  0  0  0  0
 18 43  1  0  0  0  0
 19 20  1  0  0  0  0
 19 21  1  0  0  0  0
 19 44  1  0  0  0  0
 20 45  1  0  0  0  0
 21 25  1  0  0  0  0
 21 22  1  0  0  0  0
 21 46  1  0  0  0  0
 22 23  1  0  0  0  0
 22 47  1  0  0  0  0
 22 48  1  0  0  0  0
 23 24  1  0  0  0  0
 23 49  1  0  0  0  0
 23 50  1  0  0  0  0
 24 25  1  0  0  0  0
 24 51  1  0  0  0  0
 24 52  1  0  0  0  0
M  END
> <s_m_source_file>
AV-unprocessed.smi

> <i_m_source_file_index>
232

> <i_lp_mmshare_version>
43012

> <i_f3d_flags>
0

> <s_epik_input>
W0NIM11bQ0gyXVtDQEBIXTFbQ0gyXVtDSDJdW0NAQEhdKFtDSDNdKU4xYyhuW2NIXW4yKWMoYzIzKW5bY0hdbjNbQ0gyXVtDQEhdKFtPSF0pW0NAQEhdNFtDSDJdW0NIMl1bQ0gyXU80

> <s_epik_cmdline>
J2VwaWtfcHl0aG9uJywgJy1waCcsICc3LjAnLCAnLXRuJywgJzgnLCAnLW1hJywgJzIwMCcsICctbWV0YWxfYmluZGluZycsICctaW1hZScsICc8aW5maWxlLm1hZT4nLCAnLW9tYWUnLCAnPG91dGZpbGUubWFlPic=

> <r_lp_tautomer_probability>
1

> <r_epik_Ionization_Penalty>
0.00258048

> <r_epik_Ionization_Penalty_Charging>
0

> <r_epik_Ionization_Penalty_Neutral>
0.00258048

> <r_epik_State_Penalty>
0.00168551

> <r_epik_Charging_Adjusted_Penalty>
0.00168551

> <i_epik_Tot_Q>
0

> <i_epik_Tot_abs_Q>
0

> <r_epik_Metal_State_Penalty>
-0

> <b_epik_Metal_Only>
0

> <s_lp_Force_Field>
OPLS_2005

> <r_lp_Energy>
52.3854

> <b_lp_Chiralities_Consistent>
1

> <s_lp_Variant>
AV-unprocessed.smi:232-12

> <Gold.Version>
5.8.1

> <Gold.Id.Protein>
6NUR|6NUR_protein|mol2

> <Gold.PLP.Fitness>
37.7703

> <Gold.PLP.PLP>
-34.5936

> <Gold.PLP.part.hbond>
-1.0000

> <Gold.PLP.part.metal>
0.0000

> <Gold.PLP.part.buried>
-6.6489

> <Gold.PLP.part.nonpolar>
-28.0144

> <Gold.PLP.part.repulsive>
0.2105

> <Gold.PLP.ligand.clash>
0.0096

> <Gold.PLP.ligand.torsion>
1.4440

> <Gold.PLP.Chemscore.Hbond>
1.0000

> <Gold.PLP.Chemscore.CHOScore>
0.9188

> <Gold.PLP.Chemscore.Metal>
0.0000

> <Gold.Chemscore.Hbonds>
donor molecule, donor type, donor heavy atom, donor atom, acceptor molecule, acceptor atom, score
      P1  H  6896  6907       L1    15  0.91
      L1  C    11    40       P1  7949  0.97

> <Gold.PLP.Chemscore.Internal.Correction>
0.3180

> <Gold.Rescore>
     Score         DG    S(hbond)    S(metal)    S(lipo)     H(rot)  DE(clash)    DE(int)     intcor
      5.79     -12.24       0.91        0.00      84.77       2.43       0.05       6.40       ----

> <Gold.Chemscore.Fitness>
5.7937

> <Gold.Chemscore.DG>
-12.2367

> <Gold.Chemscore.ZeroCoef>
-5.4800

> <Gold.Chemscore.Hbond>
0.9131

> <Gold.Chemscore.Metal>
0.0000

> <Gold.Chemscore.Lipo>
84.7670

> <Gold.Chemscore.Internal_Hbond>
0.0000

> <Gold.Chemscore.DEClash>
0.0465

> <Gold.Chemscore.DEInternal>
6.3964

> <Gold.Chemscore.Rot>
2.4260

> <Gold.Chemscore.Internal.Correction>
   9.000000E+99

> <Gold.Chemscore.Hbonds>
donor molecule, donor type, donor heavy atom, donor atom, acceptor molecule, acceptor atom, score
      P1  H  6896  6907       L1    15  0.51

> <Gold.Chemscore.Hbond.Weighted>
-3.0496

> <Gold.Chemscore.Metal.Weighted>
-0.0000

> <Gold.Chemscore.Lipo.Weighted>
-9.9177

> <Gold.Chemscore.Internal_Hbond.Weighted>
0.0000

> <Gold.Chemscore.DEClash.Weighted>
0.0465

> <Gold.Chemscore.DEInternal.Weighted>
6.3964

> <Gold.Chemscore.Rot.Weighted>
6.2107

> <Gold.Chemscore.Internal.Correction.Weighted>
   9.000000E+99

> <Gold.Protein.RotatedTorsions>
[ 6907 6896 6895 6894 ] final  -41.28 input  -60.11 | X-H torsion
[ 7974 7965 7964 7962 ] final  132.09 input  175.53 | X-H torsion
[ 8008 7997 7996 7995 ] final  -45.56 input   59.86 | X-H torsion
[ 10167 10162 10161 10158 ] final  -32.48 input  -65.29 | X-H torsion
[ 10718 10713 10712 10709 ] final  -96.27 input   66.30 | X-H torsion
[ 10763 10752 10751 10750 ] final -127.19 input  -60.55 | X-H torsion
[ 11005 11000 10999 10996 ] final   88.86 input  -57.11 | X-H torsion

> <Gold.Protein.ActiveResidues>
 VAL166  LYS551  ARG553  GLY616  TRP617  ASP618  TYR619  PRO620  LYS621  CYS622 
 ASP623  PHE694  ASN695  SER759  ASP760  ASP761  ALA762  ILE779  LEU786  VAL792 
 PHE793  MET794  SER795  GLU796  ALA797  LYS798  CYS799  TRP800  GLU811  SER814 

> <Gold.Protein.RotatedAtoms>
  150.9686  134.9063  159.7773 H   0  0  0  0  0  0  0  0  0  0  0  0  # atno 6907 bound_to 6896
  152.5182  134.3572  159.9282 H   0  0  0  0  0  0  0  0  0  0  0  0  # atno 6908 bound_to 6896
  151.3582  133.3859  159.2721 H   0  0  0  0  0  0  0  0  0  0  0  0  # atno 6909 bound_to 6896
  145.0005  139.4317  143.5295 H   0  0  0  0  0  0  0  0  0  0  0  0  # atno 7974 bound_to 7965
  154.4002  140.1393  156.3868 H   0  0  0  0  0  0  0  0  0  0  0  0  # atno 8008 bound_to 7997
  155.7952  140.3477  155.5351 H   0  0  0  0  0  0  0  0  0  0  0  0  # atno 8009 bound_to 7997
  155.8539  140.0946  157.1647 H   0  0  0  0  0  0  0  0  0  0  0  0  # atno 8010 bound_to 7997
  140.7220  143.3691  151.1813 H   0  0  0  0  0  0  0  0  0  0  0  0  # atno 10167 bound_to 10162
  156.0059  130.5144  150.6200 H   0  0  0  0  0  0  0  0  0  0  0  0  # atno 10718 bound_to 10713
  154.8751  135.3970  154.3553 H   0  0  0  0  0  0  0  0  0  0  0  0  # atno 10763 bound_to 10752
  153.4333  135.7025  153.6221 H   0  0  0  0  0  0  0  0  0  0  0  0  # atno 10764 bound_to 10752
  153.4834  135.3764  155.2423 H   0  0  0  0  0  0  0  0  0  0  0  0  # atno 10765 bound_to 10752
  139.8887  134.8515  156.3060 H   0  0  0  0  0  0  0  0  0  0  0  0  # atno 11005 bound_to 11000
  146.3451  139.9390  142.8743 LP  0  0  0  0  0  0  0  0  0  0  0  0  # atno 17320 bound_to 7965
  145.2160  140.9915  143.4073 LP  0  0  0  0  0  0  0  0  0  0  0  0  # atno 17321 bound_to 7965
  139.7259  143.9149  152.3002 LP  0  0  0  0  0  0  0  0  0  0  0  0  # atno 17342 bound_to 10162
  139.8922  144.6959  150.8758 LP  0  0  0  0  0  0  0  0  0  0  0  0  # atno 17343 bound_to 10162
  157.4017  131.0811  151.1302 LP  0  0  0  0  0  0  0  0  0  0  0  0  # atno 17370 bound_to 10713
  157.1961  130.6374  149.5722 LP  0  0  0  0  0  0  0  0  0  0  0  0  # atno 17371 bound_to 10713
  140.9882  133.7225  156.0773 LP  0  0  0  0  0  0  0  0  0  0  0  0  # atno 17394 bound_to 11000
  140.7660  134.3885  157.5517 LP  0  0  0  0  0  0  0  0  0  0  0  0  # atno 17395 bound_to 11000

$$$$
