#       Name:                AV-unprocessed.smi:72
#       Creating user name   scv26
#       Creation time:       Thu Mar 26 16:58:15 2020


#       File generated by GOLD software.
#

@<TRIPOS>MOLECULE
AV-unprocessed.smi:72
    41    42     1
SMALL
NO_CHARGES


@<TRIPOS>ATOM
      1 ****        -2.4275   4.3467  -1.0394 N.2            1 S1                 0.0000
      2 ****        -1.9100   3.2261  -0.6807 C.2            1 S1                 0.0000
      3 ****        -0.5438   2.9103  -0.7342 N.2            1 S1                 0.0000
      4 ****        -0.1607   1.7363  -0.3365 C.2            1 S1                 0.0000
      5 ****        -1.0985   0.7417   0.1606 N.am           1 S1                 0.0000
      6 ****        -0.6218  -0.6228   0.6129 C.3            1 S1                 0.0000
      7 ****         0.6110  -0.4811   1.2529 O.3            1 S1                 0.0000
      8 ****         1.4542  -1.5729   0.9014 C.3            1 S1                 0.0000
      9 ****         2.9362  -1.2359   1.1447 C.3            1 S1                 0.0000
     10 ****         3.2675  -1.4502   2.5002 O.3            1 S1                 0.0000
     11 ****         1.0706  -1.8561  -0.5582 C.3            1 S1                 0.0000
     12 ****         1.7502  -0.9784  -1.4410 O.3            1 S1                 0.0000
     13 ****        -0.4376  -1.6230  -0.5488 C.3            1 S1                 0.0000
     14 ****        -0.9506  -1.2148  -1.8062 O.3            1 S1                 0.0000
     15 ****        -2.4824   1.0393   0.2098 C.2            1 S1                 0.0000
     16 ****        -3.3228   0.2284   0.5980 O.2            1 S1                 0.0000
     17 ****        -2.8267   2.2772  -0.2073 N.am           1 S1                 0.0000
     18 ****        -1.3413  -0.9754   1.3534 H              1 S1                 0.0000
     19 ****         1.1636  -2.4380   1.5011 H              1 S1                 0.0000
     20 ****         1.3165  -2.8789  -0.8455 H              1 S1                 0.0000
     21 ****        -0.9387  -2.5469  -0.2571 H              1 S1                 0.0000
     22 ****        -3.4285   4.3336  -0.9091 H              1 S1                 0.0000
     23 ****         0.8830   1.4198  -0.3514 H              1 S1                 0.0000
     24 ****         3.5722  -1.8903   0.5479 H              1 S1                 0.0000
     25 ****         3.1640  -0.2088   0.8572 H              1 S1                 0.0000
     26 ****         4.1820  -1.2450   2.6218 H              1 S1                 0.0000
     27 ****         1.4643  -1.1630  -2.3227 H              1 S1                 0.0000
     28 ****        -0.5395  -0.3974  -2.0431 H              1 S1                 0.0000
     29 ****        -3.8059   2.5206  -0.1805 H              1 S1                 0.0000
     30 ****        -1.9102   5.1238  -1.3979 LP             1 S1                 0.0000
     31 ****         0.1210   3.5765  -1.0720 LP             1 S1                 0.0000
     32 ****         0.4736  -0.4711   2.2433 LP             1 S1                 0.0000
     33 ****         1.0388   0.3763   0.9670 LP             1 S1                 0.0000
     34 ****         3.1016  -2.4066   2.7408 LP             1 S1                 0.0000
     35 ****         2.7090  -0.8586   3.0815 LP             1 S1                 0.0000
     36 ****         2.7370  -1.1234  -1.3684 LP             1 S1                 0.0000
     37 ****         1.5345  -0.0304  -1.2074 LP             1 S1                 0.0000
     38 ****        -1.9407  -1.0896  -1.7430 LP             1 S1                 0.0000
     39 ****        -0.7458  -1.9089  -2.4964 LP             1 S1                 0.0000
     40 ****        -3.0382  -0.6831   0.8951 LP             1 S1                 0.0000
     41 ****        -4.2902   0.4809   0.6163 LP             1 S1                 0.0000
@<TRIPOS>BOND
    1    1    2 2     
    2    1   22 1     
    3    2   17 1     
    4    2    3 1     
    5    3    4 2     
    6    4    5 1     
    7    4   23 1     
    8    5    6 1     
    9    5   15 am    
   10    6   18 1     
   11    6   13 1     
   12    6    7 1     
   13    7    8 1     
   14    8   19 1     
   15    8    9 1     
   16    8   11 1     
   17    9   10 1     
   18    9   24 1     
   19    9   25 1     
   20   10   26 1     
   21   11   20 1     
   22   11   12 1     
   23   11   13 1     
   24   12   27 1     
   25   13   21 1     
   26   13   14 1     
   27   14   28 1     
   28   15   16 2     
   29   15   17 am    
   30   17   29 1     
   31    1   30 1     
   32    3   31 1     
   33    7   32 1     
   34    7   33 1     
   35   10   34 1     
   36   10   35 1     
   37   12   36 1     
   38   12   37 1     
   39   14   38 1     
   40   14   39 1     
   41   16   40 1     
   42   16   41 1     
@<TRIPOS>SUBSTRUCTURE
      1 S1             1
@<TRIPOS>SET
LONE_PAIRS      STATIC     ATOMS    <user>   **** ""
12 30 31 32 33 34 35 36 37 38 39 40 41
DONOR_HYDROGENS      STATIC     ATOMS    <user>   **** ""
5 22 26 27 28 29
ATOM$BLUE        STATIC     ATOMS    COLORGROUP SYSTEM
12 30 31 32 33 34 35 36 37 38 39 40 41
ATOM$RED        STATIC     ATOMS    COLORGROUP SYSTEM
5 22 26 27 28 29
