#       Name:                AV-unprocessed.smi:1181
#       Creating user name   scv26
#       Creation time:       Fri Mar 27 03:55:59 2020


#       File generated by GOLD software.
#

@<TRIPOS>MOLECULE
AV-unprocessed.smi:1181
    51    52     1
SMALL
NO_CHARGES


@<TRIPOS>ATOM
      1 ****        -2.9761   7.6012   2.5048 C.3            1 S1                 0.0000
      2 ****        -2.7837   6.2530   2.1145 O.3            1 S1                 0.0000
      3 ****        -3.0981   6.0329   0.7494 C.3            1 S1                 0.0000
      4 ****        -2.8571   4.5593   0.4084 C.3            1 S1                 0.0000
      5 ****        -1.4534   4.3292   0.3340 O.3            1 S1                 0.0000
      6 ****        -1.0087   3.0596   0.0284 C.ar           1 S1                 0.0000
      7 ****         0.3799   2.8331  -0.0452 C.ar           1 S1                 0.0000
      8 ****         0.8403   1.5406  -0.3584 C.ar           1 S1                 0.0000
      9 ****        -0.0970   0.5117  -0.5784 C.ar           1 S1                 0.0000
     10 ****         0.3945  -0.7775  -0.9154 N.am           1 S1                 0.0000
     11 ****        -0.2029  -1.9753  -0.7585 C.2            1 S1                 0.0000
     12 ****        -1.3109  -2.1129  -0.2390 O.2            1 S1                 0.0000
     13 ****         0.5367  -3.0276  -1.1951 N.am           1 S1                 0.0000
     14 ****         1.8923  -2.9685  -1.7699 C.3            1 S1                 0.0000
     15 ****         2.8885  -3.5348  -0.7426 C.3            1 S1                 0.0000
     16 ****         2.5109  -4.9764  -0.3388 C.3            1 S1                 0.0000
     17 ****         3.4351  -5.5179   0.7602 C.3            1 S1                 0.0000
     18 ****         1.0241  -5.0647   0.0695 C.3            1 S1                 0.0000
     19 ****         0.1128  -4.4191  -0.9908 C.3            1 S1                 0.0000
     20 ****        -1.4715   0.8417  -0.4941 C.ar           1 S1                 0.0000
     21 ****        -1.9193   2.0801  -0.1963 N.ar           1 S1                 0.0000
     22 ****        -2.7222   7.7172   3.5583 H              1 S1                 0.0000
     23 ****        -4.0151   7.9057   2.3733 H              1 S1                 0.0000
     24 ****        -2.3383   8.2732   1.9290 H              1 S1                 0.0000
     25 ****        -4.1477   6.2778   0.5802 H              1 S1                 0.0000
     26 ****        -2.5020   6.6767   0.1007 H              1 S1                 0.0000
     27 ****        -3.3266   3.9170   1.1556 H              1 S1                 0.0000
     28 ****        -3.3121   4.3387  -0.5587 H              1 S1                 0.0000
     29 ****         1.0787   3.6368   0.1337 H              1 S1                 0.0000
     30 ****         1.9006   1.3439  -0.4240 H              1 S1                 0.0000
     31 ****         1.3419  -0.8029  -1.2634 H              1 S1                 0.0000
     32 ****         1.9200  -3.5672  -2.6815 H              1 S1                 0.0000
     33 ****         2.2032  -1.9702  -2.0775 H              1 S1                 0.0000
     34 ****         3.8978  -3.5148  -1.1550 H              1 S1                 0.0000
     35 ****         2.9015  -2.8933   0.1399 H              1 S1                 0.0000
     36 ****         2.6449  -5.6071  -1.2189 H              1 S1                 0.0000
     37 ****         3.3544  -4.9267   1.6729 H              1 S1                 0.0000
     38 ****         4.4776  -5.4977   0.4413 H              1 S1                 0.0000
     39 ****         3.1863  -6.5500   1.0086 H              1 S1                 0.0000
     40 ****         0.7386  -6.1066   0.2178 H              1 S1                 0.0000
     41 ****         0.8730  -4.5642   1.0271 H              1 S1                 0.0000
     42 ****        -0.9301  -4.5052  -0.6831 H              1 S1                 0.0000
     43 ****         0.1869  -4.9641  -1.9329 H              1 S1                 0.0000
     44 ****        -2.2457   0.1163  -0.6901 H              1 S1                 0.0000
     45 ****        -3.3699   5.6696   2.6767 LP             1 S1                 0.0000
     46 ****        -1.8260   6.0086   2.2665 LP             1 S1                 0.0000
     47 ****        -1.0673   4.5706   1.2243 LP             1 S1                 0.0000
     48 ****        -1.0902   4.9452  -0.3650 LP             1 S1                 0.0000
     49 ****        -1.8116  -1.3124   0.0904 LP             1 S1                 0.0000
     50 ****        -1.7100  -3.0252  -0.1465 LP             1 S1                 0.0000
     51 ****        -2.8996   2.2706  -0.1427 LP             1 S1                 0.0000
@<TRIPOS>BOND
    1    1    2 1     
    2    1   22 1     
    3    1   23 1     
    4    1   24 1     
    5    2    3 1     
    6    3    4 1     
    7    3   25 1     
    8    3   26 1     
    9    4    5 1     
   10    4   27 1     
   11    4   28 1     
   12    5    6 1     
   13    6   21 ar    
   14    6    7 ar    
   15    7    8 ar    
   16    7   29 1     
   17    8    9 ar    
   18    8   30 1     
   19    9   10 1     
   20    9   20 ar    
   21   10   11 am    
   22   10   31 1     
   23   11   12 2     
   24   11   13 am    
   25   13   19 1     
   26   13   14 1     
   27   14   15 1     
   28   14   32 1     
   29   14   33 1     
   30   15   16 1     
   31   15   34 1     
   32   15   35 1     
   33   16   17 1     
   34   16   18 1     
   35   16   36 1     
   36   17   37 1     
   37   17   38 1     
   38   17   39 1     
   39   18   19 1     
   40   18   40 1     
   41   18   41 1     
   42   19   42 1     
   43   19   43 1     
   44   20   21 ar    
   45   20   44 1     
   46    2   45 1     
   47    2   46 1     
   48    5   47 1     
   49    5   48 1     
   50   12   49 1     
   51   12   50 1     
   52   21   51 1     
@<TRIPOS>SUBSTRUCTURE
      1 S1             1
@<TRIPOS>SET
LONE_PAIRS      STATIC     ATOMS    <user>   **** ""
7 45 46 47 48 49 50 51
DONOR_HYDROGENS      STATIC     ATOMS    <user>   **** ""
1 31
ATOM$BLUE        STATIC     ATOMS    COLORGROUP SYSTEM
7 45 46 47 48 49 50 51
ATOM$RED        STATIC     ATOMS    COLORGROUP SYSTEM
1 31
