AV-unprocessed.smi:2884|AV-procd|sdf|11084|dock8
  -GOLD-   2272015553D 1   1.00000     0.00000
 Structure written by MMmdl.
 42 43  0  0  0  0  0  0  0  0  3 V2000
  146.2189  137.3063  152.3214 C   0  0  0  0  0  0  0  0  0  0  0  0
  146.2700  136.7121  153.7347 C   0  0  0  0  0  0  0  0  0  0  0  0
  145.7928  135.2558  153.7845 C   0  0  0  0  0  0  0  0  0  0  0  0
  146.9156  134.4125  153.5491 O   0  0  0  0  0  0  0  0  0  0  0  0
  146.8132  133.3297  152.6155 C   0  0  0  0  0  0  0  0  0  0  0  0
  148.2746  132.8203  152.5410 C   0  0  0  0  0  0  0  0  0  0  0  0
  149.0108  133.0667  153.7753 N   0  0  0  0  0  0  0  0  0  0  0  0
  149.6459  132.1708  154.6270 C   0  0  0  0  0  0  0  0  0  0  0  0
  149.6673  130.7680  154.3883 C   0  0  0  0  0  0  0  0  0  0  0  0
  150.2882  129.9557  155.2378 N   0  3  0  0  0  0  0  0  0  0  0  0
  150.9079  130.3698  156.3204 N   0  5  0  0  0  0  0  0  0  0  0  0
  150.9620  131.6919  156.6606 C   0  0  0  0  0  0  0  0  0  0  0  0
  151.5346  132.1060  157.6667 O   0  0  0  0  0  0  0  0  0  0  0  0
  150.2841  132.6266  155.7435 C   0  0  0  0  0  0  0  0  0  0  0  0
  150.3086  134.3174  156.1232 Cl  0  0  0  0  0  0  0  0  0  0  0  0
  145.8336  132.2208  153.0938 C   0  0  0  0  0  0  0  0  0  0  0  0
  145.6822  131.0872  152.0638 C   0  0  0  0  0  0  0  0  0  0  0  0
  145.2382  131.6354  150.6985 C   0  0  0  0  0  0  0  0  0  0  0  0
  146.1934  132.7274  150.1911 C   0  0  0  0  0  0  0  0  0  0  0  0
  146.3597  133.8547  151.2277 C   0  0  0  0  0  0  0  0  0  0  0  0
  150.2619  128.9519  155.0003 H   0  0  0  0  0  0  0  0  0  0  0  0
  146.5836  138.3335  152.3185 H   0  0  0  0  0  0  0  0  0  0  0  0
  145.2004  137.3149  151.9319 H   0  0  0  0  0  0  0  0  0  0  0  0
  146.8366  136.7320  151.6304 H   0  0  0  0  0  0  0  0  0  0  0  0
  147.2944  136.7650  154.1039 H   0  0  0  0  0  0  0  0  0  0  0  0
  145.6679  137.3195  154.4113 H   0  0  0  0  0  0  0  0  0  0  0  0
  145.3376  135.0668  154.7553 H   0  0  0  0  0  0  0  0  0  0  0  0
  145.0286  135.1074  153.0228 H   0  0  0  0  0  0  0  0  0  0  0  0
  148.3089  131.7665  152.2760 H   0  0  0  0  0  0  0  0  0  0  0  0
  148.7998  133.3422  151.7405 H   0  0  0  0  0  0  0  0  0  0  0  0
  148.9138  134.0107  154.1228 H   0  0  0  0  0  0  0  0  0  0  0  0
  149.1961  130.3077  153.5299 H   0  0  0  0  0  0  0  0  0  0  0  0
  146.1449  131.8143  154.0562 H   0  0  0  0  0  0  0  0  0  0  0  0
  144.8394  132.6360  153.2519 H   0  0  0  0  0  0  0  0  0  0  0  0
  146.6205  130.5447  151.9563 H   0  0  0  0  0  0  0  0  0  0  0  0
  144.9527  130.3606  152.4228 H   0  0  0  0  0  0  0  0  0  0  0  0
  145.1803  130.8242  149.9723 H   0  0  0  0  0  0  0  0  0  0  0  0
  144.2310  132.0457  150.7828 H   0  0  0  0  0  0  0  0  0  0  0  0
  147.1613  132.2884  149.9495 H   0  0  0  0  0  0  0  0  0  0  0  0
  145.8115  133.1422  149.2578 H   0  0  0  0  0  0  0  0  0  0  0  0
  145.3989  134.3608  151.3100 H   0  0  0  0  0  0  0  0  0  0  0  0
  147.0645  134.5999  150.8571 H   0  0  0  0  0  0  0  0  0  0  0  0
  1  2  1  0  0  0  0
  1 22  1  0  0  0  0
  1 23  1  0  0  0  0
  1 24  1  0  0  0  0
  2  3  1  0  0  0  0
  2 25  1  0  0  0  0
  2 26  1  0  0  0  0
  3  4  1  0  0  0  0
  3 27  1  0  0  0  0
  3 28  1  0  0  0  0
  4  5  1  0  0  0  0
  5 20  1  0  0  0  0
  5  6  1  0  0  0  0
  5 16  1  0  0  0  0
  6 29  1  0  0  0  0
  6 30  1  0  0  0  0
  6  7  1  0  0  0  0
  7  8  1  0  0  0  0
  7 31  1  0  0  0  0
  8 14  2  0  0  0  0
  8  9  1  0  0  0  0
  9 32  1  0  0  0  0
  9 10  2  0  0  0  0
 10 11  1  0  0  0  0
 10 21  1  0  0  0  0
 11 12  1  0  0  0  0
 12 13  2  0  0  0  0
 12 14  1  0  0  0  0
 14 15  1  0  0  0  0
 16 17  1  0  0  0  0
 16 33  1  0  0  0  0
 16 34  1  0  0  0  0
 17 18  1  0  0  0  0
 17 35  1  0  0  0  0
 17 36  1  0  0  0  0
 18 19  1  0  0  0  0
 18 37  1  0  0  0  0
 18 38  1  0  0  0  0
 19 20  1  0  0  0  0
 19 39  1  0  0  0  0
 19 40  1  0  0  0  0
 20 41  1  0  0  0  0
 20 42  1  0  0  0  0
M  CHG  1  10   1
M  CHG  1  11  -1
M  END
> <s_m_source_file>
AV-unprocessed.smi

> <i_m_source_file_index>
2884

> <i_lp_mmshare_version>
43012

> <i_f3d_flags>
0

> <s_epik_input>
W0NIMl0xW0NIMl1bQ0gyXVtDSDJdW0NIMl1DMShPW0NIMl1bQ0gyXVtDSDNdKVtDSDJdW05IXWMyW2NIXW5bbkhdYyg9TyljMkNs

> <s_epik_cmdline>
J2VwaWtfcHl0aG9uJywgJy1waCcsICc3LjAnLCAnLXRuJywgJzgnLCAnLW1hJywgJzIwMCcsICctbWV0YWxfYmluZGluZycsICctaW1hZScsICc8aW5maWxlLm1hZT4nLCAnLW9tYWUnLCAnPG91dGZpbGUubWFlPic=

> <r_lp_tautomer_probability>
0.0138196

> <r_epik_Ionization_Penalty>
2.73941

> <r_epik_Ionization_Penalty_Charging>
2.73941

> <r_epik_Ionization_Penalty_Neutral>
1.09968e-06

> <r_epik_State_Penalty>
2.7044

> <r_epik_Charging_Adjusted_Penalty>
5.44381

> <i_epik_Tot_Q>
0

> <i_epik_Tot_abs_Q>
2

> <r_epik_Metal_State_Penalty>
2.9982

> <b_epik_Metal_Only>
0

> <s_lp_Force_Field>
OPLS_2005

> <r_lp_Energy>
38.2513

> <b_lp_Chiralities_Consistent>
1

> <s_lp_Variant>
AV-unprocessed.smi:2884-2

> <Gold.Version>
5.8.1

> <Gold.Id.Protein>
6NUR|6NUR_protein|mol2

> <Gold.PLP.Fitness>
32.0916

> <Gold.PLP.PLP>
-31.4449

> <Gold.PLP.part.hbond>
-1.0000

> <Gold.PLP.part.metal>
0.0000

> <Gold.PLP.part.buried>
-4.9996

> <Gold.PLP.part.nonpolar>
-25.4396

> <Gold.PLP.part.repulsive>
0.0976

> <Gold.PLP.ligand.clash>
0.0000

> <Gold.PLP.ligand.torsion>
1.1848

> <Gold.PLP.Chemscore.Hbond>
1.0000

> <Gold.PLP.Chemscore.CHOScore>
0.0000

> <Gold.PLP.Chemscore.Metal>
0.0000

> <Gold.Chemscore.Hbonds>
donor molecule, donor type, donor heavy atom, donor atom, acceptor molecule, acceptor atom, score
      P1  H  6896  6908       L1    13  1.00

> <Gold.PLP.Chemscore.Internal.Correction>
0.0163

> <Gold.Rescore>
     Score         DG    S(hbond)    S(metal)    S(lipo)     H(rot)  DE(clash)    DE(int)     intcor
     13.09     -14.25       0.99        0.00      85.36       1.77       0.23       0.94       ----

> <Gold.Chemscore.Fitness>
13.0868

> <Gold.Chemscore.DG>
-14.2539

> <Gold.Chemscore.ZeroCoef>
-5.4800

> <Gold.Chemscore.Hbond>
0.9906

> <Gold.Chemscore.Metal>
0.0000

> <Gold.Chemscore.Lipo>
85.3590

> <Gold.Chemscore.Internal_Hbond>
0.0000

> <Gold.Chemscore.DEClash>
0.2282

> <Gold.Chemscore.DEInternal>
0.9389

> <Gold.Chemscore.Rot>
1.7663

> <Gold.Chemscore.Internal.Correction>
   9.000000E+99

> <Gold.Chemscore.Hbonds>
donor molecule, donor type, donor heavy atom, donor atom, acceptor molecule, acceptor atom, score
      P1  H  6896  6908       L1    13  0.97

> <Gold.Chemscore.Hbond.Weighted>
-3.3086

> <Gold.Chemscore.Metal.Weighted>
-0.0000

> <Gold.Chemscore.Lipo.Weighted>
-9.9870

> <Gold.Chemscore.Internal_Hbond.Weighted>
0.0000

> <Gold.Chemscore.DEClash.Weighted>
0.2282

> <Gold.Chemscore.DEInternal.Weighted>
0.9389

> <Gold.Chemscore.Rot.Weighted>
4.5216

> <Gold.Chemscore.Internal.Correction.Weighted>
   9.000000E+99

> <Gold.Protein.RotatedTorsions>
[ 6907 6896 6895 6894 ] final   62.33 input  -60.11 | X-H torsion
[ 7974 7965 7964 7962 ] final  159.66 input  175.53 | X-H torsion
[ 8008 7997 7996 7995 ] final  -79.24 input   59.86 | X-H torsion
[ 10167 10162 10161 10158 ] final  -90.40 input  -65.29 | X-H torsion
[ 10718 10713 10712 10709 ] final -173.96 input   66.30 | X-H torsion
[ 10763 10752 10751 10750 ] final -123.76 input  -60.55 | X-H torsion
[ 11005 11000 10999 10996 ] final   -3.04 input  -57.11 | X-H torsion

> <Gold.Protein.ActiveResidues>
 VAL166  LYS551  ARG553  GLY616  TRP617  ASP618  TYR619  PRO620  LYS621  CYS622 
 ASP623  PHE694  ASN695  SER759  ASP760  ASP761  ALA762  ILE779  LEU786  VAL792 
 PHE793  MET794  SER795  GLU796  ALA797  LYS798  CYS799  TRP800  GLU811  SER814 

> <Gold.Protein.RotatedAtoms>
  152.4163  134.6036  160.0006 H   0  0  0  0  0  0  0  0  0  0  0  0  # atno 6907 bound_to 6896
  151.6198  133.3334  159.3093 H   0  0  0  0  0  0  0  0  0  0  0  0  # atno 6908 bound_to 6896
  150.8051  134.7211  159.6703 H   0  0  0  0  0  0  0  0  0  0  0  0  # atno 6909 bound_to 6896
  144.7778  139.7648  143.6272 H   0  0  0  0  0  0  0  0  0  0  0  0  # atno 7974 bound_to 7965
  154.5766  140.0681  156.9043 H   0  0  0  0  0  0  0  0  0  0  0  0  # atno 8008 bound_to 7997
  155.2537  140.3353  155.4261 H   0  0  0  0  0  0  0  0  0  0  0  0  # atno 8009 bound_to 7997
  156.2159  140.1778  156.7576 H   0  0  0  0  0  0  0  0  0  0  0  0  # atno 8010 bound_to 7997
  140.3553  143.2870  151.9679 H   0  0  0  0  0  0  0  0  0  0  0  0  # atno 10167 bound_to 10162
  156.7780  130.9473  151.3120 H   0  0  0  0  0  0  0  0  0  0  0  0  # atno 10718 bound_to 10713
  154.8713  135.4087  154.2996 H   0  0  0  0  0  0  0  0  0  0  0  0  # atno 10763 bound_to 10752
  153.3857  135.7013  153.6537 H   0  0  0  0  0  0  0  0  0  0  0  0  # atno 10764 bound_to 10752
  153.5341  135.3661  155.2660 H   0  0  0  0  0  0  0  0  0  0  0  0  # atno 10765 bound_to 10752
  140.6649  133.9287  155.8459 H   0  0  0  0  0  0  0  0  0  0  0  0  # atno 11005 bound_to 11000
  146.1968  139.5240  142.9769 LP  0  0  0  0  0  0  0  0  0  0  0  0  # atno 17320 bound_to 7965
  145.6135  141.0335  143.1953 LP  0  0  0  0  0  0  0  0  0  0  0  0  # atno 17321 bound_to 7965
  139.4821  144.6041  151.7554 LP  0  0  0  0  0  0  0  0  0  0  0  0  # atno 17342 bound_to 10162
  140.5180  144.0923  150.6014 LP  0  0  0  0  0  0  0  0  0  0  0  0  # atno 17343 bound_to 10162
  157.6659  130.9008  149.9932 LP  0  0  0  0  0  0  0  0  0  0  0  0  # atno 17370 bound_to 10713
  156.1236  130.3645  149.9847 LP  0  0  0  0  0  0  0  0  0  0  0  0  # atno 17371 bound_to 10713
  141.0436  134.0585  157.3871 LP  0  0  0  0  0  0  0  0  0  0  0  0  # atno 17394 bound_to 11000
  139.9000  135.0161  156.7224 LP  0  0  0  0  0  0  0  0  0  0  0  0  # atno 17395 bound_to 11000

$$$$
