AV-unprocessed.smi:1843|AV-procd|sdf|7502|dock4
  -GOLD-   22720 9203D 1   1.00000     0.00000
 Structure written by MMmdl.
 37 39  0  0  0  0  0  0  0  0  1 V2000
  144.3744  136.5914  152.2065 O   0  0  0  0  0  0  0  0  0  0  0  0
  145.5928  136.4747  152.0727 C   0  0  0  0  0  0  0  0  0  0  0  0
  146.5147  137.3192  152.5673 N   0  0  0  0  0  0  0  0  0  0  0  0
  146.3080  138.4965  153.3340 C   0  0  0  0  0  0  0  0  0  0  0  0
  145.5430  138.5449  154.4332 N   0  0  0  0  0  0  0  0  0  0  0  0
  145.5141  139.8165  154.9885 N   0  0  0  0  0  0  0  0  0  0  0  0
  146.2561  140.6899  154.2974 C   0  0  0  0  0  0  0  0  0  0  0  0
  146.3843  142.1208  154.7017 C   0  0  0  0  0  0  0  0  0  0  0  0
  145.1682  142.9916  154.9317 C   0  0  0  0  0  0  0  0  0  0  0  0
  146.0490  143.2309  153.7322 C   0  0  0  0  0  0  0  0  0  0  0  0
  147.0603  140.0167  152.8830 S   0  0  0  0  0  0  0  0  0  0  0  0
  146.1687  135.4678  151.4001 N   0  0  0  0  0  0  0  0  0  0  0  0
  145.4550  134.3725  150.7460 C   0  0  2  0  0  0  0  0  0  0  0  0
  144.2814  133.8948  151.6227 C   0  0  0  0  0  0  0  0  0  0  0  0
  143.5087  132.7544  150.9405 C   0  0  0  0  0  0  0  0  0  0  0  0
  144.4381  131.5833  150.5844 C   0  0  0  0  0  0  0  0  0  0  0  0
  145.6258  132.0470  149.7209 C   0  0  0  0  0  0  0  0  0  0  0  0
  146.4039  133.2068  150.3728 C   0  0  2  0  0  0  0  0  0  0  0  0
  147.0824  132.7221  151.5172 O   0  0  0  0  0  0  0  0  0  0  0  0
  147.4793  137.0914  152.3769 H   0  0  0  0  0  0  0  0  0  0  0  0
  147.2400  142.2591  155.3597 H   0  0  0  0  0  0  0  0  0  0  0  0
  144.1846  142.5639  154.7476 H   0  0  0  0  0  0  0  0  0  0  0  0
  145.2167  143.7152  155.7427 H   0  0  0  0  0  0  0  0  0  0  0  0
  146.6843  144.1142  153.7415 H   0  0  0  0  0  0  0  0  0  0  0  0
  145.6560  142.9493  152.7572 H   0  0  0  0  0  0  0  0  0  0  0  0
  147.1761  135.4507  151.3381 H   0  0  0  0  0  0  0  0  0  0  0  0
  145.0236  134.7621  149.8214 H   0  0  0  0  0  0  0  0  0  0  0  0
  144.6494  133.5573  152.5925 H   0  0  0  0  0  0  0  0  0  0  0  0
  143.6031  134.7251  151.8228 H   0  0  0  0  0  0  0  0  0  0  0  0
  142.7069  132.4071  151.5927 H   0  0  0  0  0  0  0  0  0  0  0  0
  143.0300  133.1291  150.0347 H   0  0  0  0  0  0  0  0  0  0  0  0
  144.8075  131.1201  151.5000 H   0  0  0  0  0  0  0  0  0  0  0  0
  143.8767  130.8120  150.0566 H   0  0  0  0  0  0  0  0  0  0  0  0
  146.2938  131.2081  149.5213 H   0  0  0  0  0  0  0  0  0  0  0  0
  145.2510  132.3727  148.7496 H   0  0  0  0  0  0  0  0  0  0  0  0
  147.1618  133.5590  149.6719 H   0  0  0  0  0  0  0  0  0  0  0  0
  147.6808  132.0441  151.2428 H   0  0  0  0  0  0  0  0  0  0  0  0
  1  2  2  0  0  0  0
  2  3  1  0  0  0  0
  2 12  1  0  0  0  0
  3  4  1  0  0  0  0
  3 20  1  0  0  0  0
  4 11  1  0  0  0  0
  4  5  2  0  0  0  0
  5  6  1  0  0  0  0
  6  7  2  0  0  0  0
  7  8  1  0  0  0  0
  7 11  1  0  0  0  0
  8 10  1  0  0  0  0
  8  9  1  0  0  0  0
  8 21  1  0  0  0  0
  9 10  1  0  0  0  0
  9 22  1  0  0  0  0
  9 23  1  0  0  0  0
 10 24  1  0  0  0  0
 10 25  1  0  0  0  0
 12 13  1  0  0  0  0
 12 26  1  0  0  0  0
 13 18  1  0  0  0  0
 13 14  1  0  0  0  0
 13 27  1  0  0  0  0
 14 15  1  0  0  0  0
 14 28  1  0  0  0  0
 14 29  1  0  0  0  0
 15 16  1  0  0  0  0
 15 30  1  0  0  0  0
 15 31  1  0  0  0  0
 16 17  1  0  0  0  0
 16 32  1  0  0  0  0
 16 33  1  0  0  0  0
 17 18  1  0  0  0  0
 17 34  1  0  0  0  0
 17 35  1  0  0  0  0
 18 19  1  0  0  0  0
 18 36  1  0  0  0  0
 19 37  1  0  0  0  0
M  END
> <s_m_source_file>
AV-unprocessed.smi

> <i_m_source_file_index>
1843

> <i_lp_mmshare_version>
43012

> <i_f3d_flags>
0

> <s_epik_input>
W09IXVtDQEBIXTFbQ0gyXVtDSDJdW0NIMl1bQ0gyXVtDQEhdMVtOSF1DKD1PKVtOSF1jMm5uYyhzMilbQ0hdM1tDSDJdW0NIMl0z

> <s_epik_cmdline>
J2VwaWtfcHl0aG9uJywgJy1waCcsICc3LjAnLCAnLXRuJywgJzgnLCAnLW1hJywgJzIwMCcsICctbWV0YWxfYmluZGluZycsICctaW1hZScsICc8aW5maWxlLm1hZT4nLCAnLW9tYWUnLCAnPG91dGZpbGUubWFlPic=

> <r_lp_tautomer_probability>
1

> <r_epik_Ionization_Penalty>
0.000257313

> <r_epik_Ionization_Penalty_Charging>
0

> <r_epik_Ionization_Penalty_Neutral>
0.000257313

> <r_epik_State_Penalty>
-0

> <r_epik_Charging_Adjusted_Penalty>
0

> <i_epik_Tot_Q>
0

> <i_epik_Tot_abs_Q>
0

> <r_epik_Metal_State_Penalty>
0.147479

> <b_epik_Metal_Only>
0

> <s_lp_Force_Field>
OPLS_2005

> <r_lp_Energy>
10.7354

> <b_lp_Chiralities_Consistent>
1

> <s_lp_Variant>
AV-unprocessed.smi:1843-3

> <Gold.Version>
5.8.1

> <Gold.Id.Protein>
6NUR|6NUR_protein|mol2

> <Gold.PLP.Fitness>
43.5025

> <Gold.PLP.PLP>
-35.8338

> <Gold.PLP.part.hbond>
-3.0000

> <Gold.PLP.part.metal>
0.0000

> <Gold.PLP.part.buried>
-6.0599

> <Gold.PLP.part.nonpolar>
-28.0697

> <Gold.PLP.part.repulsive>
0.4465

> <Gold.PLP.ligand.clash>
0.0000

> <Gold.PLP.ligand.torsion>
0.7378

> <Gold.PLP.Chemscore.Hbond>
3.0000

> <Gold.PLP.Chemscore.CHOScore>
0.0000

> <Gold.PLP.Chemscore.Metal>
0.0000

> <Gold.Chemscore.Hbonds>
donor molecule, donor type, donor heavy atom, donor atom, acceptor molecule, acceptor atom, score
      L1  H     3    20       P1  7948  1.00
      L1  H    12    26       P1  7948  1.00
      L1  H    19    37       P1 10747  1.00

> <Gold.PLP.Chemscore.Internal.Correction>
0.1443

> <Gold.Rescore>
     Score         DG    S(hbond)    S(metal)    S(lipo)     H(rot)  DE(clash)    DE(int)     intcor
     17.79     -19.82       2.85        0.00      79.41       1.74       0.06       1.97       ----

> <Gold.Chemscore.Fitness>
17.7934

> <Gold.Chemscore.DG>
-19.8231

> <Gold.Chemscore.ZeroCoef>
-5.4800

> <Gold.Chemscore.Hbond>
2.8465

> <Gold.Chemscore.Metal>
0.0000

> <Gold.Chemscore.Lipo>
79.4116

> <Gold.Chemscore.Internal_Hbond>
0.0000

> <Gold.Chemscore.DEClash>
0.0636

> <Gold.Chemscore.DEInternal>
1.9661

> <Gold.Chemscore.Rot>
1.7404

> <Gold.Chemscore.Internal.Correction>
   9.000000E+99

> <Gold.Chemscore.Hbonds>
donor molecule, donor type, donor heavy atom, donor atom, acceptor molecule, acceptor atom, score
      L1  H     3    20       P1  7948  1.00
      L1  H    12    26       P1  7948  0.87
      L1  H    19    37       P1 10747  0.96

> <Gold.Chemscore.Hbond.Weighted>
-9.5074

> <Gold.Chemscore.Metal.Weighted>
-0.0000

> <Gold.Chemscore.Lipo.Weighted>
-9.2912

> <Gold.Chemscore.Internal_Hbond.Weighted>
0.0000

> <Gold.Chemscore.DEClash.Weighted>
0.0636

> <Gold.Chemscore.DEInternal.Weighted>
1.9661

> <Gold.Chemscore.Rot.Weighted>
4.4555

> <Gold.Chemscore.Internal.Correction.Weighted>
   9.000000E+99

> <Gold.Protein.RotatedTorsions>
[ 6907 6896 6895 6894 ] final  -80.72 input  -60.11 | X-H torsion
[ 7974 7965 7964 7962 ] final -144.35 input  175.53 | X-H torsion
[ 8008 7997 7996 7995 ] final   32.64 input   59.86 | X-H torsion
[ 10167 10162 10161 10158 ] final   -2.02 input  -65.29 | X-H torsion
[ 10718 10713 10712 10709 ] final  -55.57 input   66.30 | X-H torsion
[ 10763 10752 10751 10750 ] final  -87.10 input  -60.55 | X-H torsion
[ 11005 11000 10999 10996 ] final  159.30 input  -57.11 | X-H torsion

> <Gold.Protein.ActiveResidues>
 VAL166  LYS551  ARG553  GLY616  TRP617  ASP618  TYR619  PRO620  LYS621  CYS622 
 ASP623  PHE694  ASN695  SER759  ASP760  ASP761  ALA762  ILE779  LEU786  VAL792 
 PHE793  MET794  SER795  GLU796  ALA797  LYS798  CYS799  TRP800  GLU811  SER814 

> <Gold.Protein.RotatedAtoms>
  150.6924  134.3926  159.5082 H   0  0  0  0  0  0  0  0  0  0  0  0  # atno 6907 bound_to 6896
  152.1712  134.8830  160.0543 H   0  0  0  0  0  0  0  0  0  0  0  0  # atno 6908 bound_to 6896
  151.9855  133.3738  159.4161 H   0  0  0  0  0  0  0  0  0  0  0  0  # atno 6909 bound_to 6896
  144.8304  140.5721  143.5519 H   0  0  0  0  0  0  0  0  0  0  0  0  # atno 7974 bound_to 7965
  155.1258  140.3252  155.4486 H   0  0  0  0  0  0  0  0  0  0  0  0  # atno 8008 bound_to 7997
  156.2649  140.2019  156.6327 H   0  0  0  0  0  0  0  0  0  0  0  0  # atno 8009 bound_to 7997
  154.6650  140.0543  157.0090 H   0  0  0  0  0  0  0  0  0  0  0  0  # atno 8010 bound_to 7997
  140.6834  143.6707  150.8188 H   0  0  0  0  0  0  0  0  0  0  0  0  # atno 10167 bound_to 10162
  156.1358  130.4157  150.0188 H   0  0  0  0  0  0  0  0  0  0  0  0  # atno 10718 bound_to 10713
  154.6299  135.5425  153.7668 H   0  0  0  0  0  0  0  0  0  0  0  0  # atno 10763 bound_to 10752
  153.0279  135.6433  154.1317 H   0  0  0  0  0  0  0  0  0  0  0  0  # atno 10764 bound_to 10752
  154.1247  135.2918  155.3180 H   0  0  0  0  0  0  0  0  0  0  0  0  # atno 10765 bound_to 10752
  140.1948  134.8381  157.2953 H   0  0  0  0  0  0  0  0  0  0  0  0  # atno 11005 bound_to 11000
  145.4908  139.1489  143.3710 LP  0  0  0  0  0  0  0  0  0  0  0  0  # atno 17320 bound_to 7965
  146.2607  140.5046  142.8854 LP  0  0  0  0  0  0  0  0  0  0  0  0  # atno 17321 bound_to 7965
  140.0410  143.5346  152.2717 LP  0  0  0  0  0  0  0  0  0  0  0  0  # atno 17342 bound_to 10162
  139.6173  144.7622  151.2818 LP  0  0  0  0  0  0  0  0  0  0  0  0  # atno 17343 bound_to 10162
  156.8088  130.9317  151.3644 LP  0  0  0  0  0  0  0  0  0  0  0  0  # atno 17370 bound_to 10713
  157.6531  130.8901  149.9673 LP  0  0  0  0  0  0  0  0  0  0  0  0  # atno 17371 bound_to 10713
  140.2119  134.4128  155.7608 LP  0  0  0  0  0  0  0  0  0  0  0  0  # atno 17394 bound_to 11000
  141.2227  133.7122  156.8352 LP  0  0  0  0  0  0  0  0  0  0  0  0  # atno 17395 bound_to 11000

$$$$
