AV-unprocessed.smi:3000|AV-procd|sdf|11429|dock1
  -GOLD-   2272016353D 1   1.00000     0.00000
 Structure written by MMmdl.
 44 45  0  0  0  0  0  0  0  0  1 V2000
  144.2490  132.4574  149.3838 C   0  0  0  0  0  0  0  0  0  0  0  0
  144.9593  132.7143  150.6183 N   0  0  0  0  0  0  0  0  0  0  0  0
  145.9429  133.6518  150.8622 C   0  0  0  0  0  0  0  0  0  0  0  0
  146.2852  133.4978  152.1720 C   0  0  0  0  0  0  0  0  0  0  0  0
  147.2660  134.2667  152.8469 N   0  0  0  0  0  0  0  0  0  0  0  0
  147.6305  134.1705  154.1354 C   0  0  0  0  0  0  0  0  0  0  0  0
  147.1535  133.3744  154.9433 O   0  0  0  0  0  0  0  0  0  0  0  0
  148.5932  135.0606  154.4283 N   0  0  0  0  0  0  0  0  0  0  0  0
  149.2829  135.2912  155.7073 C   0  0  1  0  0  0  0  0  0  0  0  0
  148.2980  135.9170  156.7280 C   0  0  0  0  0  0  0  0  0  0  0  0
  149.7830  133.9293  156.2733 C   0  0  0  0  0  0  0  0  0  0  0  0
  150.2420  134.0369  157.6060 O   0  0  0  0  0  0  0  0  0  0  0  0
  150.4759  136.2732  155.4256 C   0  0  0  0  0  0  0  0  0  0  0  0
  151.2148  136.7382  156.7103 C   0  0  0  0  0  0  0  0  0  0  0  0
  152.4085  137.6547  156.3972 C   0  0  0  0  0  0  0  0  0  0  0  0
  151.9742  138.8761  155.5779 C   0  0  0  0  0  0  0  0  0  0  0  0
  151.2612  138.4389  154.2927 C   0  0  0  0  0  0  0  0  0  0  0  0
  150.0658  137.5232  154.6000 C   0  0  0  0  0  0  0  0  0  0  0  0
  145.4662  132.4435  152.6664 C   0  0  0  0  0  0  0  0  0  0  0  0
  144.6672  131.9780  151.7176 N   0  0  0  0  0  0  0  0  0  0  0  0
  144.7158  133.0028  148.5631 H   0  0  0  0  0  0  0  0  0  0  0  0
  143.2127  132.7819  149.4818 H   0  0  0  0  0  0  0  0  0  0  0  0
  144.2711  131.3909  149.1568 H   0  0  0  0  0  0  0  0  0  0  0  0
  146.3029  134.3293  150.1020 H   0  0  0  0  0  0  0  0  0  0  0  0
  147.7413  134.9612  152.2899 H   0  0  0  0  0  0  0  0  0  0  0  0
  148.8950  135.6570  153.6719 H   0  0  0  0  0  0  0  0  0  0  0  0
  148.8226  136.2794  157.6125 H   0  0  0  0  0  0  0  0  0  0  0  0
  147.5575  135.1960  157.0742 H   0  0  0  0  0  0  0  0  0  0  0  0
  147.7437  136.7546  156.3057 H   0  0  0  0  0  0  0  0  0  0  0  0
  148.9886  133.1832  156.2630 H   0  0  0  0  0  0  0  0  0  0  0  0
  150.5855  133.5164  155.6620 H   0  0  0  0  0  0  0  0  0  0  0  0
  151.1587  133.8082  157.6266 H   0  0  0  0  0  0  0  0  0  0  0  0
  151.2123  135.7301  154.8317 H   0  0  0  0  0  0  0  0  0  0  0  0
  150.5281  137.2642  157.3744 H   0  0  0  0  0  0  0  0  0  0  0  0
  151.5907  135.8836  157.2708 H   0  0  0  0  0  0  0  0  0  0  0  0
  152.8805  137.9797  157.3248 H   0  0  0  0  0  0  0  0  0  0  0  0
  153.1650  137.0941  155.8464 H   0  0  0  0  0  0  0  0  0  0  0  0
  151.3085  139.5019  156.1739 H   0  0  0  0  0  0  0  0  0  0  0  0
  152.8419  139.4894  155.3335 H   0  0  0  0  0  0  0  0  0  0  0  0
  150.9238  139.3161  153.7399 H   0  0  0  0  0  0  0  0  0  0  0  0
  151.9642  137.9160  153.6430 H   0  0  0  0  0  0  0  0  0  0  0  0
  149.6190  137.2307  153.6510 H   0  0  0  0  0  0  0  0  0  0  0  0
  149.3069  138.0964  155.1336 H   0  0  0  0  0  0  0  0  0  0  0  0
  145.4157  132.0052  153.6519 H   0  0  0  0  0  0  0  0  0  0  0  0
  1  2  1  0  0  0  0
  1 21  1  0  0  0  0
  1 22  1  0  0  0  0
  1 23  1  0  0  0  0
  2 20  1  0  0  0  0
  2  3  1  0  0  0  0
  3  4  2  0  0  0  0
  3 24  1  0  0  0  0
  4  5  1  0  0  0  0
  4 19  1  0  0  0  0
  5  6  1  0  0  0  0
  5 25  1  0  0  0  0
  6  7  2  0  0  0  0
  6  8  1  0  0  0  0
  8  9  1  0  0  0  0
  8 26  1  0  0  0  0
  9 10  1  0  0  0  0
  9 11  1  0  0  0  0
  9 13  1  0  0  0  0
 10 27  1  0  0  0  0
 10 28  1  0  0  0  0
 10 29  1  0  0  0  0
 11 12  1  0  0  0  0
 11 30  1  0  0  0  0
 11 31  1  0  0  0  0
 12 32  1  0  0  0  0
 13 18  1  0  0  0  0
 13 14  1  0  0  0  0
 13 33  1  0  0  0  0
 14 15  1  0  0  0  0
 14 34  1  0  0  0  0
 14 35  1  0  0  0  0
 15 16  1  0  0  0  0
 15 36  1  0  0  0  0
 15 37  1  0  0  0  0
 16 17  1  0  0  0  0
 16 38  1  0  0  0  0
 16 39  1  0  0  0  0
 17 18  1  0  0  0  0
 17 40  1  0  0  0  0
 17 41  1  0  0  0  0
 18 42  1  0  0  0  0
 18 43  1  0  0  0  0
 19 20  2  0  0  0  0
 19 44  1  0  0  0  0
M  END
> <s_m_source_file>
AV-unprocessed.smi

> <i_m_source_file_index>
3000

> <i_lp_mmshare_version>
43012

> <i_f3d_flags>
0

> <s_epik_input>
W0NIM11uMVtjSF1jKFtjSF1uMSlbTkhdQyg9TylbTkhdW0NAQF0oW0NIM10pKFtDSDJdW09IXSlbQ0hdMltDSDJdW0NIMl1bQ0gyXVtDSDJdW0NIMl0y

> <s_epik_cmdline>
J2VwaWtfcHl0aG9uJywgJy1waCcsICc3LjAnLCAnLXRuJywgJzgnLCAnLW1hJywgJzIwMCcsICctbWV0YWxfYmluZGluZycsICctaW1hZScsICc8aW5maWxlLm1hZT4nLCAnLW9tYWUnLCAnPG91dGZpbGUubWFlPic=

> <r_lp_tautomer_probability>
1

> <r_epik_Ionization_Penalty>
0.000189471

> <r_epik_Ionization_Penalty_Charging>
0

> <r_epik_Ionization_Penalty_Neutral>
0.000189471

> <r_epik_State_Penalty>
-0

> <r_epik_Charging_Adjusted_Penalty>
0

> <i_epik_Tot_Q>
0

> <i_epik_Tot_abs_Q>
0

> <r_epik_Metal_State_Penalty>
-0

> <b_epik_Metal_Only>
0

> <s_lp_Force_Field>
OPLS_2005

> <r_lp_Energy>
20.4121

> <b_lp_Chiralities_Consistent>
1

> <s_lp_Variant>
AV-unprocessed.smi:3000-1

> <Gold.Version>
5.8.1

> <Gold.Id.Protein>
6NUR|6NUR_protein|mol2

> <Gold.PLP.Fitness>
40.6975

> <Gold.PLP.PLP>
-31.3170

> <Gold.PLP.part.hbond>
-3.0000

> <Gold.PLP.part.metal>
0.0000

> <Gold.PLP.part.buried>
-5.5650

> <Gold.PLP.part.nonpolar>
-24.3316

> <Gold.PLP.part.repulsive>
0.1646

> <Gold.PLP.ligand.clash>
0.0000

> <Gold.PLP.ligand.torsion>
0.3512

> <Gold.PLP.Chemscore.Hbond>
2.3527

> <Gold.PLP.Chemscore.CHOScore>
1.0000

> <Gold.PLP.Chemscore.Metal>
0.0000

> <Gold.Chemscore.Hbonds>
donor molecule, donor type, donor heavy atom, donor atom, acceptor molecule, acceptor atom, score
      L1  H     5    25       P1  7948  1.00
      L1  H     8    26       P1  7948  1.00
      L1  C     3    24       P1  7921  0.87

> <Gold.PLP.Chemscore.Internal.Correction>
0.0246

> <Gold.Rescore>
     Score         DG    S(hbond)    S(metal)    S(lipo)     H(rot)  DE(clash)    DE(int)     intcor
     13.27     -14.90       1.79        0.00      73.63       2.02       0.05       1.58       ----

> <Gold.Chemscore.Fitness>
13.2715

> <Gold.Chemscore.DG>
-14.8956

> <Gold.Chemscore.ZeroCoef>
-5.4800

> <Gold.Chemscore.Hbond>
1.7853

> <Gold.Chemscore.Metal>
0.0000

> <Gold.Chemscore.Lipo>
73.6325

> <Gold.Chemscore.Internal_Hbond>
0.0000

> <Gold.Chemscore.DEClash>
0.0456

> <Gold.Chemscore.DEInternal>
1.5785

> <Gold.Chemscore.Rot>
2.0165

> <Gold.Chemscore.Internal.Correction>
   9.000000E+99

> <Gold.Chemscore.Hbonds>
donor molecule, donor type, donor heavy atom, donor atom, acceptor molecule, acceptor atom, score
      L1  H     5    25       P1  7948  0.90
      L1  H     8    26       P1  7948  0.90

> <Gold.Chemscore.Hbond.Weighted>
-5.9628

> <Gold.Chemscore.Metal.Weighted>
-0.0000

> <Gold.Chemscore.Lipo.Weighted>
-8.6150

> <Gold.Chemscore.Internal_Hbond.Weighted>
0.0000

> <Gold.Chemscore.DEClash.Weighted>
0.0456

> <Gold.Chemscore.DEInternal.Weighted>
1.5785

> <Gold.Chemscore.Rot.Weighted>
5.1622

> <Gold.Chemscore.Internal.Correction.Weighted>
   9.000000E+99

> <Gold.Protein.RotatedTorsions>
[ 6907 6896 6895 6894 ] final -143.56 input  -60.11 | X-H torsion
[ 7974 7965 7964 7962 ] final   82.79 input  175.53 | X-H torsion
[ 8008 7997 7996 7995 ] final -128.31 input   59.86 | X-H torsion
[ 10167 10162 10161 10158 ] final   40.78 input  -65.29 | X-H torsion
[ 10718 10713 10712 10709 ] final  159.71 input   66.30 | X-H torsion
[ 10763 10752 10751 10750 ] final -160.50 input  -60.55 | X-H torsion
[ 11005 11000 10999 10996 ] final   -9.46 input  -57.11 | X-H torsion

> <Gold.Protein.ActiveResidues>
 VAL166  LYS551  ARG553  GLY616  TRP617  ASP618  TYR619  PRO620  LYS621  CYS622 
 ASP623  PHE694  ASN695  SER759  ASP760  ASP761  ALA762  ILE779  LEU786  VAL792 
 PHE793  MET794  SER795  GLU796  ALA797  LYS798  CYS799  TRP800  GLU811  SER814 

> <Gold.Protein.RotatedAtoms>
  151.1021  133.5235  159.2609 H   0  0  0  0  0  0  0  0  0  0  0  0  # atno 6907 bound_to 6896
  151.2062  135.0462  159.8902 H   0  0  0  0  0  0  0  0  0  0  0  0  # atno 6908 bound_to 6896
  152.5444  134.0843  159.8302 H   0  0  0  0  0  0  0  0  0  0  0  0  # atno 6909 bound_to 6896
  145.6205  139.2385  143.2141 H   0  0  0  0  0  0  0  0  0  0  0  0  # atno 7974 bound_to 7965
  155.2606  140.0436  157.2997 H   0  0  0  0  0  0  0  0  0  0  0  0  # atno 8008 bound_to 7997
  154.5713  140.2374  155.8157 H   0  0  0  0  0  0  0  0  0  0  0  0  # atno 8009 bound_to 7997
  156.2124  140.2994  155.9771 H   0  0  0  0  0  0  0  0  0  0  0  0  # atno 8010 bound_to 7997
  140.3708  144.2107  150.6133 H   0  0  0  0  0  0  0  0  0  0  0  0  # atno 10167 bound_to 10162
  157.1604  131.0586  151.2235 H   0  0  0  0  0  0  0  0  0  0  0  0  # atno 10718 bound_to 10713
  154.7385  135.3063  154.8769 H   0  0  0  0  0  0  0  0  0  0  0  0  # atno 10763 bound_to 10752
  153.9591  135.6755  153.4749 H   0  0  0  0  0  0  0  0  0  0  0  0  # atno 10764 bound_to 10752
  153.0986  135.4923  154.8748 H   0  0  0  0  0  0  0  0  0  0  0  0  # atno 10765 bound_to 10752
  140.7343  133.8723  155.8918 H   0  0  0  0  0  0  0  0  0  0  0  0  # atno 11005 bound_to 11000
  146.1435  140.7025  142.9356 LP  0  0  0  0  0  0  0  0  0  0  0  0  # atno 17320 bound_to 7965
  144.7233  140.4444  143.6992 LP  0  0  0  0  0  0  0  0  0  0  0  0  # atno 17321 bound_to 7965
  140.5035  143.2311  151.8643 LP  0  0  0  0  0  0  0  0  0  0  0  0  # atno 17342 bound_to 10162
  139.4804  144.5032  151.9032 LP  0  0  0  0  0  0  0  0  0  0  0  0  # atno 17343 bound_to 10162
  157.4138  130.7400  149.6859 LP  0  0  0  0  0  0  0  0  0  0  0  0  # atno 17370 bound_to 10713
  155.9755  130.4088  150.3847 LP  0  0  0  0  0  0  0  0  0  0  0  0  # atno 17371 bound_to 10713
  140.9893  134.1300  157.4423 LP  0  0  0  0  0  0  0  0  0  0  0  0  # atno 17394 bound_to 11000
  139.8819  135.0035  156.6193 LP  0  0  0  0  0  0  0  0  0  0  0  0  # atno 17395 bound_to 11000

$$$$
