#       Name:                AV-unprocessed.smi:134
#       Creating user name   scv26
#       Creation time:       Thu Mar 26 18:31:10 2020


#       File generated by GOLD software.
#

@<TRIPOS>MOLECULE
AV-unprocessed.smi:134
    59    62     1
SMALL
NO_CHARGES


@<TRIPOS>ATOM
      1 ****        -0.9334   3.6057   2.1782 O.2            1 S1                 0.0000
      2 ****        -0.4140   3.0285   1.2244 C.2            1 S1                 0.0000
      3 ****         1.0896   3.2416   0.9657 C.3            1 S1                 0.0000
      4 ****         1.6545   2.4524  -0.1550 N.am           1 S1                 0.0000
      5 ****         1.5783   2.9854  -1.4663 C.2            1 S1                 0.0000
      6 ****         1.0620   4.0832  -1.6787 O.2            1 S1                 0.0000
      7 ****         2.1312   2.1452  -2.5222 C.2            1 S1                 0.0000
      8 ****         2.0947   2.5683  -3.7971 F              1 S1                 0.0000
      9 ****         2.6751   0.9438  -2.2404 C.2            1 S1                 0.0000
     10 ****         2.7476   0.4368  -0.9553 N.am           1 S1                 0.0000
     11 ****         3.3717  -0.9133  -0.6684 C.3            1 S1                 0.0000
     12 ****         2.2869  -1.9879  -0.5544 C.3            1 S1                 0.0000
     13 ****         2.1789  -2.4682  -1.9840 C.3            1 S1                 0.0000
     14 ****         3.6287  -2.3766  -2.4486 C.3            1 S1                 0.0000
     15 ****         4.1978  -1.2783  -1.7366 O.3            1 S1                 0.0000
     16 ****         2.2242   1.1863   0.1208 C.2            1 S1                 0.0000
     17 ****         2.2561   0.7409   1.2698 O.2            1 S1                 0.0000
     18 ****        -1.0753   2.1961   0.3974 N.am           1 S1                 0.0000
     19 ****        -2.4503   1.8342   0.3987 C.ar           1 S1                 0.0000
     20 ****        -3.4654   2.7006   0.8723 C.ar           1 S1                 0.0000
     21 ****        -4.8172   2.3095   0.8202 C.ar           1 S1                 0.0000
     22 ****        -5.1706   1.0569   0.2858 C.ar           1 S1                 0.0000
     23 ****        -4.1711   0.1955  -0.2028 C.ar           1 S1                 0.0000
     24 ****        -2.8166   0.5813  -0.1505 C.ar           1 S1                 0.0000
     25 ****        -1.5870  -0.5306  -0.7674 S.3            1 S1                 0.0000
     26 ****        -1.4054  -1.5937   0.6261 C.ar           1 S1                 0.0000
     27 ****        -0.6643  -1.1684   1.7466 C.ar           1 S1                 0.0000
     28 ****        -0.5067  -2.0269   2.8514 C.ar           1 S1                 0.0000
     29 ****        -1.0936  -3.3078   2.8375 C.ar           1 S1                 0.0000
     30 ****        -0.8972  -4.3613   4.1895 Cl             1 S1                 0.0000
     31 ****        -1.8405  -3.7291   1.7191 C.ar           1 S1                 0.0000
     32 ****        -1.9975  -2.8718   0.6126 C.ar           1 S1                 0.0000
     33 ****         1.2534   4.3076   0.8008 H              1 S1                 0.0000
     34 ****         1.6236   3.0401   1.8955 H              1 S1                 0.0000
     35 ****         3.0615   0.3650  -3.0658 H              1 S1                 0.0000
     36 ****         3.9672  -0.7804   0.2364 H              1 S1                 0.0000
     37 ****         2.6510  -2.7859   0.0937 H              1 S1                 0.0000
     38 ****         1.3565  -1.5973  -0.1472 H              1 S1                 0.0000
     39 ****         1.7653  -3.4733  -2.0686 H              1 S1                 0.0000
     40 ****         1.5499  -1.7902  -2.5622 H              1 S1                 0.0000
     41 ****         4.1707  -3.2831  -2.1766 H              1 S1                 0.0000
     42 ****         3.7144  -2.2414  -3.5269 H              1 S1                 0.0000
     43 ****        -0.5051   1.7064  -0.2769 H              1 S1                 0.0000
     44 ****        -3.2303   3.6782   1.2642 H              1 S1                 0.0000
     45 ****        -5.5848   2.9765   1.1841 H              1 S1                 0.0000
     46 ****        -6.2082   0.7595   0.2452 H              1 S1                 0.0000
     47 ****        -4.4461  -0.7640  -0.6158 H              1 S1                 0.0000
     48 ****        -0.2139  -0.1876   1.7618 H              1 S1                 0.0000
     49 ****         0.0649  -1.7014   3.7081 H              1 S1                 0.0000
     50 ****        -2.2918  -4.7104   1.7076 H              1 S1                 0.0000
     51 ****        -2.5677  -3.1983  -0.2448 H              1 S1                 0.0000
     52 ****        -0.3813   4.1976   2.7654 LP             1 S1                 0.0000
     53 ****        -1.9079   3.4832   2.3665 LP             1 S1                 0.0000
     54 ****         0.6874   4.6150  -0.9192 LP             1 S1                 0.0000
     55 ****         1.0174   4.4429  -2.6107 LP             1 S1                 0.0000
     56 ****         5.0954  -1.5429  -1.3842 LP             1 S1                 0.0000
     57 ****         4.2991  -0.5001  -2.3564 LP             1 S1                 0.0000
     58 ****         1.8758   1.2760   2.0242 LP             1 S1                 0.0000
     59 ****         2.6622  -0.1554   1.4475 LP             1 S1                 0.0000
@<TRIPOS>BOND
    1    1    2 2     
    2    2    3 1     
    3    2   18 am    
    4    3    4 1     
    5    3   33 1     
    6    3   34 1     
    7    4   16 am    
    8    4    5 am    
    9    5    6 2     
   10    5    7 1     
   11    7    8 1     
   12    7    9 2     
   13    9   10 1     
   14    9   35 1     
   15   10   11 1     
   16   10   16 am    
   17   11   15 1     
   18   11   12 1     
   19   11   36 1     
   20   12   13 1     
   21   12   37 1     
   22   12   38 1     
   23   13   14 1     
   24   13   39 1     
   25   13   40 1     
   26   14   15 1     
   27   14   41 1     
   28   14   42 1     
   29   16   17 2     
   30   18   19 1     
   31   18   43 1     
   32   19   24 ar    
   33   19   20 ar    
   34   20   21 ar    
   35   20   44 1     
   36   21   22 ar    
   37   21   45 1     
   38   22   23 ar    
   39   22   46 1     
   40   23   24 ar    
   41   23   47 1     
   42   24   25 1     
   43   25   26 1     
   44   26   32 ar    
   45   26   27 ar    
   46   27   28 ar    
   47   27   48 1     
   48   28   29 ar    
   49   28   49 1     
   50   29   30 1     
   51   29   31 ar    
   52   31   32 ar    
   53   31   50 1     
   54   32   51 1     
   55    1   52 1     
   56    1   53 1     
   57    6   54 1     
   58    6   55 1     
   59   15   56 1     
   60   15   57 1     
   61   17   58 1     
   62   17   59 1     
@<TRIPOS>SUBSTRUCTURE
      1 S1             1
@<TRIPOS>SET
LONE_PAIRS      STATIC     ATOMS    <user>   **** ""
8 52 53 54 55 56 57 58 59
DONOR_HYDROGENS      STATIC     ATOMS    <user>   **** ""
1 43
ATOM$BLUE        STATIC     ATOMS    COLORGROUP SYSTEM
8 52 53 54 55 56 57 58 59
ATOM$RED        STATIC     ATOMS    COLORGROUP SYSTEM
1 43
