#       Name:                AV-unprocessed.smi:1943
#       Creating user name   scv26
#       Creation time:       Fri Mar 27 09:59:43 2020


#       File generated by GOLD software.
#

@<TRIPOS>MOLECULE
AV-unprocessed.smi:1943
    54    55     1
SMALL
NO_CHARGES


@<TRIPOS>ATOM
      1 ****        -2.3402  -3.4477   3.2373 C.3            1 S1                 0.0000
      2 ****        -2.6869  -2.0107   3.0738 N.4            1 S1                 1.0000
      3 ****        -4.0884  -1.7723   3.5082 C.3            1 S1                 0.0000
      4 ****        -2.2951  -1.3977   1.7523 C.3            1 S1                 0.0000
      5 ****        -2.7849  -2.2706   0.5697 C.3            1 S1                 0.0000
      6 ****        -2.9156   0.0159   1.5899 C.3            1 S1                 0.0000
      7 ****        -0.7440  -1.2400   1.7224 C.3            1 S1                 0.0000
      8 ****        -0.2357  -0.6223   0.4983 N.am           1 S1                 0.0000
      9 ****         0.3031  -1.2756  -0.5447 C.2            1 S1                 0.0000
     10 ****         0.4411  -2.4985  -0.5828 O.2            1 S1                 0.0000
     11 ****         0.6863  -0.4035  -1.7071 C.ar           1 S1                 0.0000
     12 ****         1.3082   0.7649  -1.4198 N.ar           1 S1                 0.0000
     13 ****         1.6943   1.5510  -2.4326 C.ar           1 S1                 0.0000
     14 ****         2.3282   2.7578  -2.1125 N.pl3          1 S1                 0.0000
     15 ****         2.6884   3.1084  -0.7392 C.3            1 S1                 0.0000
     16 ****         4.1554   2.7227  -0.4771 C.3            1 S1                 0.0000
     17 ****         4.9947   3.3826  -1.4227 O.3            1 S1                 0.0000
     18 ****         4.6711   3.0476  -2.7711 C.3            1 S1                 0.0000
     19 ****         3.2099   3.4364  -3.0616 C.3            1 S1                 0.0000
     20 ****         1.5143   1.2721  -3.7289 N.ar           1 S1                 0.0000
     21 ****         0.8976   0.1137  -4.0417 C.ar           1 S1                 0.0000
     22 ****         0.4512  -0.7840  -3.0528 C.ar           1 S1                 0.0000
     23 ****        -0.3609  -2.2408  -3.5142 Cl             1 S1                 0.0000
     24 ****        -2.9766  -4.0836   2.6209 H              1 S1                 0.0000
     25 ****        -2.4851  -3.7520   4.2743 H              1 S1                 0.0000
     26 ****        -1.3029  -3.6665   2.9929 H              1 S1                 0.0000
     27 ****        -4.8029  -2.1378   2.7702 H              1 S1                 0.0000
     28 ****        -4.2832  -0.7161   3.6920 H              1 S1                 0.0000
     29 ****        -4.2929  -2.2846   4.4490 H              1 S1                 0.0000
     30 ****        -2.6185  -1.7766  -0.3880 H              1 S1                 0.0000
     31 ****        -3.8535  -2.4757   0.6335 H              1 S1                 0.0000
     32 ****        -2.2645  -3.2275   0.5236 H              1 S1                 0.0000
     33 ****        -2.5822   0.5067   0.6753 H              1 S1                 0.0000
     34 ****        -2.6465   0.6684   2.4215 H              1 S1                 0.0000
     35 ****        -4.0035  -0.0153   1.5241 H              1 S1                 0.0000
     36 ****        -0.4266  -0.6113   2.5553 H              1 S1                 0.0000
     37 ****        -0.2377  -2.1926   1.8708 H              1 S1                 0.0000
     38 ****        -0.3045   0.3833   0.4302 H              1 S1                 0.0000
     39 ****         2.5638   4.1844  -0.6118 H              1 S1                 0.0000
     40 ****         2.0306   2.6452  -0.0040 H              1 S1                 0.0000
     41 ****         4.4500   3.0226   0.5286 H              1 S1                 0.0000
     42 ****         4.2927   1.6421  -0.5431 H              1 S1                 0.0000
     43 ****         5.3441   3.5836  -3.4403 H              1 S1                 0.0000
     44 ****         4.8319   1.9817  -2.9413 H              1 S1                 0.0000
     45 ****         2.9599   3.2188  -4.0995 H              1 S1                 0.0000
     46 ****         3.0852   4.5135  -2.9440 H              1 S1                 0.0000
     47 ****         0.7541  -0.0947  -5.0916 H              1 S1                 0.0000
     48 ****        -2.1247  -1.5246   3.7579 H              1 S1                 0.0000
     49 ****         0.1449  -3.0594   0.1903 LP             1 S1                 0.0000
     50 ****         0.8494  -2.9308  -1.3868 LP             1 S1                 0.0000
     51 ****         1.4755   1.0347  -0.4715 LP             1 S1                 0.0000
     52 ****         5.9436   3.1206  -1.2465 LP             1 S1                 0.0000
     53 ****         4.8945   4.3706  -1.3052 LP             1 S1                 0.0000
     54 ****         1.8262   1.9007  -4.4413 LP             1 S1                 0.0000
@<TRIPOS>BOND
    1    1    2 1     
    2    1   24 1     
    3    1   25 1     
    4    1   26 1     
    5    2    3 1     
    6    2    4 1     
    7    2   48 1     
    8    3   27 1     
    9    3   28 1     
   10    3   29 1     
   11    4    5 1     
   12    4    6 1     
   13    4    7 1     
   14    5   30 1     
   15    5   31 1     
   16    5   32 1     
   17    6   33 1     
   18    6   34 1     
   19    6   35 1     
   20    7    8 1     
   21    7   36 1     
   22    7   37 1     
   23    8    9 am    
   24    8   38 1     
   25    9   10 2     
   26    9   11 1     
   27   11   22 ar    
   28   11   12 ar    
   29   12   13 ar    
   30   13   14 1     
   31   13   20 ar    
   32   14   19 1     
   33   14   15 1     
   34   15   16 1     
   35   15   39 1     
   36   15   40 1     
   37   16   17 1     
   38   16   41 1     
   39   16   42 1     
   40   17   18 1     
   41   18   19 1     
   42   18   43 1     
   43   18   44 1     
   44   19   45 1     
   45   19   46 1     
   46   20   21 ar    
   47   21   22 ar    
   48   21   47 1     
   49   22   23 1     
   50   10   49 1     
   51   10   50 1     
   52   12   51 1     
   53   17   52 1     
   54   17   53 1     
   55   20   54 1     
@<TRIPOS>SUBSTRUCTURE
      1 S1             1
@<TRIPOS>SET
LONE_PAIRS      STATIC     ATOMS    <user>   **** ""
6 49 50 51 52 53 54
DONOR_HYDROGENS      STATIC     ATOMS    <user>   **** ""
2 48 38
ATOM$BLUE        STATIC     ATOMS    COLORGROUP SYSTEM
6 49 50 51 52 53 54
ATOM$RED        STATIC     ATOMS    COLORGROUP SYSTEM
2 48 38
