AV-unprocessed.smi:555|AV-procd|sdf|2911|dock2
  -GOLD-   2262023403D 1   1.00000     0.00000
 Structure written by MMmdl.
 50 51  0  0  0  0  0  0  0  0  2 V2000
  147.7605  136.0782  162.0867 C   0  0  0  0  0  0  0  0  0  0  0  0
  147.1543  137.0518  161.2548 O   0  0  0  0  0  0  0  0  0  0  0  0
  146.7206  136.5138  160.0173 C   0  0  0  0  0  0  0  0  0  0  0  0
  147.9393  136.3300  159.1006 C   0  0  0  0  0  0  0  0  0  0  0  0
  147.5775  135.6381  157.8596 N   0  0  0  0  0  0  0  0  0  0  0  0
  146.5448  136.2393  157.1605 N   0  0  0  0  0  0  0  0  0  0  0  0
  146.1203  135.7205  156.0537 C   0  0  0  0  0  0  0  0  0  0  0  0
  145.0071  136.3343  155.2779 C   0  0  0  0  0  0  0  0  0  0  0  0
  144.3631  137.2926  155.7071 O   0  0  0  0  0  0  0  0  0  0  0  0
  144.7646  135.7706  154.0808 N   0  0  0  0  0  0  0  0  0  0  0  0
  143.7362  136.1939  153.1323 C   0  0  2  0  0  0  0  0  0  0  0  0
  142.5576  135.2126  153.1455 C   0  0  0  0  0  0  0  0  0  0  0  0
  142.9290  133.8474  152.5375 C   0  0  0  0  0  0  0  0  0  0  0  0
  143.4713  133.9719  151.1516 N   0  3  2  0  0  0  0  0  0  0  0  0
  143.7625  132.6524  150.4991 C   0  0  0  0  0  0  0  0  0  0  0  0
  144.9386  131.9142  151.1732 C   0  0  0  0  0  0  0  0  0  0  0  0
  144.0708  132.7833  148.9920 C   0  0  0  0  0  0  0  0  0  0  0  0
  144.6340  134.9078  151.1203 C   0  0  0  0  0  0  0  0  0  0  0  0
  144.2846  136.2899  151.6998 C   0  0  0  0  0  0  0  0  0  0  0  0
  146.7161  134.5057  155.5241 C   0  0  0  0  0  0  0  0  0  0  0  0
  147.7204  133.9286  156.2199 C   0  0  0  0  0  0  0  0  0  0  0  0
  148.2153  134.4907  157.4777 C   0  0  0  0  0  0  0  0  0  0  0  0
  149.1193  133.9767  158.1355 O   0  0  0  0  0  0  0  0  0  0  0  0
  148.0772  136.5409  163.0214 H   0  0  0  0  0  0  0  0  0  0  0  0
  148.6412  135.6450  161.6106 H   0  0  0  0  0  0  0  0  0  0  0  0
  147.0624  135.2758  162.3284 H   0  0  0  0  0  0  0  0  0  0  0  0
  146.2204  135.5580  160.1816 H   0  0  0  0  0  0  0  0  0  0  0  0
  145.9997  137.1883  159.5523 H   0  0  0  0  0  0  0  0  0  0  0  0
  148.3673  137.3068  158.8675 H   0  0  0  0  0  0  0  0  0  0  0  0
  148.7264  135.7875  159.6269 H   0  0  0  0  0  0  0  0  0  0  0  0
  145.3378  134.9832  153.8130 H   0  0  0  0  0  0  0  0  0  0  0  0
  143.3695  137.1744  153.4409 H   0  0  0  0  0  0  0  0  0  0  0  0
  142.1904  135.0798  154.1640 H   0  0  0  0  0  0  0  0  0  0  0  0
  141.7286  135.6403  152.5798 H   0  0  0  0  0  0  0  0  0  0  0  0
  143.6563  133.3345  153.1688 H   0  0  0  0  0  0  0  0  0  0  0  0
  142.0217  133.2464  152.5467 H   0  0  0  0  0  0  0  0  0  0  0  0
  142.8738  132.0266  150.5983 H   0  0  0  0  0  0  0  0  0  0  0  0
  145.2164  131.0221  150.6107 H   0  0  0  0  0  0  0  0  0  0  0  0
  144.6940  131.5673  152.1762 H   0  0  0  0  0  0  0  0  0  0  0  0
  145.8230  132.5490  151.2364 H   0  0  0  0  0  0  0  0  0  0  0  0
  144.4036  131.8320  148.5755 H   0  0  0  0  0  0  0  0  0  0  0  0
  144.8589  133.5143  148.8073 H   0  0  0  0  0  0  0  0  0  0  0  0
  143.1928  133.0698  148.4133 H   0  0  0  0  0  0  0  0  0  0  0  0
  145.4709  134.4684  151.6656 H   0  0  0  0  0  0  0  0  0  0  0  0
  144.9748  135.0716  150.1000 H   0  0  0  0  0  0  0  0  0  0  0  0
  143.5377  136.7646  151.0620 H   0  0  0  0  0  0  0  0  0  0  0  0
  145.1601  136.9396  151.6688 H   0  0  0  0  0  0  0  0  0  0  0  0
  146.3713  134.0691  154.5977 H   0  0  0  0  0  0  0  0  0  0  0  0
  148.1729  133.0251  155.8382 H   0  0  0  0  0  0  0  0  0  0  0  0
  142.7423  134.4046  150.6021 H   0  0  0  0  0  0  0  0  0  0  0  0
  1  2  1  0  0  0  0
  1 24  1  0  0  0  0
  1 25  1  0  0  0  0
  1 26  1  0  0  0  0
  2  3  1  0  0  0  0
  3  4  1  0  0  0  0
  3 27  1  0  0  0  0
  3 28  1  0  0  0  0
  4  5  1  0  0  0  0
  4 29  1  0  0  0  0
  4 30  1  0  0  0  0
  5 22  1  0  0  0  0
  5  6  1  0  0  0  0
  6  7  2  0  0  0  0
  7  8  1  0  0  0  0
  7 20  1  0  0  0  0
  8  9  2  0  0  0  0
  8 10  1  0  0  0  0
 10 11  1  0  0  0  0
 10 31  1  0  0  0  0
 11 19  1  0  0  0  0
 11 12  1  0  0  0  0
 11 32  1  0  0  0  0
 12 13  1  0  0  0  0
 12 33  1  0  0  0  0
 12 34  1  0  0  0  0
 13 14  1  0  0  0  0
 13 35  1  0  0  0  0
 13 36  1  0  0  0  0
 14 15  1  0  0  0  0
 14 18  1  0  0  0  0
 14 50  1  0  0  0  0
 15 16  1  0  0  0  0
 15 17  1  0  0  0  0
 15 37  1  0  0  0  0
 16 38  1  0  0  0  0
 16 39  1  0  0  0  0
 16 40  1  0  0  0  0
 17 41  1  0  0  0  0
 17 42  1  0  0  0  0
 17 43  1  0  0  0  0
 18 19  1  0  0  0  0
 18 44  1  0  0  0  0
 18 45  1  0  0  0  0
 19 46  1  0  0  0  0
 19 47  1  0  0  0  0
 20 21  2  0  0  0  0
 20 48  1  0  0  0  0
 21 22  1  0  0  0  0
 21 49  1  0  0  0  0
 22 23  2  0  0  0  0
M  CHG  1  14   1
M  END
> <s_m_source_file>
AV-unprocessed.smi

> <i_m_source_file_index>
555

> <i_lp_mmshare_version>
43012

> <i_f3d_flags>
0

> <s_epik_input>
W0NIM11PW0NIMl1bQ0gyXW4xbmMoW2NIXVtjSF1jMT1PKUMoPU8pW05IXVtDSF0yW0NIMl1bQ0gyXU4oW0NIXShbQ0gzXSlbQ0gzXSlbQ0gyXVtDSDJdMg==

> <s_epik_cmdline>
J2VwaWtfcHl0aG9uJywgJy1waCcsICc3LjAnLCAnLXRuJywgJzgnLCAnLW1hJywgJzIwMCcsICctbWV0YWxfYmluZGluZycsICctaW1hZScsICc8aW5maWxlLm1hZT4nLCAnLW9tYWUnLCAnPG91dGZpbGUubWFlPic=

> <r_lp_tautomer_probability>
1

> <r_epik_Ionization_Penalty>
0.00560205

> <r_epik_Ionization_Penalty_Charging>
0.00559911

> <r_epik_Ionization_Penalty_Neutral>
2.94673e-06

> <r_epik_State_Penalty>
0.00410202

> <r_epik_Charging_Adjusted_Penalty>
0.00970113

> <i_epik_Tot_Q>
1

> <i_epik_Tot_abs_Q>
1

> <r_epik_Metal_State_Penalty>
-0

> <b_epik_Metal_Only>
0

> <s_lp_Force_Field>
OPLS_2005

> <r_lp_Energy>
41.3332

> <b_lp_Chiralities_Consistent>
1

> <s_lp_Variant>
AV-unprocessed.smi:555-2

> <Gold.Version>
5.8.1

> <Gold.Id.Protein>
6NUR|6NUR_protein|mol2

> <Gold.PLP.Fitness>
39.1861

> <Gold.PLP.PLP>
-28.1172

> <Gold.PLP.part.hbond>
-3.8168

> <Gold.PLP.part.metal>
0.0000

> <Gold.PLP.part.buried>
-2.0847

> <Gold.PLP.part.nonpolar>
-22.3302

> <Gold.PLP.part.repulsive>
0.0247

> <Gold.PLP.ligand.clash>
0.4702

> <Gold.PLP.ligand.torsion>
0.3451

> <Gold.PLP.Chemscore.Hbond>
4.0000

> <Gold.PLP.Chemscore.CHOScore>
0.0000

> <Gold.PLP.Chemscore.Metal>
0.0000

> <Gold.Chemscore.Hbonds>
donor molecule, donor type, donor heavy atom, donor atom, acceptor molecule, acceptor atom, score
      L1  H    14    50       P1 10186  2.00
      P1  H  6896  6909       L1    23  1.00
      P1  H  6931  6943       L1     2  0.01
      P1  H  6934  6947       L1     2  1.00

> <Gold.PLP.Chemscore.Internal.Correction>
0.2293

> <Gold.Rescore>
     Score         DG    S(hbond)    S(metal)    S(lipo)     H(rot)  DE(clash)    DE(int)     intcor
     18.44     -19.04       2.74        0.00      75.85       1.74       0.28       0.32       ----

> <Gold.Chemscore.Fitness>
18.4360

> <Gold.Chemscore.DG>
-19.0406

> <Gold.Chemscore.ZeroCoef>
-5.4800

> <Gold.Chemscore.Hbond>
2.7395

> <Gold.Chemscore.Metal>
0.0000

> <Gold.Chemscore.Lipo>
75.8543

> <Gold.Chemscore.Internal_Hbond>
0.0000

> <Gold.Chemscore.DEClash>
0.2843

> <Gold.Chemscore.DEInternal>
0.3203

> <Gold.Chemscore.Rot>
1.7438

> <Gold.Chemscore.Internal.Correction>
   9.000000E+99

> <Gold.Chemscore.Hbonds>
donor molecule, donor type, donor heavy atom, donor atom, acceptor molecule, acceptor atom, score
      L1  H    14    50       P1 10186  0.41
      P1  H  6896  6909       L1    23  0.97
      P1  H  6934  6947       L1     2  0.42

> <Gold.Chemscore.Hbond.Weighted>
-9.1498

> <Gold.Chemscore.Metal.Weighted>
-0.0000

> <Gold.Chemscore.Lipo.Weighted>
-8.8750

> <Gold.Chemscore.Internal_Hbond.Weighted>
0.0000

> <Gold.Chemscore.DEClash.Weighted>
0.2843

> <Gold.Chemscore.DEInternal.Weighted>
0.3203

> <Gold.Chemscore.Rot.Weighted>
4.4642

> <Gold.Chemscore.Internal.Correction.Weighted>
   9.000000E+99

> <Gold.Protein.RotatedTorsions>
[ 6907 6896 6895 6894 ] final    4.62 input  -60.11 | X-H torsion
[ 7974 7965 7964 7962 ] final  168.16 input  175.53 | X-H torsion
[ 8008 7997 7996 7995 ] final  140.24 input   59.86 | X-H torsion
[ 10167 10162 10161 10158 ] final -150.23 input  -65.29 | X-H torsion
[ 10718 10713 10712 10709 ] final -158.50 input   66.30 | X-H torsion
[ 10763 10752 10751 10750 ] final   87.57 input  -60.55 | X-H torsion
[ 11005 11000 10999 10996 ] final  -98.95 input  -57.11 | X-H torsion

> <Gold.Protein.ActiveResidues>
 VAL166  LYS551  ARG553  GLY616  TRP617  ASP618  TYR619  PRO620  LYS621  CYS622 
 ASP623  PHE694  ASN695  SER759  ASP760  ASP761  ALA762  ILE779  LEU786  VAL792 
 PHE793  MET794  SER795  GLU796  ALA797  LYS798  CYS799  TRP800  GLU811  SER814 

> <Gold.Protein.RotatedAtoms>
  151.6443  135.1009  160.0147 H   0  0  0  0  0  0  0  0  0  0  0  0  # atno 6907 bound_to 6896
  152.4037  133.6851  159.6346 H   0  0  0  0  0  0  0  0  0  0  0  0  # atno 6908 bound_to 6896
  150.7933  133.8664  159.3287 H   0  0  0  0  0  0  0  0  0  0  0  0  # atno 6909 bound_to 6896
  144.7398  139.8867  143.6400 H   0  0  0  0  0  0  0  0  0  0  0  0  # atno 7974 bound_to 7965
  156.2981  140.2346  156.4369 H   0  0  0  0  0  0  0  0  0  0  0  0  # atno 8008 bound_to 7997
  154.8220  140.0437  157.1438 H   0  0  0  0  0  0  0  0  0  0  0  0  # atno 8009 bound_to 7997
  154.9304  140.3016  155.5174 H   0  0  0  0  0  0  0  0  0  0  0  0  # atno 8010 bound_to 7997
  139.7372  143.8717  152.2552 H   0  0  0  0  0  0  0  0  0  0  0  0  # atno 10167 bound_to 10162
  156.5550  130.8622  151.2792 H   0  0  0  0  0  0  0  0  0  0  0  0  # atno 10718 bound_to 10713
  153.1682  135.4538  154.9866 H   0  0  0  0  0  0  0  0  0  0  0  0  # atno 10763 bound_to 10752
  154.7947  135.3233  154.7698 H   0  0  0  0  0  0  0  0  0  0  0  0  # atno 10764 bound_to 10752
  153.8178  135.6949  153.4886 H   0  0  0  0  0  0  0  0  0  0  0  0  # atno 10765 bound_to 10752
  141.1326  133.8284  157.0907 H   0  0  0  0  0  0  0  0  0  0  0  0  # atno 11005 bound_to 11000
  146.1172  139.4185  143.0251 LP  0  0  0  0  0  0  0  0  0  0  0  0  # atno 17320 bound_to 7965
  145.7358  141.0026  143.1327 LP  0  0  0  0  0  0  0  0  0  0  0  0  # atno 17321 bound_to 7965
  139.8657  144.7094  150.9047 LP  0  0  0  0  0  0  0  0  0  0  0  0  # atno 17342 bound_to 10162
  140.7780  143.3780  151.1528 LP  0  0  0  0  0  0  0  0  0  0  0  0  # atno 17343 bound_to 10162
  157.7380  130.9805  150.2226 LP  0  0  0  0  0  0  0  0  0  0  0  0  # atno 17370 bound_to 10713
  156.2850  130.3738  149.7897 LP  0  0  0  0  0  0  0  0  0  0  0  0  # atno 17371 bound_to 10713
  140.0394  134.9862  157.0933 LP  0  0  0  0  0  0  0  0  0  0  0  0  # atno 17394 bound_to 11000
  140.4159  134.1931  155.7163 LP  0  0  0  0  0  0  0  0  0  0  0  0  # atno 17395 bound_to 11000

$$$$
