AV-unprocessed.smi:1286|AV-procd|sdf|5376|dock4
  -GOLD-   22720 4523D 1   1.00000     0.00000
 Structure written by MMmdl.
 36 37  0  0  0  0  0  0  0  0  1 V2000
  146.4599  141.5622  154.8884 C   0  0  0  0  0  0  0  0  0  0  0  0
  147.8731  141.1311  155.3135 C   0  0  1  0  0  0  0  0  0  0  0  0
  148.8461  140.9729  154.1244 C   0  0  0  0  0  0  0  0  0  0  0  0
  149.8044  139.9004  154.3227 N   0  0  0  0  0  0  0  0  0  0  0  0
  149.6275  138.5491  154.1135 C   0  0  0  0  0  0  0  0  0  0  0  0
  150.8012  137.9309  154.4368 C   0  0  0  0  0  0  0  0  0  0  0  0
  151.6466  139.0015  154.8414 C   0  0  0  0  0  0  0  0  0  0  0  0
  151.0469  140.1792  154.7736 N   0  0  0  0  0  0  0  0  0  0  0  0
  148.4013  142.1006  156.2690 N   0  0  0  0  0  0  0  0  0  0  0  0
  148.9451  141.8024  157.4594 C   0  0  0  0  0  0  0  0  0  0  0  0
  149.0648  140.6508  157.8787 O   0  0  0  0  0  0  0  0  0  0  0  0
  149.4352  142.9865  158.3007 C   0  0  0  0  0  0  0  0  0  0  0  0
  150.9714  143.1465  158.3180 C   0  0  2  0  0  0  0  0  0  0  0  0
  151.6815  142.0949  159.1363 C   0  0  0  0  0  0  0  0  0  0  0  0
  152.4926  142.6174  160.0530 C   0  0  0  0  0  0  0  0  0  0  0  0
  152.4888  144.1206  160.0360 C   0  0  0  0  0  0  0  0  0  0  0  0
  151.4372  144.4778  158.9616 C   0  0  0  0  0  0  0  0  0  0  0  0
  145.9921  140.8195  154.2418 H   0  0  0  0  0  0  0  0  0  0  0  0
  146.4805  142.5087  154.3471 H   0  0  0  0  0  0  0  0  0  0  0  0
  145.8115  141.6881  155.7562 H   0  0  0  0  0  0  0  0  0  0  0  0
  147.7789  140.1664  155.8157 H   0  0  0  0  0  0  0  0  0  0  0  0
  148.2912  140.7873  153.2030 H   0  0  0  0  0  0  0  0  0  0  0  0
  149.4072  141.8949  153.9668 H   0  0  0  0  0  0  0  0  0  0  0  0
  148.6917  138.1464  153.7545 H   0  0  0  0  0  0  0  0  0  0  0  0
  151.0220  136.8749  154.3916 H   0  0  0  0  0  0  0  0  0  0  0  0
  152.6710  138.9581  155.1806 H   0  0  0  0  0  0  0  0  0  0  0  0
  148.3475  143.0737  156.0047 H   0  0  0  0  0  0  0  0  0  0  0  0
  148.9789  143.8926  157.9007 H   0  0  0  0  0  0  0  0  0  0  0  0
  149.0669  142.8826  159.3227 H   0  0  0  0  0  0  0  0  0  0  0  0
  151.3603  143.0859  157.3003 H   0  0  0  0  0  0  0  0  0  0  0  0
  151.5425  141.0375  158.9649 H   0  0  0  0  0  0  0  0  0  0  0  0
  153.1061  142.0506  160.7376 H   0  0  0  0  0  0  0  0  0  0  0  0
  152.2183  144.5149  161.0161 H   0  0  0  0  0  0  0  0  0  0  0  0
  153.4789  144.4920  159.7706 H   0  0  0  0  0  0  0  0  0  0  0  0
  151.8538  145.1511  158.2115 H   0  0  0  0  0  0  0  0  0  0  0  0
  150.6008  145.0011  159.4268 H   0  0  0  0  0  0  0  0  0  0  0  0
  1  2  1  0  0  0  0
  1 18  1  0  0  0  0
  1 19  1  0  0  0  0
  1 20  1  0  0  0  0
  2  3  1  0  0  0  0
  2  9  1  0  0  0  0
  2 21  1  0  0  0  0
  3  4  1  0  0  0  0
  3 22  1  0  0  0  0
  3 23  1  0  0  0  0
  4  8  1  0  0  0  0
  4  5  1  0  0  0  0
  5  6  2  0  0  0  0
  5 24  1  0  0  0  0
  6  7  1  0  0  0  0
  6 25  1  0  0  0  0
  7  8  2  0  0  0  0
  7 26  1  0  0  0  0
  9 10  1  0  0  0  0
  9 27  1  0  0  0  0
 10 11  2  0  0  0  0
 10 12  1  0  0  0  0
 12 13  1  0  0  0  0
 12 28  1  0  0  0  0
 12 29  1  0  0  0  0
 13 17  1  0  0  0  0
 13 14  1  0  0  0  0
 13 30  1  0  0  0  0
 14 15  2  0  0  0  0
 14 31  1  0  0  0  0
 15 16  1  0  0  0  0
 15 32  1  0  0  0  0
 16 17  1  0  0  0  0
 16 33  1  0  0  0  0
 16 34  1  0  0  0  0
 17 35  1  0  0  0  0
 17 36  1  0  0  0  0
M  END
> <s_m_source_file>
AV-unprocessed.smi

> <i_m_source_file_index>
1286

> <i_lp_mmshare_version>
43012

> <i_f3d_flags>
0

> <s_epik_input>
bjFbY0hdW2NIXVtjSF1uMVtDSDJdW0NAQEhdKFtDSDNdKVtOSF1DKD1PKVtDSDJdW0NAQEhdMltDSF09W0NIXVtDSDJdW0NIMl0y

> <s_epik_cmdline>
J2VwaWtfcHl0aG9uJywgJy1waCcsICc3LjAnLCAnLXRuJywgJzgnLCAnLW1hJywgJzIwMCcsICctbWV0YWxfYmluZGluZycsICctaW1hZScsICc8aW5maWxlLm1hZT4nLCAnLW9tYWUnLCAnPG91dGZpbGUubWFlPic=

> <r_lp_tautomer_probability>
1

> <r_epik_Ionization_Penalty>
0.000301761

> <r_epik_Ionization_Penalty_Charging>
0

> <r_epik_Ionization_Penalty_Neutral>
0.000301761

> <r_epik_State_Penalty>
-0

> <r_epik_Charging_Adjusted_Penalty>
0

> <i_epik_Tot_Q>
0

> <i_epik_Tot_abs_Q>
0

> <r_epik_Metal_State_Penalty>
-0

> <b_epik_Metal_Only>
0

> <s_lp_Force_Field>
OPLS_2005

> <r_lp_Energy>
16.2902

> <b_lp_Chiralities_Consistent>
1

> <s_lp_Variant>
AV-unprocessed.smi:1286-2

> <Gold.Version>
5.8.1

> <Gold.Id.Protein>
6NUR|6NUR_protein|mol2

> <Gold.PLP.Fitness>
42.3231

> <Gold.PLP.PLP>
-37.3086

> <Gold.PLP.part.hbond>
-2.0000

> <Gold.PLP.part.metal>
0.0000

> <Gold.PLP.part.buried>
-1.3603

> <Gold.PLP.part.nonpolar>
-32.9215

> <Gold.PLP.part.repulsive>
0.1143

> <Gold.PLP.ligand.clash>
0.0000

> <Gold.PLP.ligand.torsion>
1.1307

> <Gold.PLP.Chemscore.Hbond>
2.0000

> <Gold.PLP.Chemscore.CHOScore>
0.4155

> <Gold.PLP.Chemscore.Metal>
0.0000

> <Gold.Chemscore.Hbonds>
donor molecule, donor type, donor heavy atom, donor atom, acceptor molecule, acceptor atom, score
      L1  H     9    27       P1  8028  1.00
      P1  H  7989  7998       L1     8  1.00
      L1  C     5    24       P1  7948  0.41

> <Gold.PLP.Chemscore.Internal.Correction>
0.0293

> <Gold.Rescore>
     Score         DG    S(hbond)    S(metal)    S(lipo)     H(rot)  DE(clash)    DE(int)     intcor
     18.70     -19.61       1.96        0.00     100.68       1.64       0.01       0.91       ----

> <Gold.Chemscore.Fitness>
18.6967

> <Gold.Chemscore.DG>
-19.6083

> <Gold.Chemscore.ZeroCoef>
-5.4800

> <Gold.Chemscore.Hbond>
1.9598

> <Gold.Chemscore.Metal>
0.0000

> <Gold.Chemscore.Lipo>
100.6799

> <Gold.Chemscore.Internal_Hbond>
0.0000

> <Gold.Chemscore.DEClash>
0.0053

> <Gold.Chemscore.DEInternal>
0.9063

> <Gold.Chemscore.Rot>
1.6394

> <Gold.Chemscore.Internal.Correction>
   9.000000E+99

> <Gold.Chemscore.Hbonds>
donor molecule, donor type, donor heavy atom, donor atom, acceptor molecule, acceptor atom, score
      L1  H     9    27       P1  8028  0.88
      P1  H  7989  7998       L1     8  0.12

> <Gold.Chemscore.Hbond.Weighted>
-6.5457

> <Gold.Chemscore.Metal.Weighted>
-0.0000

> <Gold.Chemscore.Lipo.Weighted>
-11.7795

> <Gold.Chemscore.Internal_Hbond.Weighted>
0.0000

> <Gold.Chemscore.DEClash.Weighted>
0.0053

> <Gold.Chemscore.DEInternal.Weighted>
0.9063

> <Gold.Chemscore.Rot.Weighted>
4.1969

> <Gold.Chemscore.Internal.Correction.Weighted>
   9.000000E+99

> <Gold.Protein.RotatedTorsions>
[ 6907 6896 6895 6894 ] final  -47.71 input  -60.11 | X-H torsion
[ 7974 7965 7964 7962 ] final   86.94 input  175.53 | X-H torsion
[ 8008 7997 7996 7995 ] final -151.54 input   59.86 | X-H torsion
[ 10167 10162 10161 10158 ] final   67.26 input  -65.29 | X-H torsion
[ 10718 10713 10712 10709 ] final   -1.02 input   66.30 | X-H torsion
[ 10763 10752 10751 10750 ] final  -26.73 input  -60.55 | X-H torsion
[ 11005 11000 10999 10996 ] final  -89.74 input  -57.11 | X-H torsion

> <Gold.Protein.ActiveResidues>
 VAL166  LYS551  ARG553  GLY616  TRP617  ASP618  TYR619  PRO620  LYS621  CYS622 
 ASP623  PHE694  ASN695  SER759  ASP760  ASP761  ALA762  ILE779  LEU786  VAL792 
 PHE793  MET794  SER795  GLU796  ALA797  LYS798  CYS799  TRP800  GLU811  SER814 

> <Gold.Protein.RotatedAtoms>
  150.8980  134.8390  159.7339 H   0  0  0  0  0  0  0  0  0  0  0  0  # atno 6907 bound_to 6896
  152.4876  134.4546  159.9595 H   0  0  0  0  0  0  0  0  0  0  0  0  # atno 6908 bound_to 6896
  151.4601  133.3556  159.2843 H   0  0  0  0  0  0  0  0  0  0  0  0  # atno 6909 bound_to 6896
  145.5656  139.2308  143.2435 H   0  0  0  0  0  0  0  0  0  0  0  0  # atno 7974 bound_to 7965
  155.6410  140.0701  157.2618 H   0  0  0  0  0  0  0  0  0  0  0  0  # atno 8008 bound_to 7997
  154.4183  140.1750  156.1623 H   0  0  0  0  0  0  0  0  0  0  0  0  # atno 8009 bound_to 7997
  155.9855  140.3350  155.6706 H   0  0  0  0  0  0  0  0  0  0  0  0  # atno 8010 bound_to 7997
  140.0915  144.4984  150.7096 H   0  0  0  0  0  0  0  0  0  0  0  0  # atno 10167 bound_to 10162
  156.8117  130.5427  149.5708 H   0  0  0  0  0  0  0  0  0  0  0  0  # atno 10718 bound_to 10713
  153.7206  135.6945  153.5014 H   0  0  0  0  0  0  0  0  0  0  0  0  # atno 10763 bound_to 10752
  153.2206  135.4371  155.0484 H   0  0  0  0  0  0  0  0  0  0  0  0  # atno 10764 bound_to 10752
  154.8285  135.3459  154.6740 H   0  0  0  0  0  0  0  0  0  0  0  0  # atno 10765 bound_to 10752
  141.1579  133.7648  156.9637 H   0  0  0  0  0  0  0  0  0  0  0  0  # atno 11005 bound_to 11000
  146.1821  140.6481  142.9184 LP  0  0  0  0  0  0  0  0  0  0  0  0  # atno 17320 bound_to 7965
  144.7462  140.5074  143.6834 LP  0  0  0  0  0  0  0  0  0  0  0  0  # atno 17321 bound_to 7965
  140.7026  143.2445  151.4820 LP  0  0  0  0  0  0  0  0  0  0  0  0  # atno 17342 bound_to 10162
  139.5722  144.1902  152.1853 LP  0  0  0  0  0  0  0  0  0  0  0  0  # atno 17343 bound_to 10162
  156.1040  130.5991  150.9941 LP  0  0  0  0  0  0  0  0  0  0  0  0  # atno 17370 bound_to 10713
  157.6502  131.0898  150.8067 LP  0  0  0  0  0  0  0  0  0  0  0  0  # atno 17371 bound_to 10713
  140.1175  134.9438  157.2156 LP  0  0  0  0  0  0  0  0  0  0  0  0  # atno 17394 bound_to 11000
  140.3114  134.3019  155.7266 LP  0  0  0  0  0  0  0  0  0  0  0  0  # atno 17395 bound_to 11000

$$$$
