AV-unprocessed.smi:2724|AV-procd|sdf|10514|dock3
  -GOLD-   2272014553D 1   1.00000     0.00000
 Structure written by MMmdl.
 26 27  0  0  0  0  0  0  0  0  2 V2000
  152.5836  140.1469  157.7799 O   0  0  0  0  0  0  0  0  0  0  0  0
  152.7287  140.4854  159.1436 C   0  0  1  0  0  0  0  0  0  0  0  0
  153.6534  139.5006  159.8593 C   0  0  0  0  0  0  0  0  0  0  0  0
  154.1585  140.2640  161.0861 C   0  0  0  0  0  0  0  0  0  0  0  0
  154.0745  141.7565  160.7288 C   0  0  0  0  0  0  0  0  0  0  0  0
  153.4265  141.8393  159.3335 C   0  0  2  0  0  0  0  0  0  0  0  0
  152.5089  143.0426  159.1545 C   0  0  0  0  0  0  0  0  0  0  0  0
  152.4943  144.0743  160.1203 C   0  0  0  0  0  0  0  0  0  0  0  0
  151.6440  145.1848  159.9391 C   0  0  0  0  0  0  0  0  0  0  0  0
  150.8232  145.2416  158.7948 C   0  0  0  0  0  0  0  0  0  0  0  0
  150.8620  144.2388  157.8906 N   0  3  0  0  0  0  0  0  0  0  0  0
  151.6635  143.1598  158.0272 C   0  0  0  0  0  0  0  0  0  0  0  0
  151.8275  139.5882  157.6849 H   0  0  0  0  0  0  0  0  0  0  0  0
  151.7537  140.4751  159.6323 H   0  0  0  0  0  0  0  0  0  0  0  0
  153.1542  138.5668  160.1204 H   0  0  0  0  0  0  0  0  0  0  0  0
  154.5020  139.2529  159.2192 H   0  0  0  0  0  0  0  0  0  0  0  0
  153.5159  140.0547  161.9421 H   0  0  0  0  0  0  0  0  0  0  0  0
  155.1704  139.9627  161.3581 H   0  0  0  0  0  0  0  0  0  0  0  0
  153.4704  142.2603  161.4843 H   0  0  0  0  0  0  0  0  0  0  0  0
  155.0533  142.2370  160.7359 H   0  0  0  0  0  0  0  0  0  0  0  0
  154.2386  141.9050  158.6068 H   0  0  0  0  0  0  0  0  0  0  0  0
  153.1288  144.0202  160.9932 H   0  0  0  0  0  0  0  0  0  0  0  0
  151.6230  145.9819  160.6681 H   0  0  0  0  0  0  0  0  0  0  0  0
  150.1427  146.0519  158.5768 H   0  0  0  0  0  0  0  0  0  0  0  0
  151.6029  142.4274  157.2353 H   0  0  0  0  0  0  0  0  0  0  0  0
  150.2600  144.2989  157.0687 H   0  0  0  0  0  0  0  0  0  0  0  0
  1  2  1  0  0  0  0
  1 13  1  0  0  0  0
  2  6  1  0  0  0  0
  2  3  1  0  0  0  0
  2 14  1  0  0  0  0
  3  4  1  0  0  0  0
  3 15  1  0  0  0  0
  3 16  1  0  0  0  0
  4  5  1  0  0  0  0
  4 17  1  0  0  0  0
  4 18  1  0  0  0  0
  5  6  1  0  0  0  0
  5 19  1  0  0  0  0
  5 20  1  0  0  0  0
  6  7  1  0  0  0  0
  6 21  1  0  0  0  0
  7 12  1  0  0  0  0
  7  8  2  0  0  0  0
  8  9  1  0  0  0  0
  8 22  1  0  0  0  0
  9 10  2  0  0  0  0
  9 23  1  0  0  0  0
 10 11  1  0  0  0  0
 10 24  1  0  0  0  0
 11 12  2  0  0  0  0
 11 26  1  0  0  0  0
 12 25  1  0  0  0  0
M  CHG  1  11   1
M  END
> <s_m_source_file>
AV-unprocessed.smi

> <i_m_source_file_index>
2724

> <i_lp_mmshare_version>
43012

> <i_f3d_flags>
0

> <s_epik_input>
W09IXVtDQEBIXTFbQ0gyXVtDSDJdW0NIMl1bQ0BIXTFjMltjSF1bY0hdW2NIXW5bY0hdMg==

> <s_epik_cmdline>
J2VwaWtfcHl0aG9uJywgJy1waCcsICc3LjAnLCAnLXRuJywgJzgnLCAnLW1hJywgJzIwMCcsICctbWV0YWxfYmluZGluZycsICctaW1hZScsICc8aW5maWxlLm1hZT4nLCAnLW9tYWUnLCAnPG91dGZpbGUubWFlPic=

> <r_epik_Ionization_Penalty>
2.09455

> <r_epik_Ionization_Penalty_Charging>
2.09455

> <r_epik_Ionization_Penalty_Neutral>
5.26757e-08

> <r_epik_State_Penalty>
2.23025

> <r_epik_Charging_Adjusted_Penalty>
4.3248

> <i_epik_Tot_Q>
1

> <i_epik_Tot_abs_Q>
1

> <r_epik_Metal_State_Penalty>
6.30911

> <b_epik_Metal_Only>
0

> <s_lp_Force_Field>
OPLS_2005

> <r_lp_Energy>
27.5939

> <b_lp_Chiralities_Consistent>
1

> <s_lp_Variant>
AV-unprocessed.smi:2724-8

> <Gold.Version>
5.8.1

> <Gold.Id.Protein>
6NUR|6NUR_protein|mol2

> <Gold.PLP.Fitness>
40.7429

> <Gold.PLP.PLP>
-32.1709

> <Gold.PLP.part.hbond>
-2.0000

> <Gold.PLP.part.metal>
0.0000

> <Gold.PLP.part.buried>
-3.4093

> <Gold.PLP.part.nonpolar>
-25.9250

> <Gold.PLP.part.repulsive>
0.0451

> <Gold.PLP.ligand.clash>
0.0000

> <Gold.PLP.ligand.torsion>
0.2141

> <Gold.PLP.Chemscore.Hbond>
3.0000

> <Gold.PLP.Chemscore.CHOScore>
0.0000

> <Gold.PLP.Chemscore.Metal>
0.0000

> <Gold.Chemscore.Hbonds>
donor molecule, donor type, donor heavy atom, donor atom, acceptor molecule, acceptor atom, score
      L1  H    11    26       P1  8028  2.00
      P1  H  7997  8009       L1     1  0.84

> <Gold.PLP.Chemscore.Internal.Correction>
0.0001

> <Gold.Rescore>
     Score         DG    S(hbond)    S(metal)    S(lipo)     H(rot)  DE(clash)    DE(int)     intcor
     19.47     -19.96       1.90        0.00      98.95       1.35       0.02       0.47       ----

> <Gold.Chemscore.Fitness>
19.4659

> <Gold.Chemscore.DG>
-19.9623

> <Gold.Chemscore.ZeroCoef>
-5.4800

> <Gold.Chemscore.Hbond>
1.9044

> <Gold.Chemscore.Metal>
0.0000

> <Gold.Chemscore.Lipo>
98.9455

> <Gold.Chemscore.Internal_Hbond>
0.0000

> <Gold.Chemscore.DEClash>
0.0219

> <Gold.Chemscore.DEInternal>
0.4745

> <Gold.Chemscore.Rot>
1.3496

> <Gold.Chemscore.Internal.Correction>
   9.000000E+99

> <Gold.Chemscore.Hbonds>
donor molecule, donor type, donor heavy atom, donor atom, acceptor molecule, acceptor atom, score
      L1  H    11    26       P1  8028  0.83
      P1  H  7997  8009       L1     1  0.65

> <Gold.Chemscore.Hbond.Weighted>
-6.3607

> <Gold.Chemscore.Metal.Weighted>
-0.0000

> <Gold.Chemscore.Lipo.Weighted>
-11.5766

> <Gold.Chemscore.Internal_Hbond.Weighted>
0.0000

> <Gold.Chemscore.DEClash.Weighted>
0.0219

> <Gold.Chemscore.DEInternal.Weighted>
0.4745

> <Gold.Chemscore.Rot.Weighted>
3.4550

> <Gold.Chemscore.Internal.Correction.Weighted>
   9.000000E+99

> <Gold.Protein.RotatedTorsions>
[ 6907 6896 6895 6894 ] final  -54.33 input  -60.11 | X-H torsion
[ 7974 7965 7964 7962 ] final  -10.73 input  175.53 | X-H torsion
[ 8008 7997 7996 7995 ] final  171.63 input   59.86 | X-H torsion
[ 10167 10162 10161 10158 ] final  177.22 input  -65.29 | X-H torsion
[ 10718 10713 10712 10709 ] final  -85.05 input   66.30 | X-H torsion
[ 10763 10752 10751 10750 ] final  -91.92 input  -60.55 | X-H torsion
[ 11005 11000 10999 10996 ] final   -9.21 input  -57.11 | X-H torsion

> <Gold.Protein.ActiveResidues>
 VAL166  LYS551  ARG553  GLY616  TRP617  ASP618  TYR619  PRO620  LYS621  CYS622 
 ASP623  PHE694  ASN695  SER759  ASP760  ASP761  ALA762  ILE779  LEU786  VAL792 
 PHE793  MET794  SER795  GLU796  ALA797  LYS798  CYS799  TRP800  GLU811  SER814 

> <Gold.Protein.RotatedAtoms>
  150.8347  134.7616  159.6882 H   0  0  0  0  0  0  0  0  0  0  0  0  # atno 6907 bound_to 6896
  152.4446  134.5518  159.9878 H   0  0  0  0  0  0  0  0  0  0  0  0  # atno 6908 bound_to 6896
  151.5671  133.3357  159.3018 H   0  0  0  0  0  0  0  0  0  0  0  0  # atno 6909 bound_to 6896
  146.2211  140.2807  142.8362 H   0  0  0  0  0  0  0  0  0  0  0  0  # atno 7974 bound_to 7965
  156.1253  140.1507  156.9145 H   0  0  0  0  0  0  0  0  0  0  0  0  # atno 8008 bound_to 7997
  154.4866  140.0863  156.7542 H   0  0  0  0  0  0  0  0  0  0  0  0  # atno 8009 bound_to 7997
  155.4355  140.3429  155.4286 H   0  0  0  0  0  0  0  0  0  0  0  0  # atno 8010 bound_to 7997
  139.5244  144.2824  152.0535 H   0  0  0  0  0  0  0  0  0  0  0  0  # atno 10167 bound_to 10162
  156.0000  130.4718  150.4503 H   0  0  0  0  0  0  0  0  0  0  0  0  # atno 10718 bound_to 10713
  154.6809  135.5250  153.8261 H   0  0  0  0  0  0  0  0  0  0  0  0  # atno 10763 bound_to 10752
  153.0564  135.6552  154.0577 H   0  0  0  0  0  0  0  0  0  0  0  0  # atno 10764 bound_to 10752
  154.0465  135.2973  155.3327 H   0  0  0  0  0  0  0  0  0  0  0  0  # atno 10765 bound_to 10752
  140.7317  133.8743  155.8898 H   0  0  0  0  0  0  0  0  0  0  0  0  # atno 11005 bound_to 11000
  144.9199  140.7856  143.5755 LP  0  0  0  0  0  0  0  0  0  0  0  0  # atno 17320 bound_to 7965
  145.2743  139.1942  143.4825 LP  0  0  0  0  0  0  0  0  0  0  0  0  # atno 17321 bound_to 7965
  140.2279  144.4399  150.6313 LP  0  0  0  0  0  0  0  0  0  0  0  0  # atno 17342 bound_to 10162
  140.6375  143.2197  151.6362 LP  0  0  0  0  0  0  0  0  0  0  0  0  # atno 17343 bound_to 10162
  157.2536  131.0552  151.2364 LP  0  0  0  0  0  0  0  0  0  0  0  0  # atno 17370 bound_to 10713
  157.3504  130.7079  149.6437 LP  0  0  0  0  0  0  0  0  0  0  0  0  # atno 17371 bound_to 10713
  140.9915  134.1273  157.4404 LP  0  0  0  0  0  0  0  0  0  0  0  0  # atno 17394 bound_to 11000
  139.8825  135.0041  156.6232 LP  0  0  0  0  0  0  0  0  0  0  0  0  # atno 17395 bound_to 11000

$$$$
