AV-unprocessed.smi:234|AV-procd|sdf|1794|dock5
  -GOLD-   2262020353D 1   1.00000     0.00000
 Structure written by MMmdl.
 59 62  0  0  0  0  0  0  0  0  1 V2000
  150.6753  141.5976  156.0312 C   0  0  0  0  0  0  0  0  0  0  0  0
  150.2666  140.8717  157.3145 C   0  0  0  0  0  0  0  0  0  0  0  0
  149.1495  140.0449  157.0352 O   0  0  0  0  0  0  0  0  0  0  0  0
  149.4230  139.0459  156.0648 C   0  0  1  0  0  0  0  0  0  0  0  0
  150.2531  137.9012  156.6420 C   0  0  0  0  0  0  0  0  0  0  0  0
  149.4215  136.9871  155.7332 C   0  0  1  0  0  0  0  0  0  0  0  0
  149.1043  135.6811  156.3164 N   0  0  0  0  0  0  0  0  0  0  0  0
  149.0295  135.6042  157.7692 C   0  0  0  0  0  0  0  0  0  0  0  0
  148.0913  134.9944  155.7392 C   0  0  0  0  0  0  0  0  0  0  0  0
  146.8433  135.2125  156.2239 N   0  0  0  0  0  0  0  0  0  0  0  0
  145.7999  134.5572  155.7067 C   0  0  0  0  0  0  0  0  0  0  0  0
  145.7834  133.6608  154.7182 N   0  0  0  0  0  0  0  0  0  0  0  0
  147.0351  133.4494  154.2191 C   0  0  0  0  0  0  0  0  0  0  0  0
  148.2354  134.0739  154.6613 C   0  0  0  0  0  0  0  0  0  0  0  0
  149.3090  133.6218  153.9028 N   0  0  0  0  0  0  0  0  0  0  0  0
  148.7772  132.7668  153.0731 C   0  0  0  0  0  0  0  0  0  0  0  0
  147.4177  132.5942  153.2007 N   0  0  0  0  0  0  0  0  0  0  0  0
  146.5785  131.6991  152.4203 C   0  0  0  0  0  0  0  0  0  0  0  0
  145.8976  132.3967  151.2190 C   0  0  1  0  0  0  0  0  0  0  0  0
  146.8946  132.7188  150.2618 O   0  0  0  0  0  0  0  0  0  0  0  0
  144.8261  131.5573  150.5389 C   0  0  0  0  0  0  0  0  0  0  0  0
  143.9612  132.6121  149.8607 C   0  0  0  0  0  0  0  0  0  0  0  0
  143.9628  133.7162  150.7567 O   0  0  0  0  0  0  0  0  0  0  0  0
  145.0983  133.6556  151.6195 C   0  0  2  0  0  0  0  0  0  0  0  0
  145.8645  134.9882  151.6128 C   0  0  0  0  0  0  0  0  0  0  0  0
  148.2745  138.0339  155.8057 C   0  0  0  0  0  0  0  0  0  0  0  0
  147.2516  137.8826  156.9463 C   0  0  0  0  0  0  0  0  0  0  0  0
  147.4869  138.2492  154.5122 C   0  0  0  0  0  0  0  0  0  0  0  0
  151.5315  142.2488  156.2079 H   0  0  0  0  0  0  0  0  0  0  0  0
  149.8586  142.2125  155.6522 H   0  0  0  0  0  0  0  0  0  0  0  0
  150.9501  140.8867  155.2518 H   0  0  0  0  0  0  0  0  0  0  0  0
  151.1017  140.2756  157.6824 H   0  0  0  0  0  0  0  0  0  0  0  0
  150.0119  141.5968  158.0889 H   0  0  0  0  0  0  0  0  0  0  0  0
  149.8737  139.4393  155.1502 H   0  0  0  0  0  0  0  0  0  0  0  0
  151.3155  137.9421  156.4001 H   0  0  0  0  0  0  0  0  0  0  0  0
  150.0864  137.7399  157.7086 H   0  0  0  0  0  0  0  0  0  0  0  0
  149.8417  136.9273  154.7274 H   0  0  0  0  0  0  0  0  0  0  0  0
  148.9535  134.5690  158.1049 H   0  0  0  0  0  0  0  0  0  0  0  0
  148.1594  136.1497  158.1369 H   0  0  0  0  0  0  0  0  0  0  0  0
  149.9177  136.0339  158.2298 H   0  0  0  0  0  0  0  0  0  0  0  0
  144.8411  134.7806  156.1510 H   0  0  0  0  0  0  0  0  0  0  0  0
  149.3667  132.2282  152.3452 H   0  0  0  0  0  0  0  0  0  0  0  0
  147.1965  130.8687  152.0760 H   0  0  0  0  0  0  0  0  0  0  0  0
  145.8271  131.2664  153.0822 H   0  0  0  0  0  0  0  0  0  0  0  0
  147.4561  131.9665  150.1521 H   0  0  0  0  0  0  0  0  0  0  0  0
  145.2215  130.8135  149.8456 H   0  0  0  0  0  0  0  0  0  0  0  0
  144.2282  131.0343  151.2863 H   0  0  0  0  0  0  0  0  0  0  0  0
  144.4070  132.9228  148.9149 H   0  0  0  0  0  0  0  0  0  0  0  0
  142.9493  132.2604  149.6594 H   0  0  0  0  0  0  0  0  0  0  0  0
  144.6914  133.5033  152.6204 H   0  0  0  0  0  0  0  0  0  0  0  0
  146.7402  134.9405  152.2606 H   0  0  0  0  0  0  0  0  0  0  0  0
  145.2300  135.7986  151.9721 H   0  0  0  0  0  0  0  0  0  0  0  0
  146.1994  135.2563  150.6104 H   0  0  0  0  0  0  0  0  0  0  0  0
  146.5622  137.0580  156.7654 H   0  0  0  0  0  0  0  0  0  0  0  0
  146.6487  138.7831  157.0638 H   0  0  0  0  0  0  0  0  0  0  0  0
  147.7313  137.6943  157.9067 H   0  0  0  0  0  0  0  0  0  0  0  0
  146.8383  137.4024  154.2889 H   0  0  0  0  0  0  0  0  0  0  0  0
  148.1514  138.3789  153.6576 H   0  0  0  0  0  0  0  0  0  0  0  0
  146.8560  139.1363  154.5669 H   0  0  0  0  0  0  0  0  0  0  0  0
  1  2  1  0  0  0  0
  1 29  1  0  0  0  0
  1 30  1  0  0  0  0
  1 31  1  0  0  0  0
  2  3  1  0  0  0  0
  2 32  1  0  0  0  0
  2 33  1  0  0  0  0
  3  4  1  0  0  0  0
  4 26  1  0  0  0  0
  4  5  1  0  0  0  0
  4 34  1  0  0  0  0
  5  6  1  0  0  0  0
  5 35  1  0  0  0  0
  5 36  1  0  0  0  0
  6  7  1  0  0  0  0
  6 26  1  0  0  0  0
  6 37  1  0  0  0  0
  7  8  1  0  0  0  0
  7  9  1  0  0  0  0
  8 38  1  0  0  0  0
  8 39  1  0  0  0  0
  8 40  1  0  0  0  0
  9 14  1  0  0  0  0
  9 10  2  0  0  0  0
 10 11  1  0  0  0  0
 11 12  2  0  0  0  0
 11 41  1  0  0  0  0
 12 13  1  0  0  0  0
 13 17  1  0  0  0  0
 13 14  2  0  0  0  0
 14 15  1  0  0  0  0
 15 16  2  0  0  0  0
 16 17  1  0  0  0  0
 16 42  1  0  0  0  0
 17 18  1  0  0  0  0
 18 19  1  0  0  0  0
 18 43  1  0  0  0  0
 18 44  1  0  0  0  0
 19 24  1  0  0  0  0
 19 20  1  0  0  0  0
 19 21  1  0  0  0  0
 20 45  1  0  0  0  0
 21 22  1  0  0  0  0
 21 46  1  0  0  0  0
 21 47  1  0  0  0  0
 22 23  1  0  0  0  0
 22 48  1  0  0  0  0
 22 49  1  0  0  0  0
 23 24  1  0  0  0  0
 24 25  1  0  0  0  0
 24 50  1  0  0  0  0
 25 51  1  0  0  0  0
 25 52  1  0  0  0  0
 25 53  1  0  0  0  0
 26 27  1  0  0  0  0
 26 28  1  0  0  0  0
 27 54  1  0  0  0  0
 27 55  1  0  0  0  0
 27 56  1  0  0  0  0
 28 57  1  0  0  0  0
 28 58  1  0  0  0  0
 28 59  1  0  0  0  0
M  END
> <s_m_source_file>
AV-unprocessed.smi

> <i_m_source_file_index>
234

> <i_lp_mmshare_version>
43012

> <i_f3d_flags>
0

> <s_epik_input>
W0NIM11bQ0gyXU9bQ0BASF0oQzEoW0NIM10pW0NIM10pW0NIMl1bQ0BIXTFOKFtDSDNdKWMobltjSF1uMiljKGMyMyluW2NIXW4zW0NIMl1bQ0BAXTQoW09IXSlbQ0gyXVtDSDJdT1tDQEhdNFtDSDNd

> <s_epik_cmdline>
J2VwaWtfcHl0aG9uJywgJy1waCcsICc3LjAnLCAnLXRuJywgJzgnLCAnLW1hJywgJzIwMCcsICctbWV0YWxfYmluZGluZycsICctaW1hZScsICc8aW5maWxlLm1hZT4nLCAnLW9tYWUnLCAnPG91dGZpbGUubWFlPic=

> <r_lp_tautomer_probability>
1

> <r_epik_Ionization_Penalty>
0.00349132

> <r_epik_Ionization_Penalty_Charging>
0

> <r_epik_Ionization_Penalty_Neutral>
0.00349132

> <r_epik_State_Penalty>
0.00242418

> <r_epik_Charging_Adjusted_Penalty>
0.00242418

> <i_epik_Tot_Q>
0

> <i_epik_Tot_abs_Q>
0

> <r_epik_Metal_State_Penalty>
-0

> <b_epik_Metal_Only>
0

> <s_lp_Force_Field>
OPLS_2005

> <r_lp_Energy>
47.8711

> <b_lp_Chiralities_Consistent>
1

> <s_lp_Variant>
AV-unprocessed.smi:234-10

> <Gold.Version>
5.8.1

> <Gold.Id.Protein>
6NUR|6NUR_protein|mol2

> <Gold.PLP.Fitness>
34.8851

> <Gold.PLP.PLP>
-30.6895

> <Gold.PLP.part.hbond>
-1.2143

> <Gold.PLP.part.metal>
0.0000

> <Gold.PLP.part.buried>
-7.3578

> <Gold.PLP.part.nonpolar>
-23.5234

> <Gold.PLP.part.repulsive>
0.4696

> <Gold.PLP.ligand.clash>
0.0000

> <Gold.PLP.ligand.torsion>
1.3072

> <Gold.PLP.Chemscore.Hbond>
1.0000

> <Gold.PLP.Chemscore.CHOScore>
1.0000

> <Gold.PLP.Chemscore.Metal>
0.0000

> <Gold.Chemscore.Hbonds>
donor molecule, donor type, donor heavy atom, donor atom, acceptor molecule, acceptor atom, score
      L1  H    20    45       P1 10747  1.00
      L1  C    16    42       P1 10747  1.00

> <Gold.PLP.Chemscore.Internal.Correction>
0.8100

> <Gold.Rescore>
     Score         DG    S(hbond)    S(metal)    S(lipo)     H(rot)  DE(clash)    DE(int)     intcor
      7.63     -11.47       0.99        0.00      80.26       2.62       0.12       3.72       ----

> <Gold.Chemscore.Fitness>
7.6345

> <Gold.Chemscore.DG>
-11.4702

> <Gold.Chemscore.ZeroCoef>
-5.4800

> <Gold.Chemscore.Hbond>
0.9917

> <Gold.Chemscore.Metal>
0.0000

> <Gold.Chemscore.Lipo>
80.2567

> <Gold.Chemscore.Internal_Hbond>
0.0000

> <Gold.Chemscore.DEClash>
0.1199

> <Gold.Chemscore.DEInternal>
3.7159

> <Gold.Chemscore.Rot>
2.6219

> <Gold.Chemscore.Internal.Correction>
   9.000000E+99

> <Gold.Chemscore.Hbonds>
donor molecule, donor type, donor heavy atom, donor atom, acceptor molecule, acceptor atom, score
      L1  H    20    45       P1 10747  1.00

> <Gold.Chemscore.Hbond.Weighted>
-3.3123

> <Gold.Chemscore.Metal.Weighted>
-0.0000

> <Gold.Chemscore.Lipo.Weighted>
-9.3900

> <Gold.Chemscore.Internal_Hbond.Weighted>
0.0000

> <Gold.Chemscore.DEClash.Weighted>
0.1199

> <Gold.Chemscore.DEInternal.Weighted>
3.7159

> <Gold.Chemscore.Rot.Weighted>
6.7121

> <Gold.Chemscore.Internal.Correction.Weighted>
   9.000000E+99

> <Gold.Protein.RotatedTorsions>
[ 6907 6896 6895 6894 ] final  -13.29 input  -60.11 | X-H torsion
[ 7974 7965 7964 7962 ] final  -46.18 input  175.53 | X-H torsion
[ 8008 7997 7996 7995 ] final   63.53 input   59.86 | X-H torsion
[ 10167 10162 10161 10158 ] final  116.27 input  -65.29 | X-H torsion
[ 10718 10713 10712 10709 ] final  -71.02 input   66.30 | X-H torsion
[ 10763 10752 10751 10750 ] final  -57.30 input  -60.55 | X-H torsion
[ 11005 11000 10999 10996 ] final  155.34 input  -57.11 | X-H torsion

> <Gold.Protein.ActiveResidues>
 VAL166  LYS551  ARG553  GLY616  TRP617  ASP618  TYR619  PRO620  LYS621  CYS622 
 ASP623  PHE694  ASN695  SER759  ASP760  ASP761  ALA762  ILE779  LEU786  VAL792 
 PHE793  MET794  SER795  GLU796  ALA797  LYS798  CYS799  TRP800  GLU811  SER814 

> <Gold.Protein.RotatedAtoms>
  151.3572  135.0896  159.9422 H   0  0  0  0  0  0  0  0  0  0  0  0  # atno 6907 bound_to 6896
  152.5171  133.9294  159.7583 H   0  0  0  0  0  0  0  0  0  0  0  0  # atno 6908 bound_to 6896
  150.9681  133.6319  159.2772 H   0  0  0  0  0  0  0  0  0  0  0  0  # atno 6909 bound_to 6896
  145.9745  140.7348  142.9394 H   0  0  0  0  0  0  0  0  0  0  0  0  # atno 7974 bound_to 7965
  155.6317  140.3496  155.4685 H   0  0  0  0  0  0  0  0  0  0  0  0  # atno 8008 bound_to 7997
  155.9998  140.1211  157.0582 H   0  0  0  0  0  0  0  0  0  0  0  0  # atno 8009 bound_to 7997
  154.4245  140.1103  156.5667 H   0  0  0  0  0  0  0  0  0  0  0  0  # atno 8010 bound_to 7997
  139.6259  144.7108  151.2535 H   0  0  0  0  0  0  0  0  0  0  0  0  # atno 10167 bound_to 10162
  156.0381  130.4343  150.2382 H   0  0  0  0  0  0  0  0  0  0  0  0  # atno 10718 bound_to 10713
  154.2203  135.6379  153.5142 H   0  0  0  0  0  0  0  0  0  0  0  0  # atno 10763 bound_to 10752
  152.9970  135.5495  154.6121 H   0  0  0  0  0  0  0  0  0  0  0  0  # atno 10764 bound_to 10752
  154.5580  135.2906  155.0920 H   0  0  0  0  0  0  0  0  0  0  0  0  # atno 10765 bound_to 10752
  140.1573  134.8634  157.2530 H   0  0  0  0  0  0  0  0  0  0  0  0  # atno 11005 bound_to 11000
  144.6845  140.2804  143.7293 LP  0  0  0  0  0  0  0  0  0  0  0  0  # atno 17320 bound_to 7965
  145.7858  139.1908  143.2131 LP  0  0  0  0  0  0  0  0  0  0  0  0  # atno 17321 bound_to 7965
  140.7410  143.6569  150.8199 LP  0  0  0  0  0  0  0  0  0  0  0  0  # atno 17342 bound_to 10162
  140.0187  143.5566  152.2809 LP  0  0  0  0  0  0  0  0  0  0  0  0  # atno 17343 bound_to 10162
  157.0479  131.0054  151.3263 LP  0  0  0  0  0  0  0  0  0  0  0  0  # atno 17370 bound_to 10713
  157.5162  130.7969  149.7758 LP  0  0  0  0  0  0  0  0  0  0  0  0  # atno 17371 bound_to 10713
  140.2532  134.3658  155.7434 LP  0  0  0  0  0  0  0  0  0  0  0  0  # atno 17394 bound_to 11000
  141.2206  133.7328  156.8968 LP  0  0  0  0  0  0  0  0  0  0  0  0  # atno 17395 bound_to 11000

$$$$
