AV-unprocessed.smi:1044|AV-procd|sdf|4542|dock2
  -GOLD-   22720 2563D 1   1.00000     0.00000
 Structure written by MMmdl.
 45 46  0  0  0  0  0  0  0  0  1 V2000
  144.2126  135.3742  150.9624 C   0  0  0  0  0  0  0  0  0  0  0  0
  144.9945  134.1501  150.4806 C   0  0  0  0  0  0  0  0  0  0  0  0
  146.1263  133.9716  151.3269 O   0  0  0  0  0  0  0  0  0  0  0  0
  146.3555  132.7243  151.8760 C   0  0  0  0  0  0  0  0  0  0  0  0
  145.5794  131.6878  151.4709 N   0  0  0  0  0  0  0  0  0  0  0  0
  145.8000  130.4707  152.0090 C   0  0  0  0  0  0  0  0  0  0  0  0
  146.7917  130.2241  152.9761 C   0  0  0  0  0  0  0  0  0  0  0  0
  147.5980  131.2973  153.3977 C   0  0  0  0  0  0  0  0  0  0  0  0
  147.3890  132.5775  152.8302 C   0  0  0  0  0  0  0  0  0  0  0  0
  148.1330  133.7301  153.2036 N   0  0  0  0  0  0  0  0  0  0  0  0
  148.6140  134.0520  154.4160 C   0  0  0  0  0  0  0  0  0  0  0  0
  148.5022  133.3610  155.4285 O   0  0  0  0  0  0  0  0  0  0  0  0
  149.2617  135.2254  154.3817 N   0  0  0  0  0  0  0  0  0  0  0  0
  149.9401  135.8615  155.5076 C   0  0  2  0  0  0  0  0  0  0  0  0
  148.9839  135.9788  156.7010 C   0  0  0  0  0  0  0  0  0  0  0  0
  149.7004  136.6904  157.8520 C   0  0  0  0  0  0  0  0  0  0  0  0
  150.2364  138.0646  157.4165 C   0  0  0  0  0  0  0  0  0  0  0  0
  151.0888  137.9586  156.2143 N   0  0  0  0  0  0  0  0  0  0  0  0
  152.1188  139.3009  155.8344 S   0  0  0  0  0  0  0  0  0  0  0  0
  153.2322  138.6205  154.5363 C   0  0  0  0  0  0  0  0  0  0  0  0
  151.2809  140.3574  155.2468 O   0  0  0  0  0  0  0  0  0  0  0  0
  152.9415  139.5899  157.0191 O   0  0  0  0  0  0  0  0  0  0  0  0
  150.4576  137.2479  155.0849 C   0  0  0  0  0  0  0  0  0  0  0  0
  143.3319  135.5420  150.3421 H   0  0  0  0  0  0  0  0  0  0  0  0
  144.8282  136.2732  150.9199 H   0  0  0  0  0  0  0  0  0  0  0  0
  143.8777  135.2447  151.9918 H   0  0  0  0  0  0  0  0  0  0  0  0
  144.3518  133.2686  150.5123 H   0  0  0  0  0  0  0  0  0  0  0  0
  145.3095  134.3021  149.4471 H   0  0  0  0  0  0  0  0  0  0  0  0
  145.1618  129.6711  151.6635 H   0  0  0  0  0  0  0  0  0  0  0  0
  146.9272  129.2357  153.3894 H   0  0  0  0  0  0  0  0  0  0  0  0
  148.3468  131.1231  154.1548 H   0  0  0  0  0  0  0  0  0  0  0  0
  148.3888  134.3437  152.4437 H   0  0  0  0  0  0  0  0  0  0  0  0
  149.2997  135.7154  153.4998 H   0  0  0  0  0  0  0  0  0  0  0  0
  150.7987  135.2631  155.8186 H   0  0  0  0  0  0  0  0  0  0  0  0
  148.0898  136.5371  156.4192 H   0  0  0  0  0  0  0  0  0  0  0  0
  148.6526  134.9905  157.0216 H   0  0  0  0  0  0  0  0  0  0  0  0
  149.0221  136.8078  158.6974 H   0  0  0  0  0  0  0  0  0  0  0  0
  150.5277  136.0729  158.2049 H   0  0  0  0  0  0  0  0  0  0  0  0
  149.4117  138.7462  157.2055 H   0  0  0  0  0  0  0  0  0  0  0  0
  150.8052  138.4994  158.2381 H   0  0  0  0  0  0  0  0  0  0  0  0
  153.9806  139.3691  154.2778 H   0  0  0  0  0  0  0  0  0  0  0  0
  152.6609  138.3685  153.6443 H   0  0  0  0  0  0  0  0  0  0  0  0
  153.7306  137.7285  154.9151 H   0  0  0  0  0  0  0  0  0  0  0  0
  151.1766  137.1349  154.2745 H   0  0  0  0  0  0  0  0  0  0  0  0
  149.6425  137.8605  154.6971 H   0  0  0  0  0  0  0  0  0  0  0  0
  1  2  1  0  0  0  0
  1 24  1  0  0  0  0
  1 25  1  0  0  0  0
  1 26  1  0  0  0  0
  2  3  1  0  0  0  0
  2 27  1  0  0  0  0
  2 28  1  0  0  0  0
  3  4  1  0  0  0  0
  4  9  1  0  0  0  0
  4  5  2  0  0  0  0
  5  6  1  0  0  0  0
  6  7  2  0  0  0  0
  6 29  1  0  0  0  0
  7  8  1  0  0  0  0
  7 30  1  0  0  0  0
  8  9  2  0  0  0  0
  8 31  1  0  0  0  0
  9 10  1  0  0  0  0
 10 11  1  0  0  0  0
 10 32  1  0  0  0  0
 11 12  2  0  0  0  0
 11 13  1  0  0  0  0
 13 14  1  0  0  0  0
 13 33  1  0  0  0  0
 14 23  1  0  0  0  0
 14 15  1  0  0  0  0
 14 34  1  0  0  0  0
 15 16  1  0  0  0  0
 15 35  1  0  0  0  0
 15 36  1  0  0  0  0
 16 17  1  0  0  0  0
 16 37  1  0  0  0  0
 16 38  1  0  0  0  0
 17 18  1  0  0  0  0
 17 39  1  0  0  0  0
 17 40  1  0  0  0  0
 18 19  1  0  0  0  0
 18 23  1  0  0  0  0
 19 20  1  0  0  0  0
 19 21  2  0  0  0  0
 19 22  2  0  0  0  0
 20 41  1  0  0  0  0
 20 42  1  0  0  0  0
 20 43  1  0  0  0  0
 23 44  1  0  0  0  0
 23 45  1  0  0  0  0
M  END
> <s_m_source_file>
AV-unprocessed.smi

> <i_m_source_file_index>
1044

> <i_lp_mmshare_version>
43012

> <i_f3d_flags>
0

> <s_epik_input>
W0NIM11bQ0gyXU9jMW5bY0hdW2NIXVtjSF1jMVtOSF1DKD1PKVtOSF1bQ0BASF0yW0NIMl1bQ0gyXVtDSDJdTihbQ0gyXTIpUyg9TykoPU8pW0NIM10=

> <s_epik_cmdline>
J2VwaWtfcHl0aG9uJywgJy1waCcsICc3LjAnLCAnLXRuJywgJzgnLCAnLW1hJywgJzIwMCcsICctbWV0YWxfYmluZGluZycsICctaW1hZScsICc8aW5maWxlLm1hZT4nLCAnLW9tYWUnLCAnPG91dGZpbGUubWFlPic=

> <r_lp_tautomer_probability>
1

> <r_epik_Ionization_Penalty>
0.000106941

> <r_epik_Ionization_Penalty_Charging>
0

> <r_epik_Ionization_Penalty_Neutral>
0.000106941

> <r_epik_State_Penalty>
-0

> <r_epik_Charging_Adjusted_Penalty>
0

> <i_epik_Tot_Q>
0

> <i_epik_Tot_abs_Q>
0

> <r_epik_Metal_State_Penalty>
-0

> <b_epik_Metal_Only>
0

> <s_lp_Force_Field>
OPLS_2005

> <r_lp_Energy>
2.99573

> <b_lp_Chiralities_Consistent>
1

> <s_lp_Variant>
AV-unprocessed.smi:1044-1

> <Gold.Version>
5.8.1

> <Gold.Id.Protein>
6NUR|6NUR_protein|mol2

> <Gold.PLP.Fitness>
43.1345

> <Gold.PLP.PLP>
-33.4270

> <Gold.PLP.part.hbond>
-4.0000

> <Gold.PLP.part.metal>
0.0000

> <Gold.PLP.part.buried>
-5.8268

> <Gold.PLP.part.nonpolar>
-24.3447

> <Gold.PLP.part.repulsive>
0.3574

> <Gold.PLP.ligand.clash>
0.0000

> <Gold.PLP.ligand.torsion>
1.0629

> <Gold.PLP.Chemscore.Hbond>
3.6864

> <Gold.PLP.Chemscore.CHOScore>
0.0000

> <Gold.PLP.Chemscore.Metal>
0.0000

> <Gold.Chemscore.Hbonds>
donor molecule, donor type, donor heavy atom, donor atom, acceptor molecule, acceptor atom, score
      L1  H    10    32       P1  7948  0.63
      L1  H    13    33       P1  7948  1.00
      P1  H  7989  7998       L1    21  0.99
      P1  H  7997  8010       L1    22  1.00

> <Gold.PLP.Chemscore.Internal.Correction>
0.7742

> <Gold.Rescore>
     Score         DG    S(hbond)    S(metal)    S(lipo)     H(rot)  DE(clash)    DE(int)     intcor
     13.40     -16.37       2.36        0.00      64.61       1.77       0.00       2.97       ----

> <Gold.Chemscore.Fitness>
13.4030

> <Gold.Chemscore.DG>
-16.3712

> <Gold.Chemscore.ZeroCoef>
-5.4800

> <Gold.Chemscore.Hbond>
2.3552

> <Gold.Chemscore.Metal>
0.0000

> <Gold.Chemscore.Lipo>
64.6052

> <Gold.Chemscore.Internal_Hbond>
0.0000

> <Gold.Chemscore.DEClash>
0.0015

> <Gold.Chemscore.DEInternal>
2.9667

> <Gold.Chemscore.Rot>
1.7711

> <Gold.Chemscore.Internal.Correction>
   9.000000E+99

> <Gold.Chemscore.Hbonds>
donor molecule, donor type, donor heavy atom, donor atom, acceptor molecule, acceptor atom, score
      L1  H    10    32       P1  7948  0.05
      L1  H    13    33       P1  7948  0.50
      P1  H  7989  7998       L1    21  0.90
      P1  H  7997  8010       L1    22  0.79

> <Gold.Chemscore.Hbond.Weighted>
-7.8664

> <Gold.Chemscore.Metal.Weighted>
-0.0000

> <Gold.Chemscore.Lipo.Weighted>
-7.5588

> <Gold.Chemscore.Internal_Hbond.Weighted>
0.0000

> <Gold.Chemscore.DEClash.Weighted>
0.0015

> <Gold.Chemscore.DEInternal.Weighted>
2.9667

> <Gold.Chemscore.Rot.Weighted>
4.5340

> <Gold.Chemscore.Internal.Correction.Weighted>
   9.000000E+99

> <Gold.Protein.RotatedTorsions>
[ 6907 6896 6895 6894 ] final  -44.97 input  -60.11 | X-H torsion
[ 7974 7965 7964 7962 ] final   29.79 input  175.53 | X-H torsion
[ 8008 7997 7996 7995 ] final   60.59 input   59.86 | X-H torsion
[ 10167 10162 10161 10158 ] final  167.59 input  -65.29 | X-H torsion
[ 10718 10713 10712 10709 ] final  -32.33 input   66.30 | X-H torsion
[ 10763 10752 10751 10750 ] final  -79.76 input  -60.55 | X-H torsion
[ 11005 11000 10999 10996 ] final  -70.70 input  -57.11 | X-H torsion

> <Gold.Protein.ActiveResidues>
 VAL166  LYS551  ARG553  GLY616  TRP617  ASP618  TYR619  PRO620  LYS621  CYS622 
 ASP623  PHE694  ASN695  SER759  ASP760  ASP761  ALA762  ILE779  LEU786  VAL792 
 PHE793  MET794  SER795  GLU796  ALA797  LYS798  CYS799  TRP800  GLU811  SER814 

> <Gold.Protein.RotatedAtoms>
  150.9270  134.8686  159.7526 H   0  0  0  0  0  0  0  0  0  0  0  0  # atno 6907 bound_to 6896
  152.5020  134.4134  159.9466 H   0  0  0  0  0  0  0  0  0  0  0  0  # atno 6908 bound_to 6896
  151.4164  133.3672  159.2785 H   0  0  0  0  0  0  0  0  0  0  0  0  # atno 6909 bound_to 6896
  146.1650  139.6874  142.9007 H   0  0  0  0  0  0  0  0  0  0  0  0  # atno 7974 bound_to 7965
  155.5848  140.3492  155.4550 H   0  0  0  0  0  0  0  0  0  0  0  0  # atno 8008 bound_to 7997
  156.0346  140.1282  157.0246 H   0  0  0  0  0  0  0  0  0  0  0  0  # atno 8009 bound_to 7997
  154.4366  140.1036  156.6135 H   0  0  0  0  0  0  0  0  0  0  0  0  # atno 8010 bound_to 7997
  139.4949  144.3905  151.9522 H   0  0  0  0  0  0  0  0  0  0  0  0  # atno 10167 bound_to 10162
  156.3763  130.4348  149.7505 H   0  0  0  0  0  0  0  0  0  0  0  0  # atno 10718 bound_to 10713
  154.5426  135.5684  153.6853 H   0  0  0  0  0  0  0  0  0  0  0  0  # atno 10763 bound_to 10752
  152.9967  135.6231  154.2481 H   0  0  0  0  0  0  0  0  0  0  0  0  # atno 10764 bound_to 10752
  154.2412  135.2862  155.2832 H   0  0  0  0  0  0  0  0  0  0  0  0  # atno 10765 bound_to 10752
  141.1579  133.6797  156.6792 H   0  0  0  0  0  0  0  0  0  0  0  0  # atno 11005 bound_to 11000
  145.4490  141.0427  143.2815 LP  0  0  0  0  0  0  0  0  0  0  0  0  # atno 17320 bound_to 7965
  144.8080  139.6014  143.7042 LP  0  0  0  0  0  0  0  0  0  0  0  0  # atno 17321 bound_to 7965
  140.3342  144.3280  150.5980 LP  0  0  0  0  0  0  0  0  0  0  0  0  # atno 17342 bound_to 10162
  140.5619  143.2191  151.7750 LP  0  0  0  0  0  0  0  0  0  0  0  0  # atno 17343 bound_to 10162
  156.4613  130.7953  151.2973 LP  0  0  0  0  0  0  0  0  0  0  0  0  # atno 17370 bound_to 10713
  157.7488  131.0065  150.3153 LP  0  0  0  0  0  0  0  0  0  0  0  0  # atno 17371 bound_to 10713
  140.3115  134.8082  157.4180 LP  0  0  0  0  0  0  0  0  0  0  0  0  # atno 17394 bound_to 11000
  140.1174  134.5264  155.8213 LP  0  0  0  0  0  0  0  0  0  0  0  0  # atno 17395 bound_to 11000

$$$$
