AV-unprocessed.smi:2588|AV-procd|sdf|10150|dock6
  -GOLD-   2272014163D 1   1.00000     0.00000
 Structure written by MMmdl.
 39 40  0  0  0  0  0  0  0  0  1 V2000
  152.7345  142.3139  162.0451 C   0  0  0  0  0  0  0  0  0  0  0  0
  152.6634  143.5137  161.0739 C   0  0  0  0  0  0  0  0  0  0  0  0
  152.2317  144.7598  161.8795 C   0  0  0  0  0  0  0  0  0  0  0  0
  151.7550  143.2519  159.9373 N   0  0  0  0  0  0  0  0  0  0  0  0
  152.1332  142.0241  159.2181 C   0  0  0  0  0  0  0  0  0  0  0  0
  151.1436  141.7017  158.0851 C   0  0  0  0  0  0  0  0  0  0  0  0
  151.0679  142.8519  157.0729 C   0  0  0  0  0  0  0  0  0  0  0  0
  150.0351  142.6026  156.0719 N   0  0  0  0  0  0  0  0  0  0  0  0
  149.9742  141.5241  155.2761 C   0  0  0  0  0  0  0  0  0  0  0  0
  150.8145  140.6234  155.2954 O   0  0  0  0  0  0  0  0  0  0  0  0
  148.7915  141.4726  154.3000 C   0  0  0  0  0  0  0  0  0  0  0  0
  147.4952  141.6154  154.9645 N   0  0  0  0  0  0  0  0  0  0  0  0
  147.1951  140.7631  155.9816 N   0  0  0  0  0  0  0  0  0  0  0  0
  146.0393  141.0114  156.4760 C   0  0  0  0  0  0  0  0  0  0  0  0
  145.1460  142.3482  155.7392 S   0  0  0  0  0  0  0  0  0  0  0  0
  146.5346  142.5691  154.6390 C   0  0  0  0  0  0  0  0  0  0  0  0
  146.5778  143.4327  153.7645 O   0  0  0  0  0  0  0  0  0  0  0  0
  150.7596  144.1436  157.8355 C   0  0  0  0  0  0  0  0  0  0  0  0
  151.7667  144.3675  158.9769 C   0  0  0  0  0  0  0  0  0  0  0  0
  153.2747  142.5773  162.9549 H   0  0  0  0  0  0  0  0  0  0  0  0
  153.2697  141.4650  161.6210 H   0  0  0  0  0  0  0  0  0  0  0  0
  151.7393  141.9801  162.3414 H   0  0  0  0  0  0  0  0  0  0  0  0
  153.6670  143.6929  160.6851 H   0  0  0  0  0  0  0  0  0  0  0  0
  152.8064  144.8486  162.8019 H   0  0  0  0  0  0  0  0  0  0  0  0
  151.1776  144.7111  162.1557 H   0  0  0  0  0  0  0  0  0  0  0  0
  152.4019  145.6888  161.3368 H   0  0  0  0  0  0  0  0  0  0  0  0
  153.1455  142.1185  158.8217 H   0  0  0  0  0  0  0  0  0  0  0  0
  152.1302  141.1649  159.8858 H   0  0  0  0  0  0  0  0  0  0  0  0
  151.4485  140.7810  157.5865 H   0  0  0  0  0  0  0  0  0  0  0  0
  150.1569  141.5108  158.5100 H   0  0  0  0  0  0  0  0  0  0  0  0
  152.0347  142.9627  156.5776 H   0  0  0  0  0  0  0  0  0  0  0  0
  149.3072  143.2971  155.9863 H   0  0  0  0  0  0  0  0  0  0  0  0
  148.8957  142.2638  153.5557 H   0  0  0  0  0  0  0  0  0  0  0  0
  148.8344  140.5287  153.7543 H   0  0  0  0  0  0  0  0  0  0  0  0
  145.5640  140.4790  157.2999 H   0  0  0  0  0  0  0  0  0  0  0  0
  150.7839  144.9936  157.1528 H   0  0  0  0  0  0  0  0  0  0  0  0
  149.7498  144.1055  158.2473 H   0  0  0  0  0  0  0  0  0  0  0  0
  151.4866  145.3007  159.4609 H   0  0  0  0  0  0  0  0  0  0  0  0
  152.7719  144.5042  158.5752 H   0  0  0  0  0  0  0  0  0  0  0  0
  1  2  1  0  0  0  0
  1 20  1  0  0  0  0
  1 21  1  0  0  0  0
  1 22  1  0  0  0  0
  2  3  1  0  0  0  0
  2  4  1  0  0  0  0
  2 23  1  0  0  0  0
  3 24  1  0  0  0  0
  3 25  1  0  0  0  0
  3 26  1  0  0  0  0
  4 19  1  0  0  0  0
  4  5  1  0  0  0  0
  5  6  1  0  0  0  0
  5 27  1  0  0  0  0
  5 28  1  0  0  0  0
  6  7  1  0  0  0  0
  6 29  1  0  0  0  0
  6 30  1  0  0  0  0
  7  8  1  0  0  0  0
  7 18  1  0  0  0  0
  7 31  1  0  0  0  0
  8  9  1  0  0  0  0
  8 32  1  0  0  0  0
  9 10  2  0  0  0  0
  9 11  1  0  0  0  0
 11 12  1  0  0  0  0
 11 33  1  0  0  0  0
 11 34  1  0  0  0  0
 12 16  1  0  0  0  0
 12 13  1  0  0  0  0
 13 14  2  0  0  0  0
 14 15  1  0  0  0  0
 14 35  1  0  0  0  0
 15 16  1  0  0  0  0
 16 17  2  0  0  0  0
 18 19  1  0  0  0  0
 18 36  1  0  0  0  0
 18 37  1  0  0  0  0
 19 38  1  0  0  0  0
 19 39  1  0  0  0  0
M  END
> <s_m_source_file>
AV-unprocessed.smi

> <i_m_source_file_index>
2588

> <i_lp_mmshare_version>
43012

> <i_f3d_flags>
0

> <s_epik_input>
W0NIM11bQ0hdKFtDSDNdKU4xW0NIMl1bQ0gyXVtDSF0oW0NIMl1bQ0gyXTEpW05IXUMoPU8pW0NIMl1uMm5bY0hdc2MyPU8=

> <s_epik_cmdline>
J2VwaWtfcHl0aG9uJywgJy1waCcsICc3LjAnLCAnLXRuJywgJzgnLCAnLW1hJywgJzIwMCcsICctbWV0YWxfYmluZGluZycsICctaW1hZScsICc8aW5maWxlLm1hZT4nLCAnLW9tYWUnLCAnPG91dGZpbGUubWFlPic=

> <r_lp_tautomer_probability>
1

> <r_epik_Ionization_Penalty>
2.47038

> <r_epik_Ionization_Penalty_Charging>
1.38606e-08

> <r_epik_Ionization_Penalty_Neutral>
2.47038

> <r_epik_State_Penalty>
2.63325

> <r_epik_Charging_Adjusted_Penalty>
2.63325

> <i_epik_Tot_Q>
0

> <i_epik_Tot_abs_Q>
0

> <r_epik_Metal_State_Penalty>
2.63325

> <b_epik_Metal_Only>
0

> <s_lp_Force_Field>
OPLS_2005

> <r_lp_Energy>
19.6439

> <b_lp_Chiralities_Consistent>
1

> <s_lp_Variant>
AV-unprocessed.smi:2588-3

> <Gold.Version>
5.8.1

> <Gold.Id.Protein>
6NUR|6NUR_protein|mol2

> <Gold.PLP.Fitness>
40.5166

> <Gold.PLP.PLP>
-34.8754

> <Gold.PLP.part.hbond>
-2.7333

> <Gold.PLP.part.metal>
0.0000

> <Gold.PLP.part.buried>
2.3295

> <Gold.PLP.part.nonpolar>
-33.8636

> <Gold.PLP.part.repulsive>
0.4522

> <Gold.PLP.ligand.clash>
0.0000

> <Gold.PLP.ligand.torsion>
0.0822

> <Gold.PLP.Chemscore.Hbond>
1.9332

> <Gold.PLP.Chemscore.CHOScore>
0.0000

> <Gold.PLP.Chemscore.Metal>
0.0000

> <Gold.Chemscore.Hbonds>
donor molecule, donor type, donor heavy atom, donor atom, acceptor molecule, acceptor atom, score
      L1  H     8    32       P1  8028  0.97
      P1  H  7989  7998       L1    10  0.91
      P1  H  8022  8030       L1    17  0.02

> <Gold.PLP.Chemscore.Internal.Correction>
0.0062

> <Gold.Rescore>
     Score         DG    S(hbond)    S(metal)    S(lipo)     H(rot)  DE(clash)    DE(int)     intcor
     15.49     -16.47       1.49        0.00      91.36       1.83       0.17       0.81       ----

> <Gold.Chemscore.Fitness>
15.4923

> <Gold.Chemscore.DG>
-16.4697

> <Gold.Chemscore.ZeroCoef>
-5.4800

> <Gold.Chemscore.Hbond>
1.4950

> <Gold.Chemscore.Metal>
0.0000

> <Gold.Chemscore.Lipo>
91.3635

> <Gold.Chemscore.Internal_Hbond>
0.0000

> <Gold.Chemscore.DEClash>
0.1664

> <Gold.Chemscore.DEInternal>
0.8110

> <Gold.Chemscore.Rot>
1.8332

> <Gold.Chemscore.Internal.Correction>
   9.000000E+99

> <Gold.Chemscore.Hbonds>
donor molecule, donor type, donor heavy atom, donor atom, acceptor molecule, acceptor atom, score
      L1  H     8    32       P1  8028  0.86
      P1  H  7989  7998       L1    10  0.22
      P1  H  8022  8030       L1    17  0.03

> <Gold.Chemscore.Hbond.Weighted>
-4.9932

> <Gold.Chemscore.Metal.Weighted>
-0.0000

> <Gold.Chemscore.Lipo.Weighted>
-10.6895

> <Gold.Chemscore.Internal_Hbond.Weighted>
0.0000

> <Gold.Chemscore.DEClash.Weighted>
0.1664

> <Gold.Chemscore.DEInternal.Weighted>
0.8110

> <Gold.Chemscore.Rot.Weighted>
4.6930

> <Gold.Chemscore.Internal.Correction.Weighted>
   9.000000E+99

> <Gold.Protein.RotatedTorsions>
[ 6907 6896 6895 6894 ] final  104.69 input  -60.11 | X-H torsion
[ 7974 7965 7964 7962 ] final   93.52 input  175.53 | X-H torsion
[ 8008 7997 7996 7995 ] final  158.36 input   59.86 | X-H torsion
[ 10167 10162 10161 10158 ] final  134.82 input  -65.29 | X-H torsion
[ 10718 10713 10712 10709 ] final   50.74 input   66.30 | X-H torsion
[ 10763 10752 10751 10750 ] final  -32.31 input  -60.55 | X-H torsion
[ 11005 11000 10999 10996 ] final -149.33 input  -57.11 | X-H torsion

> <Gold.Protein.ActiveResidues>
 VAL166  LYS551  ARG553  GLY616  TRP617  ASP618  TYR619  PRO620  LYS621  CYS622 
 ASP623  PHE694  ASN695  SER759  ASP760  ASP761  ALA762  ILE779  LEU786  VAL792 
 PHE793  MET794  SER795  GLU796  ALA797  LYS798  CYS799  TRP800  GLU811  SER814 

> <Gold.Protein.RotatedAtoms>
  152.5256  133.9639  159.7729 H   0  0  0  0  0  0  0  0  0  0  0  0  # atno 6907 bound_to 6896
  150.9924  133.6128  159.2713 H   0  0  0  0  0  0  0  0  0  0  0  0  # atno 6908 bound_to 6896
  151.3267  135.0838  159.9377 H   0  0  0  0  0  0  0  0  0  0  0  0  # atno 6909 bound_to 6896
  145.4778  139.2279  143.2899 H   0  0  0  0  0  0  0  0  0  0  0  0  # atno 7974 bound_to 7965
  156.2307  140.1860  156.7248 H   0  0  0  0  0  0  0  0  0  0  0  0  # atno 8008 bound_to 7997
  154.6018  140.0635  156.9406 H   0  0  0  0  0  0  0  0  0  0  0  0  # atno 8009 bound_to 7997
  155.2161  140.3304  155.4324 H   0  0  0  0  0  0  0  0  0  0  0  0  # atno 8010 bound_to 7997
  139.5241  144.6548  151.5194 H   0  0  0  0  0  0  0  0  0  0  0  0  # atno 10167 bound_to 10162
  157.4914  130.8378  149.8207 H   0  0  0  0  0  0  0  0  0  0  0  0  # atno 10718 bound_to 10713
  153.8117  135.6882  153.4840 H   0  0  0  0  0  0  0  0  0  0  0  0  # atno 10763 bound_to 10752
  153.1624  135.4574  154.9789 H   0  0  0  0  0  0  0  0  0  0  0  0  # atno 10764 bound_to 10752
  154.7965  135.3321  154.7597 H   0  0  0  0  0  0  0  0  0  0  0  0  # atno 10765 bound_to 10752
  140.7519  134.3397  157.5124 H   0  0  0  0  0  0  0  0  0  0  0  0  # atno 11005 bound_to 11000
  146.2359  140.5562  142.8955 LP  0  0  0  0  0  0  0  0  0  0  0  0  # atno 17320 bound_to 7965
  144.7907  140.6026  143.6543 LP  0  0  0  0  0  0  0  0  0  0  0  0  # atno 17321 bound_to 7965
  140.6369  143.8966  150.6655 LP  0  0  0  0  0  0  0  0  0  0  0  0  # atno 17342 bound_to 10162
  140.2288  143.3751  152.1583 LP  0  0  0  0  0  0  0  0  0  0  0  0  # atno 17343 bound_to 10162
  156.0175  130.3808  150.2064 LP  0  0  0  0  0  0  0  0  0  0  0  0  # atno 17370 bound_to 10713
  157.0252  130.9991  151.3328 LP  0  0  0  0  0  0  0  0  0  0  0  0  # atno 17371 bound_to 10713
  139.8786  134.9147  156.3114 LP  0  0  0  0  0  0  0  0  0  0  0  0  # atno 17394 bound_to 11000
  140.9743  133.7307  156.0579 LP  0  0  0  0  0  0  0  0  0  0  0  0  # atno 17395 bound_to 11000

$$$$
