AV-unprocessed.smi:1025|AV-procd|sdf|4467|dock6
  -GOLD-   22720 2443D 1   1.00000     0.00000
 Structure written by MMmdl.
 51 52  0  0  0  0  0  0  0  0  1 V2000
  151.9655  138.7166  156.5095 C   0  0  0  0  0  0  0  0  0  0  0  0
  150.8157  139.6077  156.5323 N   0  0  0  0  0  0  0  0  0  0  0  0
  150.2228  140.1068  155.4377 C   0  0  0  0  0  0  0  0  0  0  0  0
  150.6067  139.8481  154.2971 O   0  0  0  0  0  0  0  0  0  0  0  0
  149.0175  141.0359  155.6780 C   0  0  2  0  0  0  0  0  0  0  0  0
  147.8394  140.3153  156.3738 C   0  0  0  0  0  0  0  0  0  0  0  0
  147.0228  139.4126  155.4303 C   0  0  0  0  0  0  0  0  0  0  0  0
  146.5385  140.1870  154.1893 C   0  0  2  0  0  0  0  0  0  0  0  0
  145.8217  139.3006  153.2776 N   0  0  0  0  0  0  0  0  0  0  0  0
  146.1661  138.0364  152.9951 C   0  0  0  0  0  0  0  0  0  0  0  0
  147.1491  137.4772  153.4794 O   0  0  0  0  0  0  0  0  0  0  0  0
  145.2968  137.4808  152.1339 N   0  0  0  0  0  0  0  0  0  0  0  0
  145.2802  136.1597  151.6104 C   0  0  0  0  0  0  0  0  0  0  0  0
  146.1807  135.1235  151.9569 C   0  0  0  0  0  0  0  0  0  0  0  0
  146.0905  133.8939  151.4066 N   0  0  0  0  0  0  0  0  0  0  0  0
  145.1397  133.6873  150.4862 C   0  0  0  0  0  0  0  0  0  0  0  0
  144.9459  132.2447  149.9866 C   0  0  0  0  0  0  0  0  0  0  0  0
  144.7036  131.2753  151.1672 C   0  0  0  0  0  0  0  0  0  0  0  0
  146.1951  131.8020  149.2027 C   0  0  0  0  0  0  0  0  0  0  0  0
  143.6995  132.1315  149.0774 C   0  0  0  0  0  0  0  0  0  0  0  0
  144.2226  134.5894  150.1134 N   0  0  0  0  0  0  0  0  0  0  0  0
  144.3012  135.8229  150.6546 C   0  0  0  0  0  0  0  0  0  0  0  0
  147.7223  140.8368  153.4516 C   0  0  0  0  0  0  0  0  0  0  0  0
  148.5419  141.7444  154.3880 C   0  0  0  0  0  0  0  0  0  0  0  0
  152.2494  138.4506  157.5277 H   0  0  0  0  0  0  0  0  0  0  0  0
  152.8201  139.1976  156.0319 H   0  0  0  0  0  0  0  0  0  0  0  0
  151.7351  137.7977  155.9686 H   0  0  0  0  0  0  0  0  0  0  0  0
  150.4459  139.8621  157.4368 H   0  0  0  0  0  0  0  0  0  0  0  0
  149.3589  141.8166  156.3600 H   0  0  0  0  0  0  0  0  0  0  0  0
  148.2021  139.7278  157.2185 H   0  0  0  0  0  0  0  0  0  0  0  0
  147.1736  141.0660  156.8011 H   0  0  0  0  0  0  0  0  0  0  0  0
  147.6185  138.5523  155.1244 H   0  0  0  0  0  0  0  0  0  0  0  0
  146.1684  139.0074  155.9735 H   0  0  0  0  0  0  0  0  0  0  0  0
  145.8666  140.9844  154.5129 H   0  0  0  0  0  0  0  0  0  0  0  0
  144.9982  139.6790  152.8330 H   0  0  0  0  0  0  0  0  0  0  0  0
  144.5223  138.0641  151.8527 H   0  0  0  0  0  0  0  0  0  0  0  0
  146.9822  135.2505  152.6665 H   0  0  0  0  0  0  0  0  0  0  0  0
  144.5203  130.2595  150.8151 H   0  0  0  0  0  0  0  0  0  0  0  0
  143.8385  131.5779  151.7587 H   0  0  0  0  0  0  0  0  0  0  0  0
  145.5618  131.2251  151.8380 H   0  0  0  0  0  0  0  0  0  0  0  0
  147.0881  131.8390  149.8275 H   0  0  0  0  0  0  0  0  0  0  0  0
  146.3706  132.4467  148.3407 H   0  0  0  0  0  0  0  0  0  0  0  0
  146.0937  130.7806  148.8348 H   0  0  0  0  0  0  0  0  0  0  0  0
  143.5332  131.1024  148.7574 H   0  0  0  0  0  0  0  0  0  0  0  0
  143.7991  132.7293  148.1706 H   0  0  0  0  0  0  0  0  0  0  0  0
  142.7986  132.4630  149.5953 H   0  0  0  0  0  0  0  0  0  0  0  0
  143.5658  136.5437  150.3281 H   0  0  0  0  0  0  0  0  0  0  0  0
  148.3628  140.0668  153.0212 H   0  0  0  0  0  0  0  0  0  0  0  0
  147.3549  141.4257  152.6102 H   0  0  0  0  0  0  0  0  0  0  0  0
  147.9300  142.6035  154.6661 H   0  0  0  0  0  0  0  0  0  0  0  0
  149.3953  142.1536  153.8456 H   0  0  0  0  0  0  0  0  0  0  0  0
  1  2  1  0  0  0  0
  1 25  1  0  0  0  0
  1 26  1  0  0  0  0
  1 27  1  0  0  0  0
  2  3  1  0  0  0  0
  2 28  1  0  0  0  0
  3  4  2  0  0  0  0
  3  5  1  0  0  0  0
  5 24  1  0  0  0  0
  5  6  1  0  0  0  0
  5 29  1  0  0  0  0
  6  7  1  0  0  0  0
  6 30  1  0  0  0  0
  6 31  1  0  0  0  0
  7  8  1  0  0  0  0
  7 32  1  0  0  0  0
  7 33  1  0  0  0  0
  8  9  1  0  0  0  0
  8 23  1  0  0  0  0
  8 34  1  0  0  0  0
  9 10  1  0  0  0  0
  9 35  1  0  0  0  0
 10 11  2  0  0  0  0
 10 12  1  0  0  0  0
 12 13  1  0  0  0  0
 12 36  1  0  0  0  0
 13 22  1  0  0  0  0
 13 14  2  0  0  0  0
 14 15  1  0  0  0  0
 14 37  1  0  0  0  0
 15 16  2  0  0  0  0
 16 17  1  0  0  0  0
 16 21  1  0  0  0  0
 17 18  1  0  0  0  0
 17 19  1  0  0  0  0
 17 20  1  0  0  0  0
 18 38  1  0  0  0  0
 18 39  1  0  0  0  0
 18 40  1  0  0  0  0
 19 41  1  0  0  0  0
 19 42  1  0  0  0  0
 19 43  1  0  0  0  0
 20 44  1  0  0  0  0
 20 45  1  0  0  0  0
 20 46  1  0  0  0  0
 21 22  2  0  0  0  0
 22 47  1  0  0  0  0
 23 24  1  0  0  0  0
 23 48  1  0  0  0  0
 23 49  1  0  0  0  0
 24 50  1  0  0  0  0
 24 51  1  0  0  0  0
M  END
> <s_m_source_file>
AV-unprocessed.smi

> <i_m_source_file_index>
1025

> <i_lp_mmshare_version>
43012

> <i_f3d_flags>
0

> <s_epik_input>
W0NIM11bTkhdQyg9TylbQ0BASF0xW0NIMl1bQ0gyXVtDQEhdKFtDSDJdW0NIMl0xKVtOSF1DKD1PKVtOSF1jMltjSF1uYyhDKFtDSDNdKShbQ0gzXSlbQ0gzXSluW2NIXTI=

> <s_epik_cmdline>
J2VwaWtfcHl0aG9uJywgJy1waCcsICc3LjAnLCAnLXRuJywgJzgnLCAnLW1hJywgJzIwMCcsICctbWV0YWxfYmluZGluZycsICctaW1hZScsICc8aW5maWxlLm1hZT4nLCAnLW9tYWUnLCAnPG91dGZpbGUubWFlPic=

> <r_lp_tautomer_probability>
1

> <r_epik_Ionization_Penalty>
2.76239e-05

> <r_epik_Ionization_Penalty_Charging>
0

> <r_epik_Ionization_Penalty_Neutral>
2.76239e-05

> <r_epik_State_Penalty>
-0

> <r_epik_Charging_Adjusted_Penalty>
0

> <i_epik_Tot_Q>
0

> <i_epik_Tot_abs_Q>
0

> <r_epik_Metal_State_Penalty>
-0

> <b_epik_Metal_Only>
0

> <s_lp_Force_Field>
OPLS_2005

> <r_lp_Energy>
4.91063

> <b_lp_Chiralities_Consistent>
1

> <s_lp_Variant>
AV-unprocessed.smi:1025-2

> <Gold.Version>
5.8.1

> <Gold.Id.Protein>
6NUR|6NUR_protein|mol2

> <Gold.PLP.Fitness>
43.7814

> <Gold.PLP.PLP>
-32.4068

> <Gold.PLP.part.hbond>
-3.0000

> <Gold.PLP.part.metal>
0.0000

> <Gold.PLP.part.buried>
1.6253

> <Gold.PLP.part.nonpolar>
-34.3328

> <Gold.PLP.part.repulsive>
3.2711

> <Gold.PLP.ligand.clash>
0.0000

> <Gold.PLP.ligand.torsion>
0.4789

> <Gold.PLP.Chemscore.Hbond>
2.3463

> <Gold.PLP.Chemscore.CHOScore>
1.7025

> <Gold.PLP.Chemscore.Metal>
0.0000

> <Gold.Chemscore.Hbonds>
donor molecule, donor type, donor heavy atom, donor atom, acceptor molecule, acceptor atom, score
      L1  H     9    35       P1 10175  1.00
      L1  H    12    36       P1 10171  0.33
      P1  H  7989  7998       L1     4  1.00
      L1  C    14    37       P1  7948  0.72
      L1  C    22    47       P1 10171  0.98

> <Gold.PLP.Chemscore.Internal.Correction>
0.1859

> <Gold.Rescore>
     Score         DG    S(hbond)    S(metal)    S(lipo)     H(rot)  DE(clash)    DE(int)     intcor
     14.60     -21.33       2.92        0.00      85.41       1.52       3.70       3.03       ----

> <Gold.Chemscore.Fitness>
14.5989

> <Gold.Chemscore.DG>
-21.3272

> <Gold.Chemscore.ZeroCoef>
-5.4800

> <Gold.Chemscore.Hbond>
2.9158

> <Gold.Chemscore.Metal>
0.0000

> <Gold.Chemscore.Lipo>
85.4051

> <Gold.Chemscore.Internal_Hbond>
0.0000

> <Gold.Chemscore.DEClash>
3.6959

> <Gold.Chemscore.DEInternal>
3.0325

> <Gold.Chemscore.Rot>
1.5171

> <Gold.Chemscore.Internal.Correction>
   9.000000E+99

> <Gold.Chemscore.Hbonds>
donor molecule, donor type, donor heavy atom, donor atom, acceptor molecule, acceptor atom, score
      L1  H     9    35       P1 10175  0.97
      L1  H    12    36       P1 10171  0.34
      P1  H  7989  7998       L1     4  0.98

> <Gold.Chemscore.Hbond.Weighted>
-9.7387

> <Gold.Chemscore.Metal.Weighted>
-0.0000

> <Gold.Chemscore.Lipo.Weighted>
-9.9924

> <Gold.Chemscore.Internal_Hbond.Weighted>
0.0000

> <Gold.Chemscore.DEClash.Weighted>
3.6959

> <Gold.Chemscore.DEInternal.Weighted>
3.0325

> <Gold.Chemscore.Rot.Weighted>
3.8839

> <Gold.Chemscore.Internal.Correction.Weighted>
   9.000000E+99

> <Gold.Protein.RotatedTorsions>
[ 6907 6896 6895 6894 ] final -164.14 input  -60.11 | X-H torsion
[ 7974 7965 7964 7962 ] final -171.38 input  175.53 | X-H torsion
[ 8008 7997 7996 7995 ] final -110.14 input   59.86 | X-H torsion
[ 10167 10162 10161 10158 ] final -158.17 input  -65.29 | X-H torsion
[ 10718 10713 10712 10709 ] final  -14.30 input   66.30 | X-H torsion
[ 10763 10752 10751 10750 ] final -108.77 input  -60.55 | X-H torsion
[ 11005 11000 10999 10996 ] final  126.47 input  -57.11 | X-H torsion

> <Gold.Protein.ActiveResidues>
 VAL166  LYS551  ARG553  GLY616  TRP617  ASP618  TYR619  PRO620  LYS621  CYS622 
 ASP623  PHE694  ASN695  SER759  ASP760  ASP761  ALA762  ILE779  LEU786  VAL792 
 PHE793  MET794  SER795  GLU796  ALA797  LYS798  CYS799  TRP800  GLU811  SER814 

> <Gold.Protein.RotatedAtoms>
  151.4071  133.3739  159.2739 H   0  0  0  0  0  0  0  0  0  0  0  0  # atno 6907 bound_to 6896
  150.9390  134.8802  159.7611 H   0  0  0  0  0  0  0  0  0  0  0  0  # atno 6908 bound_to 6896
  152.5063  134.4021  159.9472 H   0  0  0  0  0  0  0  0  0  0  0  0  # atno 6909 bound_to 6896
  144.7158  140.1930  143.6346 H   0  0  0  0  0  0  0  0  0  0  0  0  # atno 7974 bound_to 7965
  154.9699  140.0398  157.2229 H   0  0  0  0  0  0  0  0  0  0  0  0  # atno 8008 bound_to 7997
  154.7810  140.2819  155.6041 H   0  0  0  0  0  0  0  0  0  0  0  0  # atno 8009 bound_to 7997
  156.2936  140.2591  156.2636 H   0  0  0  0  0  0  0  0  0  0  0  0  # atno 8010 bound_to 7997
  139.6713  143.9740  152.2285 H   0  0  0  0  0  0  0  0  0  0  0  0  # atno 10167 bound_to 10162
  156.6179  130.4867  149.6176 H   0  0  0  0  0  0  0  0  0  0  0  0  # atno 10718 bound_to 10713
  154.8155  135.4625  154.0631 H   0  0  0  0  0  0  0  0  0  0  0  0  # atno 10763 bound_to 10752
  153.2027  135.6871  153.8217 H   0  0  0  0  0  0  0  0  0  0  0  0  # atno 10764 bound_to 10752
  153.7696  135.3272  155.3327 H   0  0  0  0  0  0  0  0  0  0  0  0  # atno 10765 bound_to 10752
  139.9457  134.9630  156.8711 H   0  0  0  0  0  0  0  0  0  0  0  0  # atno 11005 bound_to 11000
  145.8751  139.2292  143.1638 LP  0  0  0  0  0  0  0  0  0  0  0  0  # atno 17320 bound_to 7965
  146.0048  140.8488  143.0000 LP  0  0  0  0  0  0  0  0  0  0  0  0  # atno 17321 bound_to 7965
  139.9505  144.6623  150.8176 LP  0  0  0  0  0  0  0  0  0  0  0  0  # atno 17342 bound_to 10162
  140.7619  143.3185  151.2676 LP  0  0  0  0  0  0  0  0  0  0  0  0  # atno 17343 bound_to 10162
  156.2336  130.6809  151.1487 LP  0  0  0  0  0  0  0  0  0  0  0  0  # atno 17370 bound_to 10713
  157.7236  131.0665  150.6030 LP  0  0  0  0  0  0  0  0  0  0  0  0  # atno 17371 bound_to 10713
  140.5839  134.0325  155.7474 LP  0  0  0  0  0  0  0  0  0  0  0  0  # atno 17394 bound_to 11000
  141.1107  133.9621  157.2915 LP  0  0  0  0  0  0  0  0  0  0  0  0  # atno 17395 bound_to 11000

$$$$
