AV-unprocessed.smi:1107|AV-procd|sdf|4784|dock5
  -GOLD-   22720 3323D 1   1.00000     0.00000
 Structure written by MMmdl.
 49 50  0  0  0  0  0  0  0  0  2 V2000
  150.5905  143.1059  158.1551 C   0  0  0  0  0  0  0  0  0  0  0  0
  150.6588  141.9594  157.1705 C   0  0  0  0  0  0  0  0  0  0  0  0
  149.6967  142.0218  156.1767 N   0  0  0  0  0  0  0  0  0  0  0  0
  149.6694  141.0074  155.2361 C   0  0  0  0  0  0  0  0  0  0  0  0
  148.5720  141.1461  154.1960 C   0  0  0  0  0  0  0  0  0  0  0  0
  150.5609  139.9846  155.2804 C   0  0  0  0  0  0  0  0  0  0  0  0
  150.5528  138.8285  154.2823 C   0  0  0  0  0  0  0  0  0  0  0  0
  150.3666  137.4540  154.9214 C   0  0  0  0  0  0  0  0  0  0  0  0
  151.3455  136.7984  155.2747 O   0  0  0  0  0  0  0  0  0  0  0  0
  149.1014  137.0147  155.0113 N   0  0  0  0  0  0  0  0  0  0  0  0
  148.6878  135.6634  155.3870 C   0  0  1  0  0  0  0  0  0  0  0  0
  149.0586  135.3952  156.8517 C   0  0  0  0  0  0  0  0  0  0  0  0
  147.1754  135.4720  155.1293 C   0  0  0  0  0  0  0  0  0  0  0  0
  146.8656  134.8928  153.7944 N   0  3  0  0  0  0  0  0  0  0  0  0
  145.5471  135.3406  153.2760 C   0  0  0  0  0  0  0  0  0  0  0  0
  145.3241  134.8609  151.8317 C   0  0  0  0  0  0  0  0  0  0  0  0
  145.4768  133.3384  151.7205 C   0  0  0  0  0  0  0  0  0  0  0  0
  146.8263  132.8993  152.3029 C   0  0  0  0  0  0  0  0  0  0  0  0
  146.9983  133.4126  153.7416 C   0  0  0  0  0  0  0  0  0  0  0  0
  151.5655  139.9716  156.3702 C   0  0  0  0  0  0  0  0  0  0  0  0
  152.3839  139.0593  156.4793 O   0  0  0  0  0  0  0  0  0  0  0  0
  151.5513  141.0251  157.2976 N   0  0  0  0  0  0  0  0  0  0  0  0
  149.0156  142.7645  156.1066 H   0  0  0  0  0  0  0  0  0  0  0  0
  151.3910  143.0362  158.8927 H   0  0  0  0  0  0  0  0  0  0  0  0
  149.6374  143.0937  158.6850 H   0  0  0  0  0  0  0  0  0  0  0  0
  150.6877  144.0601  157.6363 H   0  0  0  0  0  0  0  0  0  0  0  0
  147.9069  140.2832  154.2244 H   0  0  0  0  0  0  0  0  0  0  0  0
  149.0002  141.2209  153.1964 H   0  0  0  0  0  0  0  0  0  0  0  0
  147.9672  142.0377  154.3666 H   0  0  0  0  0  0  0  0  0  0  0  0
  151.4661  138.8320  153.6857 H   0  0  0  0  0  0  0  0  0  0  0  0
  149.7516  138.9804  153.5590 H   0  0  0  0  0  0  0  0  0  0  0  0
  148.3685  137.6457  154.7192 H   0  0  0  0  0  0  0  0  0  0  0  0
  149.2269  134.9296  154.7861 H   0  0  0  0  0  0  0  0  0  0  0  0
  148.7740  134.3854  157.1488 H   0  0  0  0  0  0  0  0  0  0  0  0
  148.5593  136.0934  157.5243 H   0  0  0  0  0  0  0  0  0  0  0  0
  150.1334  135.4930  157.0084 H   0  0  0  0  0  0  0  0  0  0  0  0
  146.7265  134.8610  155.9138 H   0  0  0  0  0  0  0  0  0  0  0  0
  146.6977  136.4510  155.1934 H   0  0  0  0  0  0  0  0  0  0  0  0
  144.7540  134.9660  153.9252 H   0  0  0  0  0  0  0  0  0  0  0  0
  145.4904  136.4296  153.3005 H   0  0  0  0  0  0  0  0  0  0  0  0
  144.3344  135.1623  151.4869 H   0  0  0  0  0  0  0  0  0  0  0  0
  146.0398  135.3490  151.1716 H   0  0  0  0  0  0  0  0  0  0  0  0
  144.6657  132.8466  152.2590 H   0  0  0  0  0  0  0  0  0  0  0  0
  145.3961  133.0267  150.6786 H   0  0  0  0  0  0  0  0  0  0  0  0
  146.9057  131.8121  152.2821 H   0  0  0  0  0  0  0  0  0  0  0  0
  147.6365  133.2801  151.6805 H   0  0  0  0  0  0  0  0  0  0  0  0
  147.9764  133.1031  154.1073 H   0  0  0  0  0  0  0  0  0  0  0  0
  146.2571  132.9540  154.3982 H   0  0  0  0  0  0  0  0  0  0  0  0
  147.5572  135.2675  153.1608 H   0  0  0  0  0  0  0  0  0  0  0  0
  1 24  1  0  0  0  0
  1 25  1  0  0  0  0
  1 26  1  0  0  0  0
  1  2  1  0  0  0  0
  2  3  1  0  0  0  0
  2 22  2  0  0  0  0
  3  4  1  0  0  0  0
  3 23  1  0  0  0  0
  4  6  2  0  0  0  0
  4  5  1  0  0  0  0
  5 27  1  0  0  0  0
  5 28  1  0  0  0  0
  5 29  1  0  0  0  0
  6 20  1  0  0  0  0
  6  7  1  0  0  0  0
  7  8  1  0  0  0  0
  7 30  1  0  0  0  0
  7 31  1  0  0  0  0
  8  9  2  0  0  0  0
  8 10  1  0  0  0  0
 10 11  1  0  0  0  0
 10 32  1  0  0  0  0
 11 12  1  0  0  0  0
 11 13  1  0  0  0  0
 11 33  1  0  0  0  0
 12 34  1  0  0  0  0
 12 35  1  0  0  0  0
 12 36  1  0  0  0  0
 13 14  1  0  0  0  0
 13 37  1  0  0  0  0
 13 38  1  0  0  0  0
 14 19  1  0  0  0  0
 14 15  1  0  0  0  0
 14 49  1  0  0  0  0
 15 16  1  0  0  0  0
 15 39  1  0  0  0  0
 15 40  1  0  0  0  0
 16 17  1  0  0  0  0
 16 41  1  0  0  0  0
 16 42  1  0  0  0  0
 17 18  1  0  0  0  0
 17 43  1  0  0  0  0
 17 44  1  0  0  0  0
 18 19  1  0  0  0  0
 18 45  1  0  0  0  0
 18 46  1  0  0  0  0
 19 47  1  0  0  0  0
 19 48  1  0  0  0  0
 20 21  2  0  0  0  0
 20 22  1  0  0  0  0
M  CHG  1  14   1
M  END
> <s_m_source_file>
AV-unprocessed.smi

> <i_m_source_file_index>
1107

> <i_lp_mmshare_version>
43012

> <i_f3d_flags>
0

> <s_epik_input>
W0NIM11jMW5jKFtDSDNdKWMoYyg9TylbbkhdMSlbQ0gyXUMoPU8pW05IXVtDQEhdKFtDSDNdKVtDSDJdTjJbQ0gyXVtDSDJdW0NIMl1bQ0gyXVtDSDJdMg==

> <s_epik_cmdline>
J2VwaWtfcHl0aG9uJywgJy1waCcsICc3LjAnLCAnLXRuJywgJzgnLCAnLW1hJywgJzIwMCcsICctbWV0YWxfYmluZGluZycsICctaW1hZScsICc8aW5maWxlLm1hZT4nLCAnLW9tYWUnLCAnPG91dGZpbGUubWFlPic=

> <r_lp_tautomer_probability>
0.156392

> <r_epik_Ionization_Penalty>
0.0190033

> <r_epik_Ionization_Penalty_Charging>
0.0189172

> <r_epik_Ionization_Penalty_Neutral>
8.60838e-05

> <r_epik_State_Penalty>
1.15342

> <r_epik_Charging_Adjusted_Penalty>
1.17233

> <i_epik_Tot_Q>
1

> <i_epik_Tot_abs_Q>
1

> <r_epik_Metal_State_Penalty>
1.34593

> <b_epik_Metal_Only>
0

> <s_lp_Force_Field>
OPLS_2005

> <r_lp_Energy>
24.7354

> <b_lp_Chiralities_Consistent>
1

> <s_lp_Variant>
AV-unprocessed.smi:1107-4

> <Gold.Version>
5.8.1

> <Gold.Id.Protein>
6NUR|6NUR_protein|mol2

> <Gold.PLP.Fitness>
48.5866

> <Gold.PLP.PLP>
-36.1087

> <Gold.PLP.part.hbond>
-4.9799

> <Gold.PLP.part.metal>
0.0000

> <Gold.PLP.part.buried>
-0.4395

> <Gold.PLP.part.nonpolar>
-29.2167

> <Gold.PLP.part.repulsive>
0.1961

> <Gold.PLP.ligand.clash>
0.0000

> <Gold.PLP.ligand.torsion>
1.1992

> <Gold.PLP.Chemscore.Hbond>
4.9357

> <Gold.PLP.Chemscore.CHOScore>
0.0000

> <Gold.PLP.Chemscore.Metal>
0.0000

> <Gold.Chemscore.Hbonds>
donor molecule, donor type, donor heavy atom, donor atom, acceptor molecule, acceptor atom, score
      L1  H     3    23       P1  8028  0.83
      L1  H    14    49       P1  7948  1.56
      P1  H  7997  8009       L1    21  0.52
      P1  H 10752 10765       L1     9  0.76

> <Gold.PLP.Chemscore.Internal.Correction>
0.0690

> <Gold.Rescore>
     Score         DG    S(hbond)    S(metal)    S(lipo)     H(rot)  DE(clash)    DE(int)     intcor
     18.43     -20.72       3.60        0.00      71.02       1.98       0.15       2.14       ----

> <Gold.Chemscore.Fitness>
18.4304

> <Gold.Chemscore.DG>
-20.7218

> <Gold.Chemscore.ZeroCoef>
-5.4800

> <Gold.Chemscore.Hbond>
3.5961

> <Gold.Chemscore.Metal>
0.0000

> <Gold.Chemscore.Lipo>
71.0177

> <Gold.Chemscore.Internal_Hbond>
0.0000

> <Gold.Chemscore.DEClash>
0.1494

> <Gold.Chemscore.DEInternal>
2.1420

> <Gold.Chemscore.Rot>
1.9837

> <Gold.Chemscore.Internal.Correction>
   9.000000E+99

> <Gold.Chemscore.Hbonds>
donor molecule, donor type, donor heavy atom, donor atom, acceptor molecule, acceptor atom, score
      L1  H     3    23       P1  8028  0.78
      L1  H    14    49       P1  7948  0.77
      P1  H  7997  8009       L1    21  0.21
      P1  H 10752 10765       L1     9  0.77

> <Gold.Chemscore.Hbond.Weighted>
-12.0110

> <Gold.Chemscore.Metal.Weighted>
-0.0000

> <Gold.Chemscore.Lipo.Weighted>
-8.3091

> <Gold.Chemscore.Internal_Hbond.Weighted>
0.0000

> <Gold.Chemscore.DEClash.Weighted>
0.1494

> <Gold.Chemscore.DEInternal.Weighted>
2.1420

> <Gold.Chemscore.Rot.Weighted>
5.0783

> <Gold.Chemscore.Internal.Correction.Weighted>
   9.000000E+99

> <Gold.Protein.RotatedTorsions>
[ 6907 6896 6895 6894 ] final  155.39 input  -60.11 | X-H torsion
[ 7974 7965 7964 7962 ] final  108.54 input  175.53 | X-H torsion
[ 8008 7997 7996 7995 ] final -163.62 input   59.86 | X-H torsion
[ 10167 10162 10161 10158 ] final -131.92 input  -65.29 | X-H torsion
[ 10718 10713 10712 10709 ] final   59.25 input   66.30 | X-H torsion
[ 10763 10752 10751 10750 ] final  173.12 input  -60.55 | X-H torsion
[ 11005 11000 10999 10996 ] final  157.04 input  -57.11 | X-H torsion

> <Gold.Protein.ActiveResidues>
 VAL166  LYS551  ARG553  GLY616  TRP617  ASP618  TYR619  PRO620  LYS621  CYS622 
 ASP623  PHE694  ASN695  SER759  ASP760  ASP761  ALA762  ILE779  LEU786  VAL792 
 PHE793  MET794  SER795  GLU796  ALA797  LYS798  CYS799  TRP800  GLU811  SER814 

> <Gold.Protein.RotatedAtoms>
  152.0448  133.3993  159.4351 H   0  0  0  0  0  0  0  0  0  0  0  0  # atno 6907 bound_to 6896
  150.6873  134.3374  159.4862 H   0  0  0  0  0  0  0  0  0  0  0  0  # atno 6908 bound_to 6896
  152.1177  134.9228  160.0615 H   0  0  0  0  0  0  0  0  0  0  0  0  # atno 6909 bound_to 6896
  145.2794  139.2638  143.3924 H   0  0  0  0  0  0  0  0  0  0  0  0  # atno 7974 bound_to 7965
  155.8239  140.0924  157.1832 H   0  0  0  0  0  0  0  0  0  0  0  0  # atno 8008 bound_to 7997
  154.3979  140.1431  156.3593 H   0  0  0  0  0  0  0  0  0  0  0  0  # atno 8009 bound_to 7997
  155.8237  140.3445  155.5532 H   0  0  0  0  0  0  0  0  0  0  0  0  # atno 8010 bound_to 7997
  139.9139  143.6461  152.2569 H   0  0  0  0  0  0  0  0  0  0  0  0  # atno 10167 bound_to 10162
  157.5661  130.8872  149.9189 H   0  0  0  0  0  0  0  0  0  0  0  0  # atno 10718 bound_to 10713
  154.4356  135.2761  155.1883 H   0  0  0  0  0  0  0  0  0  0  0  0  # atno 10763 bound_to 10752
  154.3771  135.6096  153.5774 H   0  0  0  0  0  0  0  0  0  0  0  0  # atno 10764 bound_to 10752
  152.9838  135.5871  154.4674 H   0  0  0  0  0  0  0  0  0  0  0  0  # atno 10765 bound_to 10752
  140.1732  134.8528  157.2715 H   0  0  0  0  0  0  0  0  0  0  0  0  # atno 11005 bound_to 11000
  146.3221  140.3257  142.8636 LP  0  0  0  0  0  0  0  0  0  0  0  0  # atno 17320 bound_to 7965
  144.9266  140.7928  143.5715 LP  0  0  0  0  0  0  0  0  0  0  0  0  # atno 17321 bound_to 7965
  139.6919  144.7646  151.1424 LP  0  0  0  0  0  0  0  0  0  0  0  0  # atno 17342 bound_to 10162
  140.7679  143.5578  150.9133 LP  0  0  0  0  0  0  0  0  0  0  0  0  # atno 17343 bound_to 10162
  156.0709  130.3685  150.0778 LP  0  0  0  0  0  0  0  0  0  0  0  0  # atno 17370 bound_to 10713
  156.8937  130.9597  151.3585 LP  0  0  0  0  0  0  0  0  0  0  0  0  # atno 17371 bound_to 10713
  140.2353  134.3860  155.7504 LP  0  0  0  0  0  0  0  0  0  0  0  0  # atno 17394 bound_to 11000
  141.2219  133.7236  156.8705 LP  0  0  0  0  0  0  0  0  0  0  0  0  # atno 17395 bound_to 11000

$$$$
