AV-unprocessed.smi:261|AV-procd|sdf|1991|dock4
  -GOLD-   2262021173D 1   1.00000     0.00000
 Structure written by MMmdl.
 51 54  0  0  0  0  0  0  0  0  1 V2000
  152.8950  142.8460  159.9803 C   0  0  0  0  0  0  0  0  0  0  0  0
  152.3705  143.0233  158.6748 O   0  0  0  0  0  0  0  0  0  0  0  0
  151.3164  142.1252  158.3590 C   0  0  1  0  0  0  0  0  0  0  0  0
  150.8682  142.2020  156.9004 C   0  0  0  0  0  0  0  0  0  0  0  0
  150.2476  140.8215  156.6352 C   0  0  1  0  0  0  0  0  0  0  0  0
  150.2988  140.4782  155.1332 C   0  0  0  0  0  0  0  0  0  0  0  0
  149.2618  140.8138  154.3589 N   0  0  0  0  0  0  0  0  0  0  0  0
  151.2869  139.9104  154.6735 O   0  0  0  0  0  0  0  0  0  0  0  0
  151.0138  139.9210  157.5082 N   0  0  0  0  0  0  0  0  0  0  0  0
  150.5867  138.6665  157.8207 C   0  0  0  0  0  0  0  0  0  0  0  0
  150.4279  138.3228  159.1268 N   0  0  0  0  0  0  0  0  0  0  0  0
  150.0012  137.1024  159.4629 C   0  0  0  0  0  0  0  0  0  0  0  0
  149.6742  136.0848  158.6656 N   0  0  0  0  0  0  0  0  0  0  0  0
  149.8229  136.4209  157.3530 C   0  0  0  0  0  0  0  0  0  0  0  0
  150.2682  137.6753  156.8457 C   0  0  0  0  0  0  0  0  0  0  0  0
  150.2731  137.6403  155.4549 N   0  0  0  0  0  0  0  0  0  0  0  0
  149.8682  136.4352  155.1599 C   0  0  0  0  0  0  0  0  0  0  0  0
  149.5734  135.6372  156.2411 N   0  0  0  0  0  0  0  0  0  0  0  0
  149.0911  134.2674  156.2120 C   0  0  0  0  0  0  0  0  0  0  0  0
  149.0136  133.6973  154.7819 C   0  0  2  0  0  0  0  0  0  0  0  0
  147.9881  134.3659  154.0718 O   0  0  0  0  0  0  0  0  0  0  0  0
  148.7236  132.1849  154.7712 C   0  0  1  0  0  0  0  0  0  0  0  0
  148.5068  131.5910  153.3789 C   0  0  0  0  0  0  0  0  0  0  0  0
  148.8131  130.1304  153.6193 C   0  0  0  0  0  0  0  0  0  0  0  0
  149.9709  130.2074  154.6112 C   0  0  0  0  0  0  0  0  0  0  0  0
  149.8387  131.4588  155.2823 O   0  0  0  0  0  0  0  0  0  0  0  0
  151.7839  140.6760  158.4905 C   0  0  0  0  0  0  0  0  0  0  0  0
  150.4603  142.2812  159.0185 H   0  0  0  0  0  0  0  0  0  0  0  0
  149.2063  140.8389  156.9614 H   0  0  0  0  0  0  0  0  0  0  0  0
  153.7117  143.5495  160.1424 H   0  0  0  0  0  0  0  0  0  0  0  0
  153.2899  141.8382  160.1133 H   0  0  0  0  0  0  0  0  0  0  0  0
  152.1397  143.0301  160.7448 H   0  0  0  0  0  0  0  0  0  0  0  0
  150.1646  143.0154  156.7208 H   0  0  0  0  0  0  0  0  0  0  0  0
  151.7381  142.3654  156.2610 H   0  0  0  0  0  0  0  0  0  0  0  0
  149.2786  140.5928  153.3738 H   0  0  0  0  0  0  0  0  0  0  0  0
  148.4649  141.2836  154.7632 H   0  0  0  0  0  0  0  0  0  0  0  0
  149.9067  136.9160  160.5225 H   0  0  0  0  0  0  0  0  0  0  0  0
  149.7700  136.0949  154.1393 H   0  0  0  0  0  0  0  0  0  0  0  0
  149.7626  133.6647  156.8244 H   0  0  0  0  0  0  0  0  0  0  0  0
  148.1131  134.2286  156.6939 H   0  0  0  0  0  0  0  0  0  0  0  0
  149.9568  133.8843  154.2667 H   0  0  0  0  0  0  0  0  0  0  0  0
  148.3781  134.8258  153.3442 H   0  0  0  0  0  0  0  0  0  0  0  0
  147.8602  131.9576  155.3992 H   0  0  0  0  0  0  0  0  0  0  0  0
  147.4997  131.7573  152.9957 H   0  0  0  0  0  0  0  0  0  0  0  0
  149.2187  132.0095  152.6658 H   0  0  0  0  0  0  0  0  0  0  0  0
  147.9548  129.6411  154.0816 H   0  0  0  0  0  0  0  0  0  0  0  0
  149.0669  129.5877  152.7084 H   0  0  0  0  0  0  0  0  0  0  0  0
  149.9608  129.3766  155.3171 H   0  0  0  0  0  0  0  0  0  0  0  0
  150.9275  130.1954  154.0883 H   0  0  0  0  0  0  0  0  0  0  0  0
  152.8415  140.5841  158.2398 H   0  0  0  0  0  0  0  0  0  0  0  0
  151.6451  140.3208  159.5126 H   0  0  0  0  0  0  0  0  0  0  0  0
  1  2  1  0  0  0  0
  1 30  1  0  0  0  0
  1 31  1  0  0  0  0
  1 32  1  0  0  0  0
  2  3  1  0  0  0  0
  3 28  1  0  0  0  0
  3 27  1  0  0  0  0
  3  4  1  0  0  0  0
  4  5  1  0  0  0  0
  4 33  1  0  0  0  0
  4 34  1  0  0  0  0
  5 29  1  0  0  0  0
  5  6  1  0  0  0  0
  5  9  1  0  0  0  0
  6  7  1  0  0  0  0
  6  8  2  0  0  0  0
  7 35  1  0  0  0  0
  7 36  1  0  0  0  0
  9 10  1  0  0  0  0
  9 27  1  0  0  0  0
 10 15  1  0  0  0  0
 10 11  2  0  0  0  0
 11 12  1  0  0  0  0
 12 13  2  0  0  0  0
 12 37  1  0  0  0  0
 13 14  1  0  0  0  0
 14 18  1  0  0  0  0
 14 15  2  0  0  0  0
 15 16  1  0  0  0  0
 16 17  2  0  0  0  0
 17 18  1  0  0  0  0
 17 38  1  0  0  0  0
 18 19  1  0  0  0  0
 19 20  1  0  0  0  0
 19 39  1  0  0  0  0
 19 40  1  0  0  0  0
 20 21  1  0  0  0  0
 20 22  1  0  0  0  0
 20 41  1  0  0  0  0
 21 42  1  0  0  0  0
 22 26  1  0  0  0  0
 22 23  1  0  0  0  0
 22 43  1  0  0  0  0
 23 24  1  0  0  0  0
 23 44  1  0  0  0  0
 23 45  1  0  0  0  0
 24 25  1  0  0  0  0
 24 46  1  0  0  0  0
 24 47  1  0  0  0  0
 25 26  1  0  0  0  0
 25 48  1  0  0  0  0
 25 49  1  0  0  0  0
 27 50  1  0  0  0  0
 27 51  1  0  0  0  0
M  END
> <s_m_source_file>
AV-unprocessed.smi

> <i_m_source_file_index>
261

> <i_lp_mmshare_version>
43012

> <i_f3d_flags>
0

> <s_epik_input>
W0NIM11PW0NASF0xW0NIMl1bQ0BASF0oQyg9TylbTkgyXSlOKFtDSDJdMSljKG5bY0hdbjIpYyhjMjMpbltjSF1uM1tDSDJdW0NASF0oW09IXSlbQ0BASF00W0NIMl1bQ0gyXVtDSDJdTzQ=

> <s_epik_cmdline>
J2VwaWtfcHl0aG9uJywgJy1waCcsICc3LjAnLCAnLXRuJywgJzgnLCAnLW1hJywgJzIwMCcsICctbWV0YWxfYmluZGluZycsICctaW1hZScsICc8aW5maWxlLm1hZT4nLCAnLW9tYWUnLCAnPG91dGZpbGUubWFlPic=

> <r_lp_tautomer_probability>
1

> <r_epik_Ionization_Penalty>
0.000713824

> <r_epik_Ionization_Penalty_Charging>
0

> <r_epik_Ionization_Penalty_Neutral>
0.000713824

> <r_epik_State_Penalty>
0.000402132

> <r_epik_Charging_Adjusted_Penalty>
0.000402132

> <i_epik_Tot_Q>
0

> <i_epik_Tot_abs_Q>
0

> <r_epik_Metal_State_Penalty>
-0

> <b_epik_Metal_Only>
0

> <s_lp_Force_Field>
OPLS_2005

> <r_lp_Energy>
46.441

> <b_lp_Chiralities_Consistent>
1

> <s_lp_Variant>
AV-unprocessed.smi:261-9

> <Gold.Version>
5.8.1

> <Gold.Id.Protein>
6NUR|6NUR_protein|mol2

> <Gold.PLP.Fitness>
47.9041

> <Gold.PLP.PLP>
-37.7416

> <Gold.PLP.part.hbond>
-3.9908

> <Gold.PLP.part.metal>
0.0000

> <Gold.PLP.part.buried>
-5.9647

> <Gold.PLP.part.nonpolar>
-29.6321

> <Gold.PLP.part.repulsive>
0.3368

> <Gold.PLP.ligand.clash>
0.0000

> <Gold.PLP.ligand.torsion>
1.5172

> <Gold.PLP.Chemscore.Hbond>
3.2737

> <Gold.PLP.Chemscore.CHOScore>
0.9832

> <Gold.PLP.Chemscore.Metal>
0.0000

> <Gold.Chemscore.Hbonds>
donor molecule, donor type, donor heavy atom, donor atom, acceptor molecule, acceptor atom, score
      L1  H     7    35       P1  7957  0.32
      L1  H    21    42       P1  7948  0.84
      P1  H  6896  6908       L1    13  0.80
      P1  H  7989  7998       L1     8  1.00
      L1  C    17    38       P1  7948  1.00

> <Gold.PLP.Chemscore.Internal.Correction>
0.4262

> <Gold.Rescore>
     Score         DG    S(hbond)    S(metal)    S(lipo)     H(rot)  DE(clash)    DE(int)     intcor
      6.99     -12.77       2.15        0.00      70.62       3.18       0.33       5.45       ----

> <Gold.Chemscore.Fitness>
6.9938

> <Gold.Chemscore.DG>
-12.7738

> <Gold.Chemscore.ZeroCoef>
-5.4800

> <Gold.Chemscore.Hbond>
2.1496

> <Gold.Chemscore.Metal>
0.0000

> <Gold.Chemscore.Lipo>
70.6224

> <Gold.Chemscore.Internal_Hbond>
0.0000

> <Gold.Chemscore.DEClash>
0.3286

> <Gold.Chemscore.DEInternal>
5.4514

> <Gold.Chemscore.Rot>
3.1831

> <Gold.Chemscore.Internal.Correction>
   9.000000E+99

> <Gold.Chemscore.Hbonds>
donor molecule, donor type, donor heavy atom, donor atom, acceptor molecule, acceptor atom, score
      L1  H     7    35       P1  7957  0.33
      L1  H    21    42       P1  7948  0.64
      P1  H  6896  6908       L1    13  0.34
      P1  H  7989  7998       L1     8  0.29

> <Gold.Chemscore.Hbond.Weighted>
-7.1796

> <Gold.Chemscore.Metal.Weighted>
-0.0000

> <Gold.Chemscore.Lipo.Weighted>
-8.2628

> <Gold.Chemscore.Internal_Hbond.Weighted>
0.0000

> <Gold.Chemscore.DEClash.Weighted>
0.3286

> <Gold.Chemscore.DEInternal.Weighted>
5.4514

> <Gold.Chemscore.Rot.Weighted>
8.1486

> <Gold.Chemscore.Internal.Correction.Weighted>
   9.000000E+99

> <Gold.Protein.RotatedTorsions>
[ 6907 6896 6895 6894 ] final  159.72 input  -60.11 | X-H torsion
[ 7974 7965 7964 7962 ] final   90.13 input  175.53 | X-H torsion
[ 8008 7997 7996 7995 ] final   91.12 input   59.86 | X-H torsion
[ 10167 10162 10161 10158 ] final  -74.07 input  -65.29 | X-H torsion
[ 10718 10713 10712 10709 ] final  148.81 input   66.30 | X-H torsion
[ 10763 10752 10751 10750 ] final  -84.27 input  -60.55 | X-H torsion
[ 11005 11000 10999 10996 ] final   52.54 input  -57.11 | X-H torsion

> <Gold.Protein.ActiveResidues>
 VAL166  LYS551  ARG553  GLY616  TRP617  ASP618  TYR619  PRO620  LYS621  CYS622 
 ASP623  PHE694  ASN695  SER759  ASP760  ASP761  ALA762  ILE779  LEU786  VAL792 
 PHE793  MET794  SER795  GLU796  ALA797  LYS798  CYS799  TRP800  GLU811  SER814 

> <Gold.Protein.RotatedAtoms>
  151.9813  133.3758  159.4108 H   0  0  0  0  0  0  0  0  0  0  0  0  # atno 6907 bound_to 6896
  150.6934  134.4036  159.5139 H   0  0  0  0  0  0  0  0  0  0  0  0  # atno 6908 bound_to 6896
  152.1755  134.8798  160.0581 H   0  0  0  0  0  0  0  0  0  0  0  0  # atno 6909 bound_to 6896
  145.5231  139.2280  143.2661 H   0  0  0  0  0  0  0  0  0  0  0  0  # atno 7974 bound_to 7965
  156.0200  140.3341  155.7029 H   0  0  0  0  0  0  0  0  0  0  0  0  # atno 8008 bound_to 7997
  155.6036  140.0658  157.2744 H   0  0  0  0  0  0  0  0  0  0  0  0  # atno 8009 bound_to 7997
  154.4312  140.1806  156.1186 H   0  0  0  0  0  0  0  0  0  0  0  0  # atno 8010 bound_to 7997
  140.5057  143.2353  151.7677 H   0  0  0  0  0  0  0  0  0  0  0  0  # atno 10167 bound_to 10162
  157.3039  131.0876  151.1369 H   0  0  0  0  0  0  0  0  0  0  0  0  # atno 10718 bound_to 10713
  154.5975  135.5526  153.7341 H   0  0  0  0  0  0  0  0  0  0  0  0  # atno 10763 bound_to 10752
  153.0141  135.6358  154.1761 H   0  0  0  0  0  0  0  0  0  0  0  0  # atno 10764 bound_to 10752
  154.1701  135.2892  155.3063 H   0  0  0  0  0  0  0  0  0  0  0  0  # atno 10765 bound_to 10752
  140.0841  134.5299  155.8917 H   0  0  0  0  0  0  0  0  0  0  0  0  # atno 11005 bound_to 11000
  146.2093  140.6043  142.9067 LP  0  0  0  0  0  0  0  0  0  0  0  0  # atno 17320 bound_to 7965
  144.7666  140.5543  143.6699 LP  0  0  0  0  0  0  0  0  0  0  0  0  # atno 17321 bound_to 7965
  139.4883  144.4460  151.9709 LP  0  0  0  0  0  0  0  0  0  0  0  0  # atno 17342 bound_to 10162
  140.3551  144.3042  150.5942 LP  0  0  0  0  0  0  0  0  0  0  0  0  # atno 17343 bound_to 10162
  157.2717  130.6707  149.6022 LP  0  0  0  0  0  0  0  0  0  0  0  0  # atno 17370 bound_to 10713
  155.9673  130.4477  150.5591 LP  0  0  0  0  0  0  0  0  0  0  0  0  # atno 17371 bound_to 10713
  141.2056  133.6649  156.6194 LP  0  0  0  0  0  0  0  0  0  0  0  0  # atno 17394 bound_to 11000
  140.3446  134.7820  157.4422 LP  0  0  0  0  0  0  0  0  0  0  0  0  # atno 17395 bound_to 11000

$$$$
