AV-unprocessed.smi:282|AV-procd|sdf|2122|dock7
  -GOLD-   2262021423D 1   1.00000     0.00000
 Structure written by MMmdl.
 65 69  0  0  0  0  0  0  0  0  2 V2000
  141.7215  136.8644  153.5394 C   0  0  0  0  0  0  0  0  0  0  0  0
  143.2409  136.6886  153.6714 C   0  0  0  0  0  0  0  0  0  0  0  0
  143.7101  135.2087  153.6883 C   0  0  1  0  0  0  0  0  0  0  0  0
  143.3528  134.5169  152.3513 C   0  0  0  0  0  0  0  0  0  0  0  0
  143.8772  133.1295  152.2704 N   0  3  1  0  0  0  0  0  0  0  0  0
  143.4909  132.4209  151.0216 C   0  0  0  0  0  0  0  0  0  0  0  0
  144.3080  132.8982  149.8046 C   0  0  0  0  0  0  0  0  0  0  0  0
  145.8157  132.7925  150.0735 C   0  0  0  0  0  0  0  0  0  0  0  0
  146.1835  133.5332  151.3672 C   0  0  0  0  0  0  0  0  0  0  0  0
  145.3349  133.0249  152.5530 C   0  0  1  0  0  0  0  0  0  0  0  0
  145.6839  133.7215  153.8776 C   0  0  0  0  0  0  0  0  0  0  0  0
  145.1530  135.0804  153.9429 N   0  0  0  0  0  0  0  0  0  0  0  0
  145.6575  135.7082  155.0315 C   0  0  0  0  0  0  0  0  0  0  0  0
  145.2919  135.3148  156.2803 N   0  0  0  0  0  0  0  0  0  0  0  0
  145.8099  135.9269  157.3496 C   0  0  0  0  0  0  0  0  0  0  0  0
  146.6929  136.9270  157.3923 N   0  0  0  0  0  0  0  0  0  0  0  0
  147.0678  137.3161  156.1401 C   0  0  0  0  0  0  0  0  0  0  0  0
  146.6078  136.7562  154.9162 C   0  0  0  0  0  0  0  0  0  0  0  0
  147.2184  137.3868  153.8409 N   0  0  0  0  0  0  0  0  0  0  0  0
  147.9983  138.2723  154.3987 C   0  0  0  0  0  0  0  0  0  0  0  0
  147.9550  138.3152  155.7757 N   0  0  0  0  0  0  0  0  0  0  0  0
  148.7191  139.2014  156.6440 C   0  0  0  0  0  0  0  0  0  0  0  0
  149.4690  140.3642  155.9184 C   0  0  0  0  0  0  0  0  0  0  0  0
  148.4412  141.1767  155.0810 C   0  0  0  0  0  0  0  0  0  0  0  0
  149.0283  142.2104  154.3152 O   0  0  0  0  0  0  0  0  0  0  0  0
  150.1852  141.3037  156.9231 C   0  0  0  0  0  0  0  0  0  0  0  0
  151.3934  140.6323  157.6022 C   0  0  0  0  0  0  0  0  0  0  0  0
  152.3079  140.1673  156.6176 O   0  0  0  0  0  0  0  0  0  0  0  0
  151.7471  139.1737  155.7686 C   0  0  0  0  0  0  0  0  0  0  0  0
  150.5546  139.7599  154.9896 C   0  0  0  0  0  0  0  0  0  0  0  0
  141.4464  137.9138  153.6476 H   0  0  0  0  0  0  0  0  0  0  0  0
  141.1916  136.3036  154.3099 H   0  0  0  0  0  0  0  0  0  0  0  0
  141.3559  136.5348  152.5673 H   0  0  0  0  0  0  0  0  0  0  0  0
  143.7408  137.2268  152.8651 H   0  0  0  0  0  0  0  0  0  0  0  0
  143.5346  137.1949  154.5902 H   0  0  0  0  0  0  0  0  0  0  0  0
  143.1870  134.6858  154.4906 H   0  0  0  0  0  0  0  0  0  0  0  0
  142.2706  134.4756  152.2288 H   0  0  0  0  0  0  0  0  0  0  0  0
  143.7393  135.1082  151.5210 H   0  0  0  0  0  0  0  0  0  0  0  0
  143.6542  131.3526  151.1702 H   0  0  0  0  0  0  0  0  0  0  0  0
  142.4228  132.5435  150.8368 H   0  0  0  0  0  0  0  0  0  0  0  0
  144.0471  132.3030  148.9292 H   0  0  0  0  0  0  0  0  0  0  0  0
  144.0498  133.9283  149.5572 H   0  0  0  0  0  0  0  0  0  0  0  0
  146.0995  131.7428  150.1593 H   0  0  0  0  0  0  0  0  0  0  0  0
  146.3786  133.1995  149.2329 H   0  0  0  0  0  0  0  0  0  0  0  0
  147.2432  133.3891  151.5804 H   0  0  0  0  0  0  0  0  0  0  0  0
  146.0454  134.6063  151.2303 H   0  0  0  0  0  0  0  0  0  0  0  0
  145.5607  131.9651  152.6806 H   0  0  0  0  0  0  0  0  0  0  0  0
  145.2669  133.1480  154.7071 H   0  0  0  0  0  0  0  0  0  0  0  0
  146.7666  133.7251  154.0160 H   0  0  0  0  0  0  0  0  0  0  0  0
  145.4697  135.5632  158.3081 H   0  0  0  0  0  0  0  0  0  0  0  0
  148.6254  138.9316  153.8158 H   0  0  0  0  0  0  0  0  0  0  0  0
  148.0386  139.5791  157.4055 H   0  0  0  0  0  0  0  0  0  0  0  0
  149.4397  138.5855  157.1841 H   0  0  0  0  0  0  0  0  0  0  0  0
  147.9021  140.5181  154.3992 H   0  0  0  0  0  0  0  0  0  0  0  0
  147.6973  141.6442  155.7256 H   0  0  0  0  0  0  0  0  0  0  0  0
  149.0152  143.0060  154.8251 H   0  0  0  0  0  0  0  0  0  0  0  0
  150.5567  142.1871  156.4032 H   0  0  0  0  0  0  0  0  0  0  0  0
  149.4897  141.6789  157.6731 H   0  0  0  0  0  0  0  0  0  0  0  0
  151.9060  141.3532  158.2391 H   0  0  0  0  0  0  0  0  0  0  0  0
  151.0905  139.8086  158.2480 H   0  0  0  0  0  0  0  0  0  0  0  0
  152.5158  138.8429  155.0702 H   0  0  0  0  0  0  0  0  0  0  0  0
  151.4612  138.2967  156.3497 H   0  0  0  0  0  0  0  0  0  0  0  0
  150.1211  138.9970  154.3419 H   0  0  0  0  0  0  0  0  0  0  0  0
  150.9521  140.5254  154.3230 H   0  0  0  0  0  0  0  0  0  0  0  0
  143.4177  132.6349  153.0216 H   0  0  0  0  0  0  0  0  0  0  0  0
  1  2  1  0  0  0  0
  1 31  1  0  0  0  0
  1 32  1  0  0  0  0
  1 33  1  0  0  0  0
  2  3  1  0  0  0  0
  2 34  1  0  0  0  0
  2 35  1  0  0  0  0
  3 12  1  0  0  0  0
  3  4  1  0  0  0  0
  3 36  1  0  0  0  0
  4  5  1  0  0  0  0
  4 37  1  0  0  0  0
  4 38  1  0  0  0  0
  5 10  1  0  0  0  0
  5  6  1  0  0  0  0
  5 65  1  0  0  0  0
  6  7  1  0  0  0  0
  6 39  1  0  0  0  0
  6 40  1  0  0  0  0
  7  8  1  0  0  0  0
  7 41  1  0  0  0  0
  7 42  1  0  0  0  0
  8  9  1  0  0  0  0
  8 43  1  0  0  0  0
  8 44  1  0  0  0  0
  9 10  1  0  0  0  0
  9 45  1  0  0  0  0
  9 46  1  0  0  0  0
 10 11  1  0  0  0  0
 10 47  1  0  0  0  0
 11 12  1  0  0  0  0
 11 48  1  0  0  0  0
 11 49  1  0  0  0  0
 12 13  1  0  0  0  0
 13 18  1  0  0  0  0
 13 14  2  0  0  0  0
 14 15  1  0  0  0  0
 15 16  2  0  0  0  0
 15 50  1  0  0  0  0
 16 17  1  0  0  0  0
 17 21  1  0  0  0  0
 17 18  2  0  0  0  0
 18 19  1  0  0  0  0
 19 20  2  0  0  0  0
 20 21  1  0  0  0  0
 20 51  1  0  0  0  0
 21 22  1  0  0  0  0
 22 23  1  0  0  0  0
 22 52  1  0  0  0  0
 22 53  1  0  0  0  0
 23 30  1  0  0  0  0
 23 24  1  0  0  0  0
 23 26  1  0  0  0  0
 24 25  1  0  0  0  0
 24 54  1  0  0  0  0
 24 55  1  0  0  0  0
 25 56  1  0  0  0  0
 26 27  1  0  0  0  0
 26 57  1  0  0  0  0
 26 58  1  0  0  0  0
 27 28  1  0  0  0  0
 27 59  1  0  0  0  0
 27 60  1  0  0  0  0
 28 29  1  0  0  0  0
 29 30  1  0  0  0  0
 29 61  1  0  0  0  0
 29 62  1  0  0  0  0
 30 63  1  0  0  0  0
 30 64  1  0  0  0  0
M  CHG  1   5   1
M  END
> <s_m_source_file>
AV-unprocessed.smi

> <i_m_source_file_index>
282

> <i_lp_mmshare_version>
43012

> <i_f3d_flags>
0

> <s_epik_input>
W0NIMl0xW0NIMl1bQ0gyXVtDSDJdW0NAQEhdKE4xMilbQ0gyXU4oW0NAQEhdKFtDSDJdMilbQ0gyXVtDSDNdKWMobltjSF1uMyljKGMzNCluW2NIXW40W0NIMl1DNShbQ0gyXVtPSF0pW0NIMl1bQ0gyXU9bQ0gyXVtDSDJdNQ==

> <s_epik_cmdline>
J2VwaWtfcHl0aG9uJywgJy1waCcsICc3LjAnLCAnLXRuJywgJzgnLCAnLW1hJywgJzIwMCcsICctbWV0YWxfYmluZGluZycsICctaW1hZScsICc8aW5maWxlLm1hZT4nLCAnLW9tYWUnLCAnPG91dGZpbGUubWFlPic=

> <r_lp_tautomer_probability>
1

> <r_epik_Ionization_Penalty>
0.00308583

> <r_epik_Ionization_Penalty_Charging>
0.00300384

> <r_epik_Ionization_Penalty_Neutral>
8.19894e-05

> <r_epik_State_Penalty>
-0

> <r_epik_Charging_Adjusted_Penalty>
0.00300384

> <i_epik_Tot_Q>
1

> <i_epik_Tot_abs_Q>
1

> <r_epik_Metal_State_Penalty>
-0

> <b_epik_Metal_Only>
0

> <s_lp_Force_Field>
OPLS_2005

> <r_lp_Energy>
60.0912

> <b_lp_Chiralities_Consistent>
1

> <s_lp_Variant>
AV-unprocessed.smi:282-6

> <Gold.Version>
5.8.1

> <Gold.Id.Protein>
6NUR|6NUR_protein|mol2

> <Gold.PLP.Fitness>
47.8576

> <Gold.PLP.PLP>
-35.1536

> <Gold.PLP.part.hbond>
-4.4378

> <Gold.PLP.part.metal>
0.0000

> <Gold.PLP.part.buried>
-5.2833

> <Gold.PLP.part.nonpolar>
-28.0024

> <Gold.PLP.part.repulsive>
1.9330

> <Gold.PLP.ligand.clash>
0.0000

> <Gold.PLP.ligand.torsion>
0.2331

> <Gold.PLP.Chemscore.Hbond>
4.3025

> <Gold.PLP.Chemscore.CHOScore>
0.0000

> <Gold.PLP.Chemscore.Metal>
0.0000

> <Gold.Chemscore.Hbonds>
donor molecule, donor type, donor heavy atom, donor atom, acceptor molecule, acceptor atom, score
      L1  H     5    65       P1 10957  1.55
      L1  H    25    56       P1  8028  1.00
      P1  H  7997  8009       L1    28  0.99
      P1  H  8011  8017       L1    25  0.21

> <Gold.PLP.Chemscore.Internal.Correction>
0.2626

> <Gold.Rescore>
     Score         DG    S(hbond)    S(metal)    S(lipo)     H(rot)  DE(clash)    DE(int)     intcor
     17.08     -19.45       2.94        0.00      89.39       2.46       0.87       1.50       ----

> <Gold.Chemscore.Fitness>
17.0775

> <Gold.Chemscore.DG>
-19.4518

> <Gold.Chemscore.ZeroCoef>
-5.4800

> <Gold.Chemscore.Hbond>
2.9354

> <Gold.Chemscore.Metal>
0.0000

> <Gold.Chemscore.Lipo>
89.3933

> <Gold.Chemscore.Internal_Hbond>
0.0000

> <Gold.Chemscore.DEClash>
0.8740

> <Gold.Chemscore.DEInternal>
1.5003

> <Gold.Chemscore.Rot>
2.4576

> <Gold.Chemscore.Internal.Correction>
   9.000000E+99

> <Gold.Chemscore.Hbonds>
donor molecule, donor type, donor heavy atom, donor atom, acceptor molecule, acceptor atom, score
      L1  H     5    65       P1 10957  0.15
      L1  H    25    56       P1  8028  1.00
      P1  H  7997  8009       L1    28  0.64
      P1  H  8011  8017       L1    25  0.19

> <Gold.Chemscore.Hbond.Weighted>
-9.8043

> <Gold.Chemscore.Metal.Weighted>
-0.0000

> <Gold.Chemscore.Lipo.Weighted>
-10.4590

> <Gold.Chemscore.Internal_Hbond.Weighted>
0.0000

> <Gold.Chemscore.DEClash.Weighted>
0.8740

> <Gold.Chemscore.DEInternal.Weighted>
1.5003

> <Gold.Chemscore.Rot.Weighted>
6.2915

> <Gold.Chemscore.Internal.Correction.Weighted>
   9.000000E+99

> <Gold.Protein.RotatedTorsions>
[ 6907 6896 6895 6894 ] final  -80.09 input  -60.11 | X-H torsion
[ 7974 7965 7964 7962 ] final  -72.71 input  175.53 | X-H torsion
[ 8008 7997 7996 7995 ] final -168.13 input   59.86 | X-H torsion
[ 10167 10162 10161 10158 ] final -146.60 input  -65.29 | X-H torsion
[ 10718 10713 10712 10709 ] final   75.66 input   66.30 | X-H torsion
[ 10763 10752 10751 10750 ] final  -96.34 input  -60.55 | X-H torsion
[ 11005 11000 10999 10996 ] final   70.39 input  -57.11 | X-H torsion

> <Gold.Protein.ActiveResidues>
 VAL166  LYS551  ARG553  GLY616  TRP617  ASP618  TYR619  PRO620  LYS621  CYS622 
 ASP623  PHE694  ASN695  SER759  ASP760  ASP761  ALA762  ILE779  LEU786  VAL792 
 PHE793  MET794  SER795  GLU796  ALA797  LYS798  CYS799  TRP800  GLU811  SER814 

> <Gold.Protein.RotatedAtoms>
  150.6936  134.4022  159.5123 H   0  0  0  0  0  0  0  0  0  0  0  0  # atno 6907 bound_to 6896
  152.1794  134.8764  160.0537 H   0  0  0  0  0  0  0  0  0  0  0  0  # atno 6908 bound_to 6896
  151.9761  133.3707  159.4126 H   0  0  0  0  0  0  0  0  0  0  0  0  # atno 6909 bound_to 6896
  145.6616  140.9250  143.0931 H   0  0  0  0  0  0  0  0  0  0  0  0  # atno 7974 bound_to 7965
  155.8872  140.1018  157.1444 H   0  0  0  0  0  0  0  0  0  0  0  0  # atno 8008 bound_to 7997
  154.4011  140.1318  156.4333 H   0  0  0  0  0  0  0  0  0  0  0  0  # atno 8009 bound_to 7997
  155.7576  140.3464  155.5184 H   0  0  0  0  0  0  0  0  0  0  0  0  # atno 8010 bound_to 7997
  139.7698  143.8254  152.2622 H   0  0  0  0  0  0  0  0  0  0  0  0  # atno 10167 bound_to 10162
  157.6643  130.9737  150.1385 H   0  0  0  0  0  0  0  0  0  0  0  0  # atno 10718 bound_to 10713
  154.7231  135.5087  153.8843 H   0  0  0  0  0  0  0  0  0  0  0  0  # atno 10763 bound_to 10752
  153.0880  135.6651  153.9919 H   0  0  0  0  0  0  0  0  0  0  0  0  # atno 10764 bound_to 10752
  153.9737  135.3036  155.3405 H   0  0  0  0  0  0  0  0  0  0  0  0  # atno 10765 bound_to 10752
  139.9600  134.7077  156.0667 H   0  0  0  0  0  0  0  0  0  0  0  0  # atno 11005 bound_to 11000
  144.7087  139.8456  143.7421 LP  0  0  0  0  0  0  0  0  0  0  0  0  # atno 17320 bound_to 7965
  146.1120  139.4126  143.0281 LP  0  0  0  0  0  0  0  0  0  0  0  0  # atno 17321 bound_to 7965
  139.8285  144.7264  150.9481 LP  0  0  0  0  0  0  0  0  0  0  0  0  # atno 17342 bound_to 10162
  140.7813  143.4092  151.1020 LP  0  0  0  0  0  0  0  0  0  0  0  0  # atno 17343 bound_to 10162
  156.2213  130.3674  149.8552 LP  0  0  0  0  0  0  0  0  0  0  0  0  # atno 17370 bound_to 10713
  156.6404  130.8702  151.3513 LP  0  0  0  0  0  0  0  0  0  0  0  0  # atno 17371 bound_to 10713
  141.1276  133.6595  156.3378 LP  0  0  0  0  0  0  0  0  0  0  0  0  # atno 17394 bound_to 11000
  140.5521  134.6017  157.5410 LP  0  0  0  0  0  0  0  0  0  0  0  0  # atno 17395 bound_to 11000

$$$$
