#       Name:                AV-unprocessed.smi:72
#       Creating user name   scv26
#       Creation time:       Thu Mar 26 17:02:43 2020


#       File generated by GOLD software.
#

@<TRIPOS>MOLECULE
AV-unprocessed.smi:72
    41    42     1
SMALL
NO_CHARGES


@<TRIPOS>ATOM
      1 ****        -4.7087  -0.1601  -0.2519 N.pl3          1 S1                 0.0000
      2 ****        -3.3725  -0.4944  -0.3208 C.2            1 S1                 0.0000
      3 ****        -2.5200   0.3914  -0.9529 N.pl3          1 S1                 1.0000
      4 ****        -1.1964   0.2284  -1.0805 C.2            1 S1                 0.0000
      5 ****        -0.6221  -0.8282  -0.5374 N.am           1 S1                 0.0000
      6 ****         0.8691  -1.0587  -0.6484 C.3            1 S1                 0.0000
      7 ****         1.4455   0.0787  -1.2207 O.3            1 S1                 0.0000
      8 ****         2.0557   0.9087  -0.2333 C.3            1 S1                 0.0000
      9 ****         1.0354   1.9036   0.3715 C.3            1 S1                 0.0000
     10 ****         0.7702   2.9398  -0.5490 O.3            1 S1                 0.0000
     11 ****         2.6030  -0.1412   0.7419 C.3            1 S1                 0.0000
     12 ****         2.8142   0.3680   2.0443 O.3            1 S1                 0.0000
     13 ****         1.5446  -1.2392   0.7315 C.3            1 S1                 0.0000
     14 ****         2.1702  -2.5015   0.8480 O.3            1 S1                 0.0000
     15 ****        -1.4322  -1.8404   0.0422 C.2            1 S1                 0.0000
     16 ****        -0.9319  -2.8919   0.4373 O.2            1 S1                 0.0000
     17 ****        -2.8063  -1.5766   0.1356 N.2            1 S1                 0.0000
     18 ****         0.9672  -1.9136  -1.3196 H              1 S1                 0.0000
     19 ****         2.8816   1.4669  -0.6766 H              1 S1                 0.0000
     20 ****         3.5475  -0.5218   0.3488 H              1 S1                 0.0000
     21 ****         0.8205  -1.0903   1.5342 H              1 S1                 0.0000
     22 ****        -5.4047  -0.7520   0.1795 H              1 S1                 0.0000
     23 ****        -5.0977   0.6948  -0.6233 H              1 S1                 0.0000
     24 ****        -0.6362   0.9628  -1.6433 H              1 S1                 0.0000
     25 ****         0.1093   1.4243   0.6852 H              1 S1                 0.0000
     26 ****         1.4518   2.3856   1.2558 H              1 S1                 0.0000
     27 ****         0.2524   3.6024  -0.1171 H              1 S1                 0.0000
     28 ****         3.5020   1.0156   2.0070 H              1 S1                 0.0000
     29 ****         2.8202  -2.5824   0.1669 H              1 S1                 0.0000
     30 ****        -2.9311   1.2219  -1.3548 H              1 S1                 0.0000
     31 ****         0.7345   0.6018  -1.6907 LP             1 S1                 0.0000
     32 ****         2.1408  -0.2063  -1.8805 LP             1 S1                 0.0000
     33 ****         0.2652   2.5745  -1.3310 LP             1 S1                 0.0000
     34 ****         1.6313   3.3382  -0.8649 LP             1 S1                 0.0000
     35 ****         3.0838  -0.3750   2.6569 LP             1 S1                 0.0000
     36 ****         1.9725   0.7895   2.3818 LP             1 S1                 0.0000
     37 ****         1.4876  -3.2256   0.7491 LP             1 S1                 0.0000
     38 ****         2.6096  -2.5777   1.7430 LP             1 S1                 0.0000
     39 ****         0.0534  -3.0400   0.3518 LP             1 S1                 0.0000
     40 ****        -1.5103  -3.5990   0.8441 LP             1 S1                 0.0000
     41 ****        -3.3869  -2.2596   0.5789 LP             1 S1                 0.0000
@<TRIPOS>BOND
    1    1    2 1     
    2    1   22 1     
    3    1   23 1     
    4    2   17 2     
    5    2    3 1     
    6    3    4 2     
    7    3   30 1     
    8    4    5 1     
    9    4   24 1     
   10    5    6 1     
   11    5   15 am    
   12    6   18 1     
   13    6   13 1     
   14    6    7 1     
   15    7    8 1     
   16    8   19 1     
   17    8    9 1     
   18    8   11 1     
   19    9   10 1     
   20    9   25 1     
   21    9   26 1     
   22   10   27 1     
   23   11   20 1     
   24   11   12 1     
   25   11   13 1     
   26   12   28 1     
   27   13   21 1     
   28   13   14 1     
   29   14   29 1     
   30   15   16 2     
   31   15   17 1     
   32    7   31 1     
   33    7   32 1     
   34   10   33 1     
   35   10   34 1     
   36   12   35 1     
   37   12   36 1     
   38   14   37 1     
   39   14   38 1     
   40   16   39 1     
   41   16   40 1     
   42   17   41 1     
@<TRIPOS>SUBSTRUCTURE
      1 S1             1
@<TRIPOS>SET
LONE_PAIRS      STATIC     ATOMS    <user>   **** ""
11 31 32 33 34 35 36 37 38 39 40 41
DONOR_HYDROGENS      STATIC     ATOMS    <user>   **** ""
6 22 23 30 27 28 29
ATOM$BLUE        STATIC     ATOMS    COLORGROUP SYSTEM
11 31 32 33 34 35 36 37 38 39 40 41
ATOM$RED        STATIC     ATOMS    COLORGROUP SYSTEM
6 22 23 30 27 28 29
