AV-unprocessed.smi:3058|AV-procd|sdf|11673|dock5
  -GOLD-   2272017 73D 1   1.00000     0.00000
 Structure written by MMmdl.
 39 41  0  0  0  0  0  0  0  0  2 V2000
  151.6550  141.2606  157.4807 O   0  0  0  0  0  0  0  0  0  0  0  0
  150.6833  141.8297  157.9785 C   0  0  0  0  0  0  0  0  0  0  0  0
  149.4198  141.5692  157.6079 N   0  0  0  0  0  0  0  0  0  0  0  0
  149.0295  140.5935  156.5969 C   0  0  0  0  0  0  0  0  0  0  0  0
  149.2401  141.1330  155.1717 C   0  0  0  0  0  0  0  0  0  0  0  0
  148.4075  140.3870  154.1474 C   0  0  0  0  0  0  0  0  0  0  0  0
  147.3113  141.0184  153.5190 C   0  0  0  0  0  0  0  0  0  0  0  0
  146.5530  140.3031  152.5688 C   0  0  0  0  0  0  0  0  0  0  0  0
  146.9074  138.9718  152.2694 C   0  0  0  0  0  0  0  0  0  0  0  0
  147.9626  138.4007  152.8909 N   0  3  0  0  0  0  0  0  0  0  0  0
  148.7143  139.0520  153.8057 C   0  0  0  0  0  0  0  0  0  0  0  0
  150.8650  142.8945  159.0750 C   0  0  2  0  0  0  0  0  0  0  0  0
  150.3590  144.2972  158.6562 C   0  0  0  0  0  0  0  0  0  0  0  0
  151.5893  145.1988  158.8791 C   0  0  1  0  0  0  0  0  0  0  0  0
  151.8664  145.3257  160.3894 C   0  0  0  0  0  0  0  0  0  0  0  0
  152.4211  143.9341  160.7508 C   0  0  0  0  0  0  0  0  0  0  0  0
  152.3513  143.1845  159.4065 C   0  0  2  0  0  0  0  0  0  0  0  0
  152.7294  144.2971  158.4287 C   0  0  0  0  0  0  0  0  0  0  0  0
  148.6770  142.0769  158.0664 H   0  0  0  0  0  0  0  0  0  0  0  0
  149.5876  139.6671  156.7447 H   0  0  0  0  0  0  0  0  0  0  0  0
  147.9778  140.3501  156.7503 H   0  0  0  0  0  0  0  0  0  0  0  0
  148.9917  142.1945  155.1342 H   0  0  0  0  0  0  0  0  0  0  0  0
  150.2897  141.0535  154.8852 H   0  0  0  0  0  0  0  0  0  0  0  0
  147.0549  142.0398  153.7609 H   0  0  0  0  0  0  0  0  0  0  0  0
  145.7113  140.7691  152.0775 H   0  0  0  0  0  0  0  0  0  0  0  0
  146.3830  138.3513  151.5574 H   0  0  0  0  0  0  0  0  0  0  0  0
  149.5317  138.4886  154.2322 H   0  0  0  0  0  0  0  0  0  0  0  0
  150.3422  142.5607  159.9733 H   0  0  0  0  0  0  0  0  0  0  0  0
  150.0504  144.3295  157.6099 H   0  0  0  0  0  0  0  0  0  0  0  0
  149.5059  144.6190  159.2546 H   0  0  0  0  0  0  0  0  0  0  0  0
  151.5282  146.1575  158.3635 H   0  0  0  0  0  0  0  0  0  0  0  0
  152.6117  146.0977  160.5854 H   0  0  0  0  0  0  0  0  0  0  0  0
  150.9680  145.5763  160.9547 H   0  0  0  0  0  0  0  0  0  0  0  0
  153.4528  144.0118  161.0967 H   0  0  0  0  0  0  0  0  0  0  0  0
  151.8435  143.4445  161.5357 H   0  0  0  0  0  0  0  0  0  0  0  0
  152.9976  142.3066  159.3673 H   0  0  0  0  0  0  0  0  0  0  0  0
  152.6671  144.0148  157.3777 H   0  0  0  0  0  0  0  0  0  0  0  0
  153.7165  144.7223  158.6190 H   0  0  0  0  0  0  0  0  0  0  0  0
  148.2018  137.4362  152.6594 H   0  0  0  0  0  0  0  0  0  0  0  0
  1  2  2  0  0  0  0
  2  3  1  0  0  0  0
  2 12  1  0  0  0  0
  3  4  1  0  0  0  0
  3 19  1  0  0  0  0
  4  5  1  0  0  0  0
  4 20  1  0  0  0  0
  4 21  1  0  0  0  0
  5  6  1  0  0  0  0
  5 22  1  0  0  0  0
  5 23  1  0  0  0  0
  6 11  1  0  0  0  0
  6  7  2  0  0  0  0
  7  8  1  0  0  0  0
  7 24  1  0  0  0  0
  8  9  2  0  0  0  0
  8 25  1  0  0  0  0
  9 10  1  0  0  0  0
  9 26  1  0  0  0  0
 10 11  2  0  0  0  0
 10 39  1  0  0  0  0
 11 27  1  0  0  0  0
 12 17  1  0  0  0  0
 12 13  1  0  0  0  0
 12 28  1  0  0  0  0
 13 14  1  0  0  0  0
 13 29  1  0  0  0  0
 13 30  1  0  0  0  0
 14 18  1  0  0  0  0
 14 15  1  0  0  0  0
 14 31  1  0  0  0  0
 15 16  1  0  0  0  0
 15 32  1  0  0  0  0
 15 33  1  0  0  0  0
 16 17  1  0  0  0  0
 16 34  1  0  0  0  0
 16 35  1  0  0  0  0
 17 18  1  0  0  0  0
 17 36  1  0  0  0  0
 18 37  1  0  0  0  0
 18 38  1  0  0  0  0
M  CHG  1  10   1
M  END
> <s_m_source_file>
AV-unprocessed.smi

> <i_m_source_file_index>
3058

> <i_lp_mmshare_version>
43012

> <i_f3d_flags>
0

> <s_epik_input>
W0NIMl0xW0NIMl1bQ0BIXShbQ0gyXTIpW0NAQEhdKFtDSDJdW0NAQEhdMTIpQyg9TylbTkhdW0NIMl1bQ0gyXWMzW2NIXVtjSF1bY0hdbltjSF0z

> <s_epik_cmdline>
J2VwaWtfcHl0aG9uJywgJy1waCcsICc3LjAnLCAnLXRuJywgJzgnLCAnLW1hJywgJzIwMCcsICctbWV0YWxfYmluZGluZycsICctaW1hZScsICc8aW5maWxlLm1hZT4nLCAnLW9tYWUnLCAnPG91dGZpbGUubWFlPic=

> <r_epik_Ionization_Penalty>
2.24375

> <r_epik_Ionization_Penalty_Charging>
2.24375

> <r_epik_Ionization_Penalty_Neutral>
1.89995e-08

> <r_epik_State_Penalty>
2.39035

> <r_epik_Charging_Adjusted_Penalty>
4.63411

> <i_epik_Tot_Q>
1

> <i_epik_Tot_abs_Q>
1

> <r_epik_Metal_State_Penalty>
2.40369

> <b_epik_Metal_Only>
0

> <s_lp_Force_Field>
OPLS_2005

> <r_lp_Energy>
53.6325

> <b_lp_Chiralities_Consistent>
1

> <s_lp_Variant>
AV-unprocessed.smi:3058-5

> <Gold.Version>
5.8.1

> <Gold.Id.Protein>
6NUR|6NUR_protein|mol2

> <Gold.PLP.Fitness>
46.2926

> <Gold.PLP.PLP>
-40.9371

> <Gold.PLP.part.hbond>
-2.0000

> <Gold.PLP.part.metal>
0.0000

> <Gold.PLP.part.buried>
0.5695

> <Gold.PLP.part.nonpolar>
-40.1900

> <Gold.PLP.part.repulsive>
0.1475

> <Gold.PLP.ligand.clash>
0.0000

> <Gold.PLP.ligand.torsion>
0.3360

> <Gold.PLP.Chemscore.Hbond>
2.0000

> <Gold.PLP.Chemscore.CHOScore>
0.0000

> <Gold.PLP.Chemscore.Metal>
0.0000

> <Gold.Chemscore.Hbonds>
donor molecule, donor type, donor heavy atom, donor atom, acceptor molecule, acceptor atom, score
      L1  H    10    39       P1  7948  2.00

> <Gold.PLP.Chemscore.Internal.Correction>
0.0275

> <Gold.Rescore>
     Score         DG    S(hbond)    S(metal)    S(lipo)     H(rot)  DE(clash)    DE(int)     intcor
     19.07     -19.80       0.89        0.00     128.82       1.45       0.39       0.34       ----

> <Gold.Chemscore.Fitness>
19.0682

> <Gold.Chemscore.DG>
-19.7989

> <Gold.Chemscore.ZeroCoef>
-5.4800

> <Gold.Chemscore.Hbond>
0.8897

> <Gold.Chemscore.Metal>
0.0000

> <Gold.Chemscore.Lipo>
128.8175

> <Gold.Chemscore.Internal_Hbond>
0.0000

> <Gold.Chemscore.DEClash>
0.3905

> <Gold.Chemscore.DEInternal>
0.3402

> <Gold.Chemscore.Rot>
1.4548

> <Gold.Chemscore.Internal.Correction>
   9.000000E+99

> <Gold.Chemscore.Hbonds>
donor molecule, donor type, donor heavy atom, donor atom, acceptor molecule, acceptor atom, score
      L1  H    10    39       P1  7948  0.97

> <Gold.Chemscore.Hbond.Weighted>
-2.9714

> <Gold.Chemscore.Metal.Weighted>
-0.0000

> <Gold.Chemscore.Lipo.Weighted>
-15.0716

> <Gold.Chemscore.Internal_Hbond.Weighted>
0.0000

> <Gold.Chemscore.DEClash.Weighted>
0.3905

> <Gold.Chemscore.DEInternal.Weighted>
0.3402

> <Gold.Chemscore.Rot.Weighted>
3.7242

> <Gold.Chemscore.Internal.Correction.Weighted>
   9.000000E+99

> <Gold.Protein.RotatedTorsions>
[ 6907 6896 6895 6894 ] final   -2.60 input  -60.11 | X-H torsion
[ 7974 7965 7964 7962 ] final  -11.07 input  175.53 | X-H torsion
[ 8008 7997 7996 7995 ] final    2.29 input   59.86 | X-H torsion
[ 10167 10162 10161 10158 ] final   25.12 input  -65.29 | X-H torsion
[ 10718 10713 10712 10709 ] final   -3.15 input   66.30 | X-H torsion
[ 10763 10752 10751 10750 ] final   -1.78 input  -60.55 | X-H torsion
[ 11005 11000 10999 10996 ] final  -83.96 input  -57.11 | X-H torsion

> <Gold.Protein.ActiveResidues>
 VAL166  LYS551  ARG553  GLY616  TRP617  ASP618  TYR619  PRO620  LYS621  CYS622 
 ASP623  PHE694  ASN695  SER759  ASP760  ASP761  ALA762  ILE779  LEU786  VAL792 
 PHE793  MET794  SER795  GLU796  ALA797  LYS798  CYS799  TRP800  GLU811  SER814 

> <Gold.Protein.RotatedAtoms>
  151.5272  135.1068  159.9893 H   0  0  0  0  0  0  0  0  0  0  0  0  # atno 6907 bound_to 6896
  152.4594  133.7787  159.6849 H   0  0  0  0  0  0  0  0  0  0  0  0  # atno 6908 bound_to 6896
  150.8550  133.7663  159.3037 H   0  0  0  0  0  0  0  0  0  0  0  0  # atno 6909 bound_to 6896
  146.2200  140.2857  142.8365 H   0  0  0  0  0  0  0  0  0  0  0  0  # atno 7974 bound_to 7965
  154.6898  140.2650  155.6824 H   0  0  0  0  0  0  0  0  0  0  0  0  # atno 8008 bound_to 7997
  156.2728  140.2793  156.1395 H   0  0  0  0  0  0  0  0  0  0  0  0  # atno 8009 bound_to 7997
  155.0913  140.0373  157.2659 H   0  0  0  0  0  0  0  0  0  0  0  0  # atno 8010 bound_to 7997
  140.5132  144.0126  150.6382 H   0  0  0  0  0  0  0  0  0  0  0  0  # atno 10167 bound_to 10162
  156.7804  130.5328  149.5752 H   0  0  0  0  0  0  0  0  0  0  0  0  # atno 10718 bound_to 10713
  153.3494  135.6985  153.6801 H   0  0  0  0  0  0  0  0  0  0  0  0  # atno 10763 bound_to 10752
  153.5534  135.3549  155.2769 H   0  0  0  0  0  0  0  0  0  0  0  0  # atno 10764 bound_to 10752
  154.8650  135.4232  154.2726 H   0  0  0  0  0  0  0  0  0  0  0  0  # atno 10765 bound_to 10752
  141.1654  133.7321  156.8797 H   0  0  0  0  0  0  0  0  0  0  0  0  # atno 11005 bound_to 11000
  144.9164  140.7817  143.5775 LP  0  0  0  0  0  0  0  0  0  0  0  0  # atno 17320 bound_to 7965
  145.2791  139.1925  143.4801 LP  0  0  0  0  0  0  0  0  0  0  0  0  # atno 17321 bound_to 7965
  140.3454  143.2994  152.0543 LP  0  0  0  0  0  0  0  0  0  0  0  0  # atno 17342 bound_to 10162
  139.4902  144.6412  151.6873 LP  0  0  0  0  0  0  0  0  0  0  0  0  # atno 17343 bound_to 10162
  156.1222  130.6118  151.0210 LP  0  0  0  0  0  0  0  0  0  0  0  0  # atno 17370 bound_to 10713
  157.6649  131.0873  150.7752 LP  0  0  0  0  0  0  0  0  0  0  0  0  # atno 17371 bound_to 10713
  140.1724  134.9091  157.2849 LP  0  0  0  0  0  0  0  0  0  0  0  0  # atno 17394 bound_to 11000
  140.2487  134.3708  155.7451 LP  0  0  0  0  0  0  0  0  0  0  0  0  # atno 17395 bound_to 11000

$$$$
