#       Name:                AV-unprocessed.smi:3141
#       Creating user name   scv26
#       Creation time:       Fri Mar 27 17:36:38 2020


#       File generated by GOLD software.
#

@<TRIPOS>MOLECULE
AV-unprocessed.smi:3141
    38    40     1
SMALL
NO_CHARGES


@<TRIPOS>ATOM
      1 ****        -1.0132   1.0542  -1.0085 O.2            1 S1                 0.0000
      2 ****        -1.1236   0.9023   0.2088 C.2            1 S1                 0.0000
      3 ****        -2.2758   1.0162   0.8821 N.am           1 S1                 0.0000
      4 ****        -3.5439   1.3209   0.3029 C.3            1 S1                 0.0000
      5 ****        -4.5083   2.1550   1.1182 C.3            1 S1                 0.0000
      6 ****        -4.7689   0.6866   0.9252 C.3            1 S1                 0.0000
      7 ****        -0.1015   0.5945   1.0197 N.am           1 S1                 0.0000
      8 ****         1.2769   0.3939   0.5808 C.3            1 S1                 0.0000
      9 ****         2.2450   0.4583   1.7783 C.3            1 S1                 0.0000
     10 ****         2.8193  -0.9508   1.9469 C.3            1 S1                 0.0000
     11 ****         2.7893  -1.5435   0.5416 C.3            1 S1                 0.0000
     12 ****         1.4793  -1.0068  -0.0462 C.3            1 S1                 0.0000
     13 ****         1.4408  -1.0147  -1.5165 N.pl3          1 S1                 0.0000
     14 ****         0.5568  -1.7003  -2.3105 C.2            1 S1                 0.0000
     15 ****         0.8829  -1.4048  -3.6088 C.2            1 S1                 0.0000
     16 ****         1.9526  -0.5526  -3.5551 N.pl3          1 S1                 1.0000
     17 ****         2.2909  -0.3170  -2.2835 C.2            1 S1                 0.0000
     18 ****        -2.2581   0.8718   1.8813 H              1 S1                 0.0000
     19 ****        -3.5785   1.4698  -0.7756 H              1 S1                 0.0000
     20 ****        -4.1902   2.4832   2.1059 H              1 S1                 0.0000
     21 ****        -5.1458   2.8533   0.5795 H              1 S1                 0.0000
     22 ****        -5.5807   0.4038   0.2583 H              1 S1                 0.0000
     23 ****        -4.6248   0.0346   1.7847 H              1 S1                 0.0000
     24 ****        -0.2878   0.4901   2.0066 H              1 S1                 0.0000
     25 ****         1.5469   1.1890  -0.1165 H              1 S1                 0.0000
     26 ****         3.0559   1.1499   1.5457 H              1 S1                 0.0000
     27 ****         1.7763   0.8163   2.6961 H              1 S1                 0.0000
     28 ****         3.8196  -0.9466   2.3808 H              1 S1                 0.0000
     29 ****         2.1737  -1.5342   2.6047 H              1 S1                 0.0000
     30 ****         3.6503  -1.1798  -0.0206 H              1 S1                 0.0000
     31 ****         2.8308  -2.6332   0.5461 H              1 S1                 0.0000
     32 ****         0.6808  -1.6683   0.2964 H              1 S1                 0.0000
     33 ****        -0.2231  -2.3275  -1.9034 H              1 S1                 0.0000
     34 ****         0.4441  -1.7273  -4.5418 H              1 S1                 0.0000
     35 ****         3.0906   0.3170  -1.9438 H              1 S1                 0.0000
     36 ****         2.4199  -0.1536  -4.3596 H              1 S1                 0.0000
     37 ****        -1.8172   1.2779  -1.5594 LP             1 S1                 0.0000
     38 ****        -0.1195   0.9539  -1.4459 LP             1 S1                 0.0000
@<TRIPOS>BOND
    1    1    2 2     
    2    2    3 am    
    3    2    7 am    
    4    3    4 1     
    5    3   18 1     
    6    4    6 1     
    7    4    5 1     
    8    4   19 1     
    9    5    6 1     
   10    5   20 1     
   11    5   21 1     
   12    6   22 1     
   13    6   23 1     
   14    7    8 1     
   15    7   24 1     
   16    8   12 1     
   17    8    9 1     
   18    8   25 1     
   19    9   10 1     
   20    9   26 1     
   21    9   27 1     
   22   10   11 1     
   23   10   28 1     
   24   10   29 1     
   25   11   12 1     
   26   11   30 1     
   27   11   31 1     
   28   12   13 1     
   29   12   32 1     
   30   13   17 1     
   31   13   14 1     
   32   14   15 2     
   33   14   33 1     
   34   15   16 1     
   35   15   34 1     
   36   16   17 2     
   37   16   36 1     
   38   17   35 1     
   39    1   37 1     
   40    1   38 1     
@<TRIPOS>SUBSTRUCTURE
      1 S1             1
@<TRIPOS>SET
LONE_PAIRS      STATIC     ATOMS    <user>   **** ""
2 37 38
DONOR_HYDROGENS      STATIC     ATOMS    <user>   **** ""
3 18 24 36
ATOM$BLUE        STATIC     ATOMS    COLORGROUP SYSTEM
2 37 38
ATOM$RED        STATIC     ATOMS    COLORGROUP SYSTEM
3 18 24 36
