AV-unprocessed.smi:2124|AV-procd|sdf|8664|dock4
  -GOLD-   2272011413D 1   1.00000     0.00000
 Structure written by MMmdl.
 47 49  0  0  0  0  0  0  0  0  1 V2000
  151.4440  143.3219  157.5350 C   0  0  0  0  0  0  0  0  0  0  0  0
  151.2823  142.0302  156.7635 C   0  0  0  0  0  0  0  0  0  0  0  0
  150.1496  141.9945  155.9675 N   0  0  0  0  0  0  0  0  0  0  0  0
  149.9272  140.8596  155.2084 C   0  0  0  0  0  0  0  0  0  0  0  0
  148.6838  140.9189  154.3385 C   0  0  0  0  0  0  0  0  0  0  0  0
  150.7810  139.8052  155.2535 C   0  0  0  0  0  0  0  0  0  0  0  0
  150.5919  138.5511  154.3989 C   0  0  0  0  0  0  0  0  0  0  0  0
  150.5696  137.2434  155.1910 C   0  0  0  0  0  0  0  0  0  0  0  0
  150.9507  137.2191  156.3606 O   0  0  0  0  0  0  0  0  0  0  0  0
  150.0737  136.1771  154.5460 N   0  0  0  0  0  0  0  0  0  0  0  0
  149.6914  134.9104  155.1592 C   0  0  2  0  0  0  0  0  0  0  0  0
  150.8621  134.3601  155.9888 C   0  0  0  0  0  0  0  0  0  0  0  0
  149.2407  133.9287  154.0514 C   0  0  1  0  0  0  0  0  0  0  0  0
  149.5272  132.4401  154.3497 C   0  0  0  0  0  0  0  0  0  0  0  0
  148.1691  131.7653  154.0771 C   0  0  1  0  0  0  0  0  0  0  0  0
  147.1954  132.1084  155.2200 C   0  0  0  0  0  0  0  0  0  0  0  0
  146.8686  133.5889  154.9533 C   0  0  0  0  0  0  0  0  0  0  0  0
  147.7270  133.9083  153.7124 C   0  0  2  0  0  0  0  0  0  0  0  0
  147.6156  132.6039  152.9310 C   0  0  0  0  0  0  0  0  0  0  0  0
  151.9676  139.8960  156.1376 C   0  0  0  0  0  0  0  0  0  0  0  0
  152.7805  138.9766  156.2210 O   0  0  0  0  0  0  0  0  0  0  0  0
  152.1548  141.0755  156.8759 N   0  0  0  0  0  0  0  0  0  0  0  0
  149.4908  142.7571  155.9011 H   0  0  0  0  0  0  0  0  0  0  0  0
  152.4570  143.4152  157.9285 H   0  0  0  0  0  0  0  0  0  0  0  0
  150.7468  143.3509  158.3726 H   0  0  0  0  0  0  0  0  0  0  0  0
  151.2503  144.1812  156.8918 H   0  0  0  0  0  0  0  0  0  0  0  0
  148.9499  140.8307  153.2852 H   0  0  0  0  0  0  0  0  0  0  0  0
  148.1467  141.8591  154.4686 H   0  0  0  0  0  0  0  0  0  0  0  0
  148.0017  140.1073  154.5919 H   0  0  0  0  0  0  0  0  0  0  0  0
  151.4017  138.5015  153.6703 H   0  0  0  0  0  0  0  0  0  0  0  0
  149.6817  138.6133  153.8018 H   0  0  0  0  0  0  0  0  0  0  0  0
  149.8158  136.2997  153.5774 H   0  0  0  0  0  0  0  0  0  0  0  0
  148.8517  135.0768  155.8360 H   0  0  0  0  0  0  0  0  0  0  0  0
  150.5950  133.4214  156.4743 H   0  0  0  0  0  0  0  0  0  0  0  0
  151.1518  135.0620  156.7717 H   0  0  0  0  0  0  0  0  0  0  0  0
  151.7385  134.1751  155.3669 H   0  0  0  0  0  0  0  0  0  0  0  0
  149.7684  134.1988  153.1346 H   0  0  0  0  0  0  0  0  0  0  0  0
  150.2967  132.0581  153.6774 H   0  0  0  0  0  0  0  0  0  0  0  0
  149.8662  132.2655  155.3716 H   0  0  0  0  0  0  0  0  0  0  0  0
  148.2449  130.6968  153.8741 H   0  0  0  0  0  0  0  0  0  0  0  0
  146.2921  131.5001  155.1598 H   0  0  0  0  0  0  0  0  0  0  0  0
  147.6393  131.9514  156.2038 H   0  0  0  0  0  0  0  0  0  0  0  0
  145.8093  133.7084  154.7219 H   0  0  0  0  0  0  0  0  0  0  0  0
  147.0858  134.2294  155.8073 H   0  0  0  0  0  0  0  0  0  0  0  0
  147.3877  134.7885  153.1652 H   0  0  0  0  0  0  0  0  0  0  0  0
  148.2386  132.5785  152.0350 H   0  0  0  0  0  0  0  0  0  0  0  0
  146.5900  132.3463  152.6604 H   0  0  0  0  0  0  0  0  0  0  0  0
  1 24  1  0  0  0  0
  1 25  1  0  0  0  0
  1 26  1  0  0  0  0
  1  2  1  0  0  0  0
  2  3  1  0  0  0  0
  2 22  2  0  0  0  0
  3  4  1  0  0  0  0
  3 23  1  0  0  0  0
  4  6  2  0  0  0  0
  4  5  1  0  0  0  0
  5 27  1  0  0  0  0
  5 28  1  0  0  0  0
  5 29  1  0  0  0  0
  6 20  1  0  0  0  0
  6  7  1  0  0  0  0
  7  8  1  0  0  0  0
  7 30  1  0  0  0  0
  7 31  1  0  0  0  0
  8  9  2  0  0  0  0
  8 10  1  0  0  0  0
 10 11  1  0  0  0  0
 10 32  1  0  0  0  0
 11 12  1  0  0  0  0
 11 13  1  0  0  0  0
 11 33  1  0  0  0  0
 12 34  1  0  0  0  0
 12 35  1  0  0  0  0
 12 36  1  0  0  0  0
 13 18  1  0  0  0  0
 13 14  1  0  0  0  0
 13 37  1  0  0  0  0
 14 15  1  0  0  0  0
 14 38  1  0  0  0  0
 14 39  1  0  0  0  0
 15 19  1  0  0  0  0
 15 16  1  0  0  0  0
 15 40  1  0  0  0  0
 16 17  1  0  0  0  0
 16 41  1  0  0  0  0
 16 42  1  0  0  0  0
 17 18  1  0  0  0  0
 17 43  1  0  0  0  0
 17 44  1  0  0  0  0
 18 19  1  0  0  0  0
 18 45  1  0  0  0  0
 19 46  1  0  0  0  0
 19 47  1  0  0  0  0
 20 21  2  0  0  0  0
 20 22  1  0  0  0  0
M  END
> <s_m_source_file>
AV-unprocessed.smi

> <i_m_source_file_index>
2124

> <i_lp_mmshare_version>
43012

> <i_f3d_flags>
0

> <s_epik_input>
W0NIM11jMW5jKFtDSDNdKWMoYyg9TylbbkhdMSlbQ0gyXUMoPU8pW05IXVtDQEhdKFtDSDNdKVtDQEhdKFtDSDJdW0NASF0yMylbQ0BIXShbQ0gyXTMpW0NIMl1bQ0gyXTI=

> <s_epik_cmdline>
J2VwaWtfcHl0aG9uJywgJy1waCcsICc3LjAnLCAnLXRuJywgJzgnLCAnLW1hJywgJzIwMCcsICctbWV0YWxfYmluZGluZycsICctaW1hZScsICc8aW5maWxlLm1hZT4nLCAnLW9tYWUnLCAnPG91dGZpbGUubWFlPic=

> <r_lp_tautomer_probability>
0.156392

> <r_epik_Ionization_Penalty>
0.0139374

> <r_epik_Ionization_Penalty_Charging>
0.0138122

> <r_epik_Ionization_Penalty_Neutral>
0.000125146

> <r_epik_State_Penalty>
1.15342

> <r_epik_Charging_Adjusted_Penalty>
1.16723

> <i_epik_Tot_Q>
0

> <i_epik_Tot_abs_Q>
0

> <r_epik_Metal_State_Penalty>
1.3173

> <b_epik_Metal_Only>
0

> <s_lp_Force_Field>
OPLS_2005

> <r_lp_Energy>
54.2082

> <b_lp_Chiralities_Consistent>
1

> <s_lp_Variant>
AV-unprocessed.smi:2124-15

> <Gold.Version>
5.8.1

> <Gold.Id.Protein>
6NUR|6NUR_protein|mol2

> <Gold.PLP.Fitness>
43.5907

> <Gold.PLP.PLP>
-36.8823

> <Gold.PLP.part.hbond>
-3.2075

> <Gold.PLP.part.metal>
0.0000

> <Gold.PLP.part.buried>
-0.5925

> <Gold.PLP.part.nonpolar>
-33.8005

> <Gold.PLP.part.repulsive>
0.1822

> <Gold.PLP.ligand.clash>
0.0000

> <Gold.PLP.ligand.torsion>
1.0954

> <Gold.PLP.Chemscore.Hbond>
2.9500

> <Gold.PLP.Chemscore.CHOScore>
0.0000

> <Gold.PLP.Chemscore.Metal>
0.0000

> <Gold.Chemscore.Hbonds>
donor molecule, donor type, donor heavy atom, donor atom, acceptor molecule, acceptor atom, score
      L1  H     3    23       P1  8028  0.91
      L1  H    10    32       P1  7948  0.95
      P1  H  7997  8009       L1    21  0.80

> <Gold.PLP.Chemscore.Internal.Correction>
0.0491

> <Gold.Rescore>
     Score         DG    S(hbond)    S(metal)    S(lipo)     H(rot)  DE(clash)    DE(int)     intcor
     10.02     -16.58       1.86        0.00      77.85       1.65       0.63       5.93       ----

> <Gold.Chemscore.Fitness>
10.0213

> <Gold.Chemscore.DG>
-16.5839

> <Gold.Chemscore.ZeroCoef>
-5.4800

> <Gold.Chemscore.Hbond>
1.8648

> <Gold.Chemscore.Metal>
0.0000

> <Gold.Chemscore.Lipo>
77.8469

> <Gold.Chemscore.Internal_Hbond>
0.0000

> <Gold.Chemscore.DEClash>
0.6322

> <Gold.Chemscore.DEInternal>
5.9305

> <Gold.Chemscore.Rot>
1.6534

> <Gold.Chemscore.Internal.Correction>
   9.000000E+99

> <Gold.Chemscore.Hbonds>
donor molecule, donor type, donor heavy atom, donor atom, acceptor molecule, acceptor atom, score
      L1  H     3    23       P1  8028  0.86
      L1  H    10    32       P1  7948  0.22
      P1  H  7997  8009       L1    21  0.12

> <Gold.Chemscore.Hbond.Weighted>
-6.2284

> <Gold.Chemscore.Metal.Weighted>
-0.0000

> <Gold.Chemscore.Lipo.Weighted>
-9.1081

> <Gold.Chemscore.Internal_Hbond.Weighted>
0.0000

> <Gold.Chemscore.DEClash.Weighted>
0.6322

> <Gold.Chemscore.DEInternal.Weighted>
5.9305

> <Gold.Chemscore.Rot.Weighted>
4.2326

> <Gold.Chemscore.Internal.Correction.Weighted>
   9.000000E+99

> <Gold.Protein.RotatedTorsions>
[ 6907 6896 6895 6894 ] final -127.14 input  -60.11 | X-H torsion
[ 7974 7965 7964 7962 ] final -106.62 input  175.53 | X-H torsion
[ 8008 7997 7996 7995 ] final -168.54 input   59.86 | X-H torsion
[ 10167 10162 10161 10158 ] final  -31.65 input  -65.29 | X-H torsion
[ 10718 10713 10712 10709 ] final -141.23 input   66.30 | X-H torsion
[ 10763 10752 10751 10750 ] final  -46.56 input  -60.55 | X-H torsion
[ 11005 11000 10999 10996 ] final  159.60 input  -57.11 | X-H torsion

> <Gold.Protein.ActiveResidues>
 VAL166  LYS551  ARG553  GLY616  TRP617  ASP618  TYR619  PRO620  LYS621  CYS622 
 ASP623  PHE694  ASN695  SER759  ASP760  ASP761  ALA762  ILE779  LEU786  VAL792 
 PHE793  MET794  SER795  GLU796  ALA797  LYS798  CYS799  TRP800  GLU811  SER814 

> <Gold.Protein.RotatedAtoms>
  150.9042  133.7079  159.2870 H   0  0  0  0  0  0  0  0  0  0  0  0  # atno 6907 bound_to 6896
  151.4588  135.1035  159.9728 H   0  0  0  0  0  0  0  0  0  0  0  0  # atno 6908 bound_to 6896
  152.4894  133.8410  159.7208 H   0  0  0  0  0  0  0  0  0  0  0  0  # atno 6909 bound_to 6896
  145.2155  140.9113  143.3289 H   0  0  0  0  0  0  0  0  0  0  0  0  # atno 7974 bound_to 7965
  155.8927  140.1027  157.1406 H   0  0  0  0  0  0  0  0  0  0  0  0  # atno 8008 bound_to 7997
  154.4017  140.1307  156.4401 H   0  0  0  0  0  0  0  0  0  0  0  0  # atno 8009 bound_to 7997
  155.7514  140.3465  155.5155 H   0  0  0  0  0  0  0  0  0  0  0  0  # atno 8010 bound_to 7997
  140.7233  143.3755  151.1698 H   0  0  0  0  0  0  0  0  0  0  0  0  # atno 10167 bound_to 10162
  156.3316  130.7589  151.1708 H   0  0  0  0  0  0  0  0  0  0  0  0  # atno 10718 bound_to 10713
  154.0470  135.6636  153.4796 H   0  0  0  0  0  0  0  0  0  0  0  0  # atno 10763 bound_to 10752
  153.0479  135.5103  154.7787 H   0  0  0  0  0  0  0  0  0  0  0  0  # atno 10764 bound_to 10752
  154.6782  135.3040  154.9616 H   0  0  0  0  0  0  0  0  0  0  0  0  # atno 10765 bound_to 10752
  140.1978  134.8360  157.2984 H   0  0  0  0  0  0  0  0  0  0  0  0  # atno 11005 bound_to 11000
  144.9815  139.3779  143.6260 LP  0  0  0  0  0  0  0  0  0  0  0  0  # atno 17320 bound_to 7965
  146.3388  139.8958  142.8802 LP  0  0  0  0  0  0  0  0  0  0  0  0  # atno 17321 bound_to 7965
  139.7334  143.9037  152.3027 LP  0  0  0  0  0  0  0  0  0  0  0  0  # atno 17342 bound_to 10162
  139.8833  144.7005  150.8852 LP  0  0  0  0  0  0  0  0  0  0  0  0  # atno 17343 bound_to 10162
  157.7431  131.0479  150.4970 LP  0  0  0  0  0  0  0  0  0  0  0  0  # atno 17370 bound_to 10713
  156.5137  130.4145  149.6287 LP  0  0  0  0  0  0  0  0  0  0  0  0  # atno 17371 bound_to 10713
  140.2088  134.4164  155.7623 LP  0  0  0  0  0  0  0  0  0  0  0  0  # atno 17394 bound_to 11000
  141.2227  133.7108  156.8304 LP  0  0  0  0  0  0  0  0  0  0  0  0  # atno 17395 bound_to 11000

$$$$
