AV-unprocessed.smi:1413|AV-procd|sdf|5751|dock8
  -GOLD-   22720 5393D 1   1.00000     0.00000
 Structure written by MMmdl.
 53 55  0  0  0  0  0  0  0  0  1 V2000
  151.3980  144.5747  158.4376 C   0  0  0  0  0  0  0  0  0  0  0  0
  152.1748  143.2583  158.3332 C   0  0  2  0  0  0  0  0  0  0  0  0
  151.3403  142.1471  157.6682 C   0  0  0  0  0  0  0  0  0  0  0  0
  152.0625  140.8785  157.6981 N   0  0  0  0  0  0  0  0  0  0  0  0
  151.5274  139.8567  156.8845 C   0  0  0  0  0  0  0  0  0  0  0  0
  151.1431  140.1380  155.5523 C   0  0  0  0  0  0  0  0  0  0  0  0
  150.6133  139.1054  154.7546 C   0  0  0  0  0  0  0  0  0  0  0  0
  150.4870  137.8103  155.3073 C   0  0  0  0  0  0  0  0  0  0  0  0
  149.9498  136.6952  154.6105 N   0  0  0  0  0  0  0  0  0  0  0  0
  149.7926  135.4363  155.0533 C   0  0  0  0  0  0  0  0  0  0  0  0
  150.0896  135.0386  156.1795 O   0  0  0  0  0  0  0  0  0  0  0  0
  149.2464  134.6579  154.1079 N   0  0  0  0  0  0  0  0  0  0  0  0
  148.8905  133.2460  154.2522 C   0  0  1  0  0  0  0  0  0  0  0  0
  148.0729  133.0595  155.5385 C   0  0  0  0  0  0  0  0  0  0  0  0
  148.1304  132.7332  153.0110 C   0  0  2  0  0  0  0  0  0  0  0  0
  146.9432  133.5932  152.5521 C   0  0  0  0  0  0  0  0  0  0  0  0
  145.9039  132.5826  152.0855 C   0  0  0  0  0  0  0  0  0  0  0  0
  146.6063  131.2336  152.2207 C   0  0  0  0  0  0  0  0  0  0  0  0
  147.5594  131.4532  153.2467 O   0  0  0  0  0  0  0  0  0  0  0  0
  150.8838  137.6299  156.6470 C   0  0  0  0  0  0  0  0  0  0  0  0
  151.3961  138.6154  157.4131 N   0  0  0  0  0  0  0  0  0  0  0  0
  152.5350  140.5144  159.0320 C   0  0  0  0  0  0  0  0  0  0  0  0
  153.3408  141.6717  159.6509 C   0  0  2  0  0  0  0  0  0  0  0  0
  153.7593  141.3752  161.0946 C   0  0  0  0  0  0  0  0  0  0  0  0
  152.5398  142.8502  159.6491 O   0  0  0  0  0  0  0  0  0  0  0  0
  151.1034  144.9354  157.4518 H   0  0  0  0  0  0  0  0  0  0  0  0
  152.0045  145.3493  158.9075 H   0  0  0  0  0  0  0  0  0  0  0  0
  150.4934  144.4523  159.0339 H   0  0  0  0  0  0  0  0  0  0  0  0
  153.0802  143.4357  157.7500 H   0  0  0  0  0  0  0  0  0  0  0  0
  150.3934  142.0218  158.1951 H   0  0  0  0  0  0  0  0  0  0  0  0
  151.0975  142.4449  156.6490 H   0  0  0  0  0  0  0  0  0  0  0  0
  151.2582  141.1260  155.1318 H   0  0  0  0  0  0  0  0  0  0  0  0
  150.3061  139.3282  153.7446 H   0  0  0  0  0  0  0  0  0  0  0  0
  149.5761  136.8943  153.6940 H   0  0  0  0  0  0  0  0  0  0  0  0
  149.0472  135.0774  153.2116 H   0  0  0  0  0  0  0  0  0  0  0  0
  149.7931  132.6421  154.3596 H   0  0  0  0  0  0  0  0  0  0  0  0
  147.8186  132.0106  155.6924 H   0  0  0  0  0  0  0  0  0  0  0  0
  147.1416  133.6260  155.5047 H   0  0  0  0  0  0  0  0  0  0  0  0
  148.6335  133.3929  156.4125 H   0  0  0  0  0  0  0  0  0  0  0  0
  148.8268  132.6368  152.1755 H   0  0  0  0  0  0  0  0  0  0  0  0
  146.5305  134.1971  153.3598 H   0  0  0  0  0  0  0  0  0  0  0  0
  147.2393  134.2758  151.7550 H   0  0  0  0  0  0  0  0  0  0  0  0
  145.0337  132.6191  152.7422 H   0  0  0  0  0  0  0  0  0  0  0  0
  145.5634  132.7673  151.0663 H   0  0  0  0  0  0  0  0  0  0  0  0
  145.9209  130.4247  152.4742 H   0  0  0  0  0  0  0  0  0  0  0  0
  147.1219  130.9697  151.2960 H   0  0  0  0  0  0  0  0  0  0  0  0
  150.7955  136.6625  157.1196 H   0  0  0  0  0  0  0  0  0  0  0  0
  151.6792  140.2710  159.6634 H   0  0  0  0  0  0  0  0  0  0  0  0
  153.1632  139.6244  158.9758 H   0  0  0  0  0  0  0  0  0  0  0  0
  154.2410  141.8501  159.0597 H   0  0  0  0  0  0  0  0  0  0  0  0
  154.3846  140.4836  161.1459 H   0  0  0  0  0  0  0  0  0  0  0  0
  152.8901  141.2120  161.7324 H   0  0  0  0  0  0  0  0  0  0  0  0
  154.3289  142.2053  161.5133 H   0  0  0  0  0  0  0  0  0  0  0  0
  1  2  1  0  0  0  0
  1 26  1  0  0  0  0
  1 27  1  0  0  0  0
  1 28  1  0  0  0  0
  2 25  1  0  0  0  0
  2  3  1  0  0  0  0
  2 29  1  0  0  0  0
  3  4  1  0  0  0  0
  3 30  1  0  0  0  0
  3 31  1  0  0  0  0
  4  5  1  0  0  0  0
  4 22  1  0  0  0  0
  5 21  1  0  0  0  0
  5  6  2  0  0  0  0
  6  7  1  0  0  0  0
  6 32  1  0  0  0  0
  7  8  2  0  0  0  0
  7 33  1  0  0  0  0
  8  9  1  0  0  0  0
  8 20  1  0  0  0  0
  9 10  1  0  0  0  0
  9 34  1  0  0  0  0
 10 11  2  0  0  0  0
 10 12  1  0  0  0  0
 12 13  1  0  0  0  0
 12 35  1  0  0  0  0
 13 14  1  0  0  0  0
 13 15  1  0  0  0  0
 13 36  1  0  0  0  0
 14 37  1  0  0  0  0
 14 38  1  0  0  0  0
 14 39  1  0  0  0  0
 15 19  1  0  0  0  0
 15 16  1  0  0  0  0
 15 40  1  0  0  0  0
 16 17  1  0  0  0  0
 16 41  1  0  0  0  0
 16 42  1  0  0  0  0
 17 18  1  0  0  0  0
 17 43  1  0  0  0  0
 17 44  1  0  0  0  0
 18 19  1  0  0  0  0
 18 45  1  0  0  0  0
 18 46  1  0  0  0  0
 20 21  2  0  0  0  0
 20 47  1  0  0  0  0
 22 23  1  0  0  0  0
 22 48  1  0  0  0  0
 22 49  1  0  0  0  0
 23 24  1  0  0  0  0
 23 25  1  0  0  0  0
 23 50  1  0  0  0  0
 24 51  1  0  0  0  0
 24 52  1  0  0  0  0
 24 53  1  0  0  0  0
M  END
> <s_m_source_file>
AV-unprocessed.smi

> <i_m_source_file_index>
1413

> <i_lp_mmshare_version>
43012

> <i_f3d_flags>
0

> <s_epik_input>
W0NIM11bQ0BASF0xW0NIMl1OKFtDSDJdW0NASF0oTzEpW0NIM10pYzJbY0hdW2NIXWMoW2NIXW4yKVtOSF1DKD1PKVtOSF1bQ0BIXShbQ0gzXSlbQ0BASF0zW0NIMl1bQ0gyXVtDSDJdTzM=

> <s_epik_cmdline>
J2VwaWtfcHl0aG9uJywgJy1waCcsICc3LjAnLCAnLXRuJywgJzgnLCAnLW1hJywgJzIwMCcsICctbWV0YWxfYmluZGluZycsICctaW1hZScsICc8aW5maWxlLm1hZT4nLCAnLW9tYWUnLCAnPG91dGZpbGUubWFlPic=

> <r_lp_tautomer_probability>
1

> <r_epik_Ionization_Penalty>
0.00271172

> <r_epik_Ionization_Penalty_Charging>
0

> <r_epik_Ionization_Penalty_Neutral>
0.00271172

> <r_epik_State_Penalty>
0.00186503

> <r_epik_Charging_Adjusted_Penalty>
0.00186503

> <i_epik_Tot_Q>
0

> <i_epik_Tot_abs_Q>
0

> <r_epik_Metal_State_Penalty>
-0

> <b_epik_Metal_Only>
0

> <s_lp_Force_Field>
OPLS_2005

> <r_lp_Energy>
35.2684

> <b_lp_Chiralities_Consistent>
1

> <s_lp_Variant>
AV-unprocessed.smi:1413-4

> <Gold.Version>
5.8.1

> <Gold.Id.Protein>
6NUR|6NUR_protein|mol2

> <Gold.PLP.Fitness>
48.5407

> <Gold.PLP.PLP>
-43.0022

> <Gold.PLP.part.hbond>
-2.0000

> <Gold.PLP.part.metal>
0.0000

> <Gold.PLP.part.buried>
-5.6040

> <Gold.PLP.part.nonpolar>
-35.5566

> <Gold.PLP.part.repulsive>
0.1611

> <Gold.PLP.ligand.clash>
0.0000

> <Gold.PLP.ligand.torsion>
0.4012

> <Gold.PLP.Chemscore.Hbond>
2.0000

> <Gold.PLP.Chemscore.CHOScore>
0.0000

> <Gold.PLP.Chemscore.Metal>
0.0000

> <Gold.Chemscore.Hbonds>
donor molecule, donor type, donor heavy atom, donor atom, acceptor molecule, acceptor atom, score
      L1  H     9    34       P1  7948  0.99
      L1  H    12    35       P1  7948  0.95

> <Gold.PLP.Chemscore.Internal.Correction>
0.3410

> <Gold.Rescore>
     Score         DG    S(hbond)    S(metal)    S(lipo)     H(rot)  DE(clash)    DE(int)     intcor
     18.78     -20.56       1.59        0.00     113.01       1.35       0.04       1.74       ----

> <Gold.Chemscore.Fitness>
18.7832

> <Gold.Chemscore.DG>
-20.5598

> <Gold.Chemscore.ZeroCoef>
-5.4800

> <Gold.Chemscore.Hbond>
1.5887

> <Gold.Chemscore.Metal>
0.0000

> <Gold.Chemscore.Lipo>
113.0106

> <Gold.Chemscore.Internal_Hbond>
0.0000

> <Gold.Chemscore.DEClash>
0.0362

> <Gold.Chemscore.DEInternal>
1.7404

> <Gold.Chemscore.Rot>
1.3471

> <Gold.Chemscore.Internal.Correction>
   9.000000E+99

> <Gold.Chemscore.Hbonds>
donor molecule, donor type, donor heavy atom, donor atom, acceptor molecule, acceptor atom, score
      L1  H     9    34       P1  7948  0.72
      L1  H    12    35       P1  7948  0.22

> <Gold.Chemscore.Hbond.Weighted>
-5.3061

> <Gold.Chemscore.Metal.Weighted>
-0.0000

> <Gold.Chemscore.Lipo.Weighted>
-13.2222

> <Gold.Chemscore.Internal_Hbond.Weighted>
0.0000

> <Gold.Chemscore.DEClash.Weighted>
0.0362

> <Gold.Chemscore.DEInternal.Weighted>
1.7404

> <Gold.Chemscore.Rot.Weighted>
3.4485

> <Gold.Chemscore.Internal.Correction.Weighted>
   9.000000E+99

> <Gold.Protein.RotatedTorsions>
[ 6907 6896 6895 6894 ] final -127.28 input  -60.11 | X-H torsion
[ 7974 7965 7964 7962 ] final -152.51 input  175.53 | X-H torsion
[ 8008 7997 7996 7995 ] final  -15.22 input   59.86 | X-H torsion
[ 10167 10162 10161 10158 ] final  -43.79 input  -65.29 | X-H torsion
[ 10718 10713 10712 10709 ] final  -97.63 input   66.30 | X-H torsion
[ 10763 10752 10751 10750 ] final   -5.66 input  -60.55 | X-H torsion
[ 11005 11000 10999 10996 ] final   30.59 input  -57.11 | X-H torsion

> <Gold.Protein.ActiveResidues>
 VAL166  LYS551  ARG553  GLY616  TRP617  ASP618  TYR619  PRO620  LYS621  CYS622 
 ASP623  PHE694  ASN695  SER759  ASP760  ASP761  ALA762  ILE779  LEU786  VAL792 
 PHE793  MET794  SER795  GLU796  ALA797  LYS798  CYS799  TRP800  GLU811  SER814 

> <Gold.Protein.RotatedAtoms>
  150.9056  133.7062  159.2867 H   0  0  0  0  0  0  0  0  0  0  0  0  # atno 6907 bound_to 6896
  151.4566  135.1033  159.9722 H   0  0  0  0  0  0  0  0  0  0  0  0  # atno 6908 bound_to 6896
  152.4901  133.8429  159.7217 H   0  0  0  0  0  0  0  0  0  0  0  0  # atno 6909 bound_to 6896
  144.7790  140.4652  143.5853 H   0  0  0  0  0  0  0  0  0  0  0  0  # atno 7974 bound_to 7965
  154.5147  140.2202  155.9088 H   0  0  0  0  0  0  0  0  0  0  0  0  # atno 8008 bound_to 7997
  156.1594  140.3145  155.8746 H   0  0  0  0  0  0  0  0  0  0  0  0  # atno 8009 bound_to 7997
  155.3782  140.0471  157.3035 H   0  0  0  0  0  0  0  0  0  0  0  0  # atno 8010 bound_to 7997
  140.6921  143.2964  151.3402 H   0  0  0  0  0  0  0  0  0  0  0  0  # atno 10167 bound_to 10162
  156.0088  130.5202  150.6403 H   0  0  0  0  0  0  0  0  0  0  0  0  # atno 10718 bound_to 10713
  153.4016  135.7005  153.6422 H   0  0  0  0  0  0  0  0  0  0  0  0  # atno 10763 bound_to 10752
  153.4953  135.3664  155.2513 H   0  0  0  0  0  0  0  0  0  0  0  0  # atno 10764 bound_to 10752
  154.8711  135.4099  154.3352 H   0  0  0  0  0  0  0  0  0  0  0  0  # atno 10765 bound_to 10752
  140.2928  134.2845  155.7772 H   0  0  0  0  0  0  0  0  0  0  0  0  # atno 11005 bound_to 11000
  145.6104  139.1512  143.3079 LP  0  0  0  0  0  0  0  0  0  0  0  0  # atno 17320 bound_to 7965
  146.1987  140.6220  142.9112 LP  0  0  0  0  0  0  0  0  0  0  0  0  # atno 17321 bound_to 7965
  139.6335  144.0676  152.2496 LP  0  0  0  0  0  0  0  0  0  0  0  0  # atno 17342 bound_to 10162
  140.0158  144.6190  150.7608 LP  0  0  0  0  0  0  0  0  0  0  0  0  # atno 17343 bound_to 10162
  157.4184  131.0833  151.1154 LP  0  0  0  0  0  0  0  0  0  0  0  0  # atno 17370 bound_to 10713
  157.1764  130.6290  149.5657 LP  0  0  0  0  0  0  0  0  0  0  0  0  # atno 17371 bound_to 10713
  141.2143  133.7596  156.9650 LP  0  0  0  0  0  0  0  0  0  0  0  0  # atno 17394 bound_to 11000
  140.1180  134.9435  157.2162 LP  0  0  0  0  0  0  0  0  0  0  0  0  # atno 17395 bound_to 11000

$$$$
