#       Name:                AV-unprocessed.smi:1914
#       Creating user name   scv26
#       Creation time:       Fri Mar 27 09:50:06 2020


#       File generated by GOLD software.
#

@<TRIPOS>MOLECULE
AV-unprocessed.smi:1914
    48    49     1
SMALL
NO_CHARGES


@<TRIPOS>ATOM
      1 ****        -1.7938   4.4801  -2.2043 C.3            1 S1                 0.0000
      2 ****        -2.2109   3.6818  -0.9611 C.3            1 S1                 0.0000
      3 ****        -3.7280   3.7649  -0.7234 C.3            1 S1                 0.0000
      4 ****        -4.1210   2.9340   0.5043 C.3            1 S1                 0.0000
      5 ****        -3.6296   1.4843   0.3680 C.3            1 S1                 0.0000
      6 ****        -2.1612   1.4355   0.1467 N.4            1 S1                 1.0000
      7 ****        -1.6398   0.0452   0.1479 C.3            1 S1                 0.0000
      8 ****        -0.1474  -0.0192   0.5108 C.3            1 S1                 0.0000
      9 ****         0.3130  -1.4003   0.5433 N.am           1 S1                 0.0000
     10 ****         1.5528  -1.7740   0.8910 C.2            1 S1                 0.0000
     11 ****         2.4213  -0.9742   1.2415 O.2            1 S1                 0.0000
     12 ****         1.8400  -3.2819   0.8521 C.3            1 S1                 0.0000
     13 ****         3.2626  -3.5976   0.6390 N.am           1 S1                 0.0000
     14 ****         4.0208  -3.9497   1.7736 C.2            1 S1                 0.0000
     15 ****         5.3250  -4.2561   1.6886 C.2            1 S1                 0.0000
     16 ****         5.9522  -4.2184   0.3886 C.2            1 S1                 0.0000
     17 ****         5.2368  -3.8809  -0.7027 C.2            1 S1                 0.0000
     18 ****         3.8111  -3.5441  -0.6144 C.2            1 S1                 0.0000
     19 ****         3.1499  -3.2329  -1.6057 O.2            1 S1                 0.0000
     20 ****        -1.7653   2.2089  -1.0616 C.3            1 S1                 0.0000
     21 ****        -2.2648   4.0861  -3.1055 H              1 S1                 0.0000
     22 ****        -0.7140   4.4443  -2.3506 H              1 S1                 0.0000
     23 ****        -2.0785   5.5287  -2.1118 H              1 S1                 0.0000
     24 ****        -1.7086   4.1279  -0.1012 H              1 S1                 0.0000
     25 ****        -4.0335   4.8022  -0.5822 H              1 S1                 0.0000
     26 ****        -4.2642   3.3982  -1.6001 H              1 S1                 0.0000
     27 ****        -3.6960   3.3826   1.4033 H              1 S1                 0.0000
     28 ****        -5.2038   2.9497   0.6332 H              1 S1                 0.0000
     29 ****        -3.8858   0.9361   1.2755 H              1 S1                 0.0000
     30 ****        -4.1411   0.9878  -0.4583 H              1 S1                 0.0000
     31 ****        -2.1885  -0.5441   0.8843 H              1 S1                 0.0000
     32 ****        -1.8273  -0.4214  -0.8207 H              1 S1                 0.0000
     33 ****         0.4573   0.5276  -0.2130 H              1 S1                 0.0000
     34 ****         0.0193   0.4423   1.4856 H              1 S1                 0.0000
     35 ****        -0.3451  -2.1174   0.2738 H              1 S1                 0.0000
     36 ****         1.4843  -3.7178   1.7866 H              1 S1                 0.0000
     37 ****         1.2364  -3.7490   0.0713 H              1 S1                 0.0000
     38 ****         3.4801  -3.9489   2.7090 H              1 S1                 0.0000
     39 ****         5.8911  -4.5210   2.5695 H              1 S1                 0.0000
     40 ****         7.0002  -4.4609   0.2912 H              1 S1                 0.0000
     41 ****         5.7231  -3.8571  -1.6670 H              1 S1                 0.0000
     42 ****        -2.1992   1.7434  -1.9482 H              1 S1                 0.0000
     43 ****        -0.6838   2.1759  -1.1888 H              1 S1                 0.0000
     44 ****        -1.7440   1.8974   0.9423 H              1 S1                 0.0000
     45 ****         2.2157   0.0039   1.2761 LP             1 S1                 0.0000
     46 ****         3.3320  -1.3028   1.4915 LP             1 S1                 0.0000
     47 ****         2.1799  -3.0091  -1.5097 LP             1 S1                 0.0000
     48 ****         3.5829  -3.2039  -2.5066 LP             1 S1                 0.0000
@<TRIPOS>BOND
    1    1    2 1     
    2    1   21 1     
    3    1   22 1     
    4    1   23 1     
    5    2   20 1     
    6    2    3 1     
    7    2   24 1     
    8    3    4 1     
    9    3   25 1     
   10    3   26 1     
   11    4    5 1     
   12    4   27 1     
   13    4   28 1     
   14    5    6 1     
   15    5   29 1     
   16    5   30 1     
   17    6    7 1     
   18    6   20 1     
   19    6   44 1     
   20    7    8 1     
   21    7   31 1     
   22    7   32 1     
   23    8    9 1     
   24    8   33 1     
   25    8   34 1     
   26    9   10 am    
   27    9   35 1     
   28   10   11 2     
   29   10   12 1     
   30   12   13 1     
   31   12   36 1     
   32   12   37 1     
   33   13   18 am    
   34   13   14 1     
   35   14   15 2     
   36   14   38 1     
   37   15   16 1     
   38   15   39 1     
   39   16   17 2     
   40   16   40 1     
   41   17   18 1     
   42   17   41 1     
   43   18   19 2     
   44   20   42 1     
   45   20   43 1     
   46   11   45 1     
   47   11   46 1     
   48   19   47 1     
   49   19   48 1     
@<TRIPOS>SUBSTRUCTURE
      1 S1             1
@<TRIPOS>SET
LONE_PAIRS      STATIC     ATOMS    <user>   **** ""
4 45 46 47 48
DONOR_HYDROGENS      STATIC     ATOMS    <user>   **** ""
2 44 35
ATOM$BLUE        STATIC     ATOMS    COLORGROUP SYSTEM
4 45 46 47 48
ATOM$RED        STATIC     ATOMS    COLORGROUP SYSTEM
2 44 35
