AV-unprocessed.smi:72|AV-procd|sdf|731|dock3
  -GOLD-   2262017 63D 1   1.00000     0.00000
 Structure written by MMmdl.
 28 29  0  0  0  0  0  0  0  0  2 V2000
  148.2672  136.9258  160.7178 N   0  0  0  0  0  0  0  0  0  0  0  0
  148.6300  137.0175  159.5139 C   0  0  0  0  0  0  0  0  0  0  0  0
  148.2173  138.1512  158.7174 N   0  0  0  0  0  0  0  0  0  0  0  0
  148.5600  138.1670  157.4661 C   0  0  0  0  0  0  0  0  0  0  0  0
  149.2954  137.0666  156.8489 N   0  0  0  0  0  0  0  0  0  0  0  0
  149.7166  137.1079  155.3836 C   0  0  2  0  0  0  0  0  0  0  0  0
  151.1105  137.2424  155.2949 O   0  0  0  0  0  0  0  0  0  0  0  0
  151.4937  138.5610  154.9058 C   0  0  2  0  0  0  0  0  0  0  0  0
  151.6600  139.4774  156.1404 C   0  0  0  0  0  0  0  0  0  0  0  0
  152.8788  139.1900  156.7925 O   0  0  0  0  0  0  0  0  0  0  0  0
  150.3461  138.9401  153.9647 C   0  0  2  0  0  0  0  0  0  0  0  0
  150.1975  140.3366  153.7964 O   0  0  0  0  0  0  0  0  0  0  0  0
  149.1214  138.3170  154.6212 C   0  0  1  0  0  0  0  0  0  0  0  0
  148.2133  137.9121  153.6162 O   0  0  0  0  0  0  0  0  0  0  0  0
  149.7872  136.0287  157.6896 C   0  0  0  0  0  0  0  0  0  0  0  0
  150.5356  135.1837  157.1990 O   0  0  0  0  0  0  0  0  0  0  0  0
  149.4256  136.0173  159.0027 N   0  5  0  0  0  0  0  0  0  0  0  0
  149.4155  136.1365  154.9878 H   0  0  0  0  0  0  0  0  0  0  0  0
  152.4328  138.5283  154.3515 H   0  0  0  0  0  0  0  0  0  0  0  0
  150.5293  138.4796  152.9922 H   0  0  0  0  0  0  0  0  0  0  0  0
  148.6570  139.0155  155.3194 H   0  0  0  0  0  0  0  0  0  0  0  0
  148.6218  136.0960  161.1704 H   0  0  0  0  0  0  0  0  0  0  0  0
  148.3151  139.0013  156.8088 H   0  0  0  0  0  0  0  0  0  0  0  0
  151.7171  140.5223  155.8363 H   0  0  0  0  0  0  0  0  0  0  0  0
  150.8241  139.4022  156.8341 H   0  0  0  0  0  0  0  0  0  0  0  0
  153.0716  138.2722  156.6754 H   0  0  0  0  0  0  0  0  0  0  0  0
  149.7812  140.4906  152.9620 H   0  0  0  0  0  0  0  0  0  0  0  0
  148.5826  137.1628  153.1724 H   0  0  0  0  0  0  0  0  0  0  0  0
  1  2  2  0  0  0  0
  1 22  1  0  0  0  0
  2 17  1  0  0  0  0
  2  3  1  0  0  0  0
  3  4  2  0  0  0  0
  4  5  1  0  0  0  0
  4 23  1  0  0  0  0
  5  6  1  0  0  0  0
  5 15  1  0  0  0  0
  6 18  1  0  0  0  0
  6 13  1  0  0  0  0
  6  7  1  0  0  0  0
  7  8  1  0  0  0  0
  8 19  1  0  0  0  0
  8  9  1  0  0  0  0
  8 11  1  0  0  0  0
  9 10  1  0  0  0  0
  9 24  1  0  0  0  0
  9 25  1  0  0  0  0
 10 26  1  0  0  0  0
 11 20  1  0  0  0  0
 11 12  1  0  0  0  0
 11 13  1  0  0  0  0
 12 27  1  0  0  0  0
 13 21  1  0  0  0  0
 13 14  1  0  0  0  0
 14 28  1  0  0  0  0
 15 16  2  0  0  0  0
 15 17  1  0  0  0  0
M  CHG  1  17  -1
M  END
> <s_m_source_file>
AV-unprocessed.smi

> <i_m_source_file_index>
72

> <i_lp_mmshare_version>
43012

> <i_f3d_flags>
0

> <s_epik_input>
W05IMl1jMW5bY0hdbihjKD1PKW4xKVtDQEBIXTJPW0NASF0oW0NIMl1bT0hdKVtDQEBIXShbT0hdKVtDQEhdMltPSF0=

> <s_epik_cmdline>
J2VwaWtfcHl0aG9uJywgJy1waCcsICc3LjAnLCAnLXRuJywgJzgnLCAnLW1hJywgJzIwMCcsICctbWV0YWxfYmluZGluZycsICctaW1hZScsICc8aW5maWxlLm1hZT4nLCAnLW9tYWUnLCAnPG91dGZpbGUubWFlPic=

> <r_lp_tautomer_probability>
7.17554e-07

> <r_epik_Ionization_Penalty>
12.8705

> <r_epik_Ionization_Penalty_Charging>
5.64144

> <r_epik_Ionization_Penalty_Neutral>
7.22905

> <r_epik_State_Penalty>
3.30104

> <r_epik_Charging_Adjusted_Penalty>
8.94249

> <i_epik_Tot_Q>
-1

> <i_epik_Tot_abs_Q>
1

> <r_epik_Metal_State_Penalty>
0.529074

> <b_epik_Metal_Only>
1

> <s_epik_Chemistry_Notes>
This compound contains an acetal/aminal-like group ( X-CH(R)-Y where X, Y are N, S, or O) that may be acid/base labile, releasing an aldehyde.

> <s_lp_Force_Field>
OPLS_2005

> <r_lp_Energy>
34.678

> <b_lp_Chiralities_Consistent>
1

> <s_lp_Variant>
AV-unprocessed.smi:72-69

> <Gold.Version>
5.8.1

> <Gold.Id.Protein>
6NUR|6NUR_protein|mol2

> <Gold.PLP.Fitness>
42.4966

> <Gold.PLP.PLP>
-22.5998

> <Gold.PLP.part.hbond>
-8.2318

> <Gold.PLP.part.metal>
0.0000

> <Gold.PLP.part.buried>
-3.6339

> <Gold.PLP.part.nonpolar>
-11.4802

> <Gold.PLP.part.repulsive>
0.0963

> <Gold.PLP.ligand.clash>
0.0000

> <Gold.PLP.ligand.torsion>
0.1691

> <Gold.PLP.Chemscore.Hbond>
6.7130

> <Gold.PLP.Chemscore.CHOScore>
0.0000

> <Gold.PLP.Chemscore.Metal>
0.0000

> <Gold.Chemscore.Hbonds>
donor molecule, donor type, donor heavy atom, donor atom, acceptor molecule, acceptor atom, score
      L1  H    12    27       P1  7957  0.98
      L1  H    14    28       P1  7948  1.00
      P1  H  6896  6909       L1    17  2.00
      P1  H  6931  6943       L1     1  0.90
      P1  H  6934  6947       L1     1  0.11
      P1  H  7989  7998       L1    12  0.71
      P1  H  7997  8010       L1    10  1.00

> <Gold.PLP.Chemscore.Internal.Correction>
0.0960

> <Gold.Rescore>
     Score         DG    S(hbond)    S(metal)    S(lipo)     H(rot)  DE(clash)    DE(int)     intcor
     10.87     -12.75       4.34        0.00      26.53       4.04       0.42       1.46       ----

> <Gold.Chemscore.Fitness>
10.8684

> <Gold.Chemscore.DG>
-12.7516

> <Gold.Chemscore.ZeroCoef>
-5.4800

> <Gold.Chemscore.Hbond>
4.3446

> <Gold.Chemscore.Metal>
0.0000

> <Gold.Chemscore.Lipo>
26.5286

> <Gold.Chemscore.Internal_Hbond>
0.0000

> <Gold.Chemscore.DEClash>
0.4212

> <Gold.Chemscore.DEInternal>
1.4620

> <Gold.Chemscore.Rot>
4.0403

> <Gold.Chemscore.Internal.Correction>
   9.000000E+99

> <Gold.Chemscore.Hbonds>
donor molecule, donor type, donor heavy atom, donor atom, acceptor molecule, acceptor atom, score
      L1  H    12    27       P1  7957  0.93
      L1  H    14    28       P1  7948  0.98
      P1  H  6896  6909       L1    17  0.25
      P1  H  6931  6943       L1     1  0.17
      P1  H  6934  6947       L1     1  0.03
      P1  H  7989  7998       L1    12  0.09
      P1  H  7997  8010       L1    10  0.65

> <Gold.Chemscore.Hbond.Weighted>
-14.5108

> <Gold.Chemscore.Metal.Weighted>
-0.0000

> <Gold.Chemscore.Lipo.Weighted>
-3.1038

> <Gold.Chemscore.Internal_Hbond.Weighted>
0.0000

> <Gold.Chemscore.DEClash.Weighted>
0.4212

> <Gold.Chemscore.DEInternal.Weighted>
1.4620

> <Gold.Chemscore.Rot.Weighted>
10.3431

> <Gold.Chemscore.Internal.Correction.Weighted>
   9.000000E+99

> <Gold.Protein.RotatedTorsions>
[ 6907 6896 6895 6894 ] final   74.56 input  -60.11 | X-H torsion
[ 7974 7965 7964 7962 ] final   39.49 input  175.53 | X-H torsion
[ 8008 7997 7996 7995 ] final   66.05 input   59.86 | X-H torsion
[ 10167 10162 10161 10158 ] final -149.55 input  -65.29 | X-H torsion
[ 10718 10713 10712 10709 ] final  -99.67 input   66.30 | X-H torsion
[ 10763 10752 10751 10750 ] final   61.51 input  -60.55 | X-H torsion
[ 11005 11000 10999 10996 ] final  -35.69 input  -57.11 | X-H torsion

> <Gold.Protein.ActiveResidues>
 VAL166  LYS551  ARG553  GLY616  TRP617  ASP618  TYR619  PRO620  LYS621  CYS622 
 ASP623  PHE694  ASN695  SER759  ASP760  ASP761  ALA762  ILE779  LEU786  VAL792 
 PHE793  MET794  SER795  GLU796  ALA797  LYS798  CYS799  TRP800  GLU811  SER814 

> <Gold.Protein.RotatedAtoms>
  152.4982  134.4253  159.9493 H   0  0  0  0  0  0  0  0  0  0  0  0  # atno 6907 bound_to 6896
  151.4228  133.3687  159.2766 H   0  0  0  0  0  0  0  0  0  0  0  0  # atno 6908 bound_to 6896
  150.9210  134.8650  159.7548 H   0  0  0  0  0  0  0  0  0  0  0  0  # atno 6909 bound_to 6896
  146.0980  139.5646  142.9432 H   0  0  0  0  0  0  0  0  0  0  0  0  # atno 7974 bound_to 7965
  155.6713  140.3497  155.4819 H   0  0  0  0  0  0  0  0  0  0  0  0  # atno 8008 bound_to 7997
  155.9686  140.1151  157.0855 H   0  0  0  0  0  0  0  0  0  0  0  0  # atno 8009 bound_to 7997
  154.4160  140.1161  156.5261 H   0  0  0  0  0  0  0  0  0  0  0  0  # atno 8010 bound_to 7997
  139.7433  143.8629  152.2568 H   0  0  0  0  0  0  0  0  0  0  0  0  # atno 10167 bound_to 10162
  156.0140  130.5293  150.6704 H   0  0  0  0  0  0  0  0  0  0  0  0  # atno 10718 bound_to 10713
  152.9953  135.5498  154.6046 H   0  0  0  0  0  0  0  0  0  0  0  0  # atno 10763 bound_to 10752
  154.5380  135.2818  155.1123 H   0  0  0  0  0  0  0  0  0  0  0  0  # atno 10764 bound_to 10752
  154.2412  135.6416  153.5260 H   0  0  0  0  0  0  0  0  0  0  0  0  # atno 10765 bound_to 10752
  140.9816  133.7053  156.1694 H   0  0  0  0  0  0  0  0  0  0  0  0  # atno 11005 bound_to 11000
  145.5910  141.0369  143.2070 LP  0  0  0  0  0  0  0  0  0  0  0  0  # atno 17320 bound_to 7965
  144.7410  139.7448  143.7310 LP  0  0  0  0  0  0  0  0  0  0  0  0  # atno 17321 bound_to 7965
  139.8586  144.7128  150.9127 LP  0  0  0  0  0  0  0  0  0  0  0  0  # atno 17342 bound_to 10162
  140.7789  143.3837  151.1431 LP  0  0  0  0  0  0  0  0  0  0  0  0  # atno 17343 bound_to 10162
  157.4427  131.0863  151.0927 LP  0  0  0  0  0  0  0  0  0  0  0  0  # atno 17370 bound_to 10713
  157.1466  130.6166  149.5570 LP  0  0  0  0  0  0  0  0  0  0  0  0  # atno 17371 bound_to 10713
  140.7178  134.4392  157.5577 LP  0  0  0  0  0  0  0  0  0  0  0  0  # atno 17394 bound_to 11000
  139.8953  134.8687  156.2140 LP  0  0  0  0  0  0  0  0  0  0  0  0  # atno 17395 bound_to 11000

$$$$
