AV-unprocessed.smi:223|AV-procd|sdf|1705|dock8
  -GOLD-   2262020163D 1   1.00000     0.00000
 Structure written by MMmdl.
 47 50  0  0  0  0  0  0  0  0  1 V2000
  150.5827  142.9196  157.8695 C   0  0  0  0  0  0  0  0  0  0  0  0
  150.1198  141.6290  157.1838 C   0  0  2  0  0  0  0  0  0  0  0  0
  150.9005  140.4756  157.6594 C   0  0  0  0  0  0  0  0  0  0  0  0
  151.5144  139.5693  158.0340 N   0  0  0  0  0  0  0  0  0  0  0  0
  150.1919  141.7565  155.6503 C   0  0  0  0  0  0  0  0  0  0  0  0
  149.5606  140.6336  154.9578 N   0  0  0  0  0  0  0  0  0  0  0  0
  150.1598  139.4051  154.9502 C   0  0  0  0  0  0  0  0  0  0  0  0
  151.5048  139.3690  154.7514 N   0  0  0  0  0  0  0  0  0  0  0  0
  152.1718  138.2133  154.7382 C   0  0  0  0  0  0  0  0  0  0  0  0
  151.6993  136.9795  154.9028 N   0  0  0  0  0  0  0  0  0  0  0  0
  150.3515  136.9915  155.1027 C   0  0  0  0  0  0  0  0  0  0  0  0
  149.5081  138.1426  155.1351 C   0  0  0  0  0  0  0  0  0  0  0  0
  148.1928  137.7325  155.3388 N   0  0  0  0  0  0  0  0  0  0  0  0
  148.2583  136.4342  155.4348 C   0  0  0  0  0  0  0  0  0  0  0  0
  149.5210  135.9047  155.3166 N   0  0  0  0  0  0  0  0  0  0  0  0
  149.8871  134.4976  155.3850 C   0  0  0  0  0  0  0  0  0  0  0  0
  148.7066  133.5342  155.1146 C   0  0  2  0  0  0  0  0  0  0  0  0
  148.1092  133.8687  153.8740 O   0  0  0  0  0  0  0  0  0  0  0  0
  147.6332  133.5948  156.1938 C   0  0  0  0  0  0  0  0  0  0  0  0
  147.0289  132.1982  156.1442 C   0  0  0  0  0  0  0  0  0  0  0  0
  148.1610  131.3687  155.9431 O   0  0  0  0  0  0  0  0  0  0  0  0
  149.0820  132.0380  155.0861 C   0  0  0  0  0  0  0  0  0  0  0  0
  148.0984  140.6429  154.9038 C   0  0  0  0  0  0  0  0  0  0  0  0
  147.3951  140.5636  153.5627 C   0  0  0  0  0  0  0  0  0  0  0  0
  147.3913  141.8559  154.3348 C   0  0  0  0  0  0  0  0  0  0  0  0
  150.5074  142.8345  158.9537 H   0  0  0  0  0  0  0  0  0  0  0  0
  149.9714  143.7679  157.5607 H   0  0  0  0  0  0  0  0  0  0  0  0
  151.6205  143.1465  157.6238 H   0  0  0  0  0  0  0  0  0  0  0  0
  149.0940  141.4351  157.4940 H   0  0  0  0  0  0  0  0  0  0  0  0
  149.7543  142.6938  155.3096 H   0  0  0  0  0  0  0  0  0  0  0  0
  151.2406  141.8170  155.3581 H   0  0  0  0  0  0  0  0  0  0  0  0
  153.2367  138.2887  154.5748 H   0  0  0  0  0  0  0  0  0  0  0  0
  147.3806  135.8255  155.5965 H   0  0  0  0  0  0  0  0  0  0  0  0
  150.6859  134.3216  154.6635 H   0  0  0  0  0  0  0  0  0  0  0  0
  150.3165  134.3016  156.3685 H   0  0  0  0  0  0  0  0  0  0  0  0
  148.4821  134.6823  153.5712 H   0  0  0  0  0  0  0  0  0  0  0  0
  148.0880  133.7504  157.1732 H   0  0  0  0  0  0  0  0  0  0  0  0
  146.8987  134.3864  156.0397 H   0  0  0  0  0  0  0  0  0  0  0  0
  146.4939  131.9356  157.0570 H   0  0  0  0  0  0  0  0  0  0  0  0
  146.3447  132.0965  155.3004 H   0  0  0  0  0  0  0  0  0  0  0  0
  149.0381  131.6178  154.0799 H   0  0  0  0  0  0  0  0  0  0  0  0
  150.0850  131.8570  155.4711 H   0  0  0  0  0  0  0  0  0  0  0  0
  147.5972  140.1474  155.7333 H   0  0  0  0  0  0  0  0  0  0  0  0
  148.0068  140.5261  152.6633 H   0  0  0  0  0  0  0  0  0  0  0  0
  146.4659  139.9996  153.5175 H   0  0  0  0  0  0  0  0  0  0  0  0
  146.4579  142.1580  154.8050 H   0  0  0  0  0  0  0  0  0  0  0  0
  147.9988  142.6689  153.9414 H   0  0  0  0  0  0  0  0  0  0  0  0
  1  2  1  0  0  0  0
  1 26  1  0  0  0  0
  1 27  1  0  0  0  0
  1 28  1  0  0  0  0
  2  3  1  0  0  0  0
  2  5  1  0  0  0  0
  2 29  1  0  0  0  0
  3  4  3  0  0  0  0
  5  6  1  0  0  0  0
  5 30  1  0  0  0  0
  5 31  1  0  0  0  0
  6  7  1  0  0  0  0
  6 23  1  0  0  0  0
  7 12  1  0  0  0  0
  7  8  2  0  0  0  0
  8  9  1  0  0  0  0
  9 10  2  0  0  0  0
  9 32  1  0  0  0  0
 10 11  1  0  0  0  0
 11 15  1  0  0  0  0
 11 12  2  0  0  0  0
 12 13  1  0  0  0  0
 13 14  2  0  0  0  0
 14 15  1  0  0  0  0
 14 33  1  0  0  0  0
 15 16  1  0  0  0  0
 16 17  1  0  0  0  0
 16 34  1  0  0  0  0
 16 35  1  0  0  0  0
 17 22  1  0  0  0  0
 17 18  1  0  0  0  0
 17 19  1  0  0  0  0
 18 36  1  0  0  0  0
 19 20  1  0  0  0  0
 19 37  1  0  0  0  0
 19 38  1  0  0  0  0
 20 21  1  0  0  0  0
 20 39  1  0  0  0  0
 20 40  1  0  0  0  0
 21 22  1  0  0  0  0
 22 41  1  0  0  0  0
 22 42  1  0  0  0  0
 23 25  1  0  0  0  0
 23 24  1  0  0  0  0
 23 43  1  0  0  0  0
 24 25  1  0  0  0  0
 24 44  1  0  0  0  0
 24 45  1  0  0  0  0
 25 46  1  0  0  0  0
 25 47  1  0  0  0  0
M  END
> <s_m_source_file>
AV-unprocessed.smi

> <i_m_source_file_index>
223

> <i_lp_mmshare_version>
43012

> <i_f3d_flags>
0

> <s_epik_input>
TiNDW0NAQEhdKFtDSDNdKVtDSDJdTihbQ0hdMVtDSDJdW0NIMl0xKWMobltjSF1uMiljKGMyMyluW2NIXW4zW0NIMl1bQ0BAXTQoW09IXSlbQ0gyXVtDSDJdT1tDSDJdNA==

> <s_epik_cmdline>
J2VwaWtfcHl0aG9uJywgJy1waCcsICc3LjAnLCAnLXRuJywgJzgnLCAnLW1hJywgJzIwMCcsICctbWV0YWxfYmluZGluZycsICctaW1hZScsICc8aW5maWxlLm1hZT4nLCAnLW9tYWUnLCAnPG91dGZpbGUubWFlPic=

> <r_lp_tautomer_probability>
1

> <r_epik_Ionization_Penalty>
0.000756152

> <r_epik_Ionization_Penalty_Charging>
0

> <r_epik_Ionization_Penalty_Neutral>
0.000756152

> <r_epik_State_Penalty>
0.00038036

> <r_epik_Charging_Adjusted_Penalty>
0.00038036

> <i_epik_Tot_Q>
0

> <i_epik_Tot_abs_Q>
0

> <r_epik_Metal_State_Penalty>
-0

> <b_epik_Metal_Only>
0

> <s_lp_Force_Field>
OPLS_2005

> <r_lp_Energy>
38.8251

> <b_lp_Chiralities_Consistent>
1

> <s_lp_Variant>
AV-unprocessed.smi:223-3

> <Gold.Version>
5.8.1

> <Gold.Id.Protein>
6NUR|6NUR_protein|mol2

> <Gold.PLP.Fitness>
47.0139

> <Gold.PLP.PLP>
-39.1974

> <Gold.PLP.part.hbond>
-3.0000

> <Gold.PLP.part.metal>
0.0000

> <Gold.PLP.part.buried>
-4.0982

> <Gold.PLP.part.nonpolar>
-33.0800

> <Gold.PLP.part.repulsive>
0.3101

> <Gold.PLP.ligand.clash>
0.0000

> <Gold.PLP.ligand.torsion>
1.2772

> <Gold.PLP.Chemscore.Hbond>
3.0000

> <Gold.PLP.Chemscore.CHOScore>
0.0000

> <Gold.PLP.Chemscore.Metal>
0.0000

> <Gold.Chemscore.Hbonds>
donor molecule, donor type, donor heavy atom, donor atom, acceptor molecule, acceptor atom, score
      L1  H    18    36       P1  7948  0.28
      P1  H  7989  7998       L1     8  0.95
      P1  H 10752 10763       L1    10  1.00

> <Gold.PLP.Chemscore.Internal.Correction>
1.3709

> <Gold.Rescore>
     Score         DG    S(hbond)    S(metal)    S(lipo)     H(rot)  DE(clash)    DE(int)     intcor
      8.55     -13.10       2.15        0.00      63.30       2.72       0.09       4.46       ----

> <Gold.Chemscore.Fitness>
8.5526

> <Gold.Chemscore.DG>
-13.0968

> <Gold.Chemscore.ZeroCoef>
-5.4800

> <Gold.Chemscore.Hbond>
2.1456

> <Gold.Chemscore.Metal>
0.0000

> <Gold.Chemscore.Lipo>
63.3010

> <Gold.Chemscore.Internal_Hbond>
0.0000

> <Gold.Chemscore.DEClash>
0.0877

> <Gold.Chemscore.DEInternal>
4.4565

> <Gold.Chemscore.Rot>
2.7171

> <Gold.Chemscore.Internal.Correction>
   9.000000E+99

> <Gold.Chemscore.Hbonds>
donor molecule, donor type, donor heavy atom, donor atom, acceptor molecule, acceptor atom, score
      L1  H    18    36       P1  7948  0.17
      P1  H  7989  7998       L1     8  0.21
      P1  H 10752 10763       L1    10  0.78

> <Gold.Chemscore.Hbond.Weighted>
-7.1663

> <Gold.Chemscore.Metal.Weighted>
-0.0000

> <Gold.Chemscore.Lipo.Weighted>
-7.4062

> <Gold.Chemscore.Internal_Hbond.Weighted>
0.0000

> <Gold.Chemscore.DEClash.Weighted>
0.0877

> <Gold.Chemscore.DEInternal.Weighted>
4.4565

> <Gold.Chemscore.Rot.Weighted>
6.9558

> <Gold.Chemscore.Internal.Correction.Weighted>
   9.000000E+99

> <Gold.Protein.RotatedTorsions>
[ 6907 6896 6895 6894 ] final  -21.96 input  -60.11 | X-H torsion
[ 7974 7965 7964 7962 ] final   63.39 input  175.53 | X-H torsion
[ 8008 7997 7996 7995 ] final   69.84 input   59.86 | X-H torsion
[ 10167 10162 10161 10158 ] final  176.58 input  -65.29 | X-H torsion
[ 10718 10713 10712 10709 ] final  -37.01 input   66.30 | X-H torsion
[ 10763 10752 10751 10750 ] final   41.96 input  -60.55 | X-H torsion
[ 11005 11000 10999 10996 ] final -101.15 input  -57.11 | X-H torsion

> <Gold.Protein.ActiveResidues>
 VAL166  LYS551  ARG553  GLY616  TRP617  ASP618  TYR619  PRO620  LYS621  CYS622 
 ASP623  PHE694  ASN695  SER759  ASP760  ASP761  ALA762  ILE779  LEU786  VAL792 
 PHE793  MET794  SER795  GLU796  ALA797  LYS798  CYS799  TRP800  GLU811  SER814 

> <Gold.Protein.RotatedAtoms>
  151.2257  135.0535  159.8967 H   0  0  0  0  0  0  0  0  0  0  0  0  # atno 6907 bound_to 6896
  152.5410  134.0592  159.8155 H   0  0  0  0  0  0  0  0  0  0  0  0  # atno 6908 bound_to 6896
  151.0764  133.5376  159.2655 H   0  0  0  0  0  0  0  0  0  0  0  0  # atno 6909 bound_to 6896
  145.8624  139.3323  143.0811 H   0  0  0  0  0  0  0  0  0  0  0  0  # atno 7974 bound_to 7965
  155.7297  140.3492  155.5054 H   0  0  0  0  0  0  0  0  0  0  0  0  # atno 8008 bound_to 7997
  155.9194  140.1064  157.1240 H   0  0  0  0  0  0  0  0  0  0  0  0  # atno 8009 bound_to 7997
  154.4067  140.1252  156.4646 H   0  0  0  0  0  0  0  0  0  0  0  0  # atno 8010 bound_to 7997
  139.5220  144.2899  152.0473 H   0  0  0  0  0  0  0  0  0  0  0  0  # atno 10167 bound_to 10162
  156.3202  130.4264  149.7967 H   0  0  0  0  0  0  0  0  0  0  0  0  # atno 10718 bound_to 10713
  152.9895  135.6146  154.2871 H   0  0  0  0  0  0  0  0  0  0  0  0  # atno 10763 bound_to 10752
  154.2598  135.2782  155.2784 H   0  0  0  0  0  0  0  0  0  0  0  0  # atno 10764 bound_to 10752
  154.5215  135.5813  153.6742 H   0  0  0  0  0  0  0  0  0  0  0  0  # atno 10765 bound_to 10752
  141.1242  133.8455  157.1194 H   0  0  0  0  0  0  0  0  0  0  0  0  # atno 11005 bound_to 11000
  145.9233  140.9100  143.0394 LP  0  0  0  0  0  0  0  0  0  0  0  0  # atno 17320 bound_to 7965
  144.6726  140.1318  143.7443 LP  0  0  0  0  0  0  0  0  0  0  0  0  # atno 17321 bound_to 7965
  140.2350  144.4329  150.6284 LP  0  0  0  0  0  0  0  0  0  0  0  0  # atno 17342 bound_to 10162
  140.6329  143.2190  151.6456 LP  0  0  0  0  0  0  0  0  0  0  0  0  # atno 17343 bound_to 10162
  156.5278  130.8244  151.3226 LP  0  0  0  0  0  0  0  0  0  0  0  0  # atno 17370 bound_to 10713
  157.7410  130.9861  150.2416 LP  0  0  0  0  0  0  0  0  0  0  0  0  # atno 17371 bound_to 10713
  140.0226  134.9939  157.0622 LP  0  0  0  0  0  0  0  0  0  0  0  0  # atno 17394 bound_to 11000
  140.4415  134.1676  155.7174 LP  0  0  0  0  0  0  0  0  0  0  0  0  # atno 17395 bound_to 11000

$$$$
