AV-unprocessed.smi:1572|AV-procd|sdf|6330|dock6
  -GOLD-   22720 6543D 1   1.00000     0.00000
 Structure written by MMmdl.
 42 43  0  0  0  0  0  0  0  0  3 V2000
  144.0778  132.9195  150.1078 C   0  0  0  0  0  0  0  0  0  0  0  0
  145.2462  133.8272  150.0426 N   0  3  0  0  0  0  0  0  0  0  0  0
  146.5091  133.2117  150.5122 C   0  0  0  0  0  0  0  0  0  0  0  0
  146.5740  133.1399  152.0525 C   0  0  0  0  0  0  0  0  0  0  0  0
  146.4481  134.4916  152.6182 N   0  0  0  0  0  0  0  0  0  0  0  0
  146.7793  134.6345  154.0599 C   0  0  0  0  0  0  0  0  0  0  0  0
  146.8684  136.1220  154.4739 C   0  0  0  0  0  0  0  0  0  0  0  0
  145.6999  133.9457  154.9341 C   0  0  0  0  0  0  0  0  0  0  0  0
  148.1388  133.9312  154.3550 C   0  0  0  0  0  0  0  0  0  0  0  0
  149.2840  134.8296  154.1955 N   0  0  0  0  0  0  0  0  0  0  0  0
  150.2629  135.0436  155.0868 C   0  0  0  0  0  0  0  0  0  0  0  0
  150.3028  134.3925  156.1332 O   0  0  0  0  0  0  0  0  0  0  0  0
  151.1282  136.0153  154.7197 N   0  5  0  0  0  0  0  0  0  0  0  0
  150.7290  137.2976  154.7100 C   0  0  0  0  0  0  0  0  0  0  0  0
  149.4384  137.6511  154.8166 N   0  0  0  0  0  0  0  0  0  0  0  0
  149.2449  139.0256  154.7876 N   0  0  0  0  0  0  0  0  0  0  0  0
  150.4016  139.6766  154.6676 C   0  0  0  0  0  0  0  0  0  0  0  0
  151.8319  138.6706  154.5761 S   0  0  0  0  0  0  0  0  0  0  0  0
  145.1197  134.9991  152.2401 C   0  0  0  0  0  0  0  0  0  0  0  0
  145.0299  135.1326  150.7082 C   0  0  0  0  0  0  0  0  0  0  0  0
  143.8421  132.6314  151.1324 H   0  0  0  0  0  0  0  0  0  0  0  0
  144.2690  132.0105  149.5365 H   0  0  0  0  0  0  0  0  0  0  0  0
  143.1975  133.3994  149.6793 H   0  0  0  0  0  0  0  0  0  0  0  0
  146.6250  132.2186  150.0771 H   0  0  0  0  0  0  0  0  0  0  0  0
  147.3440  133.8083  150.1410 H   0  0  0  0  0  0  0  0  0  0  0  0
  145.8022  132.4802  152.4496 H   0  0  0  0  0  0  0  0  0  0  0  0
  147.5330  132.6914  152.3029 H   0  0  0  0  0  0  0  0  0  0  0  0
  147.0486  136.2138  155.5454 H   0  0  0  0  0  0  0  0  0  0  0  0
  145.9467  136.6624  154.2581 H   0  0  0  0  0  0  0  0  0  0  0  0
  147.6862  136.6424  153.9751 H   0  0  0  0  0  0  0  0  0  0  0  0
  146.0309  133.8581  155.9694 H   0  0  0  0  0  0  0  0  0  0  0  0
  145.4713  132.9388  154.5821 H   0  0  0  0  0  0  0  0  0  0  0  0
  144.7680  134.5105  154.9641 H   0  0  0  0  0  0  0  0  0  0  0  0
  148.1494  133.4440  155.3299 H   0  0  0  0  0  0  0  0  0  0  0  0
  148.2818  133.1141  153.6472 H   0  0  0  0  0  0  0  0  0  0  0  0
  149.3055  135.3847  153.3526 H   0  0  0  0  0  0  0  0  0  0  0  0
  150.4124  140.7558  154.6331 H   0  0  0  0  0  0  0  0  0  0  0  0
  144.3354  134.3403  152.6134 H   0  0  0  0  0  0  0  0  0  0  0  0
  144.9264  135.9774  152.6720 H   0  0  0  0  0  0  0  0  0  0  0  0
  145.7862  135.8365  150.3564 H   0  0  0  0  0  0  0  0  0  0  0  0
  144.0646  135.5468  150.4151 H   0  0  0  0  0  0  0  0  0  0  0  0
  145.3758  134.0282  149.0613 H   0  0  0  0  0  0  0  0  0  0  0  0
  1  2  1  0  0  0  0
  1 21  1  0  0  0  0
  1 22  1  0  0  0  0
  1 23  1  0  0  0  0
  2 20  1  0  0  0  0
  2  3  1  0  0  0  0
  2 42  1  0  0  0  0
  3  4  1  0  0  0  0
  3 24  1  0  0  0  0
  3 25  1  0  0  0  0
  4  5  1  0  0  0  0
  4 26  1  0  0  0  0
  4 27  1  0  0  0  0
  5  6  1  0  0  0  0
  5 19  1  0  0  0  0
  6  7  1  0  0  0  0
  6  8  1  0  0  0  0
  6  9  1  0  0  0  0
  7 28  1  0  0  0  0
  7 29  1  0  0  0  0
  7 30  1  0  0  0  0
  8 31  1  0  0  0  0
  8 32  1  0  0  0  0
  8 33  1  0  0  0  0
  9 10  1  0  0  0  0
  9 34  1  0  0  0  0
  9 35  1  0  0  0  0
 10 11  1  0  0  0  0
 10 36  1  0  0  0  0
 11 12  2  0  0  0  0
 11 13  1  0  0  0  0
 13 14  1  0  0  0  0
 14 18  1  0  0  0  0
 14 15  2  0  0  0  0
 15 16  1  0  0  0  0
 16 17  2  0  0  0  0
 17 18  1  0  0  0  0
 17 37  1  0  0  0  0
 19 20  1  0  0  0  0
 19 38  1  0  0  0  0
 19 39  1  0  0  0  0
 20 40  1  0  0  0  0
 20 41  1  0  0  0  0
M  CHG  1   2   1
M  CHG  1  13  -1
M  END
> <s_m_source_file>
AV-unprocessed.smi

> <i_m_source_file_index>
1572

> <i_lp_mmshare_version>
43012

> <i_f3d_flags>
0

> <s_epik_input>
W0NIM11OMVtDSDJdW0NIMl1OKFtDSDJdW0NIMl0xKUMoW0NIM10pKFtDSDNdKVtDSDJdW05IXUMoPU8pW05IXWMybm5bY0hdczI=

> <s_epik_cmdline>
J2VwaWtfcHl0aG9uJywgJy1waCcsICc3LjAnLCAnLXRuJywgJzgnLCAnLW1hJywgJzIwMCcsICctbWV0YWxfYmluZGluZycsICctaW1hZScsICc8aW5maWxlLm1hZT4nLCAnLW9tYWUnLCAnPG91dGZpbGUubWFlPic=

> <r_lp_tautomer_probability>
1

> <r_epik_Ionization_Penalty>
3.56565

> <r_epik_Ionization_Penalty_Charging>
3.52353

> <r_epik_Ionization_Penalty_Neutral>
0.0421115

> <r_epik_State_Penalty>
3.62656

> <r_epik_Charging_Adjusted_Penalty>
7.1501

> <i_epik_Tot_Q>
0

> <i_epik_Tot_abs_Q>
2

> <r_epik_Metal_State_Penalty>
0.645945

> <b_epik_Metal_Only>
1

> <s_lp_Force_Field>
OPLS_2005

> <r_lp_Energy>
17.8403

> <b_lp_Chiralities_Consistent>
1

> <s_lp_Variant>
AV-unprocessed.smi:1572-4

> <Gold.Version>
5.8.1

> <Gold.Id.Protein>
6NUR|6NUR_protein|mol2

> <Gold.PLP.Fitness>
39.0678

> <Gold.PLP.PLP>
-29.9170

> <Gold.PLP.part.hbond>
-3.0000

> <Gold.PLP.part.metal>
0.0000

> <Gold.PLP.part.buried>
-4.4630

> <Gold.PLP.part.nonpolar>
-22.9012

> <Gold.PLP.part.repulsive>
0.6643

> <Gold.PLP.ligand.clash>
0.0000

> <Gold.PLP.ligand.torsion>
1.3796

> <Gold.PLP.Chemscore.Hbond>
3.9500

> <Gold.PLP.Chemscore.CHOScore>
0.0000

> <Gold.PLP.Chemscore.Metal>
0.0000

> <Gold.Chemscore.Hbonds>
donor molecule, donor type, donor heavy atom, donor atom, acceptor molecule, acceptor atom, score
      L1  H     2    42       P1  7921  1.00
      L1  H    10    36       P1  7948  0.90
      P1  H 10752 10763       L1    13  2.00

> <Gold.PLP.Chemscore.Internal.Correction>
0.0600

> <Gold.Rescore>
     Score         DG    S(hbond)    S(metal)    S(lipo)     H(rot)  DE(clash)    DE(int)     intcor
     14.36     -15.90       2.59        0.00      51.63       1.67       0.05       1.50       ----

> <Gold.Chemscore.Fitness>
14.3570

> <Gold.Chemscore.DG>
-15.9049

> <Gold.Chemscore.ZeroCoef>
-5.4800

> <Gold.Chemscore.Hbond>
2.5923

> <Gold.Chemscore.Metal>
0.0000

> <Gold.Chemscore.Lipo>
51.6286

> <Gold.Chemscore.Internal_Hbond>
0.0000

> <Gold.Chemscore.DEClash>
0.0456

> <Gold.Chemscore.DEInternal>
1.5023

> <Gold.Chemscore.Rot>
1.6694

> <Gold.Chemscore.Internal.Correction>
   9.000000E+99

> <Gold.Chemscore.Hbonds>
donor molecule, donor type, donor heavy atom, donor atom, acceptor molecule, acceptor atom, score
      L1  H     2    42       P1  7921  0.84
      L1  H    10    36       P1  7948  0.18
      P1  H 10752 10763       L1    13  0.96

> <Gold.Chemscore.Hbond.Weighted>
-8.6582

> <Gold.Chemscore.Metal.Weighted>
-0.0000

> <Gold.Chemscore.Lipo.Weighted>
-6.0405

> <Gold.Chemscore.Internal_Hbond.Weighted>
0.0000

> <Gold.Chemscore.DEClash.Weighted>
0.0456

> <Gold.Chemscore.DEInternal.Weighted>
1.5023

> <Gold.Chemscore.Rot.Weighted>
4.2738

> <Gold.Chemscore.Internal.Correction.Weighted>
   9.000000E+99

> <Gold.Protein.RotatedTorsions>
[ 6907 6896 6895 6894 ] final -105.63 input  -60.11 | X-H torsion
[ 7974 7965 7964 7962 ] final -119.09 input  175.53 | X-H torsion
[ 8008 7997 7996 7995 ] final  168.57 input   59.86 | X-H torsion
[ 10167 10162 10161 10158 ] final   39.11 input  -65.29 | X-H torsion
[ 10718 10713 10712 10709 ] final -164.86 input   66.30 | X-H torsion
[ 10763 10752 10751 10750 ] final   49.87 input  -60.55 | X-H torsion
[ 11005 11000 10999 10996 ] final  147.12 input  -57.11 | X-H torsion

> <Gold.Protein.ActiveResidues>
 VAL166  LYS551  ARG553  GLY616  TRP617  ASP618  TYR619  PRO620  LYS621  CYS622 
 ASP623  PHE694  ASN695  SER759  ASP760  ASP761  ALA762  ILE779  LEU786  VAL792 
 PHE793  MET794  SER795  GLU796  ALA797  LYS798  CYS799  TRP800  GLU811  SER814 

> <Gold.Protein.RotatedAtoms>
  150.7346  134.0098  159.3665 H   0  0  0  0  0  0  0  0  0  0  0  0  # atno 6907 bound_to 6896
  151.8057  135.0693  160.0415 H   0  0  0  0  0  0  0  0  0  0  0  0  # atno 6908 bound_to 6896
  152.3109  133.5715  159.5716 H   0  0  0  0  0  0  0  0  0  0  0  0  # atno 6909 bound_to 6896
  145.0664  140.8327  143.4122 H   0  0  0  0  0  0  0  0  0  0  0  0  # atno 7974 bound_to 7965
  156.1535  140.1587  156.8731 H   0  0  0  0  0  0  0  0  0  0  0  0  # atno 8008 bound_to 7997
  154.5093  140.0805  156.7994 H   0  0  0  0  0  0  0  0  0  0  0  0  # atno 8009 bound_to 7997
  155.3849  140.3407  155.4251 H   0  0  0  0  0  0  0  0  0  0  0  0  # atno 8010 bound_to 7997
  140.3871  144.1902  150.6130 H   0  0  0  0  0  0  0  0  0  0  0  0  # atno 10167 bound_to 10162
  156.6450  130.8984  151.3003 H   0  0  0  0  0  0  0  0  0  0  0  0  # atno 10718 bound_to 10713
  152.9785  135.5897  154.4160 H   0  0  0  0  0  0  0  0  0  0  0  0  # atno 10763 bound_to 10752
  154.3789  135.2767  155.2224 H   0  0  0  0  0  0  0  0  0  0  0  0  # atno 10764 bound_to 10752
  154.4147  135.6073  153.6028 H   0  0  0  0  0  0  0  0  0  0  0  0  # atno 10765 bound_to 10752
  140.0850  134.9075  157.1561 H   0  0  0  0  0  0  0  0  0  0  0  0  # atno 11005 bound_to 11000
  145.1346  139.2610  143.5522 LP  0  0  0  0  0  0  0  0  0  0  0  0  # atno 17320 bound_to 7965
  146.3527  140.1006  142.8608 LP  0  0  0  0  0  0  0  0  0  0  0  0  # atno 17321 bound_to 7965
  140.4878  143.2357  151.8862 LP  0  0  0  0  0  0  0  0  0  0  0  0  # atno 17342 bound_to 10162
  139.4791  144.5199  151.8816 LP  0  0  0  0  0  0  0  0  0  0  0  0  # atno 17343 bound_to 10162
  157.7159  130.9496  150.1253 LP  0  0  0  0  0  0  0  0  0  0  0  0  # atno 17370 bound_to 10713
  156.2129  130.3668  149.8649 LP  0  0  0  0  0  0  0  0  0  0  0  0  # atno 17371 bound_to 10713
  140.3434  134.2679  155.7209 LP  0  0  0  0  0  0  0  0  0  0  0  0  # atno 17394 bound_to 11000
  141.2059  133.7847  157.0205 LP  0  0  0  0  0  0  0  0  0  0  0  0  # atno 17395 bound_to 11000

$$$$
