#       Name:                AV-unprocessed.smi:1168
#       Creating user name   scv26
#       Creation time:       Fri Mar 27 03:52:31 2020


#       File generated by GOLD software.
#

@<TRIPOS>MOLECULE
AV-unprocessed.smi:1168
    35    36     1
SMALL
NO_CHARGES


@<TRIPOS>ATOM
      1 ****        -0.4277   1.0151  -1.4313 O.2            1 S1                 0.0000
      2 ****         0.1617   0.1431  -0.7929 C.2            1 S1                 0.0000
      3 ****         1.6834   0.1978  -0.6434 C.3            1 S1                 0.0000
      4 ****         2.0918   1.3348   0.1629 N.pl3          1 S1                 0.0000
      5 ****         1.9387   1.5247   1.5200 C.2            1 S1                 0.0000
      6 ****         2.4805   2.7403   1.8237 C.2            1 S1                 0.0000
      7 ****         2.9540   3.2313   0.5723 C.2            1 S1                 0.0000
      8 ****         3.6516   4.5342   0.2828 C.3            1 S1                 0.0000
      9 ****         3.7713   5.2525   1.3994 F              1 S1                 0.0000
     10 ****         4.8685   4.2984  -0.2077 F              1 S1                 0.0000
     11 ****         2.9526   5.2385  -0.6072 F              1 S1                 0.0000
     12 ****         2.7201   2.3796  -0.4172 N.2            1 S1                 0.0000
     13 ****        -0.4617  -0.8850  -0.1965 N.am           1 S1                 0.0000
     14 ****        -1.9043  -1.1125  -0.2037 C.3            1 S1                 0.0000
     15 ****        -2.3094  -2.0850   0.9213 C.3            1 S1                 0.0000
     16 ****        -3.1946  -3.1484   0.2678 C.3            1 S1                 0.0000
     17 ****        -2.7045  -3.2154  -1.1749 C.3            1 S1                 0.0000
     18 ****        -2.3690  -1.7650  -1.5212 C.3            1 S1                 0.0000
     19 ****         2.0606  -0.7129  -0.1758 H              1 S1                 0.0000
     20 ****         2.1416   0.2640  -1.6315 H              1 S1                 0.0000
     21 ****         1.4596   0.7885   2.1483 H              1 S1                 0.0000
     22 ****         2.5321   3.2095   2.7949 H              1 S1                 0.0000
     23 ****         0.1024  -1.5565   0.3039 H              1 S1                 0.0000
     24 ****        -2.4223  -0.1614  -0.0657 H              1 S1                 0.0000
     25 ****        -1.4296  -2.5693   1.3485 H              1 S1                 0.0000
     26 ****        -2.8230  -1.5770   1.7380 H              1 S1                 0.0000
     27 ****        -3.1389  -4.1114   0.7760 H              1 S1                 0.0000
     28 ****        -4.2352  -2.8218   0.2853 H              1 S1                 0.0000
     29 ****        -1.8013  -3.8246  -1.2282 H              1 S1                 0.0000
     30 ****        -3.4415  -3.6495  -1.8510 H              1 S1                 0.0000
     31 ****        -3.2721  -1.2619  -1.8693 H              1 S1                 0.0000
     32 ****        -1.6364  -1.6959  -2.3264 H              1 S1                 0.0000
     33 ****         0.0881   1.7608  -1.8532 LP             1 S1                 0.0000
     34 ****        -1.4223   0.9779  -1.5281 LP             1 S1                 0.0000
     35 ****         2.9574   2.4878  -1.3826 LP             1 S1                 0.0000
@<TRIPOS>BOND
    1    1    2 2     
    2    2    3 1     
    3    2   13 am    
    4    3    4 1     
    5    3   19 1     
    6    3   20 1     
    7    4   12 1     
    8    4    5 1     
    9    5    6 2     
   10    5   21 1     
   11    6    7 1     
   12    6   22 1     
   13    7    8 1     
   14    7   12 2     
   15    8    9 1     
   16    8   10 1     
   17    8   11 1     
   18   13   14 1     
   19   13   23 1     
   20   14   18 1     
   21   14   15 1     
   22   14   24 1     
   23   15   16 1     
   24   15   25 1     
   25   15   26 1     
   26   16   17 1     
   27   16   27 1     
   28   16   28 1     
   29   17   18 1     
   30   17   29 1     
   31   17   30 1     
   32   18   31 1     
   33   18   32 1     
   34    1   33 1     
   35    1   34 1     
   36   12   35 1     
@<TRIPOS>SUBSTRUCTURE
      1 S1             1
@<TRIPOS>SET
LONE_PAIRS      STATIC     ATOMS    <user>   **** ""
3 33 34 35
DONOR_HYDROGENS      STATIC     ATOMS    <user>   **** ""
1 23
ATOM$BLUE        STATIC     ATOMS    COLORGROUP SYSTEM
3 33 34 35
ATOM$RED        STATIC     ATOMS    COLORGROUP SYSTEM
1 23
