AV-unprocessed.smi:954|AV-procd|sdf|4258|dock7
  -GOLD-   22720 2163D 1   1.00000     0.00000
 Structure written by MMmdl.
 24 24  0  0  0  0  0  0  0  0  1 V2000
  148.9751  132.1816  154.2611 C   0  0  0  0  0  0  0  0  0  0  0  0
  148.8545  133.7057  154.3908 C   0  0  0  0  0  0  0  0  0  0  0  0
  147.9119  134.2547  153.4227 N   0  0  0  0  0  0  0  0  0  0  0  0
  146.6751  133.7856  153.1980 C   0  0  0  0  0  0  0  0  0  0  0  0
  146.2028  132.8203  153.8010 O   0  0  0  0  0  0  0  0  0  0  0  0
  145.8649  134.5325  152.1304 C   0  0  0  0  0  0  0  0  0  0  0  0
  145.4287  133.6707  151.0433 N   0  0  0  0  0  0  0  0  0  0  0  0
  146.1808  132.7766  150.3043 C   0  0  0  0  0  0  0  0  0  0  0  0
  145.3490  132.1970  149.3887 C   0  0  0  0  0  0  0  0  0  0  0  0
  144.0986  132.8148  149.6608 C   0  0  0  0  0  0  0  0  0  0  0  0
  142.9351  132.5236  148.9538 N   0  0  0  0  0  0  0  0  0  0  0  0
  144.1359  133.6924  150.6465 N   0  0  0  0  0  0  0  0  0  0  0  0
  149.6995  131.7893  154.9751 H   0  0  0  0  0  0  0  0  0  0  0  0
  149.3048  131.8951  153.2621 H   0  0  0  0  0  0  0  0  0  0  0  0
  148.0216  131.6892  154.4546 H   0  0  0  0  0  0  0  0  0  0  0  0
  148.5582  133.9786  155.4050 H   0  0  0  0  0  0  0  0  0  0  0  0
  149.8272  134.1667  154.2181 H   0  0  0  0  0  0  0  0  0  0  0  0
  148.2229  135.0502  152.8841 H   0  0  0  0  0  0  0  0  0  0  0  0
  144.9824  134.9779  152.5912 H   0  0  0  0  0  0  0  0  0  0  0  0
  146.4637  135.3494  151.7244 H   0  0  0  0  0  0  0  0  0  0  0  0
  147.2354  132.6331  150.4881 H   0  0  0  0  0  0  0  0  0  0  0  0
  145.5977  131.4539  148.6456 H   0  0  0  0  0  0  0  0  0  0  0  0
  142.9280  131.8484  148.2030 H   0  0  0  0  0  0  0  0  0  0  0  0
  142.0679  133.0019  149.1507 H   0  0  0  0  0  0  0  0  0  0  0  0
  1  2  1  0  0  0  0
  1 13  1  0  0  0  0
  1 14  1  0  0  0  0
  1 15  1  0  0  0  0
  2  3  1  0  0  0  0
  2 16  1  0  0  0  0
  2 17  1  0  0  0  0
  3  4  1  0  0  0  0
  3 18  1  0  0  0  0
  4  5  2  0  0  0  0
  4  6  1  0  0  0  0
  6  7  1  0  0  0  0
  6 19  1  0  0  0  0
  6 20  1  0  0  0  0
  7 12  1  0  0  0  0
  7  8  1  0  0  0  0
  8  9  2  0  0  0  0
  8 21  1  0  0  0  0
  9 10  1  0  0  0  0
  9 22  1  0  0  0  0
 10 11  1  0  0  0  0
 10 12  2  0  0  0  0
 11 23  1  0  0  0  0
 11 24  1  0  0  0  0
M  END
> <s_m_source_file>
AV-unprocessed.smi

> <i_m_source_file_index>
954

> <i_lp_mmshare_version>
43012

> <i_f3d_flags>
0

> <s_epik_input>
W0NIM11bQ0gyXVtOSF1DKD1PKVtDSDJdbjFbY0hdW2NIXWMobjEpW05IMl0=

> <s_epik_cmdline>
J2VwaWtfcHl0aG9uJywgJy1waCcsICc3LjAnLCAnLXRuJywgJzgnLCAnLW1hJywgJzIwMCcsICctbWV0YWxfYmluZGluZycsICctaW1hZScsICc8aW5maWxlLm1hZT4nLCAnLW9tYWUnLCAnPG91dGZpbGUubWFlPic=

> <r_lp_tautomer_probability>
1

> <r_epik_Ionization_Penalty>
0.000257536

> <r_epik_Ionization_Penalty_Charging>
0

> <r_epik_Ionization_Penalty_Neutral>
0.000257536

> <r_epik_State_Penalty>
-0

> <r_epik_Charging_Adjusted_Penalty>
0

> <i_epik_Tot_Q>
0

> <i_epik_Tot_abs_Q>
0

> <r_epik_Metal_State_Penalty>
-0

> <b_epik_Metal_Only>
0

> <s_lp_Force_Field>
OPLS_2005

> <r_lp_Energy>
1.8316

> <b_lp_Chiralities_Consistent>
1

> <s_lp_Variant>
AV-unprocessed.smi:954-1

> <Gold.Version>
5.8.1

> <Gold.Id.Protein>
6NUR|6NUR_protein|mol2

> <Gold.PLP.Fitness>
34.6597

> <Gold.PLP.PLP>
-25.9956

> <Gold.PLP.part.hbond>
-3.0000

> <Gold.PLP.part.metal>
0.0000

> <Gold.PLP.part.buried>
-4.1114

> <Gold.PLP.part.nonpolar>
-18.4365

> <Gold.PLP.part.repulsive>
0.4335

> <Gold.PLP.ligand.clash>
0.0000

> <Gold.PLP.ligand.torsion>
0.1681

> <Gold.PLP.Chemscore.Hbond>
2.0000

> <Gold.PLP.Chemscore.CHOScore>
1.0000

> <Gold.PLP.Chemscore.Metal>
0.0000

> <Gold.Chemscore.Hbonds>
donor molecule, donor type, donor heavy atom, donor atom, acceptor molecule, acceptor atom, score
      L1  H     3    18       P1  7948  1.00
      L1  H    11    24       P1 10186  1.00
      L1  C     8    21       P1 10747  1.00

> <Gold.PLP.Chemscore.Internal.Correction>
0.0002

> <Gold.Rescore>
     Score         DG    S(hbond)    S(metal)    S(lipo)     H(rot)  DE(clash)    DE(int)     intcor
     10.43     -12.08       1.94        0.00      39.69       1.77       0.02       1.62       ----

> <Gold.Chemscore.Fitness>
10.4338

> <Gold.Chemscore.DG>
-12.0756

> <Gold.Chemscore.ZeroCoef>
-5.4800

> <Gold.Chemscore.Hbond>
1.9382

> <Gold.Chemscore.Metal>
0.0000

> <Gold.Chemscore.Lipo>
39.6924

> <Gold.Chemscore.Internal_Hbond>
0.0000

> <Gold.Chemscore.DEClash>
0.0211

> <Gold.Chemscore.DEInternal>
1.6207

> <Gold.Chemscore.Rot>
1.7664

> <Gold.Chemscore.Internal.Correction>
   9.000000E+99

> <Gold.Chemscore.Hbonds>
donor molecule, donor type, donor heavy atom, donor atom, acceptor molecule, acceptor atom, score
      L1  H     3    18       P1  7948  0.88
      L1  H    11    24       P1 10186  0.99

> <Gold.Chemscore.Hbond.Weighted>
-6.4735

> <Gold.Chemscore.Metal.Weighted>
-0.0000

> <Gold.Chemscore.Lipo.Weighted>
-4.6440

> <Gold.Chemscore.Internal_Hbond.Weighted>
0.0000

> <Gold.Chemscore.DEClash.Weighted>
0.0211

> <Gold.Chemscore.DEInternal.Weighted>
1.6207

> <Gold.Chemscore.Rot.Weighted>
4.5219

> <Gold.Chemscore.Internal.Correction.Weighted>
   9.000000E+99

> <Gold.Protein.RotatedTorsions>
[ 6907 6896 6895 6894 ] final -112.71 input  -60.11 | X-H torsion
[ 7974 7965 7964 7962 ] final  -46.58 input  175.53 | X-H torsion
[ 8008 7997 7996 7995 ] final   45.19 input   59.86 | X-H torsion
[ 10167 10162 10161 10158 ] final  113.13 input  -65.29 | X-H torsion
[ 10718 10713 10712 10709 ] final   27.35 input   66.30 | X-H torsion
[ 10763 10752 10751 10750 ] final  178.78 input  -60.55 | X-H torsion
[ 11005 11000 10999 10996 ] final   30.93 input  -57.11 | X-H torsion

> <Gold.Protein.ActiveResidues>
 VAL166  LYS551  ARG553  GLY616  TRP617  ASP618  TYR619  PRO620  LYS621  CYS622 
 ASP623  PHE694  ASN695  SER759  ASP760  ASP761  ALA762  ILE779  LEU786  VAL792 
 PHE793  MET794  SER795  GLU796  ALA797  LYS798  CYS799  TRP800  GLU811  SER814 

> <Gold.Protein.RotatedAtoms>
  150.7777  133.9050  159.3352 H   0  0  0  0  0  0  0  0  0  0  0  0  # atno 6907 bound_to 6896
  151.6921  135.0943  160.0245 H   0  0  0  0  0  0  0  0  0  0  0  0  # atno 6908 bound_to 6896
  152.3819  133.6519  159.6203 H   0  0  0  0  0  0  0  0  0  0  0  0  # atno 6909 bound_to 6896
  145.9705  140.7388  142.9413 H   0  0  0  0  0  0  0  0  0  0  0  0  # atno 7974 bound_to 7965
  155.3317  140.3403  155.4239 H   0  0  0  0  0  0  0  0  0  0  0  0  # atno 8008 bound_to 7997
  156.1858  140.1680  156.8224 H   0  0  0  0  0  0  0  0  0  0  0  0  # atno 8009 bound_to 7997
  154.5385  140.0730  156.8452 H   0  0  0  0  0  0  0  0  0  0  0  0  # atno 8010 bound_to 7997
  139.6484  144.7127  151.2097 H   0  0  0  0  0  0  0  0  0  0  0  0  # atno 10167 bound_to 10162
  157.2190  130.6969  149.6261 H   0  0  0  0  0  0  0  0  0  0  0  0  # atno 10718 bound_to 10713
  154.5121  135.2789  155.1333 H   0  0  0  0  0  0  0  0  0  0  0  0  # atno 10763 bound_to 10752
  154.2924  135.6264  153.5394 H   0  0  0  0  0  0  0  0  0  0  0  0  # atno 10764 bound_to 10752
  152.9921  135.5677  154.5589 H   0  0  0  0  0  0  0  0  0  0  0  0  # atno 10765 bound_to 10752
  140.2892  134.2884  155.7780 H   0  0  0  0  0  0  0  0  0  0  0  0  # atno 11005 bound_to 11000
  144.6835  140.2740  143.7302 LP  0  0  0  0  0  0  0  0  0  0  0  0  # atno 17320 bound_to 7965
  145.7913  139.1928  143.2101 LP  0  0  0  0  0  0  0  0  0  0  0  0  # atno 17321 bound_to 7965
  140.7526  143.6192  150.8530 LP  0  0  0  0  0  0  0  0  0  0  0  0  # atno 17342 bound_to 10162
  139.9837  143.5923  152.2934 LP  0  0  0  0  0  0  0  0  0  0  0  0  # atno 17343 bound_to 10162
  155.9684  130.4526  150.5781 LP  0  0  0  0  0  0  0  0  0  0  0  0  # atno 17370 bound_to 10713
  157.3596  131.0747  151.1648 LP  0  0  0  0  0  0  0  0  0  0  0  0  # atno 17371 bound_to 10713
  141.2149  133.7574  156.9598 LP  0  0  0  0  0  0  0  0  0  0  0  0  # atno 17394 bound_to 11000
  140.1211  134.9416  157.2205 LP  0  0  0  0  0  0  0  0  0  0  0  0  # atno 17395 bound_to 11000

$$$$
