AV-unprocessed.smi:322|AV-procd|sdf|2335|dock9
  -GOLD-   2262022243D 1   1.00000     0.00000
 Structure written by MMmdl.
 43 45  0  0  0  0  0  0  0  0  1 V2000
  153.1546  138.6051  156.4497 O   0  0  0  0  0  0  0  0  0  0  0  0
  152.2299  138.7825  157.5037 C   0  0  0  0  0  0  0  0  0  0  0  0
  152.1949  140.1795  158.0565 C   0  0  0  0  0  0  0  0  0  0  0  0
  152.5230  140.4718  159.3173 N   0  0  0  0  0  0  0  0  0  0  0  0
  152.3312  141.8378  159.3759 C   0  0  0  0  0  0  0  0  0  0  0  0
  152.5069  142.7443  160.4455 C   0  0  0  0  0  0  0  0  0  0  0  0
  152.2425  144.1181  160.2674 C   0  0  0  0  0  0  0  0  0  0  0  0
  151.8007  144.6039  159.0198 C   0  0  0  0  0  0  0  0  0  0  0  0
  151.6194  143.7173  157.9409 C   0  0  0  0  0  0  0  0  0  0  0  0
  151.8833  142.3465  158.1242 C   0  0  0  0  0  0  0  0  0  0  0  0
  151.8084  141.2327  157.2928 N   0  0  0  0  0  0  0  0  0  0  0  0
  151.3894  141.2211  155.8970 C   0  0  0  0  0  0  0  0  0  0  0  0
  150.3442  140.1283  155.5937 C   0  0  2  0  0  0  0  0  0  0  0  0
  150.0719  140.1221  154.2060 O   0  0  0  0  0  0  0  0  0  0  0  0
  149.0271  140.3750  156.3459 C   0  0  0  0  0  0  0  0  0  0  0  0
  148.4569  141.5944  155.8922 O   0  0  0  0  0  0  0  0  0  0  0  0
  147.4592  141.4271  154.8944 C   0  0  0  0  0  0  0  0  0  0  0  0
  146.4565  142.5678  154.8464 C   0  0  0  0  0  0  0  0  0  0  0  0
  145.7434  142.9353  156.0072 C   0  0  0  0  0  0  0  0  0  0  0  0
  144.8250  144.0023  155.9661 C   0  0  0  0  0  0  0  0  0  0  0  0
  144.6206  144.7106  154.7658 C   0  0  0  0  0  0  0  0  0  0  0  0
  143.4977  146.0196  154.7157 Cl  0  0  0  0  0  0  0  0  0  0  0  0
  145.3364  144.3514  153.6069 C   0  0  0  0  0  0  0  0  0  0  0  0
  146.2544  143.2839  153.6479 C   0  0  0  0  0  0  0  0  0  0  0  0
  152.6957  138.6935  155.6287 H   0  0  0  0  0  0  0  0  0  0  0  0
  151.2408  138.5122  157.1352 H   0  0  0  0  0  0  0  0  0  0  0  0
  152.4806  138.0899  158.3075 H   0  0  0  0  0  0  0  0  0  0  0  0
  152.8448  142.3815  161.4049 H   0  0  0  0  0  0  0  0  0  0  0  0
  152.3792  144.8025  161.0918 H   0  0  0  0  0  0  0  0  0  0  0  0
  151.6011  145.6577  158.8914 H   0  0  0  0  0  0  0  0  0  0  0  0
  151.2835  144.0873  156.9834 H   0  0  0  0  0  0  0  0  0  0  0  0
  150.9935  142.2050  155.6444 H   0  0  0  0  0  0  0  0  0  0  0  0
  152.2714  141.0846  155.2699 H   0  0  0  0  0  0  0  0  0  0  0  0
  150.7468  139.1554  155.8766 H   0  0  0  0  0  0  0  0  0  0  0  0
  149.1625  140.3448  154.0780 H   0  0  0  0  0  0  0  0  0  0  0  0
  148.3233  139.5709  156.1257 H   0  0  0  0  0  0  0  0  0  0  0  0
  149.1880  140.3741  157.4253 H   0  0  0  0  0  0  0  0  0  0  0  0
  147.9587  141.3829  153.9264 H   0  0  0  0  0  0  0  0  0  0  0  0
  146.9515  140.4699  155.0241 H   0  0  0  0  0  0  0  0  0  0  0  0
  145.8979  142.3975  156.9313 H   0  0  0  0  0  0  0  0  0  0  0  0
  144.2794  144.2775  156.8567 H   0  0  0  0  0  0  0  0  0  0  0  0
  145.1838  144.8948  152.6861 H   0  0  0  0  0  0  0  0  0  0  0  0
  146.8016  143.0171  152.7556 H   0  0  0  0  0  0  0  0  0  0  0  0
  1  2  1  0  0  0  0
  1 25  1  0  0  0  0
  2  3  1  0  0  0  0
  2 26  1  0  0  0  0
  2 27  1  0  0  0  0
  3 11  1  0  0  0  0
  3  4  2  0  0  0  0
  4  5  1  0  0  0  0
  5 10  2  0  0  0  0
  5  6  1  0  0  0  0
  6  7  2  0  0  0  0
  6 28  1  0  0  0  0
  7  8  1  0  0  0  0
  7 29  1  0  0  0  0
  8  9  2  0  0  0  0
  8 30  1  0  0  0  0
  9 10  1  0  0  0  0
  9 31  1  0  0  0  0
 10 11  1  0  0  0  0
 11 12  1  0  0  0  0
 12 13  1  0  0  0  0
 12 32  1  0  0  0  0
 12 33  1  0  0  0  0
 13 14  1  0  0  0  0
 13 15  1  0  0  0  0
 13 34  1  0  0  0  0
 14 35  1  0  0  0  0
 15 16  1  0  0  0  0
 15 36  1  0  0  0  0
 15 37  1  0  0  0  0
 16 17  1  0  0  0  0
 17 18  1  0  0  0  0
 17 38  1  0  0  0  0
 17 39  1  0  0  0  0
 18 24  1  0  0  0  0
 18 19  2  0  0  0  0
 19 20  1  0  0  0  0
 19 40  1  0  0  0  0
 20 21  2  0  0  0  0
 20 41  1  0  0  0  0
 21 22  1  0  0  0  0
 21 23  1  0  0  0  0
 23 24  2  0  0  0  0
 23 42  1  0  0  0  0
 24 43  1  0  0  0  0
M  END
> <s_m_source_file>
AV-unprocessed.smi

> <i_m_source_file_index>
322

> <i_lp_mmshare_version>
43012

> <i_f3d_flags>
0

> <s_epik_input>
W2NIXTFbY0hdW2NIXVtjSF1jKGMxMiluKGMobjIpW0NIMl1bT0hdKVtDSDJdW0NASF0oW09IXSlbQ0gyXU9bQ0gyXWMzW2NIXVtjSF1jKENsKVtjSF1bY0hdMw==

> <s_epik_cmdline>
J2VwaWtfcHl0aG9uJywgJy1waCcsICc3LjAnLCAnLXRuJywgJzgnLCAnLW1hJywgJzIwMCcsICctbWV0YWxfYmluZGluZycsICctaW1hZScsICc8aW5maWxlLm1hZT4nLCAnLW9tYWUnLCAnPG91dGZpbGUubWFlPic=

> <r_epik_Ionization_Penalty>
0.0649918

> <r_epik_Ionization_Penalty_Charging>
0

> <r_epik_Ionization_Penalty_Neutral>
0.0649918

> <r_epik_State_Penalty>
0.0565791

> <r_epik_Charging_Adjusted_Penalty>
0.0565791

> <i_epik_Tot_Q>
0

> <i_epik_Tot_abs_Q>
0

> <r_epik_Metal_State_Penalty>
5.93658e-05

> <b_epik_Metal_Only>
0

> <s_lp_Force_Field>
OPLS_2005

> <r_lp_Energy>
16.0387

> <b_lp_Chiralities_Consistent>
1

> <s_lp_Variant>
AV-unprocessed.smi:322-1

> <Gold.Version>
5.8.1

> <Gold.Id.Protein>
6NUR|6NUR_protein|mol2

> <Gold.PLP.Fitness>
55.2431

> <Gold.PLP.PLP>
-50.3401

> <Gold.PLP.part.hbond>
-2.7460

> <Gold.PLP.part.metal>
0.0000

> <Gold.PLP.part.buried>
-8.4404

> <Gold.PLP.part.nonpolar>
-38.5823

> <Gold.PLP.part.repulsive>
0.1629

> <Gold.PLP.ligand.clash>
0.0000

> <Gold.PLP.ligand.torsion>
0.5643

> <Gold.PLP.Chemscore.Hbond>
1.9760

> <Gold.PLP.Chemscore.CHOScore>
0.0000

> <Gold.PLP.Chemscore.Metal>
0.0000

> <Gold.Chemscore.Hbonds>
donor molecule, donor type, donor heavy atom, donor atom, acceptor molecule, acceptor atom, score
      P1  H  7989  7998       L1    14  0.98
      P1  H  7997  8008       L1     1  1.00

> <Gold.PLP.Chemscore.Internal.Correction>
0.1036

> <Gold.Rescore>
     Score         DG    S(hbond)    S(metal)    S(lipo)     H(rot)  DE(clash)    DE(int)     intcor
     15.66     -17.30       1.46        0.00     127.80       3.13       0.11       1.54       ----

> <Gold.Chemscore.Fitness>
15.6555

> <Gold.Chemscore.DG>
-17.3034

> <Gold.Chemscore.ZeroCoef>
-5.4800

> <Gold.Chemscore.Hbond>
1.4649

> <Gold.Chemscore.Metal>
0.0000

> <Gold.Chemscore.Lipo>
127.8026

> <Gold.Chemscore.Internal_Hbond>
0.0000

> <Gold.Chemscore.DEClash>
0.1093

> <Gold.Chemscore.DEInternal>
1.5385

> <Gold.Chemscore.Rot>
3.1337

> <Gold.Chemscore.Internal.Correction>
   9.000000E+99

> <Gold.Chemscore.Hbonds>
donor molecule, donor type, donor heavy atom, donor atom, acceptor molecule, acceptor atom, score
      P1  H  7989  7998       L1    14  0.37
      P1  H  7997  8008       L1     1  0.29

> <Gold.Chemscore.Hbond.Weighted>
-4.8928

> <Gold.Chemscore.Metal.Weighted>
-0.0000

> <Gold.Chemscore.Lipo.Weighted>
-14.9529

> <Gold.Chemscore.Internal_Hbond.Weighted>
0.0000

> <Gold.Chemscore.DEClash.Weighted>
0.1093

> <Gold.Chemscore.DEInternal.Weighted>
1.5385

> <Gold.Chemscore.Rot.Weighted>
8.0224

> <Gold.Chemscore.Internal.Correction.Weighted>
   9.000000E+99

> <Gold.Protein.RotatedTorsions>
[ 6907 6896 6895 6894 ] final -128.37 input  -60.11 | X-H torsion
[ 7974 7965 7964 7962 ] final -131.80 input  175.53 | X-H torsion
[ 8008 7997 7996 7995 ] final  -52.78 input   59.86 | X-H torsion
[ 10167 10162 10161 10158 ] final   25.09 input  -65.29 | X-H torsion
[ 10718 10713 10712 10709 ] final  -17.83 input   66.30 | X-H torsion
[ 10763 10752 10751 10750 ] final  158.77 input  -60.55 | X-H torsion
[ 11005 11000 10999 10996 ] final  160.97 input  -57.11 | X-H torsion

> <Gold.Protein.ActiveResidues>
 VAL166  LYS551  ARG553  GLY616  TRP617  ASP618  TYR619  PRO620  LYS621  CYS622 
 ASP623  PHE694  ASN695  SER759  ASP760  ASP761  ALA762  ILE779  LEU786  VAL792 
 PHE793  MET794  SER795  GLU796  ALA797  LYS798  CYS799  TRP800  GLU811  SER814 

> <Gold.Protein.RotatedAtoms>
  150.9172  133.6924  159.2840 H   0  0  0  0  0  0  0  0  0  0  0  0  # atno 6907 bound_to 6896
  151.4391  135.1017  159.9674 H   0  0  0  0  0  0  0  0  0  0  0  0  # atno 6908 bound_to 6896
  152.4961  133.8585  159.7293 H   0  0  0  0  0  0  0  0  0  0  0  0  # atno 6909 bound_to 6896
  144.9345  140.7167  143.4885 H   0  0  0  0  0  0  0  0  0  0  0  0  # atno 7974 bound_to 7965
  154.4115  140.1215  156.5047 H   0  0  0  0  0  0  0  0  0  0  0  0  # atno 8008 bound_to 7997
  155.6859  140.3496  155.4854 H   0  0  0  0  0  0  0  0  0  0  0  0  # atno 8009 bound_to 7997
  155.9511  140.1105  157.0966 H   0  0  0  0  0  0  0  0  0  0  0  0  # atno 8010 bound_to 7997
  140.5134  144.0122  150.6383 H   0  0  0  0  0  0  0  0  0  0  0  0  # atno 10167 bound_to 10162
  156.5680  130.4742  149.6376 H   0  0  0  0  0  0  0  0  0  0  0  0  # atno 10718 bound_to 10713
  154.2212  135.2782  155.2924 H   0  0  0  0  0  0  0  0  0  0  0  0  # atno 10763 bound_to 10752
  154.5700  135.5621  153.7089 H   0  0  0  0  0  0  0  0  0  0  0  0  # atno 10764 bound_to 10752
  153.0041  135.6319  154.2352 H   0  0  0  0  0  0  0  0  0  0  0  0  # atno 10765 bound_to 10752
  140.2112  134.8266  157.3122 H   0  0  0  0  0  0  0  0  0  0  0  0  # atno 11005 bound_to 11000
  145.3089  139.1825  143.4649 LP  0  0  0  0  0  0  0  0  0  0  0  0  # atno 17320 bound_to 7965
  146.3261  140.3090  142.8625 LP  0  0  0  0  0  0  0  0  0  0  0  0  # atno 17321 bound_to 7965
  140.3451  143.2996  152.0547 LP  0  0  0  0  0  0  0  0  0  0  0  0  # atno 17342 bound_to 10162
  139.4902  144.6415  151.6868 LP  0  0  0  0  0  0  0  0  0  0  0  0  # atno 17343 bound_to 10162
  156.2739  130.7033  151.1838 LP  0  0  0  0  0  0  0  0  0  0  0  0  # atno 17370 bound_to 10713
  157.7354  131.0572  150.5470 LP  0  0  0  0  0  0  0  0  0  0  0  0  # atno 17371 bound_to 10713
  140.1949  134.4326  155.7695 LP  0  0  0  0  0  0  0  0  0  0  0  0  # atno 17394 bound_to 11000
  141.2226  133.7044  156.8088 LP  0  0  0  0  0  0  0  0  0  0  0  0  # atno 17395 bound_to 11000

$$$$
