AV-unprocessed.smi:494|AV-procd|sdf|2713|dock2
  -GOLD-   2262023153D 1   1.00000     0.00000
 Structure written by MMmdl.
 49 50  0  0  0  0  0  0  0  0  2 V2000
  151.2957  130.0764  155.1863 C   0  0  0  0  0  0  0  0  0  0  0  0
  151.0540  131.3741  155.9024 C   0  0  0  0  0  0  0  0  0  0  0  0
  151.4865  131.5195  157.1434 N   0  0  0  0  0  0  0  0  0  0  0  0
  151.1162  132.8110  157.5302 O   0  0  0  0  0  0  0  0  0  0  0  0
  150.4697  133.4009  156.4932 C   0  0  0  0  0  0  0  0  0  0  0  0
  149.9853  134.7949  156.7110 C   0  0  0  0  0  0  0  0  0  0  0  0
  150.3938  132.5448  155.4287 C   0  0  0  0  0  0  0  0  0  0  0  0
  149.7640  132.7753  154.0784 C   0  0  0  0  0  0  0  0  0  0  0  0
  148.2531  132.9543  154.2298 C   0  0  0  0  0  0  0  0  0  0  0  0
  147.7485  133.0101  155.3502 O   0  0  0  0  0  0  0  0  0  0  0  0
  147.5435  133.0311  153.0932 N   0  0  0  0  0  0  0  0  0  0  0  0
  146.0989  133.2319  152.9875 C   0  0  0  0  0  0  0  0  0  0  0  0
  145.6795  134.0782  151.7422 C   0  0  0  0  0  0  0  0  0  0  0  0
  146.2317  135.4751  151.9143 N   0  3  0  0  0  0  0  0  0  0  0  0
  145.9771  136.1358  153.2200 C   0  0  0  0  0  0  0  0  0  0  0  0
  145.9402  136.4171  150.8016 C   0  0  0  0  0  0  0  0  0  0  0  0
  146.2325  133.4203  150.4410 C   0  0  0  0  0  0  0  0  0  0  0  0
  145.6036  132.0515  150.1116 C   0  0  0  0  0  0  0  0  0  0  0  0
  144.0719  132.1221  150.0549 C   0  0  0  0  0  0  0  0  0  0  0  0
  143.4938  132.7178  151.3450 C   0  0  0  0  0  0  0  0  0  0  0  0
  144.1173  134.0948  151.6351 C   0  0  0  0  0  0  0  0  0  0  0  0
  152.3038  130.0417  154.7731 H   0  0  0  0  0  0  0  0  0  0  0  0
  150.5947  129.9408  154.3628 H   0  0  0  0  0  0  0  0  0  0  0  0
  151.1799  129.2247  155.8573 H   0  0  0  0  0  0  0  0  0  0  0  0
  148.9109  134.8052  156.8939 H   0  0  0  0  0  0  0  0  0  0  0  0
  150.1861  135.4158  155.8378 H   0  0  0  0  0  0  0  0  0  0  0  0
  150.4786  135.2529  157.5687 H   0  0  0  0  0  0  0  0  0  0  0  0
  150.1756  133.6600  153.5911 H   0  0  0  0  0  0  0  0  0  0  0  0
  149.9610  131.9416  153.4035 H   0  0  0  0  0  0  0  0  0  0  0  0
  148.0539  132.9787  152.2234 H   0  0  0  0  0  0  0  0  0  0  0  0
  145.5832  132.2722  153.0114 H   0  0  0  0  0  0  0  0  0  0  0  0
  145.7933  133.7149  153.9132 H   0  0  0  0  0  0  0  0  0  0  0  0
  144.9103  136.1838  153.4412 H   0  0  0  0  0  0  0  0  0  0  0  0
  146.3609  137.1565  153.2178 H   0  0  0  0  0  0  0  0  0  0  0  0
  146.4873  135.6249  154.0362 H   0  0  0  0  0  0  0  0  0  0  0  0
  144.9007  136.7463  150.8208 H   0  0  0  0  0  0  0  0  0  0  0  0
  146.1437  135.9896  149.8217 H   0  0  0  0  0  0  0  0  0  0  0  0
  146.5662  137.3054  150.8906 H   0  0  0  0  0  0  0  0  0  0  0  0
  146.0613  134.0861  149.5942 H   0  0  0  0  0  0  0  0  0  0  0  0
  147.3123  133.2845  150.5045 H   0  0  0  0  0  0  0  0  0  0  0  0
  145.9864  131.6962  149.1544 H   0  0  0  0  0  0  0  0  0  0  0  0
  145.9104  131.3073  150.8464 H   0  0  0  0  0  0  0  0  0  0  0  0
  143.7681  132.7329  149.2038 H   0  0  0  0  0  0  0  0  0  0  0  0
  143.6578  131.1279  149.8838 H   0  0  0  0  0  0  0  0  0  0  0  0
  142.4132  132.8218  151.2429 H   0  0  0  0  0  0  0  0  0  0  0  0
  143.6475  132.0350  152.1801 H   0  0  0  0  0  0  0  0  0  0  0  0
  143.6684  134.5192  152.5337 H   0  0  0  0  0  0  0  0  0  0  0  0
  143.7975  134.7323  150.8113 H   0  0  0  0  0  0  0  0  0  0  0  0
  147.2338  135.3495  151.8885 H   0  0  0  0  0  0  0  0  0  0  0  0
  1  2  1  0  0  0  0
  1 22  1  0  0  0  0
  1 23  1  0  0  0  0
  1 24  1  0  0  0  0
  2  7  1  0  0  0  0
  2  3  2  0  0  0  0
  3  4  1  0  0  0  0
  4  5  1  0  0  0  0
  5  6  1  0  0  0  0
  5  7  2  0  0  0  0
  6 25  1  0  0  0  0
  6 26  1  0  0  0  0
  6 27  1  0  0  0  0
  7  8  1  0  0  0  0
  8  9  1  0  0  0  0
  8 28  1  0  0  0  0
  8 29  1  0  0  0  0
  9 10  2  0  0  0  0
  9 11  1  0  0  0  0
 11 12  1  0  0  0  0
 11 30  1  0  0  0  0
 12 13  1  0  0  0  0
 12 31  1  0  0  0  0
 12 32  1  0  0  0  0
 13 21  1  0  0  0  0
 13 14  1  0  0  0  0
 13 17  1  0  0  0  0
 14 15  1  0  0  0  0
 14 16  1  0  0  0  0
 14 49  1  0  0  0  0
 15 33  1  0  0  0  0
 15 34  1  0  0  0  0
 15 35  1  0  0  0  0
 16 36  1  0  0  0  0
 16 37  1  0  0  0  0
 16 38  1  0  0  0  0
 17 18  1  0  0  0  0
 17 39  1  0  0  0  0
 17 40  1  0  0  0  0
 18 19  1  0  0  0  0
 18 41  1  0  0  0  0
 18 42  1  0  0  0  0
 19 20  1  0  0  0  0
 19 43  1  0  0  0  0
 19 44  1  0  0  0  0
 20 21  1  0  0  0  0
 20 45  1  0  0  0  0
 20 46  1  0  0  0  0
 21 47  1  0  0  0  0
 21 48  1  0  0  0  0
M  CHG  1  14   1
M  END
> <s_m_source_file>
AV-unprocessed.smi

> <i_m_source_file_index>
494

> <i_lp_mmshare_version>
43012

> <i_f3d_flags>
0

> <s_epik_input>
W0NIM11jMW5vYyhbQ0gzXSljMVtDSDJdQyg9TylbTkhdW0NIMl1DMihOKFtDSDNdKVtDSDNdKVtDSDJdW0NIMl1bQ0gyXVtDSDJdW0NIMl0y

> <s_epik_cmdline>
J2VwaWtfcHl0aG9uJywgJy1waCcsICc3LjAnLCAnLXRuJywgJzgnLCAnLW1hJywgJzIwMCcsICctbWV0YWxfYmluZGluZycsICctaW1hZScsICc8aW5maWxlLm1hZT4nLCAnLW9tYWUnLCAnPG91dGZpbGUubWFlPic=

> <r_epik_Ionization_Penalty>
0.00230711

> <r_epik_Ionization_Penalty_Charging>
0.00230702

> <r_epik_Ionization_Penalty_Neutral>
8.72116e-08

> <r_epik_State_Penalty>
0.00159123

> <r_epik_Charging_Adjusted_Penalty>
0.00389825

> <i_epik_Tot_Q>
1

> <i_epik_Tot_abs_Q>
1

> <r_epik_Metal_State_Penalty>
-0

> <b_epik_Metal_Only>
0

> <s_lp_Force_Field>
OPLS_2005

> <r_lp_Energy>
28.1912

> <b_lp_Chiralities_Consistent>
1

> <s_lp_Variant>
AV-unprocessed.smi:494-1

> <Gold.Version>
5.8.1

> <Gold.Id.Protein>
6NUR|6NUR_protein|mol2

> <Gold.PLP.Fitness>
43.8701

> <Gold.PLP.PLP>
-35.4692

> <Gold.PLP.part.hbond>
-2.0000

> <Gold.PLP.part.metal>
0.0000

> <Gold.PLP.part.buried>
-3.5282

> <Gold.PLP.part.nonpolar>
-29.2676

> <Gold.PLP.part.repulsive>
0.0395

> <Gold.PLP.ligand.clash>
0.0000

> <Gold.PLP.ligand.torsion>
0.3492

> <Gold.PLP.Chemscore.Hbond>
2.9840

> <Gold.PLP.Chemscore.CHOScore>
0.0000

> <Gold.PLP.Chemscore.Metal>
0.0000

> <Gold.Chemscore.Hbonds>
donor molecule, donor type, donor heavy atom, donor atom, acceptor molecule, acceptor atom, score
      L1  H    14    49       P1  7948  1.86
      P1  H  6896  6907       L1     4  1.00

> <Gold.PLP.Chemscore.Internal.Correction>
0.1472

> <Gold.Rescore>
     Score         DG    S(hbond)    S(metal)    S(lipo)     H(rot)  DE(clash)    DE(int)     intcor
     17.17     -17.67       1.93        0.00      85.76       1.68       0.03       0.47       ----

> <Gold.Chemscore.Fitness>
17.1693

> <Gold.Chemscore.DG>
-17.6748

> <Gold.Chemscore.ZeroCoef>
-5.4800

> <Gold.Chemscore.Hbond>
1.9309

> <Gold.Chemscore.Metal>
0.0000

> <Gold.Chemscore.Lipo>
85.7597

> <Gold.Chemscore.Internal_Hbond>
0.0000

> <Gold.Chemscore.DEClash>
0.0336

> <Gold.Chemscore.DEInternal>
0.4718

> <Gold.Chemscore.Rot>
1.6752

> <Gold.Chemscore.Internal.Correction>
   9.000000E+99

> <Gold.Chemscore.Hbonds>
donor molecule, donor type, donor heavy atom, donor atom, acceptor molecule, acceptor atom, score
      L1  H    14    49       P1  7948  0.90
      P1  H  6896  6907       L1     4  0.94

> <Gold.Chemscore.Hbond.Weighted>
-6.4493

> <Gold.Chemscore.Metal.Weighted>
-0.0000

> <Gold.Chemscore.Lipo.Weighted>
-10.0339

> <Gold.Chemscore.Internal_Hbond.Weighted>
0.0000

> <Gold.Chemscore.DEClash.Weighted>
0.0336

> <Gold.Chemscore.DEInternal.Weighted>
0.4718

> <Gold.Chemscore.Rot.Weighted>
4.2884

> <Gold.Chemscore.Internal.Correction.Weighted>
   9.000000E+99

> <Gold.Protein.RotatedTorsions>
[ 6907 6896 6895 6894 ] final -163.22 input  -60.11 | X-H torsion
[ 7974 7965 7964 7962 ] final  -31.39 input  175.53 | X-H torsion
[ 8008 7997 7996 7995 ] final   45.11 input   59.86 | X-H torsion
[ 10167 10162 10161 10158 ] final  105.66 input  -65.29 | X-H torsion
[ 10718 10713 10712 10709 ] final  -22.67 input   66.30 | X-H torsion
[ 10763 10752 10751 10750 ] final -137.14 input  -60.55 | X-H torsion
[ 11005 11000 10999 10996 ] final  -91.70 input  -57.11 | X-H torsion

> <Gold.Protein.ActiveResidues>
 VAL166  LYS551  ARG553  GLY616  TRP617  ASP618  TYR619  PRO620  LYS621  CYS622 
 ASP623  PHE694  ASN695  SER759  ASP760  ASP761  ALA762  ILE779  LEU786  VAL792 
 PHE793  MET794  SER795  GLU796  ALA797  LYS798  CYS799  TRP800  GLU811  SER814 

> <Gold.Protein.RotatedAtoms>
  151.3926  133.3784  159.2722 H   0  0  0  0  0  0  0  0  0  0  0  0  # atno 6907 bound_to 6896
  150.9493  134.8896  159.7673 H   0  0  0  0  0  0  0  0  0  0  0  0  # atno 6908 bound_to 6896
  152.5105  134.3880  159.9426 H   0  0  0  0  0  0  0  0  0  0  0  0  # atno 6909 bound_to 6896
  146.1071  140.5661  142.8795 H   0  0  0  0  0  0  0  0  0  0  0  0  # atno 7974 bound_to 7965
  155.3305  140.3402  155.4239 H   0  0  0  0  0  0  0  0  0  0  0  0  # atno 8008 bound_to 7997
  156.1864  140.1682  156.8214 H   0  0  0  0  0  0  0  0  0  0  0  0  # atno 8009 bound_to 7997
  154.5391  140.0728  156.8462 H   0  0  0  0  0  0  0  0  0  0  0  0  # atno 8010 bound_to 7997
  139.7074  144.7084  151.1084 H   0  0  0  0  0  0  0  0  0  0  0  0  # atno 10167 bound_to 10162
  156.5013  130.4589  149.6699 H   0  0  0  0  0  0  0  0  0  0  0  0  # atno 10718 bound_to 10713
  154.8668  135.3651  154.5174 H   0  0  0  0  0  0  0  0  0  0  0  0  # atno 10763 bound_to 10752
  153.5806  135.7018  153.5470 H   0  0  0  0  0  0  0  0  0  0  0  0  # atno 10764 bound_to 10752
  153.3460  135.4085  155.1572 H   0  0  0  0  0  0  0  0  0  0  0  0  # atno 10765 bound_to 10752
  141.1539  133.7772  156.9915 H   0  0  0  0  0  0  0  0  0  0  0  0  # atno 11005 bound_to 11000
  144.7480  140.5117  143.6822 LP  0  0  0  0  0  0  0  0  0  0  0  0  # atno 17320 bound_to 7965
  145.5739  139.1485  143.3273 LP  0  0  0  0  0  0  0  0  0  0  0  0  # atno 17321 bound_to 7965
  140.7725  143.5340  150.9390 LP  0  0  0  0  0  0  0  0  0  0  0  0  # atno 17342 bound_to 10162
  139.9024  143.6820  152.3129 LP  0  0  0  0  0  0  0  0  0  0  0  0  # atno 17343 bound_to 10162
  156.3329  130.7341  151.2274 LP  0  0  0  0  0  0  0  0  0  0  0  0  # atno 17370 bound_to 10713
  157.7462  131.0425  150.4696 LP  0  0  0  0  0  0  0  0  0  0  0  0  # atno 17371 bound_to 10713
  140.0999  134.9541  157.1907 LP  0  0  0  0  0  0  0  0  0  0  0  0  # atno 17394 bound_to 11000
  140.3332  134.2786  155.7224 LP  0  0  0  0  0  0  0  0  0  0  0  0  # atno 17395 bound_to 11000

$$$$
