AV-unprocessed.smi:634|AV-procd|sdf|3136|dock3
  -GOLD-   22720 0 63D 1   1.00000     0.00000
 Structure written by MMmdl.
 32 33  0  0  0  0  0  0  0  0  2 V2000
  146.0600  134.9465  163.0925 C   0  0  0  0  0  0  0  0  0  0  0  0
  147.0105  135.4346  162.0534 C   0  0  0  0  0  0  0  0  0  0  0  0
  147.6521  134.8151  161.0188 C   0  0  0  0  0  0  0  0  0  0  0  0
  148.4010  135.8673  160.4243 C   0  0  0  0  0  0  0  0  0  0  0  0
  149.2158  135.7542  159.3639 N   0  5  0  0  0  0  0  0  0  0  0  0
  149.7405  136.8593  158.7857 C   0  0  0  0  0  0  0  0  0  0  0  0
  149.3074  138.0083  158.8918 O   0  0  0  0  0  0  0  0  0  0  0  0
  150.8302  136.6030  158.0415 N   0  0  0  0  0  0  0  0  0  0  0  0
  151.6802  137.5178  157.2664 C   0  0  2  0  0  0  0  0  0  0  0  0
  153.1148  136.9570  157.3515 C   0  0  0  0  0  0  0  0  0  0  0  0
  151.6631  138.9634  157.8332 C   0  0  0  0  0  0  0  0  0  0  0  0
  152.2377  139.9328  156.7896 C   0  0  0  0  0  0  0  0  0  0  0  0
  151.8777  139.1989  155.1490 S   0  0  0  0  0  0  0  0  0  0  0  0
  150.7764  139.9353  154.5102 O   0  0  0  0  0  0  0  0  0  0  0  0
  153.1468  138.9756  154.4395 O   0  0  0  0  0  0  0  0  0  0  0  0
  151.2444  137.6004  155.7847 C   0  0  0  0  0  0  0  0  0  0  0  0
  148.2417  137.0195  161.0536 N   0  0  0  0  0  0  0  0  0  0  0  0
  147.3465  136.7519  162.0961 O   0  0  0  0  0  0  0  0  0  0  0  0
  146.5749  134.3204  163.8210 H   0  0  0  0  0  0  0  0  0  0  0  0
  145.2642  134.3548  162.6398 H   0  0  0  0  0  0  0  0  0  0  0  0
  145.5992  135.7784  163.6257 H   0  0  0  0  0  0  0  0  0  0  0  0
  147.5934  133.7766  160.7294 H   0  0  0  0  0  0  0  0  0  0  0  0
  151.1116  135.6339  158.0146 H   0  0  0  0  0  0  0  0  0  0  0  0
  153.8266  137.5640  156.7922 H   0  0  0  0  0  0  0  0  0  0  0  0
  153.1679  135.9445  156.9494 H   0  0  0  0  0  0  0  0  0  0  0  0
  153.4631  136.9160  158.3844 H   0  0  0  0  0  0  0  0  0  0  0  0
  150.6417  139.2807  158.0376 H   0  0  0  0  0  0  0  0  0  0  0  0
  152.1971  139.0377  158.7810 H   0  0  0  0  0  0  0  0  0  0  0  0
  151.8038  140.9304  156.8580 H   0  0  0  0  0  0  0  0  0  0  0  0
  153.3195  140.0176  156.8909 H   0  0  0  0  0  0  0  0  0  0  0  0
  151.6232  136.7794  155.1758 H   0  0  0  0  0  0  0  0  0  0  0  0
  150.1616  137.6232  155.6708 H   0  0  0  0  0  0  0  0  0  0  0  0
  1  2  1  0  0  0  0
  1 19  1  0  0  0  0
  1 20  1  0  0  0  0
  1 21  1  0  0  0  0
  2 18  1  0  0  0  0
  2  3  2  0  0  0  0
  3  4  1  0  0  0  0
  3 22  1  0  0  0  0
  4  5  1  0  0  0  0
  4 17  2  0  0  0  0
  5  6  1  0  0  0  0
  6  7  2  0  0  0  0
  6  8  1  0  0  0  0
  8  9  1  0  0  0  0
  8 23  1  0  0  0  0
  9 16  1  0  0  0  0
  9 10  1  0  0  0  0
  9 11  1  0  0  0  0
 10 24  1  0  0  0  0
 10 25  1  0  0  0  0
 10 26  1  0  0  0  0
 11 12  1  0  0  0  0
 11 27  1  0  0  0  0
 11 28  1  0  0  0  0
 12 13  1  0  0  0  0
 12 29  1  0  0  0  0
 12 30  1  0  0  0  0
 13 14  2  0  0  0  0
 13 15  2  0  0  0  0
 13 16  1  0  0  0  0
 16 31  1  0  0  0  0
 16 32  1  0  0  0  0
 17 18  1  0  0  0  0
M  CHG  1   5  -1
M  END
> <s_m_source_file>
AV-unprocessed.smi

> <i_m_source_file_index>
634

> <i_lp_mmshare_version>
43012

> <i_f3d_flags>
0

> <s_epik_input>
W0NIM11jMVtjSF1jKG5vMSlbTkhdQyg9TylbTkhdW0NAQF0yKFtDSDNdKVtDSDJdW0NIMl1TKD1PKSg9TylbQ0gyXTI=

> <s_epik_cmdline>
J2VwaWtfcHl0aG9uJywgJy1waCcsICc3LjAnLCAnLXRuJywgJzgnLCAnLW1hJywgJzIwMCcsICctbWV0YWxfYmluZGluZycsICctaW1hZScsICc8aW5maWxlLm1hZT4nLCAnLW9tYWUnLCAnPG91dGZpbGUubWFlPic=

> <r_lp_tautomer_probability>
1

> <r_epik_Ionization_Penalty>
6.15572

> <r_epik_Ionization_Penalty_Charging>
6.1556

> <r_epik_Ionization_Penalty_Neutral>
0.000118136

> <r_epik_State_Penalty>
6.15558

> <r_epik_Charging_Adjusted_Penalty>
12.3112

> <i_epik_Tot_Q>
-1

> <i_epik_Tot_abs_Q>
1

> <r_epik_Metal_State_Penalty>
2.10569

> <b_epik_Metal_Only>
1

> <s_lp_Force_Field>
OPLS_2005

> <r_lp_Energy>
-1.68809

> <b_lp_Chiralities_Consistent>
1

> <s_lp_Variant>
AV-unprocessed.smi:634-4

> <Gold.Version>
5.8.1

> <Gold.Id.Protein>
6NUR|6NUR_protein|mol2

> <Gold.PLP.Fitness>
42.9719

> <Gold.PLP.PLP>
-28.2501

> <Gold.PLP.part.hbond>
-6.1660

> <Gold.PLP.part.metal>
0.0000

> <Gold.PLP.part.buried>
-5.2573

> <Gold.PLP.part.nonpolar>
-16.9786

> <Gold.PLP.part.repulsive>
0.2214

> <Gold.PLP.ligand.clash>
0.0000

> <Gold.PLP.ligand.torsion>
0.6461

> <Gold.PLP.Chemscore.Hbond>
5.3356

> <Gold.PLP.Chemscore.CHOScore>
0.0000

> <Gold.PLP.Chemscore.Metal>
0.0000

> <Gold.Chemscore.Hbonds>
donor molecule, donor type, donor heavy atom, donor atom, acceptor molecule, acceptor atom, score
      P1  H  6896  6908       L1     5  2.00
      P1  H  6931  6943       L1    17  0.70
      P1  H  6934  6947       L1    17  0.07
      P1  H  7989  7998       L1    14  1.00
      P1  H  7997  8008       L1    15  0.32

> <Gold.PLP.Chemscore.Internal.Correction>
0.0070

> <Gold.Rescore>
     Score         DG    S(hbond)    S(metal)    S(lipo)     H(rot)  DE(clash)    DE(int)     intcor
     14.33     -18.10       2.91        0.00      46.63       1.00       0.04       3.73       ----

> <Gold.Chemscore.Fitness>
14.3293

> <Gold.Chemscore.DG>
-18.0989

> <Gold.Chemscore.ZeroCoef>
-5.4800

> <Gold.Chemscore.Hbond>
2.9112

> <Gold.Chemscore.Metal>
0.0000

> <Gold.Chemscore.Lipo>
46.6269

> <Gold.Chemscore.Internal_Hbond>
0.0000

> <Gold.Chemscore.DEClash>
0.0445

> <Gold.Chemscore.DEInternal>
3.7251

> <Gold.Chemscore.Rot>
1.0000

> <Gold.Chemscore.Internal.Correction>
   9.000000E+99

> <Gold.Chemscore.Hbonds>
donor molecule, donor type, donor heavy atom, donor atom, acceptor molecule, acceptor atom, score
      P1  H  6896  6908       L1     5  0.27
      P1  H  6931  6943       L1    17  0.07
      P1  H  7989  7998       L1    14  0.25
      P1  H  7997  8008       L1    15  0.07

> <Gold.Chemscore.Hbond.Weighted>
-9.7236

> <Gold.Chemscore.Metal.Weighted>
-0.0000

> <Gold.Chemscore.Lipo.Weighted>
-5.4553

> <Gold.Chemscore.Internal_Hbond.Weighted>
0.0000

> <Gold.Chemscore.DEClash.Weighted>
0.0445

> <Gold.Chemscore.DEInternal.Weighted>
3.7251

> <Gold.Chemscore.Rot.Weighted>
2.5600

> <Gold.Chemscore.Internal.Correction.Weighted>
   9.000000E+99

> <Gold.Protein.RotatedTorsions>
[ 6907 6896 6895 6894 ] final -178.69 input  -60.11 | X-H torsion
[ 7974 7965 7964 7962 ] final  -89.03 input  175.53 | X-H torsion
[ 8008 7997 7996 7995 ] final  -12.64 input   59.86 | X-H torsion
[ 10167 10162 10161 10158 ] final  143.75 input  -65.29 | X-H torsion
[ 10718 10713 10712 10709 ] final -172.74 input   66.30 | X-H torsion
[ 10763 10752 10751 10750 ] final -111.69 input  -60.55 | X-H torsion
[ 11005 11000 10999 10996 ] final   41.52 input  -57.11 | X-H torsion

> <Gold.Protein.ActiveResidues>
 VAL166  LYS551  ARG553  GLY616  TRP617  ASP618  TYR619  PRO620  LYS621  CYS622 
 ASP623  PHE694  ASN695  SER759  ASP760  ASP761  ALA762  ILE779  LEU786  VAL792 
 PHE793  MET794  SER795  GLU796  ALA797  LYS798  CYS799  TRP800  GLU811  SER814 

> <Gold.Protein.RotatedAtoms>
  151.6413  133.3326  159.3130 H   0  0  0  0  0  0  0  0  0  0  0  0  # atno 6907 bound_to 6896
  150.8006  134.7101  159.6608 H   0  0  0  0  0  0  0  0  0  0  0  0  # atno 6908 bound_to 6896
  152.4098  134.6148  160.0086 H   0  0  0  0  0  0  0  0  0  0  0  0  # atno 6909 bound_to 6896
  145.4452  140.9560  143.2053 H   0  0  0  0  0  0  0  0  0  0  0  0  # atno 7974 bound_to 7965
  154.5360  140.2271  155.8722 H   0  0  0  0  0  0  0  0  0  0  0  0  # atno 8008 bound_to 7997
  156.1811  140.3100  155.9114 H   0  0  0  0  0  0  0  0  0  0  0  0  # atno 8009 bound_to 7997
  155.3354  140.0447  157.3034 H   0  0  0  0  0  0  0  0  0  0  0  0  # atno 8010 bound_to 7997
  139.4962  144.6019  151.6462 H   0  0  0  0  0  0  0  0  0  0  0  0  # atno 10167 bound_to 10162
  156.7601  130.9410  151.3117 H   0  0  0  0  0  0  0  0  0  0  0  0  # atno 10718 bound_to 10713
  154.8313  135.4518  154.1078 H   0  0  0  0  0  0  0  0  0  0  0  0  # atno 10763 bound_to 10752
  153.2349  135.6910  153.7855 H   0  0  0  0  0  0  0  0  0  0  0  0  # atno 10764 bound_to 10752
  153.7224  135.3339  155.3245 H   0  0  0  0  0  0  0  0  0  0  0  0  # atno 10765 bound_to 10752
  140.1826  134.4084  155.8191 H   0  0  0  0  0  0  0  0  0  0  0  0  # atno 11005 bound_to 11000
  144.8096  139.5987  143.7035 LP  0  0  0  0  0  0  0  0  0  0  0  0  # atno 17320 bound_to 7965
  146.2534  139.6250  142.9411 LP  0  0  0  0  0  0  0  0  0  0  0  0  # atno 17321 bound_to 7965
  140.5671  144.0172  150.6198 LP  0  0  0  0  0  0  0  0  0  0  0  0  # atno 17342 bound_to 10162
  140.3277  143.3097  152.0719 LP  0  0  0  0  0  0  0  0  0  0  0  0  # atno 17343 bound_to 10162
  157.6738  130.9076  150.0103 LP  0  0  0  0  0  0  0  0  0  0  0  0  # atno 17370 bound_to 10713
  156.1345  130.3643  149.9679 LP  0  0  0  0  0  0  0  0  0  0  0  0  # atno 17371 bound_to 10713
  141.2223  133.7008  156.7958 LP  0  0  0  0  0  0  0  0  0  0  0  0  # atno 17394 bound_to 11000
  140.2249  134.8729  157.3416 LP  0  0  0  0  0  0  0  0  0  0  0  0  # atno 17395 bound_to 11000

$$$$
