AV-unprocessed.smi:415|AV-procd|sdf|2524|dock9
  -GOLD-   2262022483D 1   1.00000     0.00000
 Structure written by MMmdl.
 53 54  0  0  0  0  0  0  0  0  1 V2000
  151.2297  131.7489  156.5950 C   0  0  0  0  0  0  0  0  0  0  0  0
  150.8191  133.0094  157.1008 O   0  0  0  0  0  0  0  0  0  0  0  0
  149.8517  133.6679  156.2948 C   0  0  0  0  0  0  0  0  0  0  0  0
  149.4310  135.0347  156.8727 C   0  0  0  0  0  0  0  0  0  0  0  0
  150.1095  136.1493  156.2382 N   0  0  0  0  0  0  0  0  0  0  0  0
  149.8032  136.5897  154.9535 C   0  0  0  0  0  0  0  0  0  0  0  0
  148.8297  135.9348  154.2203 N   0  0  0  0  0  0  0  0  0  0  0  0
  150.4286  137.6547  154.4050 C   0  0  0  0  0  0  0  0  0  0  0  0
  151.4490  138.4027  155.1254 C   0  0  0  0  0  0  0  0  0  0  0  0
  152.0215  139.3823  154.6471 O   0  0  0  0  0  0  0  0  0  0  0  0
  151.7415  137.9419  156.4294 N   0  0  0  0  0  0  0  0  0  0  0  0
  152.7383  138.6765  157.2391 C   0  0  0  0  0  0  0  0  0  0  0  0
  152.1062  139.7105  158.1830 C   0  0  0  0  0  0  0  0  0  0  0  0
  151.5801  139.3647  159.2419 O   0  0  0  0  0  0  0  0  0  0  0  0
  152.1671  140.9870  157.7762 N   0  0  0  0  0  0  0  0  0  0  0  0
  151.6689  142.1374  158.5261 C   0  0  2  0  0  0  0  0  0  0  0  0
  151.9015  143.4274  157.7161 C   0  0  0  0  0  0  0  0  0  0  0  0
  151.3656  144.6583  158.4622 C   0  0  0  0  0  0  0  0  0  0  0  0
  151.9604  144.7652  159.8752 C   0  0  0  0  0  0  0  0  0  0  0  0
  151.7294  143.4720  160.6829 C   0  0  2  0  0  0  0  0  0  0  0  0
  152.2266  143.6067  162.1318 C   0  0  0  0  0  0  0  0  0  0  0  0
  152.2947  142.2287  159.9458 C   0  0  2  0  0  0  0  0  0  0  0  0
  153.8404  142.1652  159.9361 C   0  0  0  0  0  0  0  0  0  0  0  0
  151.0843  136.8329  157.0099 C   0  0  0  0  0  0  0  0  0  0  0  0
  151.3569  136.4865  158.1627 O   0  0  0  0  0  0  0  0  0  0  0  0
  151.9819  131.3204  157.2573 H   0  0  0  0  0  0  0  0  0  0  0  0
  151.6694  131.8309  155.6013 H   0  0  0  0  0  0  0  0  0  0  0  0
  150.3908  131.0536  156.5478 H   0  0  0  0  0  0  0  0  0  0  0  0
  150.2205  133.7815  155.2743 H   0  0  0  0  0  0  0  0  0  0  0  0
  148.9777  133.0195  156.2277 H   0  0  0  0  0  0  0  0  0  0  0  0
  148.3543  135.2035  156.8382 H   0  0  0  0  0  0  0  0  0  0  0  0
  149.6806  135.0950  157.9318 H   0  0  0  0  0  0  0  0  0  0  0  0
  148.3296  135.1396  154.5914 H   0  0  0  0  0  0  0  0  0  0  0  0
  148.6409  136.1704  153.2566 H   0  0  0  0  0  0  0  0  0  0  0  0
  150.1663  137.9725  153.4059 H   0  0  0  0  0  0  0  0  0  0  0  0
  153.3392  137.9789  157.8254 H   0  0  0  0  0  0  0  0  0  0  0  0
  153.4687  139.1905  156.6127 H   0  0  0  0  0  0  0  0  0  0  0  0
  152.6113  141.1803  156.8905 H   0  0  0  0  0  0  0  0  0  0  0  0
  150.5890  142.0200  158.6381 H   0  0  0  0  0  0  0  0  0  0  0  0
  152.9642  143.5582  157.5096 H   0  0  0  0  0  0  0  0  0  0  0  0
  151.4092  143.3507  156.7458 H   0  0  0  0  0  0  0  0  0  0  0  0
  151.5871  145.5628  157.8951 H   0  0  0  0  0  0  0  0  0  0  0  0
  150.2786  144.5961  158.5297 H   0  0  0  0  0  0  0  0  0  0  0  0
  153.0266  144.9844  159.8107 H   0  0  0  0  0  0  0  0  0  0  0  0
  151.5075  145.6116  160.3926 H   0  0  0  0  0  0  0  0  0  0  0  0
  150.6494  143.3307  160.7491 H   0  0  0  0  0  0  0  0  0  0  0  0
  153.2875  143.8528  162.1760 H   0  0  0  0  0  0  0  0  0  0  0  0
  152.0709  142.6824  162.6888 H   0  0  0  0  0  0  0  0  0  0  0  0
  151.6886  144.3984  162.6539 H   0  0  0  0  0  0  0  0  0  0  0  0
  151.9595  141.3522  160.5026 H   0  0  0  0  0  0  0  0  0  0  0  0
  154.2829  143.0196  159.4254 H   0  0  0  0  0  0  0  0  0  0  0  0
  154.2025  141.2643  159.4409 H   0  0  0  0  0  0  0  0  0  0  0  0
  154.2451  142.1387  160.9473 H   0  0  0  0  0  0  0  0  0  0  0  0
  1  2  1  0  0  0  0
  1 26  1  0  0  0  0
  1 27  1  0  0  0  0
  1 28  1  0  0  0  0
  2  3  1  0  0  0  0
  3  4  1  0  0  0  0
  3 29  1  0  0  0  0
  3 30  1  0  0  0  0
  4  5  1  0  0  0  0
  4 31  1  0  0  0  0
  4 32  1  0  0  0  0
  5 24  1  0  0  0  0
  5  6  1  0  0  0  0
  6  7  1  0  0  0  0
  6  8  2  0  0  0  0
  7 33  1  0  0  0  0
  7 34  1  0  0  0  0
  8  9  1  0  0  0  0
  8 35  1  0  0  0  0
  9 10  2  0  0  0  0
  9 11  1  0  0  0  0
 11 12  1  0  0  0  0
 11 24  1  0  0  0  0
 12 13  1  0  0  0  0
 12 36  1  0  0  0  0
 12 37  1  0  0  0  0
 13 14  2  0  0  0  0
 13 15  1  0  0  0  0
 15 16  1  0  0  0  0
 15 38  1  0  0  0  0
 16 22  1  0  0  0  0
 16 17  1  0  0  0  0
 16 39  1  0  0  0  0
 17 18  1  0  0  0  0
 17 40  1  0  0  0  0
 17 41  1  0  0  0  0
 18 19  1  0  0  0  0
 18 42  1  0  0  0  0
 18 43  1  0  0  0  0
 19 20  1  0  0  0  0
 19 44  1  0  0  0  0
 19 45  1  0  0  0  0
 20 21  1  0  0  0  0
 20 22  1  0  0  0  0
 20 46  1  0  0  0  0
 21 47  1  0  0  0  0
 21 48  1  0  0  0  0
 21 49  1  0  0  0  0
 22 23  1  0  0  0  0
 22 50  1  0  0  0  0
 23 51  1  0  0  0  0
 23 52  1  0  0  0  0
 23 53  1  0  0  0  0
 24 25  2  0  0  0  0
M  END
> <s_m_source_file>
AV-unprocessed.smi

> <i_m_source_file_index>
415

> <i_lp_mmshare_version>
43012

> <i_f3d_flags>
0

> <s_epik_input>
W0NIM11PW0NIMl1bQ0gyXW4xYyhbTkgyXSlbY0hdYyg9TyluKGMxPU8pW0NIMl1DKD1PKVtOSF1bQ0BASF0yW0NIMl1bQ0gyXVtDSDJdW0NAQEhdKFtDSDNdKVtDQEhdMltDSDNd

> <s_epik_cmdline>
J2VwaWtfcHl0aG9uJywgJy1waCcsICc3LjAnLCAnLXRuJywgJzgnLCAnLW1hJywgJzIwMCcsICctbWV0YWxfYmluZGluZycsICctaW1hZScsICc8aW5maWxlLm1hZT4nLCAnLW9tYWUnLCAnPG91dGZpbGUubWFlPic=

> <r_lp_tautomer_probability>
1

> <r_epik_Ionization_Penalty>
8.6647e-06

> <r_epik_Ionization_Penalty_Charging>
1.81162e-08

> <r_epik_Ionization_Penalty_Neutral>
8.64658e-06

> <r_epik_State_Penalty>
-0

> <r_epik_Charging_Adjusted_Penalty>
1.81162e-08

> <i_epik_Tot_Q>
0

> <i_epik_Tot_abs_Q>
0

> <r_epik_Metal_State_Penalty>
-0

> <b_epik_Metal_Only>
0

> <s_lp_Force_Field>
OPLS_2005

> <r_lp_Energy>
23.9123

> <b_lp_Chiralities_Consistent>
1

> <s_lp_Variant>
AV-unprocessed.smi:415-7

> <Gold.Version>
5.8.1

> <Gold.Id.Protein>
6NUR|6NUR_protein|mol2

> <Gold.PLP.Fitness>
52.0745

> <Gold.PLP.PLP>
-43.6732

> <Gold.PLP.part.hbond>
-4.0000

> <Gold.PLP.part.metal>
0.0000

> <Gold.PLP.part.buried>
-5.7274

> <Gold.PLP.part.nonpolar>
-34.3216

> <Gold.PLP.part.repulsive>
0.1466

> <Gold.PLP.ligand.clash>
0.0000

> <Gold.PLP.ligand.torsion>
1.0057

> <Gold.PLP.Chemscore.Hbond>
3.4379

> <Gold.PLP.Chemscore.CHOScore>
0.0000

> <Gold.PLP.Chemscore.Metal>
0.0000

> <Gold.Chemscore.Hbonds>
donor molecule, donor type, donor heavy atom, donor atom, acceptor molecule, acceptor atom, score
      L1  H     7    34       P1  7948  0.73
      P1  H  6896  6908       L1     2  0.63
      P1  H  6896  6909       L1    25  0.35
      P1  H  7989  7998       L1    10  0.90

> <Gold.PLP.Chemscore.Internal.Correction>
0.0990

> <Gold.Rescore>
     Score         DG    S(hbond)    S(metal)    S(lipo)     H(rot)  DE(clash)    DE(int)     intcor
     23.51     -24.64       3.49        0.00     113.68       2.26       0.04       1.09       ----

> <Gold.Chemscore.Fitness>
23.5113

> <Gold.Chemscore.DG>
-24.6410

> <Gold.Chemscore.ZeroCoef>
-5.4800

> <Gold.Chemscore.Hbond>
3.4901

> <Gold.Chemscore.Metal>
0.0000

> <Gold.Chemscore.Lipo>
113.6849

> <Gold.Chemscore.Internal_Hbond>
0.0000

> <Gold.Chemscore.DEClash>
0.0402

> <Gold.Chemscore.DEInternal>
1.0894

> <Gold.Chemscore.Rot>
2.2645

> <Gold.Chemscore.Internal.Correction>
   9.000000E+99

> <Gold.Chemscore.Hbonds>
donor molecule, donor type, donor heavy atom, donor atom, acceptor molecule, acceptor atom, score
      L1  H     7    34       P1  7948  0.71
      P1  H  6896  6908       L1     2  0.58
      P1  H  6896  6909       L1    25  0.35
      P1  H  7989  7998       L1    10  0.88

> <Gold.Chemscore.Hbond.Weighted>
-11.6570

> <Gold.Chemscore.Metal.Weighted>
-0.0000

> <Gold.Chemscore.Lipo.Weighted>
-13.3011

> <Gold.Chemscore.Internal_Hbond.Weighted>
0.0000

> <Gold.Chemscore.DEClash.Weighted>
0.0402

> <Gold.Chemscore.DEInternal.Weighted>
1.0894

> <Gold.Chemscore.Rot.Weighted>
5.7972

> <Gold.Chemscore.Internal.Correction.Weighted>
   9.000000E+99

> <Gold.Protein.RotatedTorsions>
[ 6907 6896 6895 6894 ] final   97.73 input  -60.11 | X-H torsion
[ 7974 7965 7964 7962 ] final   43.30 input  175.53 | X-H torsion
[ 8008 7997 7996 7995 ] final   91.07 input   59.86 | X-H torsion
[ 10167 10162 10161 10158 ] final  142.68 input  -65.29 | X-H torsion
[ 10718 10713 10712 10709 ] final -139.43 input   66.30 | X-H torsion
[ 10763 10752 10751 10750 ] final  124.01 input  -60.55 | X-H torsion
[ 11005 11000 10999 10996 ] final  -91.80 input  -57.11 | X-H torsion

> <Gold.Protein.ActiveResidues>
 VAL166  LYS551  ARG553  GLY616  TRP617  ASP618  TYR619  PRO620  LYS621  CYS622 
 ASP623  PHE694  ASN695  SER759  ASP760  ASP761  ALA762  ILE779  LEU786  VAL792 
 PHE793  MET794  SER795  GLU796  ALA797  LYS798  CYS799  TRP800  GLU811  SER814 

> <Gold.Protein.RotatedAtoms>
  152.5419  134.0688  159.8184 H   0  0  0  0  0  0  0  0  0  0  0  0  # atno 6907 bound_to 6896
  151.0805  133.5386  159.2628 H   0  0  0  0  0  0  0  0  0  0  0  0  # atno 6908 bound_to 6896
  151.2215  135.0529  159.9005 H   0  0  0  0  0  0  0  0  0  0  0  0  # atno 6909 bound_to 6896
  146.0667  139.5203  142.9623 H   0  0  0  0  0  0  0  0  0  0  0  0  # atno 7974 bound_to 7965
  156.0194  140.3342  155.7023 H   0  0  0  0  0  0  0  0  0  0  0  0  # atno 8008 bound_to 7997
  155.6044  140.0659  157.2742 H   0  0  0  0  0  0  0  0  0  0  0  0  # atno 8009 bound_to 7997
  154.4310  140.1804  156.1194 H   0  0  0  0  0  0  0  0  0  0  0  0  # atno 8010 bound_to 7997
  139.4988  144.6091  151.6312 H   0  0  0  0  0  0  0  0  0  0  0  0  # atno 10167 bound_to 10162
  156.3107  130.7480  151.1555 H   0  0  0  0  0  0  0  0  0  0  0  0  # atno 10718 bound_to 10713
  153.6546  135.3357  155.3110 H   0  0  0  0  0  0  0  0  0  0  0  0  # atno 10763 bound_to 10752
  154.8529  135.4349  154.1868 H   0  0  0  0  0  0  0  0  0  0  0  0  # atno 10764 bound_to 10752
  153.2819  135.7009  153.7452 H   0  0  0  0  0  0  0  0  0  0  0  0  # atno 10765 bound_to 10752
  141.1536  133.7779  156.9930 H   0  0  0  0  0  0  0  0  0  0  0  0  # atno 11005 bound_to 11000
  145.6464  141.0273  143.1784 LP  0  0  0  0  0  0  0  0  0  0  0  0  # atno 17320 bound_to 7965
  144.7207  139.8041  143.7383 LP  0  0  0  0  0  0  0  0  0  0  0  0  # atno 17321 bound_to 7965
  140.5760  144.0027  150.6242 LP  0  0  0  0  0  0  0  0  0  0  0  0  # atno 17342 bound_to 10162
  140.3160  143.3167  152.0831 LP  0  0  0  0  0  0  0  0  0  0  0  0  # atno 17343 bound_to 10162
  157.7390  131.0534  150.5258 LP  0  0  0  0  0  0  0  0  0  0  0  0  # atno 17370 bound_to 10713
  156.5397  130.4205  149.6160 LP  0  0  0  0  0  0  0  0  0  0  0  0  # atno 17371 bound_to 10713
  140.0990  134.9547  157.1894 LP  0  0  0  0  0  0  0  0  0  0  0  0  # atno 17394 bound_to 11000
  140.3344  134.2774  155.7222 LP  0  0  0  0  0  0  0  0  0  0  0  0  # atno 17395 bound_to 11000

$$$$
