#       Name:                AV-unprocessed.smi:1964
#       Creating user name   scv26
#       Creation time:       Fri Mar 27 10:10:18 2020


#       File generated by GOLD software.
#

@<TRIPOS>MOLECULE
AV-unprocessed.smi:1964
    53    55     1
SMALL
NO_CHARGES


@<TRIPOS>ATOM
      1 ****        -2.3513   0.6554   1.5171 C.3            1 S1                 0.0000
      2 ****        -2.4328  -0.1768   0.2241 C.3            1 S1                 0.0000
      3 ****        -3.8611  -0.7191   0.0144 C.3            1 S1                 0.0000
      4 ****        -3.9692  -1.5703  -1.2600 C.3            1 S1                 0.0000
      5 ****        -3.5069  -0.7807  -2.4922 C.3            1 S1                 0.0000
      6 ****        -2.0800  -0.2470  -2.3006 C.3            1 S1                 0.0000
      7 ****        -1.9638   0.6121  -1.0238 C.3            1 S1                 0.0000
      8 ****        -0.5867   1.0608  -0.8453 N.am           1 S1                 0.0000
      9 ****        -0.0094   2.1050  -1.4632 C.2            1 S1                 0.0000
     10 ****        -0.5956   2.7950  -2.2961 O.2            1 S1                 0.0000
     11 ****         1.4450   2.4487  -1.0950 C.3            1 S1                 0.0000
     12 ****         1.9998   1.6649   0.0337 N.am           1 S1                 0.0000
     13 ****         1.8263   2.1606   1.3515 C.2            1 S1                 0.0000
     14 ****         1.2196   3.2124   1.5594 O.2            1 S1                 0.0000
     15 ****         2.4039   1.3405   2.4136 C.2            1 S1                 0.0000
     16 ****         2.2927   1.8301   3.7478 C.1            1 S1                 0.0000
     17 ****         2.2150   2.2080   4.8388 N.1            1 S1                 0.0000
     18 ****         3.0158   0.1715   2.1336 C.2            1 S1                 0.0000
     19 ****         3.1189  -0.3218   0.8513 N.am           1 S1                 0.0000
     20 ****         3.8820  -1.5023   0.5604 C.3            1 S1                 0.0000
     21 ****         3.2382  -2.6621  -0.1746 C.3            1 S1                 0.0000
     22 ****         3.5584  -2.7855   1.2946 C.3            1 S1                 0.0000
     23 ****         2.6555   0.4404  -0.2428 C.2            1 S1                 0.0000
     24 ****         2.8092   0.0511  -1.4030 O.2            1 S1                 0.0000
     25 ****        -2.9672   1.5525   1.4488 H              1 S1                 0.0000
     26 ****        -1.3298   0.9687   1.7336 H              1 S1                 0.0000
     27 ****        -2.6990   0.0791   2.3748 H              1 S1                 0.0000
     28 ****        -1.7705  -1.0352   0.3491 H              1 S1                 0.0000
     29 ****        -4.1634  -1.3169   0.8748 H              1 S1                 0.0000
     30 ****        -4.5648   0.1125  -0.0448 H              1 S1                 0.0000
     31 ****        -3.3627  -2.4703  -1.1526 H              1 S1                 0.0000
     32 ****        -4.9978  -1.9048  -1.3976 H              1 S1                 0.0000
     33 ****        -3.5514  -1.4136  -3.3789 H              1 S1                 0.0000
     34 ****        -4.1880   0.0524  -2.6710 H              1 S1                 0.0000
     35 ****        -1.3841  -1.0856  -2.2459 H              1 S1                 0.0000
     36 ****        -1.7916   0.3353  -3.1765 H              1 S1                 0.0000
     37 ****        -2.6054   1.4890  -1.1323 H              1 S1                 0.0000
     38 ****        -0.0290   0.5451  -0.1804 H              1 S1                 0.0000
     39 ****         2.0558   2.3304  -1.9911 H              1 S1                 0.0000
     40 ****         1.4985   3.5184  -0.8864 H              1 S1                 0.0000
     41 ****         3.4329  -0.4074   2.9452 H              1 S1                 0.0000
     42 ****         4.9358  -1.3325   0.3464 H              1 S1                 0.0000
     43 ****         2.1878  -2.5791  -0.4482 H              1 S1                 0.0000
     44 ****         3.8588  -3.2174  -0.8747 H              1 S1                 0.0000
     45 ****         4.3917  -3.4266   1.5751 H              1 S1                 0.0000
     46 ****         2.7194  -2.7834   1.9880 H              1 S1                 0.0000
     47 ****        -1.5432   2.5879  -2.5392 LP             1 S1                 0.0000
     48 ****        -0.1244   3.5629  -2.7300 LP             1 S1                 0.0000
     49 ****         0.8405   3.7308   0.7929 LP             1 S1                 0.0000
     50 ****         1.1063   3.5477   2.4947 LP             1 S1                 0.0000
     51 ****         2.1479   2.5345   5.7816 LP             1 S1                 0.0000
     52 ****         2.4687   0.6024  -2.1646 LP             1 S1                 0.0000
     53 ****         3.2743  -0.8159  -1.5820 LP             1 S1                 0.0000
@<TRIPOS>BOND
    1    1    2 1     
    2    1   25 1     
    3    1   26 1     
    4    1   27 1     
    5    2    7 1     
    6    2    3 1     
    7    2   28 1     
    8    3    4 1     
    9    3   29 1     
   10    3   30 1     
   11    4    5 1     
   12    4   31 1     
   13    4   32 1     
   14    5    6 1     
   15    5   33 1     
   16    5   34 1     
   17    6    7 1     
   18    6   35 1     
   19    6   36 1     
   20    7    8 1     
   21    7   37 1     
   22    8    9 am    
   23    8   38 1     
   24    9   10 2     
   25    9   11 1     
   26   11   12 1     
   27   11   39 1     
   28   11   40 1     
   29   12   23 am    
   30   12   13 am    
   31   13   14 2     
   32   13   15 1     
   33   15   16 1     
   34   15   18 2     
   35   16   17 3     
   36   18   19 1     
   37   18   41 1     
   38   19   20 1     
   39   19   23 am    
   40   20   22 1     
   41   20   21 1     
   42   20   42 1     
   43   21   22 1     
   44   21   43 1     
   45   21   44 1     
   46   22   45 1     
   47   22   46 1     
   48   23   24 2     
   49   10   47 1     
   50   10   48 1     
   51   14   49 1     
   52   14   50 1     
   53   17   51 1     
   54   24   52 1     
   55   24   53 1     
@<TRIPOS>SUBSTRUCTURE
      1 S1             1
@<TRIPOS>SET
LONE_PAIRS      STATIC     ATOMS    <user>   **** ""
7 47 48 49 50 51 52 53
DONOR_HYDROGENS      STATIC     ATOMS    <user>   **** ""
1 38
ATOM$BLUE        STATIC     ATOMS    COLORGROUP SYSTEM
7 47 48 49 50 51 52 53
ATOM$RED        STATIC     ATOMS    COLORGROUP SYSTEM
1 38
