#       Name:                AV-unprocessed.smi:2247
#       Creating user name   scv26
#       Creation time:       Fri Mar 27 12:29:24 2020


#       File generated by GOLD software.
#

@<TRIPOS>MOLECULE
AV-unprocessed.smi:2247
    41    42     1
SMALL
NO_CHARGES


@<TRIPOS>ATOM
      1 ****        -3.3703  -2.0316   2.5308 C.3            1 S1                 0.0000
      2 ****        -2.9304  -1.0837   1.4004 C.3            1 S1                 0.0000
      3 ****        -3.6366  -1.4052   0.0738 C.3            1 S1                 0.0000
      4 ****        -1.4734  -1.0683   1.2126 N.am           1 S1                 0.0000
      5 ****        -0.6451  -2.2398   1.4484 C.3            1 S1                 0.0000
      6 ****         0.7019  -1.8927   0.8088 C.3            1 S1                 0.0000
      7 ****         0.7398  -0.3592   0.7124 C.3            1 S1                 0.0000
      8 ****         1.3252   0.0470  -0.5647 N.am           1 S1                 0.0000
      9 ****         1.9183   1.2219  -0.8227 C.2            1 S1                 0.0000
     10 ****         2.0008   2.0767   0.0623 O.2            1 S1                 0.0000
     11 ****         2.3827   1.3301  -2.0881 N.pl3          1 S1                -1.0000
     12 ****         3.0105   2.4520  -2.4757 C.2            1 S1                 0.0000
     13 ****         2.4925   3.4324  -3.2176 N.2            1 S1                 0.0000
     14 ****         3.5035   4.3689  -3.3677 C.2            1 S1                 0.0000
     15 ****         4.6081   3.9037  -2.7078 C.2            1 S1                 0.0000
     16 ****         4.3108   2.6936  -2.1446 O.3            1 S1                 0.0000
     17 ****        -0.7512  -0.0247   0.7805 C.2            1 S1                 0.0000
     18 ****        -1.2016   1.0836   0.4898 O.2            1 S1                 0.0000
     19 ****        -4.4418  -1.9462   2.7127 H              1 S1                 0.0000
     20 ****        -2.8612  -1.7933   3.4653 H              1 S1                 0.0000
     21 ****        -3.1644  -3.0749   2.2904 H              1 S1                 0.0000
     22 ****        -3.2373  -0.0804   1.7015 H              1 S1                 0.0000
     23 ****        -4.7202  -1.3765   0.1901 H              1 S1                 0.0000
     24 ****        -3.3667  -2.3979  -0.2878 H              1 S1                 0.0000
     25 ****        -3.3710  -0.6851  -0.7009 H              1 S1                 0.0000
     26 ****        -0.5325  -2.3952   2.5222 H              1 S1                 0.0000
     27 ****        -1.0776  -3.1400   1.0102 H              1 S1                 0.0000
     28 ****         1.5411  -2.2884   1.3816 H              1 S1                 0.0000
     29 ****         0.7493  -2.3437  -0.1842 H              1 S1                 0.0000
     30 ****         1.2556   0.0758   1.5701 H              1 S1                 0.0000
     31 ****         1.2747  -0.6197  -1.3207 H              1 S1                 0.0000
     32 ****         3.3589   5.2814  -3.9268 H              1 S1                 0.0000
     33 ****         5.6076   4.2808  -2.5530 H              1 S1                 0.0000
     34 ****         1.6257   1.8934   0.9709 LP             1 S1                 0.0000
     35 ****         2.4428   2.9531  -0.1288 LP             1 S1                 0.0000
     36 ****         2.2589   0.5764  -2.7337 LP             1 S1                 0.0000
     37 ****         1.5654   3.4815  -3.5891 LP             1 S1                 0.0000
     38 ****         4.9050   1.9795  -2.5149 LP             1 S1                 0.0000
     39 ****         4.4175   2.7340  -1.1512 LP             1 S1                 0.0000
     40 ****        -2.1825   1.2611   0.5688 LP             1 S1                 0.0000
     41 ****        -0.5865   1.8063   0.1746 LP             1 S1                 0.0000
@<TRIPOS>BOND
    1    1    2 1     
    2    1   19 1     
    3    1   20 1     
    4    1   21 1     
    5    2    3 1     
    6    2    4 1     
    7    2   22 1     
    8    3   23 1     
    9    3   24 1     
   10    3   25 1     
   11    4   17 am    
   12    4    5 1     
   13    5    6 1     
   14    5   26 1     
   15    5   27 1     
   16    6    7 1     
   17    6   28 1     
   18    6   29 1     
   19    7    8 1     
   20    7   17 1     
   21    7   30 1     
   22    8    9 am    
   23    8   31 1     
   24    9   10 2     
   25    9   11 1     
   26   11   12 1     
   27   12   16 1     
   28   12   13 2     
   29   13   14 1     
   30   14   15 2     
   31   14   32 1     
   32   15   16 1     
   33   15   33 1     
   34   17   18 2     
   35   10   34 1     
   36   10   35 1     
   37   11   36 1     
   38   13   37 1     
   39   16   38 1     
   40   16   39 1     
   41   18   40 1     
   42   18   41 1     
@<TRIPOS>SUBSTRUCTURE
      1 S1             1
@<TRIPOS>SET
LONE_PAIRS      STATIC     ATOMS    <user>   **** ""
8 34 35 36 37 38 39 40 41
DONOR_HYDROGENS      STATIC     ATOMS    <user>   **** ""
1 31
ATOM$BLUE        STATIC     ATOMS    COLORGROUP SYSTEM
8 34 35 36 37 38 39 40 41
ATOM$RED        STATIC     ATOMS    COLORGROUP SYSTEM
1 31
