#       Name:                AV-unprocessed.smi:651
#       Creating user name   scv26
#       Creation time:       Fri Mar 27 00:11:21 2020


#       File generated by GOLD software.
#

@<TRIPOS>MOLECULE
AV-unprocessed.smi:651
    43    44     1
SMALL
NO_CHARGES


@<TRIPOS>ATOM
      1 ****        -3.4434   3.8729   1.6153 C.3            1 S1                 0.0000
      2 ****        -3.0276   2.4256   1.4587 C.ar           1 S1                 0.0000
      3 ****        -3.1080   1.7493   0.2226 C.ar           1 S1                 0.0000
      4 ****        -2.6945   0.4034   0.1459 C.ar           1 S1                 0.0000
      5 ****        -2.2053  -0.2392   1.3051 C.ar           1 S1                 0.0000
      6 ****        -1.7299  -1.6807   1.2505 C.3            1 S1                 0.0000
      7 ****        -0.2058  -1.7299   1.1375 C.2            1 S1                 0.0000
      8 ****         0.4701  -2.1052   2.0946 O.2            1 S1                 0.0000
      9 ****         0.3197  -1.3334  -0.0319 N.am           1 S1                 0.0000
     10 ****         1.7467  -1.2492  -0.3306 C.3            1 S1                 0.0000
     11 ****         2.4233  -0.0712   0.3935 C.3            1 S1                 0.0000
     12 ****         3.4666   0.4550  -0.5868 C.3            1 S1                 0.0000
     13 ****         2.8118   0.2724  -1.9532 C.3            1 S1                 0.0000
     14 ****         1.9778  -1.0192  -1.8484 C.3            1 S1                 0.0000
     15 ****         2.6745  -2.2161  -2.5171 C.2            1 S1                 0.0000
     16 ****         2.0042  -2.8491  -3.4833 N.am           1 S1                 0.0000
     17 ****         3.8023  -2.5628  -2.1704 O.2            1 S1                 0.0000
     18 ****        -2.1524   0.4867   2.5150 C.ar           1 S1                 0.0000
     19 ****        -2.5584   1.7748   2.5470 N.pl3          1 S1                 1.0000
     20 ****        -4.0668   4.1923   0.7796 H              1 S1                 0.0000
     21 ****        -2.5639   4.5163   1.6511 H              1 S1                 0.0000
     22 ****        -4.0118   4.0137   2.5350 H              1 S1                 0.0000
     23 ****        -3.4779   2.2542  -0.6580 H              1 S1                 0.0000
     24 ****        -2.7456  -0.1247  -0.7951 H              1 S1                 0.0000
     25 ****        -2.0535  -2.2073   2.1496 H              1 S1                 0.0000
     26 ****        -2.1792  -2.1981   0.4016 H              1 S1                 0.0000
     27 ****        -0.3139  -1.0481  -0.7640 H              1 S1                 0.0000
     28 ****         2.2248  -2.1764  -0.0064 H              1 S1                 0.0000
     29 ****         1.6981   0.7188   0.5956 H              1 S1                 0.0000
     30 ****         2.8612  -0.3653   1.3480 H              1 S1                 0.0000
     31 ****         3.7455   1.4903  -0.3886 H              1 S1                 0.0000
     32 ****         4.3703  -0.1529  -0.5252 H              1 S1                 0.0000
     33 ****         2.1485   1.1147  -2.1533 H              1 S1                 0.0000
     34 ****         3.5503   0.2520  -2.7561 H              1 S1                 0.0000
     35 ****         1.0289  -0.8494  -2.3615 H              1 S1                 0.0000
     36 ****         2.4173  -3.6431  -3.9505 H              1 S1                 0.0000
     37 ****         1.0810  -2.5312  -3.7410 H              1 S1                 0.0000
     38 ****        -1.7908   0.0814   3.4492 H              1 S1                 0.0000
     39 ****        -2.5056   2.2801   3.4319 H              1 S1                 0.0000
     40 ****         0.0227  -2.3780   2.9463 LP             1 S1                 0.0000
     41 ****         1.4669  -2.1374   2.0208 LP             1 S1                 0.0000
     42 ****         4.2778  -2.0646  -1.4453 LP             1 S1                 0.0000
     43 ****         4.2439  -3.3429  -2.6135 LP             1 S1                 0.0000
@<TRIPOS>BOND
    1    1    2 1     
    2    1   20 1     
    3    1   21 1     
    4    1   22 1     
    5    2   19 ar    
    6    2    3 ar    
    7    3    4 ar    
    8    3   23 1     
    9    4    5 ar    
   10    4   24 1     
   11    5    6 1     
   12    5   18 ar    
   13    6    7 1     
   14    6   25 1     
   15    6   26 1     
   16    7    8 2     
   17    7    9 am    
   18    9   10 1     
   19    9   27 1     
   20   10   14 1     
   21   10   11 1     
   22   10   28 1     
   23   11   12 1     
   24   11   29 1     
   25   11   30 1     
   26   12   13 1     
   27   12   31 1     
   28   12   32 1     
   29   13   14 1     
   30   13   33 1     
   31   13   34 1     
   32   14   15 1     
   33   14   35 1     
   34   15   16 am    
   35   15   17 2     
   36   16   36 1     
   37   16   37 1     
   38   18   19 ar    
   39   18   38 1     
   40   19   39 1     
   41    8   40 1     
   42    8   41 1     
   43   17   42 1     
   44   17   43 1     
@<TRIPOS>SUBSTRUCTURE
      1 S1             1
@<TRIPOS>SET
LONE_PAIRS      STATIC     ATOMS    <user>   **** ""
4 40 41 42 43
DONOR_HYDROGENS      STATIC     ATOMS    <user>   **** ""
4 27 36 37 39
ATOM$BLUE        STATIC     ATOMS    COLORGROUP SYSTEM
4 40 41 42 43
ATOM$RED        STATIC     ATOMS    COLORGROUP SYSTEM
4 27 36 37 39
