AV-unprocessed.smi:855|AV-procd|sdf|3956|dock3
  -GOLD-   22720 1423D 1   1.00000     0.00000
 Structure written by MMmdl.
 36 37  0  0  0  0  0  0  0  0  2 V2000
  153.5524  137.7662  157.0093 C   0  0  0  0  0  0  0  0  0  0  0  0
  152.5209  138.2228  156.0353 C   0  0  0  0  0  0  0  0  0  0  0  0
  151.5812  137.5599  155.2968 C   0  0  0  0  0  0  0  0  0  0  0  0
  150.9368  138.6067  154.5856 C   0  0  0  0  0  0  0  0  0  0  0  0
  149.8730  138.3311  153.6888 N   0  0  0  0  0  0  0  0  0  0  0  0
  148.7049  138.9868  153.5793 C   0  0  0  0  0  0  0  0  0  0  0  0
  148.3690  139.9591  154.2562 O   0  0  0  0  0  0  0  0  0  0  0  0
  147.9273  138.4478  152.6289 N   0  0  0  0  0  0  0  0  0  0  0  0
  146.6054  138.9390  152.2575 C   0  0  0  0  0  0  0  0  0  0  0  0
  145.5661  137.8030  152.2131 C   0  0  0  0  0  0  0  0  0  0  0  0
  146.1902  136.4952  151.9065 N   0  3  0  0  0  0  0  0  0  0  0  0
  146.1784  135.5110  153.0163 C   0  0  0  0  0  0  0  0  0  0  0  0
  145.8144  134.1514  152.4042 C   0  0  0  0  0  0  0  0  0  0  0  0
  145.9766  134.3495  150.9007 C   0  0  0  0  0  0  0  0  0  0  0  0
  145.6347  135.8240  150.7144 C   0  0  0  0  0  0  0  0  0  0  0  0
  151.4390  139.8003  154.8625 N   0  0  0  0  0  0  0  0  0  0  0  0
  152.4576  139.5602  155.7922 O   0  0  0  0  0  0  0  0  0  0  0  0
  153.2829  136.7998  157.4360 H   0  0  0  0  0  0  0  0  0  0  0  0
  153.6570  138.4782  157.8282 H   0  0  0  0  0  0  0  0  0  0  0  0
  154.5227  137.6634  156.5237 H   0  0  0  0  0  0  0  0  0  0  0  0
  151.3880  136.4976  155.2734 H   0  0  0  0  0  0  0  0  0  0  0  0
  150.0172  137.5497  153.0667 H   0  0  0  0  0  0  0  0  0  0  0  0
  148.2801  137.6513  152.1182 H   0  0  0  0  0  0  0  0  0  0  0  0
  146.2907  139.7180  152.9541 H   0  0  0  0  0  0  0  0  0  0  0  0
  146.6927  139.4144  151.2805 H   0  0  0  0  0  0  0  0  0  0  0  0
  145.0202  137.7415  153.1558 H   0  0  0  0  0  0  0  0  0  0  0  0
  144.8288  138.0183  151.4382 H   0  0  0  0  0  0  0  0  0  0  0  0
  147.1678  135.4850  153.4739 H   0  0  0  0  0  0  0  0  0  0  0  0
  145.4614  135.7786  153.7941 H   0  0  0  0  0  0  0  0  0  0  0  0
  146.4305  133.3379  152.7888 H   0  0  0  0  0  0  0  0  0  0  0  0
  144.7738  133.9146  152.6310 H   0  0  0  0  0  0  0  0  0  0  0  0
  147.0128  134.1684  150.6111 H   0  0  0  0  0  0  0  0  0  0  0  0
  145.3398  133.6873  150.3132 H   0  0  0  0  0  0  0  0  0  0  0  0
  144.5505  135.9488  150.6911 H   0  0  0  0  0  0  0  0  0  0  0  0
  146.0435  136.2372  149.7916 H   0  0  0  0  0  0  0  0  0  0  0  0
  147.1619  136.6712  151.6935 H   0  0  0  0  0  0  0  0  0  0  0  0
  1  2  1  0  0  0  0
  1 18  1  0  0  0  0
  1 19  1  0  0  0  0
  1 20  1  0  0  0  0
  2 17  1  0  0  0  0
  2  3  2  0  0  0  0
  3  4  1  0  0  0  0
  3 21  1  0  0  0  0
  4  5  1  0  0  0  0
  4 16  2  0  0  0  0
  5  6  1  0  0  0  0
  5 22  1  0  0  0  0
  6  7  2  0  0  0  0
  6  8  1  0  0  0  0
  8  9  1  0  0  0  0
  8 23  1  0  0  0  0
  9 10  1  0  0  0  0
  9 24  1  0  0  0  0
  9 25  1  0  0  0  0
 10 11  1  0  0  0  0
 10 26  1  0  0  0  0
 10 27  1  0  0  0  0
 11 15  1  0  0  0  0
 11 12  1  0  0  0  0
 11 36  1  0  0  0  0
 12 13  1  0  0  0  0
 12 28  1  0  0  0  0
 12 29  1  0  0  0  0
 13 14  1  0  0  0  0
 13 30  1  0  0  0  0
 13 31  1  0  0  0  0
 14 15  1  0  0  0  0
 14 32  1  0  0  0  0
 14 33  1  0  0  0  0
 15 34  1  0  0  0  0
 15 35  1  0  0  0  0
 16 17  1  0  0  0  0
M  CHG  1  11   1
M  END
> <s_m_source_file>
AV-unprocessed.smi

> <i_m_source_file_index>
855

> <i_lp_mmshare_version>
43012

> <i_f3d_flags>
0

> <s_epik_input>
W0NIM11jMVtjSF1jKG5vMSlbTkhdQyg9TylbTkhdW0NIMl1bQ0gyXU4yW0NIMl1bQ0gyXVtDSDJdW0NIMl0y

> <s_epik_cmdline>
J2VwaWtfcHl0aG9uJywgJy1waCcsICc3LjAnLCAnLXRuJywgJzgnLCAnLW1hJywgJzIwMCcsICctbWV0YWxfYmluZGluZycsICctaW1hZScsICc8aW5maWxlLm1hZT4nLCAnLW9tYWUnLCAnPG91dGZpbGUubWFlPic=

> <r_epik_Ionization_Penalty>
0.00243703

> <r_epik_Ionization_Penalty_Charging>
0.00240122

> <r_epik_Ionization_Penalty_Neutral>
3.58091e-05

> <r_epik_State_Penalty>
0.00166069

> <r_epik_Charging_Adjusted_Penalty>
0.00406191

> <i_epik_Tot_Q>
1

> <i_epik_Tot_abs_Q>
1

> <r_epik_Metal_State_Penalty>
0.021664

> <b_epik_Metal_Only>
0

> <s_lp_Force_Field>
OPLS_2005

> <r_lp_Energy>
23.058

> <b_lp_Chiralities_Consistent>
1

> <s_lp_Variant>
AV-unprocessed.smi:855-1

> <Gold.Version>
5.8.1

> <Gold.Id.Protein>
6NUR|6NUR_protein|mol2

> <Gold.PLP.Fitness>
42.4125

> <Gold.PLP.PLP>
-27.7150

> <Gold.PLP.part.hbond>
-7.0000

> <Gold.PLP.part.metal>
0.0000

> <Gold.PLP.part.buried>
0.5641

> <Gold.PLP.part.nonpolar>
-22.1907

> <Gold.PLP.part.repulsive>
0.3628

> <Gold.PLP.ligand.clash>
0.0000

> <Gold.PLP.ligand.torsion>
1.3679

> <Gold.PLP.Chemscore.Hbond>
5.8056

> <Gold.PLP.Chemscore.CHOScore>
0.0000

> <Gold.PLP.Chemscore.Metal>
0.0000

> <Gold.Chemscore.Hbonds>
donor molecule, donor type, donor heavy atom, donor atom, acceptor molecule, acceptor atom, score
      L1  H     5    22       P1  7948  0.85
      L1  H     8    23       P1  7948  1.00
      L1  H    11    36       P1  7948  2.00
      P1  H  7989  7998       L1    16  1.00
      P1  H  7997  8009       L1    17  0.96

> <Gold.PLP.Chemscore.Internal.Correction>
0.0165

> <Gold.Rescore>
     Score         DG    S(hbond)    S(metal)    S(lipo)     H(rot)  DE(clash)    DE(int)     intcor
     18.29     -20.23       4.03        0.00      46.02       1.60       0.57       1.37       ----

> <Gold.Chemscore.Fitness>
18.2916

> <Gold.Chemscore.DG>
-20.2340

> <Gold.Chemscore.ZeroCoef>
-5.4800

> <Gold.Chemscore.Hbond>
4.0330

> <Gold.Chemscore.Metal>
0.0000

> <Gold.Chemscore.Lipo>
46.0223

> <Gold.Chemscore.Internal_Hbond>
0.0000

> <Gold.Chemscore.DEClash>
0.5697

> <Gold.Chemscore.DEInternal>
1.3727

> <Gold.Chemscore.Rot>
1.6019

> <Gold.Chemscore.Internal.Correction>
   9.000000E+99

> <Gold.Chemscore.Hbonds>
donor molecule, donor type, donor heavy atom, donor atom, acceptor molecule, acceptor atom, score
      L1  H     5    22       P1  7948  0.20
      L1  H     8    23       P1  7948  0.96
      L1  H    11    36       P1  7948  0.95
      P1  H  7989  7998       L1    16  0.91
      P1  H  7997  8009       L1    17  0.41

> <Gold.Chemscore.Hbond.Weighted>
-13.4704

> <Gold.Chemscore.Metal.Weighted>
-0.0000

> <Gold.Chemscore.Lipo.Weighted>
-5.3846

> <Gold.Chemscore.Internal_Hbond.Weighted>
0.0000

> <Gold.Chemscore.DEClash.Weighted>
0.5697

> <Gold.Chemscore.DEInternal.Weighted>
1.3727

> <Gold.Chemscore.Rot.Weighted>
4.1009

> <Gold.Chemscore.Internal.Correction.Weighted>
   9.000000E+99

> <Gold.Protein.RotatedTorsions>
[ 6907 6896 6895 6894 ] final   97.15 input  -60.11 | X-H torsion
[ 7974 7965 7964 7962 ] final  -28.42 input  175.53 | X-H torsion
[ 8008 7997 7996 7995 ] final -142.52 input   59.86 | X-H torsion
[ 10167 10162 10161 10158 ] final  148.84 input  -65.29 | X-H torsion
[ 10718 10713 10712 10709 ] final    0.42 input   66.30 | X-H torsion
[ 10763 10752 10751 10750 ] final   91.03 input  -60.55 | X-H torsion
[ 11005 11000 10999 10996 ] final  -69.19 input  -57.11 | X-H torsion

> <Gold.Protein.ActiveResidues>
 VAL166  LYS551  ARG553  GLY616  TRP617  ASP618  TYR619  PRO620  LYS621  CYS622 
 ASP623  PHE694  ASN695  SER759  ASP760  ASP761  ALA762  ILE779  LEU786  VAL792 
 PHE793  MET794  SER795  GLU796  ALA797  LYS798  CYS799  TRP800  GLU811  SER814 

> <Gold.Protein.RotatedAtoms>
  152.5427  134.0777  159.8221 H   0  0  0  0  0  0  0  0  0  0  0  0  # atno 6907 bound_to 6896
  151.0883  133.5328  159.2624 H   0  0  0  0  0  0  0  0  0  0  0  0  # atno 6908 bound_to 6896
  151.2130  135.0497  159.8973 H   0  0  0  0  0  0  0  0  0  0  0  0  # atno 6909 bound_to 6896
  146.1289  140.5280  142.8702 H   0  0  0  0  0  0  0  0  0  0  0  0  # atno 7974 bound_to 7965
  155.4956  140.0571  157.2947 H   0  0  0  0  0  0  0  0  0  0  0  0  # atno 8008 bound_to 7997
  154.4606  140.1994  156.0205 H   0  0  0  0  0  0  0  0  0  0  0  0  # atno 8009 bound_to 7997
  156.0883  140.3237  155.7787 H   0  0  0  0  0  0  0  0  0  0  0  0  # atno 8010 bound_to 7997
  139.4869  144.5648  151.7164 H   0  0  0  0  0  0  0  0  0  0  0  0  # atno 10167 bound_to 10162
  156.8331  130.5495  149.5685 H   0  0  0  0  0  0  0  0  0  0  0  0  # atno 10718 bound_to 10713
  153.2039  135.4412  155.0300 H   0  0  0  0  0  0  0  0  0  0  0  0  # atno 10763 bound_to 10752
  154.8163  135.3316  154.7170 H   0  0  0  0  0  0  0  0  0  0  0  0  # atno 10764 bound_to 10752
  153.7613  135.6991  153.4980 H   0  0  0  0  0  0  0  0  0  0  0  0  # atno 10765 bound_to 10752
  141.1549  133.6758  156.6562 H   0  0  0  0  0  0  0  0  0  0  0  0  # atno 11005 bound_to 11000
  144.7670  140.5553  143.6696 LP  0  0  0  0  0  0  0  0  0  0  0  0  # atno 17320 bound_to 7965
  145.5304  139.1475  143.3503 LP  0  0  0  0  0  0  0  0  0  0  0  0  # atno 17321 bound_to 7965
  140.5225  144.0857  150.6027 LP  0  0  0  0  0  0  0  0  0  0  0  0  # atno 17342 bound_to 10162
  140.3820  143.2798  152.0159 LP  0  0  0  0  0  0  0  0  0  0  0  0  # atno 17343 bound_to 10162
  156.0923  130.5905  150.9753 LP  0  0  0  0  0  0  0  0  0  0  0  0  # atno 17370 bound_to 10713
  157.6396  131.0912  150.8278 LP  0  0  0  0  0  0  0  0  0  0  0  0  # atno 17371 bound_to 10713
  140.3282  134.7951  157.4306 LP  0  0  0  0  0  0  0  0  0  0  0  0  # atno 17394 bound_to 11000
  140.1039  134.5436  155.8327 LP  0  0  0  0  0  0  0  0  0  0  0  0  # atno 17395 bound_to 11000

$$$$
