#       Name:                AV-unprocessed.smi:637
#       Creating user name   scv26
#       Creation time:       Fri Mar 27 00:06:55 2020


#       File generated by GOLD software.
#

@<TRIPOS>MOLECULE
AV-unprocessed.smi:637
    43    45     1
SMALL
NO_CHARGES


@<TRIPOS>ATOM
      1 ****        -4.3273   3.6754  -1.1357 C.3            1 S1                 0.0000
      2 ****        -3.2005   2.6991  -1.1535 C.2            1 S1                 0.0000
      3 ****        -1.8576   2.9688  -1.2581 C.2            1 S1                 0.0000
      4 ****        -1.0412   1.7989  -1.2409 C.2            1 S1                 0.0000
      5 ****        -1.7919   0.6531  -1.1253 C.2            1 S1                 0.0000
      6 ****        -1.1678  -0.6585  -1.0686 C.2            1 S1                 0.0000
      7 ****        -1.9539  -1.8674  -0.8922 C.2            1 S1                 0.0000
      8 ****        -1.3216  -3.0573  -0.8006 C.2            1 S1                 0.0000
      9 ****         0.1343  -3.1638  -0.8716 C.2            1 S1                 0.0000
     10 ****         0.7403  -4.2286  -0.7562 O.2            1 S1                 0.0000
     11 ****         0.7634  -1.9681  -1.0624 N.am           1 S1                 0.0000
     12 ****         2.2296  -1.8796  -1.0995 C.3            1 S1                 0.0000
     13 ****         2.8560  -1.8288   0.3140 C.3            1 S1                 0.0000
     14 ****         4.2553  -1.6863   0.1794 O.3            1 S1                 0.0000
     15 ****         2.2475  -0.7388   1.1876 C.ar           1 S1                 0.0000
     16 ****         2.5516   0.6205   0.9527 C.ar           1 S1                 0.0000
     17 ****         1.9468   1.6278   1.7291 C.ar           1 S1                 0.0000
     18 ****         1.0350   1.2820   2.7447 C.ar           1 S1                 0.0000
     19 ****         0.7293  -0.0713   2.9847 C.ar           1 S1                 0.0000
     20 ****        -0.1514  -0.4039   3.9578 F              1 S1                 0.0000
     21 ****         1.3346  -1.0790   2.2093 C.ar           1 S1                 0.0000
     22 ****         0.1194  -0.7475  -1.1688 N.2            1 S1                 0.0000
     23 ****        -3.5001   0.9824  -1.0306 S.3            1 S1                 0.0000
     24 ****        -3.9591   4.7016  -1.1321 H              1 S1                 0.0000
     25 ****        -4.9447   3.5370  -0.2479 H              1 S1                 0.0000
     26 ****        -4.9625   3.5481  -2.0124 H              1 S1                 0.0000
     27 ****        -1.4351   3.9591  -1.3432 H              1 S1                 0.0000
     28 ****         0.0358   1.8572  -1.3092 H              1 S1                 0.0000
     29 ****        -3.0308  -1.8172  -0.8337 H              1 S1                 0.0000
     30 ****        -1.9059  -3.9560  -0.6685 H              1 S1                 0.0000
     31 ****         2.6460  -2.7144  -1.6664 H              1 S1                 0.0000
     32 ****         2.5180  -0.9854  -1.6560 H              1 S1                 0.0000
     33 ****         2.6904  -2.7895   0.8032 H              1 S1                 0.0000
     34 ****         4.6476  -1.7699   1.0352 H              1 S1                 0.0000
     35 ****         3.2392   0.8948   0.1660 H              1 S1                 0.0000
     36 ****         2.1784   2.6658   1.5419 H              1 S1                 0.0000
     37 ****         0.5687   2.0548   3.3377 H              1 S1                 0.0000
     38 ****         1.0832  -2.1137   2.3913 H              1 S1                 0.0000
     39 ****         0.2345  -5.0780  -0.6057 LP             1 S1                 0.0000
     40 ****         1.7386  -4.2445  -0.8130 LP             1 S1                 0.0000
     41 ****         4.4679  -0.7872  -0.2032 LP             1 S1                 0.0000
     42 ****         4.6106  -2.3986  -0.4260 LP             1 S1                 0.0000
     43 ****         0.6583   0.0801  -1.3259 LP             1 S1                 0.0000
@<TRIPOS>BOND
    1    1    2 1     
    2    1   24 1     
    3    1   25 1     
    4    1   26 1     
    5    2   23 1     
    6    2    3 2     
    7    3    4 1     
    8    3   27 1     
    9    4    5 2     
   10    4   28 1     
   11    5    6 1     
   12    5   23 1     
   13    6   22 2     
   14    6    7 1     
   15    7    8 2     
   16    7   29 1     
   17    8    9 1     
   18    8   30 1     
   19    9   10 2     
   20    9   11 am    
   21   11   12 1     
   22   11   22 1     
   23   12   13 1     
   24   12   31 1     
   25   12   32 1     
   26   13   14 1     
   27   13   15 1     
   28   13   33 1     
   29   14   34 1     
   30   15   21 ar    
   31   15   16 ar    
   32   16   17 ar    
   33   16   35 1     
   34   17   18 ar    
   35   17   36 1     
   36   18   19 ar    
   37   18   37 1     
   38   19   20 1     
   39   19   21 ar    
   40   21   38 1     
   41   10   39 1     
   42   10   40 1     
   43   14   41 1     
   44   14   42 1     
   45   22   43 1     
@<TRIPOS>SUBSTRUCTURE
      1 S1             1
@<TRIPOS>SET
LONE_PAIRS      STATIC     ATOMS    <user>   **** ""
5 39 40 41 42 43
DONOR_HYDROGENS      STATIC     ATOMS    <user>   **** ""
1 34
ATOM$BLUE        STATIC     ATOMS    COLORGROUP SYSTEM
5 39 40 41 42 43
ATOM$RED        STATIC     ATOMS    COLORGROUP SYSTEM
1 34
