AV-unprocessed.smi:2919|AV-procd|sdf|11194|dock1
  -GOLD-   2272016 83D 1   1.00000     0.00000
 Structure written by MMmdl.
 34 36  0  0  0  0  0  0  0  0  1 V2000
  152.5195  143.6378  161.8439 C   0  0  0  0  0  0  0  0  0  0  0  0
  151.9074  143.2350  160.5139 C   0  0  0  0  0  0  0  0  0  0  0  0
  150.8617  143.9918  160.1151 N   0  0  0  0  0  0  0  0  0  0  0  0
  150.2401  143.7335  158.9638 N   0  0  0  0  0  0  0  0  0  0  0  0
  150.6418  142.7125  158.1689 C   0  0  0  0  0  0  0  0  0  0  0  0
  149.9354  142.5020  156.9705 N   0  0  0  0  0  0  0  0  0  0  0  0
  149.3653  141.1951  156.6569 C   0  0  2  0  0  0  0  0  0  0  0  0
  149.9002  140.6101  155.3478 C   0  0  0  0  0  0  0  0  0  0  0  0
  148.6036  140.3085  154.5832 C   0  0  2  0  0  0  0  0  0  0  0  0
  147.9565  141.5906  154.0435 C   0  0  0  0  0  0  0  0  0  0  0  0
  147.4104  142.2239  155.3216 C   0  0  0  0  0  0  0  0  0  0  0  0
  147.8459  141.2079  156.3917 C   0  0  1  0  0  0  0  0  0  0  0  0
  147.7231  140.0046  155.6524 O   0  0  0  0  0  0  0  0  0  0  0  0
  151.7310  141.8760  158.5264 C   0  0  0  0  0  0  0  0  0  0  0  0
  152.1599  140.7765  157.6641 C   0  0  0  0  0  0  0  0  0  0  0  0
  152.4995  139.9064  156.9811 N   0  0  0  0  0  0  0  0  0  0  0  0
  152.3951  142.1475  159.7490 C   0  0  0  0  0  0  0  0  0  0  0  0
  153.5790  141.3024  160.2128 C   0  0  0  0  0  0  0  0  0  0  0  0
  152.4662  142.8121  162.5539 H   0  0  0  0  0  0  0  0  0  0  0  0
  151.9977  144.4890  162.2834 H   0  0  0  0  0  0  0  0  0  0  0  0
  153.5644  143.9199  161.7128 H   0  0  0  0  0  0  0  0  0  0  0  0
  149.5350  143.3056  156.5081 H   0  0  0  0  0  0  0  0  0  0  0  0
  149.5903  140.4965  157.4642 H   0  0  0  0  0  0  0  0  0  0  0  0
  150.5511  141.2886  154.7945 H   0  0  0  0  0  0  0  0  0  0  0  0
  150.4581  139.6938  155.5446 H   0  0  0  0  0  0  0  0  0  0  0  0
  148.7014  139.5163  153.8405 H   0  0  0  0  0  0  0  0  0  0  0  0
  148.6711  142.2305  153.5248 H   0  0  0  0  0  0  0  0  0  0  0  0
  147.1436  141.3568  153.3550 H   0  0  0  0  0  0  0  0  0  0  0  0
  147.7966  143.2276  155.4991 H   0  0  0  0  0  0  0  0  0  0  0  0
  146.3226  142.2874  155.2762 H   0  0  0  0  0  0  0  0  0  0  0  0
  147.2385  141.2357  157.2968 H   0  0  0  0  0  0  0  0  0  0  0  0
  154.3712  141.3196  159.4637 H   0  0  0  0  0  0  0  0  0  0  0  0
  153.2678  140.2673  160.3571 H   0  0  0  0  0  0  0  0  0  0  0  0
  154.0144  141.6453  161.1495 H   0  0  0  0  0  0  0  0  0  0  0  0
  1  2  1  0  0  0  0
  1 19  1  0  0  0  0
  1 20  1  0  0  0  0
  1 21  1  0  0  0  0
  2 17  1  0  0  0  0
  2  3  2  0  0  0  0
  3  4  1  0  0  0  0
  4  5  2  0  0  0  0
  5  6  1  0  0  0  0
  5 14  1  0  0  0  0
  6  7  1  0  0  0  0
  6 22  1  0  0  0  0
  7 12  1  0  0  0  0
  7  8  1  0  0  0  0
  7 23  1  0  0  0  0
  8  9  1  0  0  0  0
  8 24  1  0  0  0  0
  8 25  1  0  0  0  0
  9 13  1  0  0  0  0
  9 10  1  0  0  0  0
  9 26  1  0  0  0  0
 10 11  1  0  0  0  0
 10 27  1  0  0  0  0
 10 28  1  0  0  0  0
 11 12  1  0  0  0  0
 11 29  1  0  0  0  0
 11 30  1  0  0  0  0
 12 13  1  0  0  0  0
 12 31  1  0  0  0  0
 14 15  1  0  0  0  0
 14 17  2  0  0  0  0
 15 16  3  0  0  0  0
 17 18  1  0  0  0  0
 18 32  1  0  0  0  0
 18 33  1  0  0  0  0
 18 34  1  0  0  0  0
M  END
> <s_m_source_file>
AV-unprocessed.smi

> <i_m_source_file_index>
2919

> <i_lp_mmshare_version>
43012

> <i_f3d_flags>
0

> <s_epik_input>
W0NIM11jMW5uYyhjKEMjTiljMVtDSDNdKVtOSF1bQ0BIXShbQ0gyXVtDQEBIXTIzKVtDQEBIXShPMylbQ0gyXVtDSDJdMg==

> <s_epik_cmdline>
J2VwaWtfcHl0aG9uJywgJy1waCcsICc3LjAnLCAnLXRuJywgJzgnLCAnLW1hJywgJzIwMCcsICctbWV0YWxfYmluZGluZycsICctaW1hZScsICc8aW5maWxlLm1hZT4nLCAnLW9tYWUnLCAnPG91dGZpbGUubWFlPic=

> <r_lp_tautomer_probability>
1

> <r_epik_Ionization_Penalty>
0.00143865

> <r_epik_Ionization_Penalty_Charging>
0

> <r_epik_Ionization_Penalty_Neutral>
0.00143865

> <r_epik_State_Penalty>
-0

> <r_epik_Charging_Adjusted_Penalty>
0

> <i_epik_Tot_Q>
0

> <i_epik_Tot_abs_Q>
0

> <r_epik_Metal_State_Penalty>
-0

> <b_epik_Metal_Only>
0

> <s_lp_Force_Field>
OPLS_2005

> <r_lp_Energy>
49.1594

> <b_lp_Chiralities_Consistent>
1

> <s_lp_Variant>
AV-unprocessed.smi:2919-3

> <Gold.Version>
5.8.1

> <Gold.Id.Protein>
6NUR|6NUR_protein|mol2

> <Gold.PLP.Fitness>
37.8642

> <Gold.PLP.PLP>
-32.8466

> <Gold.PLP.part.hbond>
-2.0000

> <Gold.PLP.part.metal>
0.0000

> <Gold.PLP.part.buried>
-2.9846

> <Gold.PLP.part.nonpolar>
-27.6527

> <Gold.PLP.part.repulsive>
0.2719

> <Gold.PLP.ligand.clash>
0.0037

> <Gold.PLP.ligand.torsion>
0.4962

> <Gold.PLP.Chemscore.Hbond>
2.0000

> <Gold.PLP.Chemscore.CHOScore>
0.0000

> <Gold.PLP.Chemscore.Metal>
0.0000

> <Gold.Chemscore.Hbonds>
donor molecule, donor type, donor heavy atom, donor atom, acceptor molecule, acceptor atom, score
      L1  H     6    22       P1  8028  1.00
      P1  H  7997  8008       L1    16  1.00

> <Gold.PLP.Chemscore.Internal.Correction>
0.0136

> <Gold.Rescore>
     Score         DG    S(hbond)    S(metal)    S(lipo)     H(rot)  DE(clash)    DE(int)     intcor
     17.83     -19.52       1.96        0.00      85.99       1.00       0.13       1.55       ----

> <Gold.Chemscore.Fitness>
17.8350

> <Gold.Chemscore.DG>
-19.5214

> <Gold.Chemscore.ZeroCoef>
-5.4800

> <Gold.Chemscore.Hbond>
1.9584

> <Gold.Chemscore.Metal>
0.0000

> <Gold.Chemscore.Lipo>
85.9855

> <Gold.Chemscore.Internal_Hbond>
0.0000

> <Gold.Chemscore.DEClash>
0.1338

> <Gold.Chemscore.DEInternal>
1.5526

> <Gold.Chemscore.Rot>
1.0000

> <Gold.Chemscore.Internal.Correction>
   9.000000E+99

> <Gold.Chemscore.Hbonds>
donor molecule, donor type, donor heavy atom, donor atom, acceptor molecule, acceptor atom, score
      L1  H     6    22       P1  8028  1.00
      P1  H  7997  8008       L1    16  0.70

> <Gold.Chemscore.Hbond.Weighted>
-6.5411

> <Gold.Chemscore.Metal.Weighted>
-0.0000

> <Gold.Chemscore.Lipo.Weighted>
-10.0603

> <Gold.Chemscore.Internal_Hbond.Weighted>
0.0000

> <Gold.Chemscore.DEClash.Weighted>
0.1338

> <Gold.Chemscore.DEInternal.Weighted>
1.5526

> <Gold.Chemscore.Rot.Weighted>
2.5600

> <Gold.Chemscore.Internal.Correction.Weighted>
   9.000000E+99

> <Gold.Protein.RotatedTorsions>
[ 6907 6896 6895 6894 ] final   38.46 input  -60.11 | X-H torsion
[ 7974 7965 7964 7962 ] final  123.17 input  175.53 | X-H torsion
[ 8008 7997 7996 7995 ] final  -58.93 input   59.86 | X-H torsion
[ 10167 10162 10161 10158 ] final   73.86 input  -65.29 | X-H torsion
[ 10718 10713 10712 10709 ] final -178.31 input   66.30 | X-H torsion
[ 10763 10752 10751 10750 ] final -118.63 input  -60.55 | X-H torsion
[ 11005 11000 10999 10996 ] final  -72.23 input  -57.11 | X-H torsion

> <Gold.Protein.ActiveResidues>
 VAL166  LYS551  ARG553  GLY616  TRP617  ASP618  TYR619  PRO620  LYS621  CYS622 
 ASP623  PHE694  ASN695  SER759  ASP760  ASP761  ALA762  ILE779  LEU786  VAL792 
 PHE793  MET794  SER795  GLU796  ALA797  LYS798  CYS799  TRP800  GLU811  SER814 

> <Gold.Protein.RotatedAtoms>
  152.1568  134.8944  160.0544 H   0  0  0  0  0  0  0  0  0  0  0  0  # atno 6907 bound_to 6896
  151.9955  133.3801  159.4169 H   0  0  0  0  0  0  0  0  0  0  0  0  # atno 6908 bound_to 6896
  150.6882  134.3812  159.5079 H   0  0  0  0  0  0  0  0  0  0  0  0  # atno 6909 bound_to 6896
  145.0991  139.3531  143.4821 H   0  0  0  0  0  0  0  0  0  0  0  0  # atno 7974 bound_to 7965
  154.4330  140.1073  156.6035 H   0  0  0  0  0  0  0  0  0  0  0  0  # atno 8008 bound_to 7997
  155.5885  140.3492  155.4541 H   0  0  0  0  0  0  0  0  0  0  0  0  # atno 8009 bound_to 7997
  156.0264  140.1251  157.0293 H   0  0  0  0  0  0  0  0  0  0  0  0  # atno 8010 bound_to 7997
  140.0199  144.5548  150.7590 H   0  0  0  0  0  0  0  0  0  0  0  0  # atno 10167 bound_to 10162
  156.8424  130.9691  151.3099 H   0  0  0  0  0  0  0  0  0  0  0  0  # atno 10718 bound_to 10713
  154.8593  135.4267  154.2170 H   0  0  0  0  0  0  0  0  0  0  0  0  # atno 10763 bound_to 10752
  153.3183  135.6980  153.7059 H   0  0  0  0  0  0  0  0  0  0  0  0  # atno 10764 bound_to 10752
  153.6124  135.3517  155.2957 H   0  0  0  0  0  0  0  0  0  0  0  0  # atno 10765 bound_to 10752
  141.1605  133.6840  156.7027 H   0  0  0  0  0  0  0  0  0  0  0  0  # atno 11005 bound_to 11000
  146.3530  140.0860  142.8615 LP  0  0  0  0  0  0  0  0  0  0  0  0  # atno 17320 bound_to 7965
  145.0977  140.9325  143.4731 LP  0  0  0  0  0  0  0  0  0  0  0  0  # atno 17321 bound_to 7965
  140.7347  143.2731  151.3824 LP  0  0  0  0  0  0  0  0  0  0  0  0  # atno 17342 bound_to 10162
  139.6147  144.1028  152.2333 LP  0  0  0  0  0  0  0  0  0  0  0  0  # atno 17343 bound_to 10162
  157.6348  130.8758  149.9340 LP  0  0  0  0  0  0  0  0  0  0  0  0  # atno 17370 bound_to 10713
  156.0873  130.3667  150.0462 LP  0  0  0  0  0  0  0  0  0  0  0  0  # atno 17371 bound_to 10713
  140.2947  134.8212  157.4046 LP  0  0  0  0  0  0  0  0  0  0  0  0  # atno 17394 bound_to 11000
  140.1315  134.5088  155.8101 LP  0  0  0  0  0  0  0  0  0  0  0  0  # atno 17395 bound_to 11000

$$$$
