AV-unprocessed.smi:232|AV-procd|sdf|1773|dock10
  -GOLD-   2262020313D 1   1.00000     0.00000
 Structure written by MMmdl.
 52 55  0  0  0  0  0  0  0  0  1 V2000
  154.3087  139.2247  160.5851 C   0  0  0  0  0  0  0  0  0  0  0  0
  153.0657  139.6549  159.7967 C   0  0  0  0  0  0  0  0  0  0  0  0
  153.1642  141.0926  159.2462 C   0  0  2  0  0  0  0  0  0  0  0  0
  153.4062  142.1592  160.3235 C   0  0  0  0  0  0  0  0  0  0  0  0
  152.6968  143.4136  159.7989 C   0  0  0  0  0  0  0  0  0  0  0  0
  152.0601  142.9770  158.4733 C   0  0  2  0  0  0  0  0  0  0  0  0
  150.7215  143.6750  158.1782 C   0  0  0  0  0  0  0  0  0  0  0  0
  151.9432  141.5279  158.5770 N   0  0  0  0  0  0  0  0  0  0  0  0
  151.6367  140.8973  157.4190 C   0  0  0  0  0  0  0  0  0  0  0  0
  152.5777  140.1763  156.7527 N   0  0  0  0  0  0  0  0  0  0  0  0
  152.2592  139.5583  155.6108 C   0  0  0  0  0  0  0  0  0  0  0  0
  151.0858  139.5317  154.9741 N   0  0  0  0  0  0  0  0  0  0  0  0
  150.1438  140.2585  155.6417 C   0  0  0  0  0  0  0  0  0  0  0  0
  150.3351  140.9686  156.8590 C   0  0  0  0  0  0  0  0  0  0  0  0
  149.1552  141.5948  157.2396 N   0  0  0  0  0  0  0  0  0  0  0  0
  148.3105  141.2723  156.2980 C   0  0  0  0  0  0  0  0  0  0  0  0
  148.8196  140.4702  155.3017 N   0  0  0  0  0  0  0  0  0  0  0  0
  148.1015  139.9649  154.1453 C   0  0  0  0  0  0  0  0  0  0  0  0
  146.6121  139.7037  154.4437 C   0  0  1  0  0  0  0  0  0  0  0  0
  145.8322  140.7288  153.8577 O   0  0  0  0  0  0  0  0  0  0  0  0
  146.1381  138.3431  153.8995 C   0  0  2  0  0  0  0  0  0  0  0  0
  146.2114  138.2112  152.3770 C   0  0  0  0  0  0  0  0  0  0  0  0
  145.1832  137.1358  152.1133 C   0  0  0  0  0  0  0  0  0  0  0  0
  144.0953  137.4955  153.1196 C   0  0  0  0  0  0  0  0  0  0  0  0
  144.7605  138.1347  154.2065 O   0  0  0  0  0  0  0  0  0  0  0  0
  154.2101  138.1946  160.9285 H   0  0  0  0  0  0  0  0  0  0  0  0
  154.4617  139.8516  161.4636 H   0  0  0  0  0  0  0  0  0  0  0  0
  155.2055  139.2856  159.9679 H   0  0  0  0  0  0  0  0  0  0  0  0
  152.9267  138.9544  158.9726 H   0  0  0  0  0  0  0  0  0  0  0  0
  152.1810  139.5598  160.4277 H   0  0  0  0  0  0  0  0  0  0  0  0
  153.9883  141.1420  158.5323 H   0  0  0  0  0  0  0  0  0  0  0  0
  152.9604  141.8609  161.2735 H   0  0  0  0  0  0  0  0  0  0  0  0
  154.4702  142.3249  160.4950 H   0  0  0  0  0  0  0  0  0  0  0  0
  151.9373  143.7298  160.5153 H   0  0  0  0  0  0  0  0  0  0  0  0
  153.3839  144.2480  159.6551 H   0  0  0  0  0  0  0  0  0  0  0  0
  152.7595  143.2080  157.6677 H   0  0  0  0  0  0  0  0  0  0  0  0
  150.8452  144.7577  158.1542 H   0  0  0  0  0  0  0  0  0  0  0  0
  149.9762  143.4409  158.9392 H   0  0  0  0  0  0  0  0  0  0  0  0
  150.3174  143.3712  157.2122 H   0  0  0  0  0  0  0  0  0  0  0  0
  153.0588  139.0057  155.1399 H   0  0  0  0  0  0  0  0  0  0  0  0
  147.2852  141.6126  156.3033 H   0  0  0  0  0  0  0  0  0  0  0  0
  148.2096  140.6762  153.3254 H   0  0  0  0  0  0  0  0  0  0  0  0
  148.5896  139.0446  153.8226 H   0  0  0  0  0  0  0  0  0  0  0  0
  146.4506  139.7349  155.5220 H   0  0  0  0  0  0  0  0  0  0  0  0
  145.0416  140.3434  153.5117 H   0  0  0  0  0  0  0  0  0  0  0  0
  146.7064  137.5314  154.3578 H   0  0  0  0  0  0  0  0  0  0  0  0
  145.9095  139.1416  151.8935 H   0  0  0  0  0  0  0  0  0  0  0  0
  147.2070  137.9468  152.0194 H   0  0  0  0  0  0  0  0  0  0  0  0
  144.8260  137.1240  151.0834 H   0  0  0  0  0  0  0  0  0  0  0  0
  145.6007  136.1547  152.3437 H   0  0  0  0  0  0  0  0  0  0  0  0
  143.3908  138.2039  152.6828 H   0  0  0  0  0  0  0  0  0  0  0  0
  143.5347  136.6222  153.4537 H   0  0  0  0  0  0  0  0  0  0  0  0
  1  2  1  0  0  0  0
  1 26  1  0  0  0  0
  1 27  1  0  0  0  0
  1 28  1  0  0  0  0
  2  3  1  0  0  0  0
  2 29  1  0  0  0  0
  2 30  1  0  0  0  0
  3  8  1  0  0  0  0
  3  4  1  0  0  0  0
  3 31  1  0  0  0  0
  4  5  1  0  0  0  0
  4 32  1  0  0  0  0
  4 33  1  0  0  0  0
  5  6  1  0  0  0  0
  5 34  1  0  0  0  0
  5 35  1  0  0  0  0
  6  7  1  0  0  0  0
  6  8  1  0  0  0  0
  6 36  1  0  0  0  0
  7 37  1  0  0  0  0
  7 38  1  0  0  0  0
  7 39  1  0  0  0  0
  8  9  1  0  0  0  0
  9 14  1  0  0  0  0
  9 10  2  0  0  0  0
 10 11  1  0  0  0  0
 11 12  2  0  0  0  0
 11 40  1  0  0  0  0
 12 13  1  0  0  0  0
 13 17  1  0  0  0  0
 13 14  2  0  0  0  0
 14 15  1  0  0  0  0
 15 16  2  0  0  0  0
 16 17  1  0  0  0  0
 16 41  1  0  0  0  0
 17 18  1  0  0  0  0
 18 19  1  0  0  0  0
 18 42  1  0  0  0  0
 18 43  1  0  0  0  0
 19 20  1  0  0  0  0
 19 21  1  0  0  0  0
 19 44  1  0  0  0  0
 20 45  1  0  0  0  0
 21 25  1  0  0  0  0
 21 22  1  0  0  0  0
 21 46  1  0  0  0  0
 22 23  1  0  0  0  0
 22 47  1  0  0  0  0
 22 48  1  0  0  0  0
 23 24  1  0  0  0  0
 23 49  1  0  0  0  0
 23 50  1  0  0  0  0
 24 25  1  0  0  0  0
 24 51  1  0  0  0  0
 24 52  1  0  0  0  0
M  END
> <s_m_source_file>
AV-unprocessed.smi

> <i_m_source_file_index>
232

> <i_lp_mmshare_version>
43012

> <i_f3d_flags>
0

> <s_epik_input>
W0NIM11bQ0gyXVtDQEBIXTFbQ0gyXVtDSDJdW0NAQEhdKFtDSDNdKU4xYyhuW2NIXW4yKWMoYzIzKW5bY0hdbjNbQ0gyXVtDQEhdKFtPSF0pW0NAQEhdNFtDSDJdW0NIMl1bQ0gyXU80

> <s_epik_cmdline>
J2VwaWtfcHl0aG9uJywgJy1waCcsICc3LjAnLCAnLXRuJywgJzgnLCAnLW1hJywgJzIwMCcsICctbWV0YWxfYmluZGluZycsICctaW1hZScsICc8aW5maWxlLm1hZT4nLCAnLW9tYWUnLCAnPG91dGZpbGUubWFlPic=

> <r_lp_tautomer_probability>
1

> <r_epik_Ionization_Penalty>
0.00258048

> <r_epik_Ionization_Penalty_Charging>
0

> <r_epik_Ionization_Penalty_Neutral>
0.00258048

> <r_epik_State_Penalty>
0.00168551

> <r_epik_Charging_Adjusted_Penalty>
0.00168551

> <i_epik_Tot_Q>
0

> <i_epik_Tot_abs_Q>
0

> <r_epik_Metal_State_Penalty>
-0

> <b_epik_Metal_Only>
0

> <s_lp_Force_Field>
OPLS_2005

> <r_lp_Energy>
51.2688

> <b_lp_Chiralities_Consistent>
1

> <s_lp_Variant>
AV-unprocessed.smi:232-7

> <Gold.Version>
5.8.1

> <Gold.Id.Protein>
6NUR|6NUR_protein|mol2

> <Gold.PLP.Fitness>
43.1112

> <Gold.PLP.PLP>
-37.9006

> <Gold.PLP.part.hbond>
-3.0000

> <Gold.PLP.part.metal>
0.0000

> <Gold.PLP.part.buried>
0.3376

> <Gold.PLP.part.nonpolar>
-35.9108

> <Gold.PLP.part.repulsive>
0.2717

> <Gold.PLP.ligand.clash>
0.0000

> <Gold.PLP.ligand.torsion>
1.3963

> <Gold.PLP.Chemscore.Hbond>
2.6440

> <Gold.PLP.Chemscore.CHOScore>
0.0000

> <Gold.PLP.Chemscore.Metal>
0.0000

> <Gold.Chemscore.Hbonds>
donor molecule, donor type, donor heavy atom, donor atom, acceptor molecule, acceptor atom, score
      L1  H    20    45       P1 10175  0.96
      P1  H  7989  7998       L1    12  0.68
      P1  H  7997  8010       L1    10  0.85

> <Gold.PLP.Chemscore.Internal.Correction>
0.0712

> <Gold.Rescore>
     Score         DG    S(hbond)    S(metal)    S(lipo)     H(rot)  DE(clash)    DE(int)     intcor
     11.19     -15.30       1.27        0.00     100.66       2.43       0.26       3.85       ----

> <Gold.Chemscore.Fitness>
11.1911

> <Gold.Chemscore.DG>
-15.3046

> <Gold.Chemscore.ZeroCoef>
-5.4800

> <Gold.Chemscore.Hbond>
1.2749

> <Gold.Chemscore.Metal>
0.0000

> <Gold.Chemscore.Lipo>
100.6600

> <Gold.Chemscore.Internal_Hbond>
0.0000

> <Gold.Chemscore.DEClash>
0.2644

> <Gold.Chemscore.DEInternal>
3.8491

> <Gold.Chemscore.Rot>
2.4260

> <Gold.Chemscore.Internal.Correction>
   9.000000E+99

> <Gold.Chemscore.Hbonds>
donor molecule, donor type, donor heavy atom, donor atom, acceptor molecule, acceptor atom, score
      L1  H    20    45       P1 10175  0.92
      P1  H  7989  7998       L1    12  0.02
      P1  H  7997  8010       L1    10  0.14

> <Gold.Chemscore.Hbond.Weighted>
-4.2580

> <Gold.Chemscore.Metal.Weighted>
-0.0000

> <Gold.Chemscore.Lipo.Weighted>
-11.7772

> <Gold.Chemscore.Internal_Hbond.Weighted>
0.0000

> <Gold.Chemscore.DEClash.Weighted>
0.2644

> <Gold.Chemscore.DEInternal.Weighted>
3.8491

> <Gold.Chemscore.Rot.Weighted>
6.2107

> <Gold.Chemscore.Internal.Correction.Weighted>
   9.000000E+99

> <Gold.Protein.RotatedTorsions>
[ 6907 6896 6895 6894 ] final -123.80 input  -60.11 | X-H torsion
[ 7974 7965 7964 7962 ] final  149.72 input  175.53 | X-H torsion
[ 8008 7997 7996 7995 ] final   64.29 input   59.86 | X-H torsion
[ 10167 10162 10161 10158 ] final  -98.88 input  -65.29 | X-H torsion
[ 10718 10713 10712 10709 ] final   15.96 input   66.30 | X-H torsion
[ 10763 10752 10751 10750 ] final  109.74 input  -60.55 | X-H torsion
[ 11005 11000 10999 10996 ] final -176.39 input  -57.11 | X-H torsion

> <Gold.Protein.ActiveResidues>
 VAL166  LYS551  ARG553  GLY616  TRP617  ASP618  TYR619  PRO620  LYS621  CYS622 
 ASP623  PHE694  ASN695  SER759  ASP760  ASP761  ALA762  ILE779  LEU786  VAL792 
 PHE793  MET794  SER795  GLU796  ALA797  LYS798  CYS799  TRP800  GLU811  SER814 

> <Gold.Protein.RotatedAtoms>
  150.8706  133.7511  159.2962 H   0  0  0  0  0  0  0  0  0  0  0  0  # atno 6907 bound_to 6896
  151.5125  135.1064  159.9867 H   0  0  0  0  0  0  0  0  0  0  0  0  # atno 6908 bound_to 6896
  152.4692  133.7946  159.6976 H   0  0  0  0  0  0  0  0  0  0  0  0  # atno 6909 bound_to 6896
  144.8417  139.6316  143.6013 H   0  0  0  0  0  0  0  0  0  0  0  0  # atno 7974 bound_to 7965
  155.6437  140.3497  155.4724 H   0  0  0  0  0  0  0  0  0  0  0  0  # atno 8008 bound_to 7997
  155.9905  140.1192  157.0666 H   0  0  0  0  0  0  0  0  0  0  0  0  # atno 8009 bound_to 7997
  154.4217  140.1120  156.5545 H   0  0  0  0  0  0  0  0  0  0  0  0  # atno 8010 bound_to 7997
  140.2683  143.3361  152.0559 H   0  0  0  0  0  0  0  0  0  0  0  0  # atno 10167 bound_to 10162
  157.0610  130.6309  149.5786 H   0  0  0  0  0  0  0  0  0  0  0  0  # atno 10718 bound_to 10713
  153.4390  135.3770  155.2217 H   0  0  0  0  0  0  0  0  0  0  0  0  # atno 10763 bound_to 10752
  154.8753  135.3858  154.4175 H   0  0  0  0  0  0  0  0  0  0  0  0  # atno 10764 bound_to 10752
  153.4718  135.7087  153.6052 H   0  0  0  0  0  0  0  0  0  0  0  0  # atno 10765 bound_to 10752
  140.4526  134.6329  157.4808 H   0  0  0  0  0  0  0  0  0  0  0  0  # atno 11005 bound_to 11000
  146.2708  139.6632  142.9297 LP  0  0  0  0  0  0  0  0  0  0  0  0  # atno 17320 bound_to 7965
  145.4680  141.0435  143.2714 LP  0  0  0  0  0  0  0  0  0  0  0  0  # atno 17321 bound_to 7965
  139.4996  144.6673  151.6326 LP  0  0  0  0  0  0  0  0  0  0  0  0  # atno 17342 bound_to 10162
  140.5910  143.9779  150.6325 LP  0  0  0  0  0  0  0  0  0  0  0  0  # atno 17343 bound_to 10162
  155.9978  130.5051  150.7549 LP  0  0  0  0  0  0  0  0  0  0  0  0  # atno 17370 bound_to 10713
  157.4955  131.0914  151.0377 LP  0  0  0  0  0  0  0  0  0  0  0  0  # atno 17371 bound_to 10713
  139.9997  134.6856  155.9551 LP  0  0  0  0  0  0  0  0  0  0  0  0  # atno 17394 bound_to 11000
  141.1657  133.6537  156.4471 LP  0  0  0  0  0  0  0  0  0  0  0  0  # atno 17395 bound_to 11000

$$$$
