AV-unprocessed.smi:3353|AV-procd|sdf|12954|dock7
  -GOLD-   2272019393D 1   1.00000     0.00000
 Structure written by MMmdl.
 43 44  0  0  0  0  0  0  0  0  2 V2000
  152.5962  139.2806  158.1949 C   0  0  0  0  0  0  0  0  0  0  0  0
  152.2571  140.1335  156.9665 C   0  0  0  0  0  0  0  0  0  0  0  0
  151.5283  139.3739  155.9694 N   0  0  0  0  0  0  0  0  0  0  0  0
  151.1688  138.0413  156.0068 C   0  0  0  0  0  0  0  0  0  0  0  0
  150.4981  137.8068  154.8397 C   0  0  0  0  0  0  0  0  0  0  0  0
  149.9115  136.6071  154.3637 N   0  0  0  0  0  0  0  0  0  0  0  0
  149.9313  135.4004  154.9527 C   0  0  0  0  0  0  0  0  0  0  0  0
  150.4733  135.1463  156.0283 O   0  0  0  0  0  0  0  0  0  0  0  0
  149.2790  134.4902  154.2168 N   0  0  0  0  0  0  0  0  0  0  0  0
  149.1156  133.0821  154.5678 C   0  0  0  0  0  0  0  0  0  0  0  0
  149.4676  132.1460  153.3862 C   0  0  1  0  0  0  0  0  0  0  0  0
  150.0324  130.8011  153.8978 C   0  0  0  0  0  0  0  0  0  0  0  0
  148.2822  131.9275  152.5055 N   0  3  0  0  0  0  0  0  0  0  0  0
  147.2427  131.0315  153.0572 C   0  0  0  0  0  0  0  0  0  0  0  0
  145.9679  131.3156  152.2596 C   0  0  0  0  0  0  0  0  0  0  0  0
  146.1743  132.6986  151.6369 C   0  0  0  0  0  0  0  0  0  0  0  0
  147.5606  133.1535  152.0995 C   0  0  0  0  0  0  0  0  0  0  0  0
  150.4886  139.0435  154.1437 C   0  0  0  0  0  0  0  0  0  0  0  0
  151.1137  139.9861  154.8326 N   0  0  0  0  0  0  0  0  0  0  0  0
  153.1523  139.8627  158.9297 H   0  0  0  0  0  0  0  0  0  0  0  0
  153.2071  138.4206  157.9192 H   0  0  0  0  0  0  0  0  0  0  0  0
  151.6929  138.9095  158.6800 H   0  0  0  0  0  0  0  0  0  0  0  0
  151.6586  140.9980  157.2570 H   0  0  0  0  0  0  0  0  0  0  0  0
  153.1708  140.5184  156.5120 H   0  0  0  0  0  0  0  0  0  0  0  0
  151.4188  137.4036  156.8418 H   0  0  0  0  0  0  0  0  0  0  0  0
  149.4260  136.6775  153.4814 H   0  0  0  0  0  0  0  0  0  0  0  0
  148.8631  134.7945  153.3486 H   0  0  0  0  0  0  0  0  0  0  0  0
  149.7280  132.8190  155.4323 H   0  0  0  0  0  0  0  0  0  0  0  0
  148.0765  132.9577  154.8716 H   0  0  0  0  0  0  0  0  0  0  0  0
  150.2428  132.6290  152.7887 H   0  0  0  0  0  0  0  0  0  0  0  0
  150.8930  130.9441  154.5512 H   0  0  0  0  0  0  0  0  0  0  0  0
  150.3770  130.1659  153.0822 H   0  0  0  0  0  0  0  0  0  0  0  0
  149.2814  130.2460  154.4607 H   0  0  0  0  0  0  0  0  0  0  0  0
  147.5297  129.9816  152.9925 H   0  0  0  0  0  0  0  0  0  0  0  0
  147.0751  131.2724  154.1085 H   0  0  0  0  0  0  0  0  0  0  0  0
  145.8402  130.5711  151.4728 H   0  0  0  0  0  0  0  0  0  0  0  0
  145.0821  131.2775  152.8945 H   0  0  0  0  0  0  0  0  0  0  0  0
  146.1435  132.6223  150.5492 H   0  0  0  0  0  0  0  0  0  0  0  0
  145.4003  133.4054  151.9385 H   0  0  0  0  0  0  0  0  0  0  0  0
  147.4578  133.8166  152.9602 H   0  0  0  0  0  0  0  0  0  0  0  0
  148.0878  133.6970  151.3149 H   0  0  0  0  0  0  0  0  0  0  0  0
  150.0585  139.2840  153.1826 H   0  0  0  0  0  0  0  0  0  0  0  0
  148.6110  131.4951  151.6537 H   0  0  0  0  0  0  0  0  0  0  0  0
  1  2  1  0  0  0  0
  1 20  1  0  0  0  0
  1 21  1  0  0  0  0
  1 22  1  0  0  0  0
  2  3  1  0  0  0  0
  2 23  1  0  0  0  0
  2 24  1  0  0  0  0
  3 19  1  0  0  0  0
  3  4  1  0  0  0  0
  4  5  2  0  0  0  0
  4 25  1  0  0  0  0
  5  6  1  0  0  0  0
  5 18  1  0  0  0  0
  6  7  1  0  0  0  0
  6 26  1  0  0  0  0
  7  8  2  0  0  0  0
  7  9  1  0  0  0  0
  9 10  1  0  0  0  0
  9 27  1  0  0  0  0
 10 11  1  0  0  0  0
 10 28  1  0  0  0  0
 10 29  1  0  0  0  0
 11 12  1  0  0  0  0
 11 13  1  0  0  0  0
 11 30  1  0  0  0  0
 12 31  1  0  0  0  0
 12 32  1  0  0  0  0
 12 33  1  0  0  0  0
 13 17  1  0  0  0  0
 13 14  1  0  0  0  0
 13 43  1  0  0  0  0
 14 15  1  0  0  0  0
 14 34  1  0  0  0  0
 14 35  1  0  0  0  0
 15 16  1  0  0  0  0
 15 36  1  0  0  0  0
 15 37  1  0  0  0  0
 16 17  1  0  0  0  0
 16 38  1  0  0  0  0
 16 39  1  0  0  0  0
 17 40  1  0  0  0  0
 17 41  1  0  0  0  0
 18 19  2  0  0  0  0
 18 42  1  0  0  0  0
M  CHG  1  13   1
M  END
> <s_m_source_file>
AV-unprocessed.smi

> <i_m_source_file_index>
3353

> <i_lp_mmshare_version>
43012

> <i_f3d_flags>
0

> <s_epik_input>
W0NIM11bQ0gyXW4xW2NIXWMoW2NIXW4xKVtOSF1DKD1PKVtOSF1bQ0gyXVtDQEhdKFtDSDNdKU4yW0NIMl1bQ0gyXVtDSDJdW0NIMl0y

> <s_epik_cmdline>
J2VwaWtfcHl0aG9uJywgJy1waCcsICc3LjAnLCAnLXRuJywgJzgnLCAnLW1hJywgJzIwMCcsICctbWV0YWxfYmluZGluZycsICctaW1hZScsICc8aW5maWxlLm1hZT4nLCAnLW9tYWUnLCAnPG91dGZpbGUubWFlPic=

> <r_lp_tautomer_probability>
1

> <r_epik_Ionization_Penalty>
0.000914091

> <r_epik_Ionization_Penalty_Charging>
0.000761583

> <r_epik_Ionization_Penalty_Neutral>
0.000152508

> <r_epik_State_Penalty>
0.000487427

> <r_epik_Charging_Adjusted_Penalty>
0.00124901

> <i_epik_Tot_Q>
1

> <i_epik_Tot_abs_Q>
1

> <r_epik_Metal_State_Penalty>
-0

> <b_epik_Metal_Only>
0

> <s_lp_Force_Field>
OPLS_2005

> <r_lp_Energy>
35.4291

> <b_lp_Chiralities_Consistent>
1

> <s_lp_Variant>
AV-unprocessed.smi:3353-2

> <Gold.Version>
5.8.1

> <Gold.Id.Protein>
6NUR|6NUR_protein|mol2

> <Gold.PLP.Fitness>
45.9349

> <Gold.PLP.PLP>
-32.7442

> <Gold.PLP.part.hbond>
-4.3413

> <Gold.PLP.part.metal>
0.0000

> <Gold.PLP.part.buried>
-3.8509

> <Gold.PLP.part.nonpolar>
-23.1105

> <Gold.PLP.part.repulsive>
0.1460

> <Gold.PLP.ligand.clash>
0.0000

> <Gold.PLP.ligand.torsion>
0.5425

> <Gold.PLP.Chemscore.Hbond>
3.7437

> <Gold.PLP.Chemscore.CHOScore>
1.0000

> <Gold.PLP.Chemscore.Metal>
0.0000

> <Gold.Chemscore.Hbonds>
donor molecule, donor type, donor heavy atom, donor atom, acceptor molecule, acceptor atom, score
      L1  H     6    26       P1  7948  1.00
      L1  H     9    27       P1  7948  0.88
      L1  H    13    43       P1 10747  1.00
      P1  H  7989  7998       L1    19  0.80
      L1  C    18    42       P1  7957  1.00

> <Gold.PLP.Chemscore.Internal.Correction>
0.0447

> <Gold.Rescore>
     Score         DG    S(hbond)    S(metal)    S(lipo)     H(rot)  DE(clash)    DE(int)     intcor
     16.43     -19.18       2.83        0.00      71.70       1.61       0.11       2.64       ----

> <Gold.Chemscore.Fitness>
16.4252

> <Gold.Chemscore.DG>
-19.1817

> <Gold.Chemscore.ZeroCoef>
-5.4800

> <Gold.Chemscore.Hbond>
2.8260

> <Gold.Chemscore.Metal>
0.0000

> <Gold.Chemscore.Lipo>
71.7002

> <Gold.Chemscore.Internal_Hbond>
0.0000

> <Gold.Chemscore.DEClash>
0.1145

> <Gold.Chemscore.DEInternal>
2.6420

> <Gold.Chemscore.Rot>
1.6117

> <Gold.Chemscore.Internal.Correction>
   9.000000E+99

> <Gold.Chemscore.Hbonds>
donor molecule, donor type, donor heavy atom, donor atom, acceptor molecule, acceptor atom, score
      L1  H     6    26       P1  7948  0.84
      L1  H     9    27       P1  7948  0.24
      L1  H    13    43       P1 10747  0.95
      P1  H  7989  7998       L1    19  0.12

> <Gold.Chemscore.Hbond.Weighted>
-9.4388

> <Gold.Chemscore.Metal.Weighted>
-0.0000

> <Gold.Chemscore.Lipo.Weighted>
-8.3889

> <Gold.Chemscore.Internal_Hbond.Weighted>
0.0000

> <Gold.Chemscore.DEClash.Weighted>
0.1145

> <Gold.Chemscore.DEInternal.Weighted>
2.6420

> <Gold.Chemscore.Rot.Weighted>
4.1260

> <Gold.Chemscore.Internal.Correction.Weighted>
   9.000000E+99

> <Gold.Protein.RotatedTorsions>
[ 6907 6896 6895 6894 ] final   30.94 input  -60.11 | X-H torsion
[ 7974 7965 7964 7962 ] final   48.35 input  175.53 | X-H torsion
[ 8008 7997 7996 7995 ] final   93.76 input   59.86 | X-H torsion
[ 10167 10162 10161 10158 ] final  -58.91 input  -65.29 | X-H torsion
[ 10718 10713 10712 10709 ] final   62.90 input   66.30 | X-H torsion
[ 10763 10752 10751 10750 ] final   37.33 input  -60.55 | X-H torsion
[ 11005 11000 10999 10996 ] final  139.79 input  -57.11 | X-H torsion

> <Gold.Protein.ActiveResidues>
 VAL166  LYS551  ARG553  GLY616  TRP617  ASP618  TYR619  PRO620  LYS621  CYS622 
 ASP623  PHE694  ASN695  SER759  ASP760  ASP761  ALA762  ILE779  LEU786  VAL792 
 PHE793  MET794  SER795  GLU796  ALA797  LYS798  CYS799  TRP800  GLU811  SER814 

> <Gold.Protein.RotatedAtoms>
  152.0532  134.9641  160.0574 H   0  0  0  0  0  0  0  0  0  0  0  0  # atno 6907 bound_to 6896
  152.1033  133.4257  159.4605 H   0  0  0  0  0  0  0  0  0  0  0  0  # atno 6908 bound_to 6896
  150.6840  134.2653  159.4609 H   0  0  0  0  0  0  0  0  0  0  0  0  # atno 6909 bound_to 6896
  146.0212  139.4653  142.9896 H   0  0  0  0  0  0  0  0  0  0  0  0  # atno 7974 bound_to 7965
  156.0503  140.3308  155.7344 H   0  0  0  0  0  0  0  0  0  0  0  0  # atno 8008 bound_to 7997
  155.5610  140.0619  157.2846 H   0  0  0  0  0  0  0  0  0  0  0  0  # atno 8009 bound_to 7997
  154.4433  140.1877  156.0771 H   0  0  0  0  0  0  0  0  0  0  0  0  # atno 8010 bound_to 7997
  140.6168  143.2405  151.5578 H   0  0  0  0  0  0  0  0  0  0  0  0  # atno 10167 bound_to 10162
  157.5933  130.9075  149.9646 H   0  0  0  0  0  0  0  0  0  0  0  0  # atno 10718 bound_to 10713
  153.0042  135.6281  154.2127 H   0  0  0  0  0  0  0  0  0  0  0  0  # atno 10763 bound_to 10752
  154.1870  135.2810  155.3036 H   0  0  0  0  0  0  0  0  0  0  0  0  # atno 10764 bound_to 10752
  154.5789  135.5653  153.7226 H   0  0  0  0  0  0  0  0  0  0  0  0  # atno 10765 bound_to 10752
  140.0280  134.9365  157.0606 H   0  0  0  0  0  0  0  0  0  0  0  0  # atno 11005 bound_to 11000
  145.7190  141.0081  143.1412 LP  0  0  0  0  0  0  0  0  0  0  0  0  # atno 17320 bound_to 7965
  144.6991  139.8848  143.7449 LP  0  0  0  0  0  0  0  0  0  0  0  0  # atno 17321 bound_to 7965
  139.5405  144.2661  152.1340 LP  0  0  0  0  0  0  0  0  0  0  0  0  # atno 17342 bound_to 10162
  140.1872  144.4787  150.6497 LP  0  0  0  0  0  0  0  0  0  0  0  0  # atno 17343 bound_to 10162
  156.0991  130.3657  150.0251 LP  0  0  0  0  0  0  0  0  0  0  0  0  # atno 17370 bound_to 10713
  156.8369  130.9412  151.3634 LP  0  0  0  0  0  0  0  0  0  0  0  0  # atno 17371 bound_to 10713
  140.4274  134.1817  155.7166 LP  0  0  0  0  0  0  0  0  0  0  0  0  # atno 17394 bound_to 11000
  141.1814  133.8405  157.1243 LP  0  0  0  0  0  0  0  0  0  0  0  0  # atno 17395 bound_to 11000

$$$$
