AV-unprocessed.smi:3034|AV-procd|sdf|11580|dock7
  -GOLD-   2272016553D 1   1.00000     0.00000
 Structure written by MMmdl.
 31 31  0  0  0  0  0  0  0  0  2 V2000
  146.3260  142.7272  153.6832 C   0  0  0  0  0  0  0  0  0  0  0  0
  147.3690  142.0791  154.5999 C   0  0  0  0  0  0  0  0  0  0  0  0
  148.3588  141.1958  153.8296 C   0  0  0  0  0  0  0  0  0  0  0  0
  149.5845  140.4124  154.9722 S   0  0  0  0  0  0  0  0  0  0  0  0
  148.8010  139.6477  155.9572 O   0  0  0  0  0  0  0  0  0  0  0  0
  150.4775  139.6344  154.1001 O   0  0  0  0  0  0  0  0  0  0  0  0
  150.3520  141.7036  155.5933 N   0  5  0  0  0  0  0  0  0  0  0  0
  151.0603  141.6236  156.8651 C   0  0  0  0  0  0  0  0  0  0  0  0
  150.9223  142.9542  157.6483 C   0  0  1  0  0  0  0  0  0  0  0  0
  149.5457  143.2705  157.7392 O   0  0  0  0  0  0  0  0  0  0  0  0
  151.6059  142.9614  159.0204 C   0  0  0  0  0  0  0  0  0  0  0  0
  151.5593  144.1183  159.8324 C   0  0  0  0  0  0  0  0  0  0  0  0
  152.1897  144.0908  161.0908 C   0  0  0  0  0  0  0  0  0  0  0  0
  152.8360  142.9093  161.5000 C   0  0  0  0  0  0  0  0  0  0  0  0
  152.8237  141.8038  160.6275 C   0  0  0  0  0  0  0  0  0  0  0  0
  152.2225  141.8196  159.4188 N   0  0  0  0  0  0  0  0  0  0  0  0
  145.6420  143.3536  154.2559 H   0  0  0  0  0  0  0  0  0  0  0  0
  145.7332  141.9720  153.1665 H   0  0  0  0  0  0  0  0  0  0  0  0
  146.8009  143.3555  152.9294 H   0  0  0  0  0  0  0  0  0  0  0  0
  147.9147  142.8582  155.1329 H   0  0  0  0  0  0  0  0  0  0  0  0
  146.8599  141.4844  155.3587 H   0  0  0  0  0  0  0  0  0  0  0  0
  147.8339  140.3996  153.3018 H   0  0  0  0  0  0  0  0  0  0  0  0
  148.8993  141.7875  153.0912 H   0  0  0  0  0  0  0  0  0  0  0  0
  150.6571  140.8180  157.4803 H   0  0  0  0  0  0  0  0  0  0  0  0
  152.1160  141.3870  156.7263 H   0  0  0  0  0  0  0  0  0  0  0  0
  151.3674  143.7525  157.0523 H   0  0  0  0  0  0  0  0  0  0  0  0
  149.3770  144.0167  157.1855 H   0  0  0  0  0  0  0  0  0  0  0  0
  151.0593  145.0128  159.4912 H   0  0  0  0  0  0  0  0  0  0  0  0
  152.1774  144.9609  161.7304 H   0  0  0  0  0  0  0  0  0  0  0  0
  153.3296  142.8516  162.4587 H   0  0  0  0  0  0  0  0  0  0  0  0
  153.3081  140.8806  160.9091 H   0  0  0  0  0  0  0  0  0  0  0  0
  1  2  1  0  0  0  0
  1 17  1  0  0  0  0
  1 18  1  0  0  0  0
  1 19  1  0  0  0  0
  2  3  1  0  0  0  0
  2 20  1  0  0  0  0
  2 21  1  0  0  0  0
  3  4  1  0  0  0  0
  3 22  1  0  0  0  0
  3 23  1  0  0  0  0
  4  5  2  0  0  0  0
  4  6  2  0  0  0  0
  4  7  1  0  0  0  0
  7  8  1  0  0  0  0
  8  9  1  0  0  0  0
  8 24  1  0  0  0  0
  8 25  1  0  0  0  0
  9 10  1  0  0  0  0
  9 11  1  0  0  0  0
  9 26  1  0  0  0  0
 10 27  1  0  0  0  0
 11 16  1  0  0  0  0
 11 12  2  0  0  0  0
 12 13  1  0  0  0  0
 12 28  1  0  0  0  0
 13 14  2  0  0  0  0
 13 29  1  0  0  0  0
 14 15  1  0  0  0  0
 14 30  1  0  0  0  0
 15 16  2  0  0  0  0
 15 31  1  0  0  0  0
M  CHG  1   7  -1
M  END
> <s_m_source_file>
AV-unprocessed.smi

> <i_m_source_file_index>
3034

> <i_lp_mmshare_version>
43012

> <i_f3d_flags>
0

> <s_epik_input>
W0NIM11bQ0gyXVtDSDJdUyg9TykoPU8pW05IXVtDSDJdW0NASF0oW09IXSljMVtjSF1bY0hdW2NIXVtjSF1uMQ==

> <s_epik_cmdline>
J2VwaWtfcHl0aG9uJywgJy1waCcsICc3LjAnLCAnLXRuJywgJzgnLCAnLW1hJywgJzIwMCcsICctbWV0YWxfYmluZGluZycsICctaW1hZScsICc8aW5maWxlLm1hZT4nLCAnLW9tYWUnLCAnPG91dGZpbGUubWFlPic=

> <r_epik_Ionization_Penalty>
6.18156

> <r_epik_Ionization_Penalty_Charging>
6.17474

> <r_epik_Ionization_Penalty_Neutral>
0.0068235

> <r_epik_State_Penalty>
6.17598

> <r_epik_Charging_Adjusted_Penalty>
12.3507

> <i_epik_Tot_Q>
-1

> <i_epik_Tot_abs_Q>
1

> <r_epik_Metal_State_Penalty>
2.11803

> <b_epik_Metal_Only>
1

> <s_lp_Force_Field>
OPLS_2005

> <r_lp_Energy>
1.09161

> <b_lp_Chiralities_Consistent>
1

> <s_lp_Variant>
AV-unprocessed.smi:3034-4

> <Gold.Version>
5.8.1

> <Gold.Id.Protein>
6NUR|6NUR_protein|mol2

> <Gold.PLP.Fitness>
42.5789

> <Gold.PLP.PLP>
-37.1442

> <Gold.PLP.part.hbond>
-2.7346

> <Gold.PLP.part.metal>
0.0000

> <Gold.PLP.part.buried>
-3.9633

> <Gold.PLP.part.nonpolar>
-30.6982

> <Gold.PLP.part.repulsive>
0.6366

> <Gold.PLP.ligand.clash>
0.0000

> <Gold.PLP.ligand.torsion>
0.8082

> <Gold.PLP.Chemscore.Hbond>
2.0000

> <Gold.PLP.Chemscore.CHOScore>
0.0000

> <Gold.PLP.Chemscore.Metal>
0.0000

> <Gold.Chemscore.Hbonds>
donor molecule, donor type, donor heavy atom, donor atom, acceptor molecule, acceptor atom, score
      L1  H    10    27       P1  8028  1.00
      P1  H  7989  7998       L1     6  1.00

> <Gold.PLP.Chemscore.Internal.Correction>
1.0512

> <Gold.Rescore>
     Score         DG    S(hbond)    S(metal)    S(lipo)     H(rot)  DE(clash)    DE(int)     intcor
     13.03     -13.88       1.04        0.00      92.27       2.29       0.02       0.82       ----

> <Gold.Chemscore.Fitness>
13.0337

> <Gold.Chemscore.DG>
-13.8799

> <Gold.Chemscore.ZeroCoef>
-5.4800

> <Gold.Chemscore.Hbond>
1.0378

> <Gold.Chemscore.Metal>
0.0000

> <Gold.Chemscore.Lipo>
92.2652

> <Gold.Chemscore.Internal_Hbond>
0.0000

> <Gold.Chemscore.DEClash>
0.0216

> <Gold.Chemscore.DEInternal>
0.8246

> <Gold.Chemscore.Rot>
2.2895

> <Gold.Chemscore.Internal.Correction>
   9.000000E+99

> <Gold.Chemscore.Hbonds>
donor molecule, donor type, donor heavy atom, donor atom, acceptor molecule, acceptor atom, score
      L1  H    10    27       P1  8028  0.38
      P1  H  7989  7998       L1     6  0.45

> <Gold.Chemscore.Hbond.Weighted>
-3.4661

> <Gold.Chemscore.Metal.Weighted>
-0.0000

> <Gold.Chemscore.Lipo.Weighted>
-10.7950

> <Gold.Chemscore.Internal_Hbond.Weighted>
0.0000

> <Gold.Chemscore.DEClash.Weighted>
0.0216

> <Gold.Chemscore.DEInternal.Weighted>
0.8246

> <Gold.Chemscore.Rot.Weighted>
5.8612

> <Gold.Chemscore.Internal.Correction.Weighted>
   9.000000E+99

> <Gold.Protein.RotatedTorsions>
[ 6907 6896 6895 6894 ] final  -71.29 input  -60.11 | X-H torsion
[ 7974 7965 7964 7962 ] final -112.59 input  175.53 | X-H torsion
[ 8008 7997 7996 7995 ] final  152.56 input   59.86 | X-H torsion
[ 10167 10162 10161 10158 ] final  -92.70 input  -65.29 | X-H torsion
[ 10718 10713 10712 10709 ] final -104.37 input   66.30 | X-H torsion
[ 10763 10752 10751 10750 ] final  -86.21 input  -60.55 | X-H torsion
[ 11005 11000 10999 10996 ] final   45.09 input  -57.11 | X-H torsion

> <Gold.Protein.ActiveResidues>
 VAL166  LYS551  ARG553  GLY616  TRP617  ASP618  TYR619  PRO620  LYS621  CYS622 
 ASP623  PHE694  ASN695  SER759  ASP760  ASP761  ALA762  ILE779  LEU786  VAL792 
 PHE793  MET794  SER795  GLU796  ALA797  LYS798  CYS799  TRP800  GLU811  SER814 

> <Gold.Protein.RotatedAtoms>
  150.7219  134.5329  159.5708 H   0  0  0  0  0  0  0  0  0  0  0  0  # atno 6907 bound_to 6896
  152.2858  134.7774  160.0397 H   0  0  0  0  0  0  0  0  0  0  0  0  # atno 6908 bound_to 6896
  151.8405  133.3387  159.3678 H   0  0  0  0  0  0  0  0  0  0  0  0  # atno 6909 bound_to 6896
  145.1421  140.8783  143.3696 H   0  0  0  0  0  0  0  0  0  0  0  0  # atno 7974 bound_to 7965
  156.2623  140.2017  156.6353 H   0  0  0  0  0  0  0  0  0  0  0  0  # atno 8008 bound_to 7997
  154.6651  140.0556  157.0129 H   0  0  0  0  0  0  0  0  0  0  0  0  # atno 8009 bound_to 7997
  155.1219  140.3225  155.4498 H   0  0  0  0  0  0  0  0  0  0  0  0  # atno 8010 bound_to 7997
  140.3321  143.2989  151.9930 H   0  0  0  0  0  0  0  0  0  0  0  0  # atno 10167 bound_to 10162
  156.0302  130.5512  150.7387 H   0  0  0  0  0  0  0  0  0  0  0  0  # atno 10718 bound_to 10713
  154.6198  135.5457  153.7563 H   0  0  0  0  0  0  0  0  0  0  0  0  # atno 10763 bound_to 10752
  153.0233  135.6410  154.1457 H   0  0  0  0  0  0  0  0  0  0  0  0  # atno 10764 bound_to 10752
  154.1391  135.2909  155.3145 H   0  0  0  0  0  0  0  0  0  0  0  0  # atno 10765 bound_to 10752
  140.1491  134.4484  155.8394 H   0  0  0  0  0  0  0  0  0  0  0  0  # atno 11005 bound_to 11000
  145.0521  139.3173  143.5923 LP  0  0  0  0  0  0  0  0  0  0  0  0  # atno 17320 bound_to 7965
  146.3504  139.9932  142.8683 LP  0  0  0  0  0  0  0  0  0  0  0  0  # atno 17321 bound_to 7965
  139.4854  144.6226  151.7226 LP  0  0  0  0  0  0  0  0  0  0  0  0  # atno 17342 bound_to 10162
  140.5387  144.0614  150.6080 LP  0  0  0  0  0  0  0  0  0  0  0  0  # atno 17343 bound_to 10162
  157.4961  131.0915  151.0370 LP  0  0  0  0  0  0  0  0  0  0  0  0  # atno 17370 bound_to 10713
  157.0763  130.5885  149.5412 LP  0  0  0  0  0  0  0  0  0  0  0  0  # atno 17371 bound_to 10713
  141.2196  133.6865  156.7389 LP  0  0  0  0  0  0  0  0  0  0  0  0  # atno 17394 bound_to 11000
  140.2626  134.8454  157.3773 LP  0  0  0  0  0  0  0  0  0  0  0  0  # atno 17395 bound_to 11000

$$$$
