AV-unprocessed.smi:757|AV-procd|sdf|3615|dock3
  -GOLD-   22720 1 13D 1   1.00000     0.00000
 Structure written by MMmdl.
 45 46  0  0  0  0  0  0  0  0  2 V2000
  143.8589  146.3699  155.6197 C   0  0  0  0  0  0  0  0  0  0  0  0
  144.1039  145.2268  155.9720 C   0  0  0  0  0  0  0  0  0  0  0  0
  144.3893  143.8436  156.3866 C   0  0  0  0  0  0  0  0  0  0  0  0
  143.9330  142.7968  155.3539 C   0  0  0  0  0  0  0  0  0  0  0  0
  145.0753  142.0914  154.7190 N   0  3  2  0  0  0  0  0  0  0  0  0
  145.8025  141.2230  155.6810 C   0  0  0  0  0  0  0  0  0  0  0  0
  146.8923  140.3935  154.9767 C   0  0  0  0  0  0  0  0  0  0  0  0
  147.8766  141.2775  154.1922 C   0  0  2  0  0  0  0  0  0  0  0  0
  148.7452  142.0161  155.1091 N   0  0  0  0  0  0  0  0  0  0  0  0
  149.5221  141.4651  156.0531 C   0  0  0  0  0  0  0  0  0  0  0  0
  149.6070  140.2512  156.2349 O   0  0  0  0  0  0  0  0  0  0  0  0
  150.1923  142.4060  156.7402 N   0  0  0  0  0  0  0  0  0  0  0  0
  151.1067  142.2395  157.8160 C   0  0  0  0  0  0  0  0  0  0  0  0
  152.0403  141.1803  157.9178 C   0  0  0  0  0  0  0  0  0  0  0  0
  152.8810  141.1201  159.0457 C   0  0  0  0  0  0  0  0  0  0  0  0
  152.7612  142.1111  160.0399 C   0  0  0  0  0  0  0  0  0  0  0  0
  153.5901  142.0450  161.1411 O   0  0  0  0  0  0  0  0  0  0  0  0
  153.2770  142.8510  162.2719 C   0  0  0  0  0  0  0  0  0  0  0  0
  151.8609  143.1214  159.9555 N   0  0  0  0  0  0  0  0  0  0  0  0
  151.0578  143.1728  158.8723 C   0  0  0  0  0  0  0  0  0  0  0  0
  147.0934  142.2173  153.2543 C   0  0  0  0  0  0  0  0  0  0  0  0
  146.0041  143.0056  154.0025 C   0  0  0  0  0  0  0  0  0  0  0  0
  143.6409  147.3676  155.3104 H   0  0  0  0  0  0  0  0  0  0  0  0
  145.4638  143.7674  156.5559 H   0  0  0  0  0  0  0  0  0  0  0  0
  143.8997  143.6949  157.3483 H   0  0  0  0  0  0  0  0  0  0  0  0
  143.2553  142.0698  155.8051 H   0  0  0  0  0  0  0  0  0  0  0  0
  143.3614  143.3113  154.5794 H   0  0  0  0  0  0  0  0  0  0  0  0
  146.2411  141.8382  156.4684 H   0  0  0  0  0  0  0  0  0  0  0  0
  145.1011  140.5434  156.1666 H   0  0  0  0  0  0  0  0  0  0  0  0
  147.4282  139.7827  155.7043 H   0  0  0  0  0  0  0  0  0  0  0  0
  146.4153  139.6940  154.2888 H   0  0  0  0  0  0  0  0  0  0  0  0
  148.5087  140.6242  153.5880 H   0  0  0  0  0  0  0  0  0  0  0  0
  148.7381  143.0227  155.0330 H   0  0  0  0  0  0  0  0  0  0  0  0
  150.0694  143.3572  156.4254 H   0  0  0  0  0  0  0  0  0  0  0  0
  152.1222  140.4088  157.1686 H   0  0  0  0  0  0  0  0  0  0  0  0
  153.6032  140.3236  159.1479 H   0  0  0  0  0  0  0  0  0  0  0  0
  154.0230  142.6872  163.0494 H   0  0  0  0  0  0  0  0  0  0  0  0
  152.3026  142.5924  162.6888 H   0  0  0  0  0  0  0  0  0  0  0  0
  153.2893  143.9128  162.0208 H   0  0  0  0  0  0  0  0  0  0  0  0
  150.3538  143.9919  158.8474 H   0  0  0  0  0  0  0  0  0  0  0  0
  147.7685  142.9052  152.7441 H   0  0  0  0  0  0  0  0  0  0  0  0
  146.6234  141.6240  152.4687 H   0  0  0  0  0  0  0  0  0  0  0  0
  145.4585  143.6132  153.2818 H   0  0  0  0  0  0  0  0  0  0  0  0
  146.4591  143.6970  154.7134 H   0  0  0  0  0  0  0  0  0  0  0  0
  144.6778  141.4721  154.0267 H   0  0  0  0  0  0  0  0  0  0  0  0
  1  2  3  0  0  0  0
  1 23  1  0  0  0  0
  2  3  1  0  0  0  0
  3  4  1  0  0  0  0
  3 24  1  0  0  0  0
  3 25  1  0  0  0  0
  4  5  1  0  0  0  0
  4 26  1  0  0  0  0
  4 27  1  0  0  0  0
  5 22  1  0  0  0  0
  5  6  1  0  0  0  0
  5 45  1  0  0  0  0
  6  7  1  0  0  0  0
  6 28  1  0  0  0  0
  6 29  1  0  0  0  0
  7  8  1  0  0  0  0
  7 30  1  0  0  0  0
  7 31  1  0  0  0  0
  8  9  1  0  0  0  0
  8 21  1  0  0  0  0
  8 32  1  0  0  0  0
  9 10  1  0  0  0  0
  9 33  1  0  0  0  0
 10 11  2  0  0  0  0
 10 12  1  0  0  0  0
 12 13  1  0  0  0  0
 12 34  1  0  0  0  0
 13 20  1  0  0  0  0
 13 14  2  0  0  0  0
 14 15  1  0  0  0  0
 14 35  1  0  0  0  0
 15 16  2  0  0  0  0
 15 36  1  0  0  0  0
 16 17  1  0  0  0  0
 16 19  1  0  0  0  0
 17 18  1  0  0  0  0
 18 37  1  0  0  0  0
 18 38  1  0  0  0  0
 18 39  1  0  0  0  0
 19 20  2  0  0  0  0
 20 40  1  0  0  0  0
 21 22  1  0  0  0  0
 21 41  1  0  0  0  0
 21 42  1  0  0  0  0
 22 43  1  0  0  0  0
 22 44  1  0  0  0  0
M  CHG  1   5   1
M  END
> <s_m_source_file>
AV-unprocessed.smi

> <i_m_source_file_index>
757

> <i_lp_mmshare_version>
43012

> <i_f3d_flags>
0

> <s_epik_input>
W0NIXSNDW0NIMl1bQ0gyXU4xW0NIMl1bQ0gyXVtDSF0oW0NIMl1bQ0gyXTEpW05IXUMoPU8pW05IXWMyW2NIXVtjSF1jKE9bQ0gzXSluW2NIXTI=

> <s_epik_cmdline>
J2VwaWtfcHl0aG9uJywgJy1waCcsICc3LjAnLCAnLXRuJywgJzgnLCAnLW1hJywgJzIwMCcsICctbWV0YWxfYmluZGluZycsICctaW1hZScsICc8aW5maWxlLm1hZT4nLCAnLW9tYWUnLCAnPG91dGZpbGUubWFlPic=

> <r_lp_tautomer_probability>
1

> <r_epik_Ionization_Penalty>
0.0402573

> <r_epik_Ionization_Penalty_Charging>
0.0401786

> <r_epik_Ionization_Penalty_Neutral>
7.86509e-05

> <r_epik_State_Penalty>
0.0338029

> <r_epik_Charging_Adjusted_Penalty>
0.0739815

> <i_epik_Tot_Q>
1

> <i_epik_Tot_abs_Q>
1

> <r_epik_Metal_State_Penalty>
0.0338035

> <b_epik_Metal_Only>
0

> <s_lp_Force_Field>
OPLS_2005

> <r_lp_Energy>
19.9555

> <b_lp_Chiralities_Consistent>
1

> <s_lp_Variant>
AV-unprocessed.smi:757-2

> <Gold.Version>
5.8.1

> <Gold.Id.Protein>
6NUR|6NUR_protein|mol2

> <Gold.PLP.Fitness>
48.9359

> <Gold.PLP.PLP>
-38.5519

> <Gold.PLP.part.hbond>
-3.0000

> <Gold.PLP.part.metal>
0.0000

> <Gold.PLP.part.buried>
-9.1277

> <Gold.PLP.part.nonpolar>
-26.8236

> <Gold.PLP.part.repulsive>
0.2538

> <Gold.PLP.ligand.clash>
0.0000

> <Gold.PLP.ligand.torsion>
0.8306

> <Gold.PLP.Chemscore.Hbond>
4.0000

> <Gold.PLP.Chemscore.CHOScore>
0.0000

> <Gold.PLP.Chemscore.Metal>
0.0000

> <Gold.Chemscore.Hbonds>
donor molecule, donor type, donor heavy atom, donor atom, acceptor molecule, acceptor atom, score
      L1  H     5    45       P1 10175  1.82
      L1  H     9    33       P1  8028  1.00
      L1  H    12    34       P1  8028  0.98

> <Gold.PLP.Chemscore.Internal.Correction>
0.0452

> <Gold.Rescore>
     Score         DG    S(hbond)    S(metal)    S(lipo)     H(rot)  DE(clash)    DE(int)     intcor
     18.00     -20.85       2.82        0.00      85.52       1.59       1.34       1.51       ----

> <Gold.Chemscore.Fitness>
18.0033

> <Gold.Chemscore.DG>
-20.8500

> <Gold.Chemscore.ZeroCoef>
-5.4800

> <Gold.Chemscore.Hbond>
2.8230

> <Gold.Chemscore.Metal>
0.0000

> <Gold.Chemscore.Lipo>
85.5218

> <Gold.Chemscore.Internal_Hbond>
0.0000

> <Gold.Chemscore.DEClash>
1.3355

> <Gold.Chemscore.DEInternal>
1.5112

> <Gold.Chemscore.Rot>
1.5879

> <Gold.Chemscore.Internal.Correction>
   9.000000E+99

> <Gold.Chemscore.Hbonds>
donor molecule, donor type, donor heavy atom, donor atom, acceptor molecule, acceptor atom, score
      L1  H     5    45       P1 10175  0.26
      L1  H     9    33       P1  8028  0.99
      L1  H    12    34       P1  8028  0.92

> <Gold.Chemscore.Hbond.Weighted>
-9.4289

> <Gold.Chemscore.Metal.Weighted>
-0.0000

> <Gold.Chemscore.Lipo.Weighted>
-10.0061

> <Gold.Chemscore.Internal_Hbond.Weighted>
0.0000

> <Gold.Chemscore.DEClash.Weighted>
1.3355

> <Gold.Chemscore.DEInternal.Weighted>
1.5112

> <Gold.Chemscore.Rot.Weighted>
4.0649

> <Gold.Chemscore.Internal.Correction.Weighted>
   9.000000E+99

> <Gold.Protein.RotatedTorsions>
[ 6907 6896 6895 6894 ] final  124.86 input  -60.11 | X-H torsion
[ 7974 7965 7964 7962 ] final   22.01 input  175.53 | X-H torsion
[ 8008 7997 7996 7995 ] final  141.22 input   59.86 | X-H torsion
[ 10167 10162 10161 10158 ] final  -36.43 input  -65.29 | X-H torsion
[ 10718 10713 10712 10709 ] final  165.84 input   66.30 | X-H torsion
[ 10763 10752 10751 10750 ] final   54.28 input  -60.55 | X-H torsion
[ 11005 11000 10999 10996 ] final   16.24 input  -57.11 | X-H torsion

> <Gold.Protein.ActiveResidues>
 VAL166  LYS551  ARG553  GLY616  TRP617  ASP618  TYR619  PRO620  LYS621  CYS622 
 ASP623  PHE694  ASN695  SER759  ASP760  ASP761  ALA762  ILE779  LEU786  VAL792 
 PHE793  MET794  SER795  GLU796  ALA797  LYS798  CYS799  TRP800  GLU811  SER814 

> <Gold.Protein.RotatedAtoms>
  152.4042  133.6863  159.6341 H   0  0  0  0  0  0  0  0  0  0  0  0  # atno 6907 bound_to 6896
  150.7929  133.8738  159.3275 H   0  0  0  0  0  0  0  0  0  0  0  0  # atno 6908 bound_to 6896
  151.6496  135.1005  160.0209 H   0  0  0  0  0  0  0  0  0  0  0  0  # atno 6909 bound_to 6896
  146.2047  139.7945  142.8735 H   0  0  0  0  0  0  0  0  0  0  0  0  # atno 7974 bound_to 7965
  156.2969  140.2321  156.4529 H   0  0  0  0  0  0  0  0  0  0  0  0  # atno 8008 bound_to 7997
  154.8086  140.0444  157.1346 H   0  0  0  0  0  0  0  0  0  0  0  0  # atno 8009 bound_to 7997
  154.9450  140.3034  155.5106 H   0  0  0  0  0  0  0  0  0  0  0  0  # atno 8010 bound_to 7997
  140.7142  143.3409  151.2359 H   0  0  0  0  0  0  0  0  0  0  0  0  # atno 10167 bound_to 10162
  157.0744  131.0375  151.2599 H   0  0  0  0  0  0  0  0  0  0  0  0  # atno 10718 bound_to 10713
  152.9803  135.5750  154.4878 H   0  0  0  0  0  0  0  0  0  0  0  0  # atno 10763 bound_to 10752
  154.4417  135.2776  155.1845 H   0  0  0  0  0  0  0  0  0  0  0  0  # atno 10764 bound_to 10752
  154.3510  135.6209  153.5696 H   0  0  0  0  0  0  0  0  0  0  0  0  # atno 10765 bound_to 10752
  140.4493  134.1241  155.7700 H   0  0  0  0  0  0  0  0  0  0  0  0  # atno 11005 bound_to 11000
  145.3362  141.0277  143.3418 LP  0  0  0  0  0  0  0  0  0  0  0  0  # atno 17320 bound_to 7965
  144.8764  139.4965  143.6743 LP  0  0  0  0  0  0  0  0  0  0  0  0  # atno 17321 bound_to 7965
  139.6916  143.9682  152.2862 LP  0  0  0  0  0  0  0  0  0  0  0  0  # atno 17342 bound_to 10162
  139.9345  144.6720  150.8328 LP  0  0  0  0  0  0  0  0  0  0  0  0  # atno 17343 bound_to 10162
  157.4851  130.7788  149.7452 LP  0  0  0  0  0  0  0  0  0  0  0  0  # atno 17370 bound_to 10713
  155.9941  130.3920  150.2872 LP  0  0  0  0  0  0  0  0  0  0  0  0  # atno 17371 bound_to 10713
  141.1671  133.8681  157.1681 LP  0  0  0  0  0  0  0  0  0  0  0  0  # atno 17394 bound_to 11000
  140.0018  135.0025  157.0205 LP  0  0  0  0  0  0  0  0  0  0  0  0  # atno 17395 bound_to 11000

$$$$
