AV-unprocessed.smi:1555|AV-procd|sdf|6266|dock7
  -GOLD-   22720 6453D 1   1.00000     0.00000
 Structure written by MMmdl.
 41 42  0  0  0  0  0  0  0  0  1 V2000
  153.8590  140.0061  160.5240 C   0  0  0  0  0  0  0  0  0  0  0  0
  153.2035  141.1454  159.7265 C   0  0  2  0  0  0  0  0  0  0  0  0
  152.7562  142.3263  160.6159 C   0  0  0  0  0  0  0  0  0  0  0  0
  152.2525  143.4470  159.8451 N   0  0  0  0  0  0  0  0  0  0  0  0
  151.0117  144.0569  159.9723 C   0  0  0  0  0  0  0  0  0  0  0  0
  150.9744  145.0702  159.0412 C   0  0  0  0  0  0  0  0  0  0  0  0
  152.1755  145.1037  158.3364 N   0  0  0  0  0  0  0  0  0  0  0  0
  152.8832  144.1163  158.8702 C   0  0  0  0  0  0  0  0  0  0  0  0
  152.0664  140.6114  158.9824 N   0  0  0  0  0  0  0  0  0  0  0  0
  152.1303  139.6905  158.0050 C   0  0  0  0  0  0  0  0  0  0  0  0
  153.1996  139.2036  157.6344 O   0  0  0  0  0  0  0  0  0  0  0  0
  150.9317  139.3488  157.4670 N   0  0  0  0  0  0  0  0  0  0  0  0
  149.6050  139.7779  157.9411 C   0  0  0  0  0  0  0  0  0  0  0  0
  149.0305  140.8014  156.9455 C   0  0  0  0  0  0  0  0  0  0  0  0
  148.9559  140.2149  155.5159 C   0  0  0  0  0  0  0  0  0  0  0  0
  148.4966  141.2573  154.4802 C   0  0  0  0  0  0  0  0  0  0  0  0
  149.3767  142.3616  154.4561 O   0  0  0  0  0  0  0  0  0  0  0  0
  150.3103  139.5891  155.1144 C   0  0  0  0  0  0  0  0  0  0  0  0
  150.8272  138.6223  156.1958 C   0  0  0  0  0  0  0  0  0  0  0  0
  154.7698  140.3381  161.0227 H   0  0  0  0  0  0  0  0  0  0  0  0
  154.1334  139.1774  159.8704 H   0  0  0  0  0  0  0  0  0  0  0  0
  153.1834  139.6185  161.2874 H   0  0  0  0  0  0  0  0  0  0  0  0
  153.9421  141.5084  159.0093 H   0  0  0  0  0  0  0  0  0  0  0  0
  151.9688  142.0133  161.3028 H   0  0  0  0  0  0  0  0  0  0  0  0
  153.5869  142.6731  161.2327 H   0  0  0  0  0  0  0  0  0  0  0  0
  150.2785  143.7276  160.6939 H   0  0  0  0  0  0  0  0  0  0  0  0
  150.1827  145.7729  158.8277 H   0  0  0  0  0  0  0  0  0  0  0  0
  153.8821  143.8710  158.5403 H   0  0  0  0  0  0  0  0  0  0  0  0
  151.1548  140.9665  159.2315 H   0  0  0  0  0  0  0  0  0  0  0  0
  148.9480  138.9088  157.9988 H   0  0  0  0  0  0  0  0  0  0  0  0
  149.6074  140.2000  158.9458 H   0  0  0  0  0  0  0  0  0  0  0  0
  148.0395  141.1137  157.2760 H   0  0  0  0  0  0  0  0  0  0  0  0
  149.6536  141.6968  156.9477 H   0  0  0  0  0  0  0  0  0  0  0  0
  148.2221  139.4071  155.5262 H   0  0  0  0  0  0  0  0  0  0  0  0
  148.4403  140.8178  153.4839 H   0  0  0  0  0  0  0  0  0  0  0  0
  147.4999  141.6241  154.7270 H   0  0  0  0  0  0  0  0  0  0  0  0
  148.9751  143.0763  154.9264 H   0  0  0  0  0  0  0  0  0  0  0  0
  150.2106  139.0608  154.1657 H   0  0  0  0  0  0  0  0  0  0  0  0
  151.0477  140.3769  154.9530 H   0  0  0  0  0  0  0  0  0  0  0  0
  151.7747  138.1840  155.8793 H   0  0  0  0  0  0  0  0  0  0  0  0
  150.1387  137.7840  156.3116 H   0  0  0  0  0  0  0  0  0  0  0  0
  1  2  1  0  0  0  0
  1 20  1  0  0  0  0
  1 21  1  0  0  0  0
  1 22  1  0  0  0  0
  2  3  1  0  0  0  0
  2  9  1  0  0  0  0
  2 23  1  0  0  0  0
  3  4  1  0  0  0  0
  3 24  1  0  0  0  0
  3 25  1  0  0  0  0
  4  8  1  0  0  0  0
  4  5  1  0  0  0  0
  5  6  2  0  0  0  0
  5 26  1  0  0  0  0
  6  7  1  0  0  0  0
  6 27  1  0  0  0  0
  7  8  2  0  0  0  0
  8 28  1  0  0  0  0
  9 10  1  0  0  0  0
  9 29  1  0  0  0  0
 10 11  2  0  0  0  0
 10 12  1  0  0  0  0
 12 19  1  0  0  0  0
 12 13  1  0  0  0  0
 13 14  1  0  0  0  0
 13 30  1  0  0  0  0
 13 31  1  0  0  0  0
 14 15  1  0  0  0  0
 14 32  1  0  0  0  0
 14 33  1  0  0  0  0
 15 16  1  0  0  0  0
 15 18  1  0  0  0  0
 15 34  1  0  0  0  0
 16 17  1  0  0  0  0
 16 35  1  0  0  0  0
 16 36  1  0  0  0  0
 17 37  1  0  0  0  0
 18 19  1  0  0  0  0
 18 38  1  0  0  0  0
 18 39  1  0  0  0  0
 19 40  1  0  0  0  0
 19 41  1  0  0  0  0
M  END
> <s_m_source_file>
AV-unprocessed.smi

> <i_m_source_file_index>
1555

> <i_lp_mmshare_version>
43012

> <i_f3d_flags>
0

> <s_epik_input>
W2NIXTFuW2NIXVtjSF1uMVtDSDJdW0NAQEhdKFtDSDNdKVtOSF1DKD1PKU4yW0NIMl1bQ0gyXVtDSF0oW0NIMl1bT0hdKVtDSDJdW0NIMl0y

> <s_epik_cmdline>
J2VwaWtfcHl0aG9uJywgJy1waCcsICc3LjAnLCAnLXRuJywgJzgnLCAnLW1hJywgJzIwMCcsICctbWV0YWxfYmluZGluZycsICctaW1hZScsICc8aW5maWxlLm1hZT4nLCAnLW9tYWUnLCAnPG91dGZpbGUubWFlPic=

> <r_lp_tautomer_probability>
1

> <r_epik_Ionization_Penalty>
0.625883

> <r_epik_Ionization_Penalty_Charging>
0.625812

> <r_epik_Ionization_Penalty_Neutral>
7.07114e-05

> <r_epik_State_Penalty>
0.642234

> <r_epik_Charging_Adjusted_Penalty>
1.26805

> <i_epik_Tot_Q>
0

> <i_epik_Tot_abs_Q>
0

> <r_epik_Metal_State_Penalty>
0.307949

> <b_epik_Metal_Only>
0

> <s_lp_Force_Field>
OPLS_2005

> <r_lp_Energy>
32.8415

> <b_lp_Chiralities_Consistent>
1

> <s_lp_Variant>
AV-unprocessed.smi:1555-3

> <Gold.Version>
5.8.1

> <Gold.Id.Protein>
6NUR|6NUR_protein|mol2

> <Gold.PLP.Fitness>
45.7707

> <Gold.PLP.PLP>
-36.5080

> <Gold.PLP.part.hbond>
-3.1756

> <Gold.PLP.part.metal>
0.0000

> <Gold.PLP.part.buried>
-2.3990

> <Gold.PLP.part.nonpolar>
-30.9788

> <Gold.PLP.part.repulsive>
0.2176

> <Gold.PLP.ligand.clash>
0.0000

> <Gold.PLP.ligand.torsion>
0.1353

> <Gold.PLP.Chemscore.Hbond>
2.1555

> <Gold.PLP.Chemscore.CHOScore>
1.0000

> <Gold.PLP.Chemscore.Metal>
0.0000

> <Gold.Chemscore.Hbonds>
donor molecule, donor type, donor heavy atom, donor atom, acceptor molecule, acceptor atom, score
      L1  H    17    37       P1  8028  1.00
      P1  H  7997  8010       L1    11  1.00
      P1  H  8011  8017       L1    17  0.11
      L1  C     6    27       P1  8029  0.45

> <Gold.PLP.Chemscore.Internal.Correction>
0.0669

> <Gold.Rescore>
     Score         DG    S(hbond)    S(metal)    S(lipo)     H(rot)  DE(clash)    DE(int)     intcor
     14.57     -15.16       2.22        0.00      73.82       2.49       0.43       0.17       ----

> <Gold.Chemscore.Fitness>
14.5657

> <Gold.Chemscore.DG>
-15.1613

> <Gold.Chemscore.ZeroCoef>
-5.4800

> <Gold.Chemscore.Hbond>
2.2185

> <Gold.Chemscore.Metal>
0.0000

> <Gold.Chemscore.Lipo>
73.8240

> <Gold.Chemscore.Internal_Hbond>
0.0000

> <Gold.Chemscore.DEClash>
0.4254

> <Gold.Chemscore.DEInternal>
0.1703

> <Gold.Chemscore.Rot>
2.4867

> <Gold.Chemscore.Internal.Correction>
   9.000000E+99

> <Gold.Chemscore.Hbonds>
donor molecule, donor type, donor heavy atom, donor atom, acceptor molecule, acceptor atom, score
      L1  H    17    37       P1  8028  0.99
      P1  H  7997  8010       L1    11  1.00
      P1  H  8011  8017       L1    17  0.03

> <Gold.Chemscore.Hbond.Weighted>
-7.4099

> <Gold.Chemscore.Metal.Weighted>
-0.0000

> <Gold.Chemscore.Lipo.Weighted>
-8.6374

> <Gold.Chemscore.Internal_Hbond.Weighted>
0.0000

> <Gold.Chemscore.DEClash.Weighted>
0.4254

> <Gold.Chemscore.DEInternal.Weighted>
0.1703

> <Gold.Chemscore.Rot.Weighted>
6.3660

> <Gold.Chemscore.Internal.Correction.Weighted>
   9.000000E+99

> <Gold.Protein.RotatedTorsions>
[ 6907 6896 6895 6894 ] final   35.76 input  -60.11 | X-H torsion
[ 7974 7965 7964 7962 ] final   64.42 input  175.53 | X-H torsion
[ 8008 7997 7996 7995 ] final   43.02 input   59.86 | X-H torsion
[ 10167 10162 10161 10158 ] final -162.37 input  -65.29 | X-H torsion
[ 10718 10713 10712 10709 ] final  156.06 input   66.30 | X-H torsion
[ 10763 10752 10751 10750 ] final  -20.81 input  -60.55 | X-H torsion
[ 11005 11000 10999 10996 ] final  154.49 input  -57.11 | X-H torsion

> <Gold.Protein.ActiveResidues>
 VAL166  LYS551  ARG553  GLY616  TRP617  ASP618  TYR619  PRO620  LYS621  CYS622 
 ASP623  PHE694  ASN695  SER759  ASP760  ASP761  ALA762  ILE779  LEU786  VAL792 
 PHE793  MET794  SER795  GLU796  ALA797  LYS798  CYS799  TRP800  GLU811  SER814 

> <Gold.Protein.RotatedAtoms>
  152.1205  134.9209  160.0562 H   0  0  0  0  0  0  0  0  0  0  0  0  # atno 6907 bound_to 6896
  152.0351  133.3949  159.4322 H   0  0  0  0  0  0  0  0  0  0  0  0  # atno 6908 bound_to 6896
  150.6849  134.3398  159.4907 H   0  0  0  0  0  0  0  0  0  0  0  0  # atno 6909 bound_to 6896
  145.8504  139.3250  143.0879 H   0  0  0  0  0  0  0  0  0  0  0  0  # atno 7974 bound_to 7965
  155.2958  140.3382  155.4250 H   0  0  0  0  0  0  0  0  0  0  0  0  # atno 8008 bound_to 7997
  156.2025  140.1738  156.7910 H   0  0  0  0  0  0  0  0  0  0  0  0  # atno 8009 bound_to 7997
  154.5577  140.0693  156.8753 H   0  0  0  0  0  0  0  0  0  0  0  0  # atno 8010 bound_to 7997
  139.6397  144.0283  152.2082 H   0  0  0  0  0  0  0  0  0  0  0  0  # atno 10167 bound_to 10162
  157.2101  131.0695  151.1974 H   0  0  0  0  0  0  0  0  0  0  0  0  # atno 10718 bound_to 10713
  153.6262  135.6991  153.5292 H   0  0  0  0  0  0  0  0  0  0  0  0  # atno 10763 bound_to 10752
  153.2897  135.4161  155.1155 H   0  0  0  0  0  0  0  0  0  0  0  0  # atno 10764 bound_to 10752
  154.8532  135.3622  154.5804 H   0  0  0  0  0  0  0  0  0  0  0  0  # atno 10765 bound_to 10752
  140.1494  134.8685  157.2435 H   0  0  0  0  0  0  0  0  0  0  0  0  # atno 11005 bound_to 11000
  145.9364  140.9011  143.0330 LP  0  0  0  0  0  0  0  0  0  0  0  0  # atno 17320 bound_to 7965
  144.6729  140.1489  143.7431 LP  0  0  0  0  0  0  0  0  0  0  0  0  # atno 17321 bound_to 7965
  139.9969  144.6321  150.7764 LP  0  0  0  0  0  0  0  0  0  0  0  0  # atno 17342 bound_to 10162
  140.7484  143.2922  151.3300 LP  0  0  0  0  0  0  0  0  0  0  0  0  # atno 17343 bound_to 10162
  157.3681  130.7166  149.6546 LP  0  0  0  0  0  0  0  0  0  0  0  0  # atno 17370 bound_to 10713
  155.9691  130.4206  150.4433 LP  0  0  0  0  0  0  0  0  0  0  0  0  # atno 17371 bound_to 10713
  140.2623  134.3556  155.7402 LP  0  0  0  0  0  0  0  0  0  0  0  0  # atno 17394 bound_to 11000
  141.2197  133.7376  156.9099 LP  0  0  0  0  0  0  0  0  0  0  0  0  # atno 17395 bound_to 11000

$$$$
