AV-unprocessed.smi:1359|AV-procd|sdf|5550|dock8
  -GOLD-   22720 5143D 1   1.00000     0.00000
 Structure written by MMmdl.
 34 35  0  0  0  0  0  0  0  0  1 V2000
  153.4511  136.4415  164.2585 C   0  0  0  0  0  0  0  0  0  0  0  0
  153.9331  137.1661  162.9972 C   0  0  0  0  0  0  0  0  0  0  0  0
  154.5201  136.2018  161.9537 C   0  0  0  0  0  0  0  0  0  0  0  0
  154.8361  136.8881  160.7066 N   0  0  0  0  0  0  0  0  0  0  0  0
  154.3926  136.5247  159.4926 C   0  0  0  0  0  0  0  0  0  0  0  0
  153.6710  135.5463  159.2999 O   0  0  0  0  0  0  0  0  0  0  0  0
  154.8320  137.3935  158.3123 C   0  0  0  0  0  0  0  0  0  0  0  0
  153.6390  137.8828  157.5416 C   0  0  0  0  0  0  0  0  0  0  0  0
  152.8696  137.1597  156.6626 C   0  0  0  0  0  0  0  0  0  0  0  0
  151.5790  138.1137  155.9848 S   0  0  0  0  0  0  0  0  0  0  0  0
  152.1479  139.4929  156.9302 C   0  0  0  0  0  0  0  0  0  0  0  0
  151.5836  140.8032  156.9393 N   0  0  0  0  0  0  0  0  0  0  0  0
  151.8040  141.7255  158.0491 C   0  0  0  0  0  0  0  0  0  0  0  0
  151.0493  142.9846  157.6343 C   0  0  0  0  0  0  0  0  0  0  0  0
  150.5010  142.6021  156.3546 N   0  0  0  0  0  0  0  0  0  0  0  0
  150.8176  141.3604  155.9803 C   0  0  0  0  0  0  0  0  0  0  0  0
  150.4486  140.8452  154.9267 O   0  0  0  0  0  0  0  0  0  0  0  0
  153.2176  139.2094  157.6814 N   0  0  0  0  0  0  0  0  0  0  0  0
  153.0384  137.1484  164.9785 H   0  0  0  0  0  0  0  0  0  0  0  0
  154.2695  135.9100  164.7450 H   0  0  0  0  0  0  0  0  0  0  0  0
  152.6729  135.7157  164.0214 H   0  0  0  0  0  0  0  0  0  0  0  0
  153.0977  137.7180  162.5648 H   0  0  0  0  0  0  0  0  0  0  0  0
  154.6826  137.9089  163.2730 H   0  0  0  0  0  0  0  0  0  0  0  0
  155.4387  135.7558  162.3361 H   0  0  0  0  0  0  0  0  0  0  0  0
  153.8311  135.3774  161.7626 H   0  0  0  0  0  0  0  0  0  0  0  0
  155.4245  137.7066  160.7712 H   0  0  0  0  0  0  0  0  0  0  0  0
  155.4270  138.2271  158.6883 H   0  0  0  0  0  0  0  0  0  0  0  0
  155.4905  136.8148  157.6631 H   0  0  0  0  0  0  0  0  0  0  0  0
  152.9820  136.1240  156.3776 H   0  0  0  0  0  0  0  0  0  0  0  0
  151.4089  141.3126  158.9784 H   0  0  0  0  0  0  0  0  0  0  0  0
  152.8685  141.9242  158.1804 H   0  0  0  0  0  0  0  0  0  0  0  0
  150.2521  143.2353  158.3349 H   0  0  0  0  0  0  0  0  0  0  0  0
  151.7122  143.8437  157.5262 H   0  0  0  0  0  0  0  0  0  0  0  0
  149.9301  143.2261  155.8026 H   0  0  0  0  0  0  0  0  0  0  0  0
  1  2  1  0  0  0  0
  1 19  1  0  0  0  0
  1 20  1  0  0  0  0
  1 21  1  0  0  0  0
  2  3  1  0  0  0  0
  2 22  1  0  0  0  0
  2 23  1  0  0  0  0
  3  4  1  0  0  0  0
  3 24  1  0  0  0  0
  3 25  1  0  0  0  0
  4  5  1  0  0  0  0
  4 26  1  0  0  0  0
  5  6  2  0  0  0  0
  5  7  1  0  0  0  0
  7  8  1  0  0  0  0
  7 27  1  0  0  0  0
  7 28  1  0  0  0  0
  8 18  1  0  0  0  0
  8  9  2  0  0  0  0
  9 10  1  0  0  0  0
  9 29  1  0  0  0  0
 10 11  1  0  0  0  0
 11 12  1  0  0  0  0
 11 18  2  0  0  0  0
 12 16  1  0  0  0  0
 12 13  1  0  0  0  0
 13 14  1  0  0  0  0
 13 30  1  0  0  0  0
 13 31  1  0  0  0  0
 14 15  1  0  0  0  0
 14 32  1  0  0  0  0
 14 33  1  0  0  0  0
 15 16  1  0  0  0  0
 15 34  1  0  0  0  0
 16 17  2  0  0  0  0
M  END
> <s_m_source_file>
AV-unprocessed.smi

> <i_m_source_file_index>
1359

> <i_lp_mmshare_version>
43012

> <i_f3d_flags>
0

> <s_epik_input>
W0NIM11bQ0gyXVtDSDJdW05IXUMoPU8pW0NIMl1jMVtjSF1zYyhuMSlOMltDSDJdW0NIMl1bTkhdQzI9Tw==

> <s_epik_cmdline>
J2VwaWtfcHl0aG9uJywgJy1waCcsICc3LjAnLCAnLXRuJywgJzgnLCAnLW1hJywgJzIwMCcsICctbWV0YWxfYmluZGluZycsICctaW1hZScsICc8aW5maWxlLm1hZT4nLCAnLW9tYWUnLCAnPG91dGZpbGUubWFlPic=

> <r_lp_tautomer_probability>
1

> <r_epik_Ionization_Penalty>
0.000119828

> <r_epik_Ionization_Penalty_Charging>
0

> <r_epik_Ionization_Penalty_Neutral>
0.000119828

> <r_epik_State_Penalty>
-0

> <r_epik_Charging_Adjusted_Penalty>
0

> <i_epik_Tot_Q>
0

> <i_epik_Tot_abs_Q>
0

> <r_epik_Metal_State_Penalty>
-0

> <b_epik_Metal_Only>
0

> <s_lp_Force_Field>
OPLS_2005

> <r_lp_Energy>
29.9012

> <b_lp_Chiralities_Consistent>
1

> <s_lp_Variant>
AV-unprocessed.smi:1359-1

> <Gold.Version>
5.8.1

> <Gold.Id.Protein>
6NUR|6NUR_protein|mol2

> <Gold.PLP.Fitness>
38.8632

> <Gold.PLP.PLP>
-28.2964

> <Gold.PLP.part.hbond>
-4.0000

> <Gold.PLP.part.metal>
0.0000

> <Gold.PLP.part.buried>
-3.2344

> <Gold.PLP.part.nonpolar>
-20.7590

> <Gold.PLP.part.repulsive>
0.2031

> <Gold.PLP.ligand.clash>
0.0000

> <Gold.PLP.ligand.torsion>
0.4676

> <Gold.PLP.Chemscore.Hbond>
3.8320

> <Gold.PLP.Chemscore.CHOScore>
0.0000

> <Gold.PLP.Chemscore.Metal>
0.0000

> <Gold.Chemscore.Hbonds>
donor molecule, donor type, donor heavy atom, donor atom, acceptor molecule, acceptor atom, score
      L1  H    15    34       P1  8028  1.00
      P1  H  6896  6907       L1     6  1.00
      P1  H  7989  7998       L1    17  0.80
      P1  H  7997  8010       L1    18  1.00

> <Gold.PLP.Chemscore.Internal.Correction>
0.0059

> <Gold.Rescore>
     Score         DG    S(hbond)    S(metal)    S(lipo)     H(rot)  DE(clash)    DE(int)     intcor
     17.46     -17.92       3.07        0.00      58.28       1.81       0.00       0.46       ----

> <Gold.Chemscore.Fitness>
17.4570

> <Gold.Chemscore.DG>
-17.9248

> <Gold.Chemscore.ZeroCoef>
-5.4800

> <Gold.Chemscore.Hbond>
3.0684

> <Gold.Chemscore.Metal>
0.0000

> <Gold.Chemscore.Lipo>
58.2818

> <Gold.Chemscore.Internal_Hbond>
0.0000

> <Gold.Chemscore.DEClash>
0.0038

> <Gold.Chemscore.DEInternal>
0.4640

> <Gold.Chemscore.Rot>
1.8057

> <Gold.Chemscore.Internal.Correction>
   9.000000E+99

> <Gold.Chemscore.Hbonds>
donor molecule, donor type, donor heavy atom, donor atom, acceptor molecule, acceptor atom, score
      L1  H    15    34       P1  8028  0.95
      P1  H  6896  6907       L1     6  0.97
      P1  H  7989  7998       L1    17  0.75
      P1  H  7997  8010       L1    18  0.15

> <Gold.Chemscore.Hbond.Weighted>
-10.2484

> <Gold.Chemscore.Metal.Weighted>
-0.0000

> <Gold.Chemscore.Lipo.Weighted>
-6.8190

> <Gold.Chemscore.Internal_Hbond.Weighted>
0.0000

> <Gold.Chemscore.DEClash.Weighted>
0.0038

> <Gold.Chemscore.DEInternal.Weighted>
0.4640

> <Gold.Chemscore.Rot.Weighted>
4.6226

> <Gold.Chemscore.Internal.Correction.Weighted>
   9.000000E+99

> <Gold.Protein.RotatedTorsions>
[ 6907 6896 6895 6894 ] final   59.94 input  -60.11 | X-H torsion
[ 7974 7965 7964 7962 ] final   63.27 input  175.53 | X-H torsion
[ 8008 7997 7996 7995 ] final   37.99 input   59.86 | X-H torsion
[ 10167 10162 10161 10158 ] final   87.95 input  -65.29 | X-H torsion
[ 10718 10713 10712 10709 ] final  171.27 input   66.30 | X-H torsion
[ 10763 10752 10751 10750 ] final -120.91 input  -60.55 | X-H torsion
[ 11005 11000 10999 10996 ] final   21.65 input  -57.11 | X-H torsion

> <Gold.Protein.ActiveResidues>
 VAL166  LYS551  ARG553  GLY616  TRP617  ASP618  TYR619  PRO620  LYS621  CYS622 
 ASP623  PHE694  ASN695  SER759  ASP760  ASP761  ALA762  ILE779  LEU786  VAL792 
 PHE793  MET794  SER795  GLU796  ALA797  LYS798  CYS799  TRP800  GLU811  SER814 

> <Gold.Protein.RotatedAtoms>
  152.3960  134.6365  160.0088 H   0  0  0  0  0  0  0  0  0  0  0  0  # atno 6907 bound_to 6896
  151.6585  133.3312  159.3176 H   0  0  0  0  0  0  0  0  0  0  0  0  # atno 6908 bound_to 6896
  150.7867  134.6901  159.6537 H   0  0  0  0  0  0  0  0  0  0  0  0  # atno 6909 bound_to 6896
  145.8638  139.3332  143.0803 H   0  0  0  0  0  0  0  0  0  0  0  0  # atno 7974 bound_to 7965
  155.2128  140.3325  155.4326 H   0  0  0  0  0  0  0  0  0  0  0  0  # atno 8008 bound_to 7997
  156.2364  140.1874  156.7157 H   0  0  0  0  0  0  0  0  0  0  0  0  # atno 8009 bound_to 7997
  154.6066  140.0615  156.9425 H   0  0  0  0  0  0  0  0  0  0  0  0  # atno 8010 bound_to 7997
  139.8722  144.6486  150.8937 H   0  0  0  0  0  0  0  0  0  0  0  0  # atno 10167 bound_to 10162
  156.9960  131.0162  151.2843 H   0  0  0  0  0  0  0  0  0  0  0  0  # atno 10718 bound_to 10713
  154.8656  135.4186  154.2535 H   0  0  0  0  0  0  0  0  0  0  0  0  # atno 10763 bound_to 10752
  153.3477  135.6997  153.6820 H   0  0  0  0  0  0  0  0  0  0  0  0  # atno 10764 bound_to 10752
  153.5773  135.3579  155.2834 H   0  0  0  0  0  0  0  0  0  0  0  0  # atno 10765 bound_to 10752
  140.3892  134.1837  155.7662 H   0  0  0  0  0  0  0  0  0  0  0  0  # atno 11005 bound_to 11000
  145.9217  140.9110  143.0401 LP  0  0  0  0  0  0  0  0  0  0  0  0  # atno 17320 bound_to 7965
  144.6726  140.1298  143.7444 LP  0  0  0  0  0  0  0  0  0  0  0  0  # atno 17321 bound_to 7965
  140.7759  143.3654  151.1748 LP  0  0  0  0  0  0  0  0  0  0  0  0  # atno 17342 bound_to 10162
  139.7273  143.9128  152.3007 LP  0  0  0  0  0  0  0  0  0  0  0  0  # atno 17343 bound_to 10162
  157.5424  130.8129  149.8045 LP  0  0  0  0  0  0  0  0  0  0  0  0  # atno 17370 bound_to 10713
  156.0189  130.3803  150.2024 LP  0  0  0  0  0  0  0  0  0  0  0  0  # atno 17371 bound_to 10713
  141.1897  133.8234  157.0948 LP  0  0  0  0  0  0  0  0  0  0  0  0  # atno 17394 bound_to 11000
  140.0419  134.9850  157.0978 LP  0  0  0  0  0  0  0  0  0  0  0  0  # atno 17395 bound_to 11000

$$$$
