AV-unprocessed.smi:1042|AV-procd|sdf|4536|dock1
  -GOLD-   22720 2563D 1   1.00000     0.00000
 Structure written by MMmdl.
 40 42  0  0  0  0  0  0  0  0  2 V2000
  144.7208  137.3793  152.2223 O   0  0  0  0  0  0  0  0  0  0  0  0
  145.8992  137.0547  152.0736 C   0  0  0  0  0  0  0  0  0  0  0  0
  146.9215  137.9161  152.1828 N   0  0  0  0  0  0  0  0  0  0  0  0
  146.8006  139.3386  152.4894 C   0  0  0  0  0  0  0  0  0  0  0  0
  147.5753  139.7238  153.7648 C   0  0  2  0  0  0  0  0  0  0  0  0
  148.0433  141.1782  153.8318 C   0  0  0  0  0  0  0  0  0  0  0  0
  149.2047  141.1567  154.8310 C   0  0  0  0  0  0  0  0  0  0  0  0
  149.6778  139.7549  154.9050 N   0  3  2  0  0  0  0  0  0  0  0  0
  151.1405  139.6004  154.7563 C   0  0  0  0  0  0  0  0  0  0  0  0
  151.7123  138.4595  155.5629 C   0  0  0  0  0  0  0  0  0  0  0  0
  151.9103  139.8878  156.0230 C   0  0  0  0  0  0  0  0  0  0  0  0
  148.8907  138.9640  153.9363 C   0  0  0  0  0  0  0  0  0  0  0  0
  146.3352  135.8146  151.7903 N   0  0  0  0  0  0  0  0  0  0  0  0
  145.5699  134.6263  151.6483 C   0  0  0  0  0  0  0  0  0  0  0  0
  146.3230  133.4314  151.5998 C   0  0  0  0  0  0  0  0  0  0  0  0
  145.6574  132.1975  151.4665 C   0  0  0  0  0  0  0  0  0  0  0  0
  144.2536  132.1900  151.3841 C   0  0  0  0  0  0  0  0  0  0  0  0
  143.5799  133.4240  151.4399 C   0  0  0  0  0  0  0  0  0  0  0  0
  144.2158  134.6078  151.5690 N   0  0  0  0  0  0  0  0  0  0  0  0
  147.8559  137.5615  152.0398 H   0  0  0  0  0  0  0  0  0  0  0  0
  147.2012  139.8930  151.6405 H   0  0  0  0  0  0  0  0  0  0  0  0
  145.7517  139.6287  152.5721 H   0  0  0  0  0  0  0  0  0  0  0  0
  146.9501  139.5228  154.6367 H   0  0  0  0  0  0  0  0  0  0  0  0
  148.4132  141.4955  152.8558 H   0  0  0  0  0  0  0  0  0  0  0  0
  147.2501  141.8662  154.1262 H   0  0  0  0  0  0  0  0  0  0  0  0
  149.9936  141.8475  154.5296 H   0  0  0  0  0  0  0  0  0  0  0  0
  148.8654  141.4568  155.8227 H   0  0  0  0  0  0  0  0  0  0  0  0
  151.5602  139.8588  153.7855 H   0  0  0  0  0  0  0  0  0  0  0  0
  151.0261  137.8377  156.1354 H   0  0  0  0  0  0  0  0  0  0  0  0
  152.5785  137.9422  155.1555 H   0  0  0  0  0  0  0  0  0  0  0  0
  152.9075  140.3106  155.9192 H   0  0  0  0  0  0  0  0  0  0  0  0
  151.3552  140.2161  156.8997 H   0  0  0  0  0  0  0  0  0  0  0  0
  148.7419  137.9417  154.2853 H   0  0  0  0  0  0  0  0  0  0  0  0
  149.4203  138.9193  152.9827 H   0  0  0  0  0  0  0  0  0  0  0  0
  147.3322  135.7030  151.6801 H   0  0  0  0  0  0  0  0  0  0  0  0
  147.4013  133.4548  151.6651 H   0  0  0  0  0  0  0  0  0  0  0  0
  146.2150  131.2732  151.4284 H   0  0  0  0  0  0  0  0  0  0  0  0
  143.7079  131.2640  151.2811 H   0  0  0  0  0  0  0  0  0  0  0  0
  142.5023  133.4622  151.3803 H   0  0  0  0  0  0  0  0  0  0  0  0
  149.4275  139.4200  155.8245 H   0  0  0  0  0  0  0  0  0  0  0  0
  1  2  2  0  0  0  0
  2  3  1  0  0  0  0
  2 13  1  0  0  0  0
  3  4  1  0  0  0  0
  3 20  1  0  0  0  0
  4  5  1  0  0  0  0
  4 21  1  0  0  0  0
  4 22  1  0  0  0  0
  5 12  1  0  0  0  0
  5  6  1  0  0  0  0
  5 23  1  0  0  0  0
  6  7  1  0  0  0  0
  6 24  1  0  0  0  0
  6 25  1  0  0  0  0
  7  8  1  0  0  0  0
  7 26  1  0  0  0  0
  7 27  1  0  0  0  0
  8  9  1  0  0  0  0
  8 12  1  0  0  0  0
  8 40  1  0  0  0  0
  9 11  1  0  0  0  0
  9 10  1  0  0  0  0
  9 28  1  0  0  0  0
 10 11  1  0  0  0  0
 10 29  1  0  0  0  0
 10 30  1  0  0  0  0
 11 31  1  0  0  0  0
 11 32  1  0  0  0  0
 12 33  1  0  0  0  0
 12 34  1  0  0  0  0
 13 14  1  0  0  0  0
 13 35  1  0  0  0  0
 14 19  1  0  0  0  0
 14 15  2  0  0  0  0
 15 16  1  0  0  0  0
 15 36  1  0  0  0  0
 16 17  2  0  0  0  0
 16 37  1  0  0  0  0
 17 18  1  0  0  0  0
 17 38  1  0  0  0  0
 18 19  2  0  0  0  0
 18 39  1  0  0  0  0
M  CHG  1   8   1
M  END
> <s_m_source_file>
AV-unprocessed.smi

> <i_m_source_file_index>
1042

> <i_lp_mmshare_version>
43012

> <i_f3d_flags>
0

> <s_epik_input>
bjFbY0hdW2NIXVtjSF1bY0hdYzFbTkhdQyg9TylbTkhdW0NIMl1bQ0BASF0yW0NIMl1bQ0gyXU4oW0NIMl0yKVtDSF0zW0NIMl1bQ0gyXTM=

> <s_epik_cmdline>
J2VwaWtfcHl0aG9uJywgJy1waCcsICc3LjAnLCAnLXRuJywgJzgnLCAnLW1hJywgJzIwMCcsICctbWV0YWxfYmluZGluZycsICctaW1hZScsICc8aW5maWxlLm1hZT4nLCAnLW9tYWUnLCAnPG91dGZpbGUubWFlPic=

> <r_lp_tautomer_probability>
1

> <r_epik_Ionization_Penalty>
0.000244736

> <r_epik_Ionization_Penalty_Charging>
0.000203384

> <r_epik_Ionization_Penalty_Neutral>
4.13519e-05

> <r_epik_State_Penalty>
-0

> <r_epik_Charging_Adjusted_Penalty>
0.000203384

> <i_epik_Tot_Q>
1

> <i_epik_Tot_abs_Q>
1

> <r_epik_Metal_State_Penalty>
-0

> <b_epik_Metal_Only>
0

> <s_lp_Force_Field>
OPLS_2005

> <r_lp_Energy>
38.723

> <b_lp_Chiralities_Consistent>
1

> <s_lp_Variant>
AV-unprocessed.smi:1042-1

> <Gold.Version>
5.8.1

> <Gold.Id.Protein>
6NUR|6NUR_protein|mol2

> <Gold.PLP.Fitness>
42.1689

> <Gold.PLP.PLP>
-33.7863

> <Gold.PLP.part.hbond>
-2.0000

> <Gold.PLP.part.metal>
0.0000

> <Gold.PLP.part.buried>
-1.4851

> <Gold.PLP.part.nonpolar>
-32.7124

> <Gold.PLP.part.repulsive>
2.5279

> <Gold.PLP.ligand.clash>
0.0000

> <Gold.PLP.ligand.torsion>
0.9394

> <Gold.PLP.Chemscore.Hbond>
2.0000

> <Gold.PLP.Chemscore.CHOScore>
1.0000

> <Gold.PLP.Chemscore.Metal>
0.0000

> <Gold.Chemscore.Hbonds>
donor molecule, donor type, donor heavy atom, donor atom, acceptor molecule, acceptor atom, score
      L1  H     3    20       P1  7948  1.00
      L1  H    13    35       P1  7948  1.00
      L1  C    18    39       P1 10186  0.98

> <Gold.PLP.Chemscore.Internal.Correction>
1.2613

> <Gold.Rescore>
     Score         DG    S(hbond)    S(metal)    S(lipo)     H(rot)  DE(clash)    DE(int)     intcor
     15.34     -17.64       1.93        0.00      80.95       1.47       0.10       2.19       ----

> <Gold.Chemscore.Fitness>
15.3447

> <Gold.Chemscore.DG>
-17.6393

> <Gold.Chemscore.ZeroCoef>
-5.4800

> <Gold.Chemscore.Hbond>
1.9320

> <Gold.Chemscore.Metal>
0.0000

> <Gold.Chemscore.Lipo>
80.9519

> <Gold.Chemscore.Internal_Hbond>
0.0000

> <Gold.Chemscore.DEClash>
0.1034

> <Gold.Chemscore.DEInternal>
2.1912

> <Gold.Chemscore.Rot>
1.4707

> <Gold.Chemscore.Internal.Correction>
   9.000000E+99

> <Gold.Chemscore.Hbonds>
donor molecule, donor type, donor heavy atom, donor atom, acceptor molecule, acceptor atom, score
      L1  H     3    20       P1  7948  0.95
      L1  H    13    35       P1  7948  0.97

> <Gold.Chemscore.Hbond.Weighted>
-6.4529

> <Gold.Chemscore.Metal.Weighted>
-0.0000

> <Gold.Chemscore.Lipo.Weighted>
-9.4714

> <Gold.Chemscore.Internal_Hbond.Weighted>
0.0000

> <Gold.Chemscore.DEClash.Weighted>
0.1034

> <Gold.Chemscore.DEInternal.Weighted>
2.1912

> <Gold.Chemscore.Rot.Weighted>
3.7650

> <Gold.Chemscore.Internal.Correction.Weighted>
   9.000000E+99

> <Gold.Protein.RotatedTorsions>
[ 6907 6896 6895 6894 ] final  -90.69 input  -60.11 | X-H torsion
[ 7974 7965 7964 7962 ] final  -95.68 input  175.53 | X-H torsion
[ 8008 7997 7996 7995 ] final  165.74 input   59.86 | X-H torsion
[ 10167 10162 10161 10158 ] final   71.55 input  -65.29 | X-H torsion
[ 10718 10713 10712 10709 ] final  110.59 input   66.30 | X-H torsion
[ 10763 10752 10751 10750 ] final   10.03 input  -60.55 | X-H torsion
[ 11005 11000 10999 10996 ] final  -72.41 input  -57.11 | X-H torsion

> <Gold.Protein.ActiveResidues>
 VAL166  LYS551  ARG553  GLY616  TRP617  ASP618  TYR619  PRO620  LYS621  CYS622 
 ASP623  PHE694  ASN695  SER759  ASP760  ASP761  ALA762  ILE779  LEU786  VAL792 
 PHE793  MET794  SER795  GLU796  ALA797  LYS798  CYS799  TRP800  GLU811  SER814 

> <Gold.Protein.RotatedAtoms>
  150.6884  134.2393  159.4465 H   0  0  0  0  0  0  0  0  0  0  0  0  # atno 6907 bound_to 6896
  152.0339  134.9749  160.0582 H   0  0  0  0  0  0  0  0  0  0  0  0  # atno 6908 bound_to 6896
  152.1278  133.4355  159.4743 H   0  0  0  0  0  0  0  0  0  0  0  0  # atno 6909 bound_to 6896
  145.3569  140.9485  143.2522 H   0  0  0  0  0  0  0  0  0  0  0  0  # atno 7974 bound_to 7965
  156.1776  140.1662  156.8334 H   0  0  0  0  0  0  0  0  0  0  0  0  # atno 8008 bound_to 7997
  154.5324  140.0754  156.8402 H   0  0  0  0  0  0  0  0  0  0  0  0  # atno 8009 bound_to 7997
  155.3380  140.3383  155.4241 H   0  0  0  0  0  0  0  0  0  0  0  0  # atno 8010 bound_to 7997
  140.0449  144.5359  150.7406 H   0  0  0  0  0  0  0  0  0  0  0  0  # atno 10167 bound_to 10162
  157.6487  131.0935  150.6624 H   0  0  0  0  0  0  0  0  0  0  0  0  # atno 10718 bound_to 10713
  153.2076  135.6864  153.8153 H   0  0  0  0  0  0  0  0  0  0  0  0  # atno 10763 bound_to 10752
  153.7397  135.3240  155.3303 H   0  0  0  0  0  0  0  0  0  0  0  0  # atno 10764 bound_to 10752
  154.8205  135.4655  154.0870 H   0  0  0  0  0  0  0  0  0  0  0  0  # atno 10765 bound_to 10752
  141.1608  133.6846  156.7055 H   0  0  0  0  0  0  0  0  0  0  0  0  # atno 11005 bound_to 11000
  144.8675  139.5086  143.6783 LP  0  0  0  0  0  0  0  0  0  0  0  0  # atno 17320 bound_to 7965
  146.2944  139.7234  142.9137 LP  0  0  0  0  0  0  0  0  0  0  0  0  # atno 17321 bound_to 7965
  140.7243  143.2620  151.4172 LP  0  0  0  0  0  0  0  0  0  0  0  0  # atno 17342 bound_to 10162
  139.5990  144.1336  152.2177 LP  0  0  0  0  0  0  0  0  0  0  0  0  # atno 17343 bound_to 10162
  156.6938  130.4603  149.5592 LP  0  0  0  0  0  0  0  0  0  0  0  0  # atno 17370 bound_to 10713
  156.1843  130.6519  151.0988 LP  0  0  0  0  0  0  0  0  0  0  0  0  # atno 17371 bound_to 10713
  140.2927  134.8228  157.4030 LP  0  0  0  0  0  0  0  0  0  0  0  0  # atno 17394 bound_to 11000
  140.1332  134.5067  155.8089 LP  0  0  0  0  0  0  0  0  0  0  0  0  # atno 17395 bound_to 11000

$$$$
