AV-unprocessed.smi:2110|AV-procd|sdf|8608|dock3
  -GOLD-   2272011353D 1   1.00000     0.00000
 Structure written by MMmdl.
 46 47  0  0  0  0  0  0  0  0  1 V2000
  148.7795  131.7286  153.6415 C   0  0  0  0  0  0  0  0  0  0  0  0
  150.0102  132.5851  153.9804 C   0  0  0  0  0  0  0  0  0  0  0  0
  150.4179  132.4766  155.3953 N   0  0  0  0  0  0  0  0  0  0  0  0
  151.7947  132.0145  155.6583 C   0  0  0  0  0  0  0  0  0  0  0  0
  151.8582  130.8663  156.6763 C   0  0  0  0  0  0  0  0  0  0  0  0
  149.5158  133.2928  156.6375 S   0  0  0  0  0  0  0  0  0  0  0  0
  148.0913  132.9513  156.5038 O   0  0  0  0  0  0  0  0  0  0  0  0
  150.2116  133.1376  157.9242 O   0  0  0  0  0  0  0  0  0  0  0  0
  149.7257  134.9178  156.1162 N   0  0  0  0  0  0  0  0  0  0  0  0
  150.8688  135.7137  156.5571 C   0  0  0  0  0  0  0  0  0  0  0  0
  150.9254  137.1155  155.9675 C   0  0  0  0  0  0  0  0  0  0  0  0
  150.7175  137.2927  154.5860 C   0  0  0  0  0  0  0  0  0  0  0  0
  150.7801  138.5951  154.0570 C   0  0  0  0  0  0  0  0  0  0  0  0
  151.0244  139.6883  154.8091 N   0  0  0  0  0  0  0  0  0  0  0  0
  151.2190  139.5347  156.1420 C   0  0  0  0  0  0  0  0  0  0  0  0
  151.4619  140.6847  156.9231 N   0  0  0  0  0  0  0  0  0  0  0  0
  151.8932  140.4295  158.2955 C   0  0  0  0  0  0  0  0  0  0  0  0
  152.4150  141.7241  158.9418 C   0  0  0  0  0  0  0  0  0  0  0  0
  151.4226  142.7411  158.8535 O   0  0  0  0  0  0  0  0  0  0  0  0
  151.0987  143.0500  157.5019 C   0  0  0  0  0  0  0  0  0  0  0  0
  150.5270  141.8019  156.8083 C   0  0  0  0  0  0  0  0  0  0  0  0
  151.1859  138.2603  156.7556 C   0  0  0  0  0  0  0  0  0  0  0  0
  148.4656  131.9037  152.6126 H   0  0  0  0  0  0  0  0  0  0  0  0
  147.9309  131.9547  154.2859 H   0  0  0  0  0  0  0  0  0  0  0  0
  148.9948  130.6644  153.7341 H   0  0  0  0  0  0  0  0  0  0  0  0
  150.8477  132.2799  153.3529 H   0  0  0  0  0  0  0  0  0  0  0  0
  149.8120  133.6288  153.7343 H   0  0  0  0  0  0  0  0  0  0  0  0
  152.2571  131.6998  154.7230 H   0  0  0  0  0  0  0  0  0  0  0  0
  152.3883  132.8560  156.0170 H   0  0  0  0  0  0  0  0  0  0  0  0
  152.8861  130.5258  156.8004 H   0  0  0  0  0  0  0  0  0  0  0  0
  151.2691  130.0082  156.3562 H   0  0  0  0  0  0  0  0  0  0  0  0
  151.5030  131.1783  157.6581 H   0  0  0  0  0  0  0  0  0  0  0  0
  149.3580  135.1345  155.1905 H   0  0  0  0  0  0  0  0  0  0  0  0
  150.8534  135.7788  157.6454 H   0  0  0  0  0  0  0  0  0  0  0  0
  151.7857  135.1913  156.2819 H   0  0  0  0  0  0  0  0  0  0  0  0
  150.5176  136.4489  153.9419 H   0  0  0  0  0  0  0  0  0  0  0  0
  150.6286  138.7640  153.0014 H   0  0  0  0  0  0  0  0  0  0  0  0
  151.0453  140.0456  158.8640 H   0  0  0  0  0  0  0  0  0  0  0  0
  152.6732  139.6709  158.3407 H   0  0  0  0  0  0  0  0  0  0  0  0
  152.6510  141.5500  159.9916 H   0  0  0  0  0  0  0  0  0  0  0  0
  153.3358  142.0556  158.4591 H   0  0  0  0  0  0  0  0  0  0  0  0
  150.3652  143.8560  157.4872 H   0  0  0  0  0  0  0  0  0  0  0  0
  151.9842  143.4152  156.9790 H   0  0  0  0  0  0  0  0  0  0  0  0
  150.3348  142.0267  155.7584 H   0  0  0  0  0  0  0  0  0  0  0  0
  149.5749  141.5256  157.2637 H   0  0  0  0  0  0  0  0  0  0  0  0
  151.3731  138.1694  157.8142 H   0  0  0  0  0  0  0  0  0  0  0  0
  1  2  1  0  0  0  0
  1 23  1  0  0  0  0
  1 24  1  0  0  0  0
  1 25  1  0  0  0  0
  2  3  1  0  0  0  0
  2 26  1  0  0  0  0
  2 27  1  0  0  0  0
  3  4  1  0  0  0  0
  3  6  1  0  0  0  0
  4  5  1  0  0  0  0
  4 28  1  0  0  0  0
  4 29  1  0  0  0  0
  5 30  1  0  0  0  0
  5 31  1  0  0  0  0
  5 32  1  0  0  0  0
  6  7  2  0  0  0  0
  6  8  2  0  0  0  0
  6  9  1  0  0  0  0
  9 10  1  0  0  0  0
  9 33  1  0  0  0  0
 10 11  1  0  0  0  0
 10 34  1  0  0  0  0
 10 35  1  0  0  0  0
 11 22  1  0  0  0  0
 11 12  2  0  0  0  0
 12 13  1  0  0  0  0
 12 36  1  0  0  0  0
 13 14  2  0  0  0  0
 13 37  1  0  0  0  0
 14 15  1  0  0  0  0
 15 16  1  0  0  0  0
 15 22  2  0  0  0  0
 16 21  1  0  0  0  0
 16 17  1  0  0  0  0
 17 18  1  0  0  0  0
 17 38  1  0  0  0  0
 17 39  1  0  0  0  0
 18 19  1  0  0  0  0
 18 40  1  0  0  0  0
 18 41  1  0  0  0  0
 19 20  1  0  0  0  0
 20 21  1  0  0  0  0
 20 42  1  0  0  0  0
 20 43  1  0  0  0  0
 21 44  1  0  0  0  0
 21 45  1  0  0  0  0
 22 46  1  0  0  0  0
M  END
> <s_m_source_file>
AV-unprocessed.smi

> <i_m_source_file_index>
2110

> <i_lp_mmshare_version>
43012

> <i_f3d_flags>
0

> <s_epik_input>
W0NIM11bQ0gyXU4oW0NIMl1bQ0gzXSlTKD1PKSg9TylbTkhdW0NIMl1jMVtjSF1bY0hdbmMoW2NIXTEpTjJbQ0gyXVtDSDJdT1tDSDJdW0NIMl0y

> <s_epik_cmdline>
J2VwaWtfcHl0aG9uJywgJy1waCcsICc3LjAnLCAnLXRuJywgJzgnLCAnLW1hJywgJzIwMCcsICctbWV0YWxfYmluZGluZycsICctaW1hZScsICc8aW5maWxlLm1hZT4nLCAnLW9tYWUnLCAnPG91dGZpbGUubWFlPic=

> <r_lp_tautomer_probability>
1

> <r_epik_Ionization_Penalty>
0.0503757

> <r_epik_Ionization_Penalty_Charging>
0

> <r_epik_Ionization_Penalty_Neutral>
0.0503757

> <r_epik_State_Penalty>
0.0467666

> <r_epik_Charging_Adjusted_Penalty>
0.0467666

> <i_epik_Tot_Q>
0

> <i_epik_Tot_abs_Q>
0

> <r_epik_Metal_State_Penalty>
0.311919

> <b_epik_Metal_Only>
0

> <s_lp_Force_Field>
OPLS_2005

> <r_lp_Energy>
13.6867

> <b_lp_Chiralities_Consistent>
1

> <s_lp_Variant>
AV-unprocessed.smi:2110-1

> <Gold.Version>
5.8.1

> <Gold.Id.Protein>
6NUR|6NUR_protein|mol2

> <Gold.PLP.Fitness>
40.4801

> <Gold.PLP.PLP>
-31.8642

> <Gold.PLP.part.hbond>
-2.0000

> <Gold.PLP.part.metal>
0.0000

> <Gold.PLP.part.buried>
-6.0857

> <Gold.PLP.part.nonpolar>
-24.7197

> <Gold.PLP.part.repulsive>
0.1247

> <Gold.PLP.ligand.clash>
0.0000

> <Gold.PLP.ligand.torsion>
2.0206

> <Gold.PLP.Chemscore.Hbond>
2.0000

> <Gold.PLP.Chemscore.CHOScore>
1.0000

> <Gold.PLP.Chemscore.Metal>
0.0000

> <Gold.Chemscore.Hbonds>
donor molecule, donor type, donor heavy atom, donor atom, acceptor molecule, acceptor atom, score
      P1  H  6896  6909       L1     8  1.00
      P1  H  7989  7998       L1    14  1.00
      L1  C    13    37       P1  7957  1.00

> <Gold.PLP.Chemscore.Internal.Correction>
3.6570

> <Gold.Rescore>
     Score         DG    S(hbond)    S(metal)    S(lipo)     H(rot)  DE(clash)    DE(int)     intcor
     12.40     -14.35       1.09        0.00      82.27       1.72       0.00       1.95       ----

> <Gold.Chemscore.Fitness>
12.3976

> <Gold.Chemscore.DG>
-14.3455

> <Gold.Chemscore.ZeroCoef>
-5.4800

> <Gold.Chemscore.Hbond>
1.0889

> <Gold.Chemscore.Metal>
0.0000

> <Gold.Chemscore.Lipo>
82.2724

> <Gold.Chemscore.Internal_Hbond>
0.0000

> <Gold.Chemscore.DEClash>
0.0015

> <Gold.Chemscore.DEInternal>
1.9464

> <Gold.Chemscore.Rot>
1.7177

> <Gold.Chemscore.Internal.Correction>
   9.000000E+99

> <Gold.Chemscore.Hbonds>
donor molecule, donor type, donor heavy atom, donor atom, acceptor molecule, acceptor atom, score
      P1  H  6896  6909       L1     8  0.97
      P1  H  7989  7998       L1    14  0.26

> <Gold.Chemscore.Hbond.Weighted>
-3.6370

> <Gold.Chemscore.Metal.Weighted>
-0.0000

> <Gold.Chemscore.Lipo.Weighted>
-9.6259

> <Gold.Chemscore.Internal_Hbond.Weighted>
0.0000

> <Gold.Chemscore.DEClash.Weighted>
0.0015

> <Gold.Chemscore.DEInternal.Weighted>
1.9464

> <Gold.Chemscore.Rot.Weighted>
4.3974

> <Gold.Chemscore.Internal.Correction.Weighted>
   9.000000E+99

> <Gold.Protein.RotatedTorsions>
[ 6907 6896 6895 6894 ] final  -19.22 input  -60.11 | X-H torsion
[ 7974 7965 7964 7962 ] final   40.58 input  175.53 | X-H torsion
[ 8008 7997 7996 7995 ] final  -76.32 input   59.86 | X-H torsion
[ 10167 10162 10161 10158 ] final  -11.62 input  -65.29 | X-H torsion
[ 10718 10713 10712 10709 ] final -109.92 input   66.30 | X-H torsion
[ 10763 10752 10751 10750 ] final -143.46 input  -60.55 | X-H torsion
[ 11005 11000 10999 10996 ] final -115.50 input  -57.11 | X-H torsion

> <Gold.Protein.ActiveResidues>
 VAL166  LYS551  ARG553  GLY616  TRP617  ASP618  TYR619  PRO620  LYS621  CYS622 
 ASP623  PHE694  ASN695  SER759  ASP760  ASP761  ALA762  ILE779  LEU786  VAL792 
 PHE793  MET794  SER795  GLU796  ALA797  LYS798  CYS799  TRP800  GLU811  SER814 

> <Gold.Protein.RotatedAtoms>
  151.2664  135.0670  159.9117 H   0  0  0  0  0  0  0  0  0  0  0  0  # atno 6907 bound_to 6896
  152.5358  134.0176  159.7977 H   0  0  0  0  0  0  0  0  0  0  0  0  # atno 6908 bound_to 6896
  151.0408  133.5658  159.2682 H   0  0  0  0  0  0  0  0  0  0  0  0  # atno 6909 bound_to 6896
  146.0893  139.5516  142.9486 H   0  0  0  0  0  0  0  0  0  0  0  0  # atno 7974 bound_to 7965
  154.5495  140.0729  156.8644 H   0  0  0  0  0  0  0  0  0  0  0  0  # atno 8008 bound_to 7997
  155.3021  140.3385  155.4229 H   0  0  0  0  0  0  0  0  0  0  0  0  # atno 8009 bound_to 7997
  156.1948  140.1699  156.8005 H   0  0  0  0  0  0  0  0  0  0  0  0  # atno 8010 bound_to 7997
  140.7142  143.5620  150.9185 H   0  0  0  0  0  0  0  0  0  0  0  0  # atno 10167 bound_to 10162
  156.0562  130.5788  150.8166 H   0  0  0  0  0  0  0  0  0  0  0  0  # atno 10718 bound_to 10713
  154.8469  135.3467  154.6191 H   0  0  0  0  0  0  0  0  0  0  0  0  # atno 10763 bound_to 10752
  153.6800  135.6980  153.5125 H   0  0  0  0  0  0  0  0  0  0  0  0  # atno 10764 bound_to 10752
  153.2676  135.4303  155.0912 H   0  0  0  0  0  0  0  0  0  0  0  0  # atno 10765 bound_to 10752
  141.0483  133.9727  157.2879 H   0  0  0  0  0  0  0  0  0  0  0  0  # atno 11005 bound_to 11000
  145.6069  141.0346  143.1987 LP  0  0  0  0  0  0  0  0  0  0  0  0  # atno 17320 bound_to 7965
  144.7348  139.7617  143.7333 LP  0  0  0  0  0  0  0  0  0  0  0  0  # atno 17321 bound_to 7965
  139.9346  143.6453  152.3068 LP  0  0  0  0  0  0  0  0  0  0  0  0  # atno 17342 bound_to 10162
  139.6916  144.7646  151.1428 LP  0  0  0  0  0  0  0  0  0  0  0  0  # atno 17343 bound_to 10162
  157.5534  131.0944  150.9662 LP  0  0  0  0  0  0  0  0  0  0  0  0  # atno 17370 bound_to 10713
  156.9917  130.5566  149.5304 LP  0  0  0  0  0  0  0  0  0  0  0  0  # atno 17371 bound_to 10713
  139.9330  135.0198  156.8463 LP  0  0  0  0  0  0  0  0  0  0  0  0  # atno 17394 bound_to 11000
  140.6103  134.0088  155.7574 LP  0  0  0  0  0  0  0  0  0  0  0  0  # atno 17395 bound_to 11000

$$$$
