AV-unprocessed.smi:3124|AV-procd|sdf|11903|dock5
  -GOLD-   2272017283D 1   1.00000     0.00000
 Structure written by MMmdl.
 24 24  0  0  0  0  0  0  0  0  2 V2000
  146.7424  138.7026  152.0456 C   0  0  0  0  0  0  0  0  0  0  0  0
  145.6670  137.6702  152.0755 C   0  0  0  0  0  0  0  0  0  0  0  0
  145.6935  136.3278  151.8209 C   0  0  0  0  0  0  0  0  0  0  0  0
  144.3458  135.9048  152.0173 C   0  0  0  0  0  0  0  0  0  0  0  0
  143.7796  134.5178  151.8724 C   0  0  0  0  0  0  0  0  0  0  0  0
  144.2422  133.8131  150.5822 C   0  0  1  0  0  0  0  0  0  0  0  0
  143.6472  132.4037  150.4604 C   0  0  0  0  0  0  0  0  0  0  0  0
  143.9026  134.6126  149.3904 N   0  3  0  0  0  0  0  0  0  0  0  0
  143.5488  136.9039  152.3670 N   0  0  0  0  0  0  0  0  0  0  0  0
  144.3650  137.9738  152.3999 N   0  0  0  0  0  0  0  0  0  0  0  0
  144.0237  138.8947  152.6379 H   0  0  0  0  0  0  0  0  0  0  0  0
  147.6620  138.2956  151.6245 H   0  0  0  0  0  0  0  0  0  0  0  0
  146.9623  139.0620  153.0510 H   0  0  0  0  0  0  0  0  0  0  0  0
  146.4443  139.5572  151.4378 H   0  0  0  0  0  0  0  0  0  0  0  0
  146.5493  135.7352  151.5330 H   0  0  0  0  0  0  0  0  0  0  0  0
  142.6898  134.5614  151.8957 H   0  0  0  0  0  0  0  0  0  0  0  0
  144.0693  133.9177  152.7363 H   0  0  0  0  0  0  0  0  0  0  0  0
  145.3285  133.7175  150.6065 H   0  0  0  0  0  0  0  0  0  0  0  0
  143.9268  131.7846  151.3136 H   0  0  0  0  0  0  0  0  0  0  0  0
  144.0047  131.9012  149.5609 H   0  0  0  0  0  0  0  0  0  0  0  0
  142.5578  132.4334  150.4157 H   0  0  0  0  0  0  0  0  0  0  0  0
  144.0028  135.5949  149.6015 H   0  0  0  0  0  0  0  0  0  0  0  0
  142.9492  134.4222  149.1167 H   0  0  0  0  0  0  0  0  0  0  0  0
  144.5250  134.3660  148.6336 H   0  0  0  0  0  0  0  0  0  0  0  0
  1 12  1  0  0  0  0
  1 13  1  0  0  0  0
  1 14  1  0  0  0  0
  1  2  1  0  0  0  0
  2 10  1  0  0  0  0
  2  3  2  0  0  0  0
  3  4  1  0  0  0  0
  3 15  1  0  0  0  0
  4  5  1  0  0  0  0
  4  9  2  0  0  0  0
  5  6  1  0  0  0  0
  5 16  1  0  0  0  0
  5 17  1  0  0  0  0
  6  7  1  0  0  0  0
  6  8  1  0  0  0  0
  6 18  1  0  0  0  0
  7 19  1  0  0  0  0
  7 20  1  0  0  0  0
  7 21  1  0  0  0  0
  8 22  1  0  0  0  0
  8 23  1  0  0  0  0
  8 24  1  0  0  0  0
  9 10  1  0  0  0  0
 10 11  1  0  0  0  0
M  CHG  1   8   1
M  END
> <s_m_source_file>
AV-unprocessed.smi

> <i_m_source_file_index>
3124

> <i_lp_mmshare_version>
43012

> <i_f3d_flags>
0

> <s_epik_input>
W0NIM11jMVtjSF1jKFtuSF1uMSlbQ0gyXVtDQEhdKFtDSDNdKVtOSDJd

> <s_epik_cmdline>
J2VwaWtfcHl0aG9uJywgJy1waCcsICc3LjAnLCAnLXRuJywgJzgnLCAnLW1hJywgJzIwMCcsICctbWV0YWxfYmluZGluZycsICctaW1hZScsICc8aW5maWxlLm1hZT4nLCAnLW9tYWUnLCAnPG91dGZpbGUubWFlPic=

> <r_lp_tautomer_probability>
0.5

> <r_epik_Ionization_Penalty>
0.00151643

> <r_epik_Ionization_Penalty_Charging>
0.00146569

> <r_epik_Ionization_Penalty_Neutral>
5.07401e-05

> <r_epik_State_Penalty>
0.379573

> <r_epik_Charging_Adjusted_Penalty>
0.381038

> <i_epik_Tot_Q>
1

> <i_epik_Tot_abs_Q>
1

> <r_epik_Metal_State_Penalty>
0.378341

> <b_epik_Metal_Only>
0

> <s_lp_Force_Field>
OPLS_2005

> <r_lp_Energy>
2.04404

> <b_lp_Chiralities_Consistent>
1

> <s_lp_Variant>
AV-unprocessed.smi:3124-2

> <Gold.Version>
5.8.1

> <Gold.Id.Protein>
6NUR|6NUR_protein|mol2

> <Gold.PLP.Fitness>
33.6548

> <Gold.PLP.PLP>
-22.1067

> <Gold.PLP.part.hbond>
-4.0000

> <Gold.PLP.part.metal>
0.0000

> <Gold.PLP.part.buried>
-1.9425

> <Gold.PLP.part.nonpolar>
-17.2042

> <Gold.PLP.part.repulsive>
0.7275

> <Gold.PLP.ligand.clash>
0.0000

> <Gold.PLP.ligand.torsion>
0.1675

> <Gold.PLP.Chemscore.Hbond>
3.9600

> <Gold.PLP.Chemscore.CHOScore>
0.0000

> <Gold.PLP.Chemscore.Metal>
0.0000

> <Gold.Chemscore.Hbonds>
donor molecule, donor type, donor heavy atom, donor atom, acceptor molecule, acceptor atom, score
      L1  H     8    23       P1 10186  1.98
      L1  H     8    24       P1  7921  0.94
      L1  H    10    11       P1 10175  1.00

> <Gold.PLP.Chemscore.Internal.Correction>
0.0031

> <Gold.Rescore>
     Score         DG    S(hbond)    S(metal)    S(lipo)     H(rot)  DE(clash)    DE(int)     intcor
     16.81     -17.08       2.84        0.00      46.45       1.30       0.15       0.12       ----

> <Gold.Chemscore.Fitness>
16.8138

> <Gold.Chemscore.DG>
-17.0839

> <Gold.Chemscore.ZeroCoef>
-5.4800

> <Gold.Chemscore.Hbond>
2.8425

> <Gold.Chemscore.Metal>
0.0000

> <Gold.Chemscore.Lipo>
46.4498

> <Gold.Chemscore.Internal_Hbond>
0.0000

> <Gold.Chemscore.DEClash>
0.1522

> <Gold.Chemscore.DEInternal>
0.1178

> <Gold.Chemscore.Rot>
1.2987

> <Gold.Chemscore.Internal.Correction>
   9.000000E+99

> <Gold.Chemscore.Hbonds>
donor molecule, donor type, donor heavy atom, donor atom, acceptor molecule, acceptor atom, score
      L1  H     8    23       P1 10186  0.92
      L1  H     8    24       P1  7921  0.91
      L1  H    10    11       P1 10175  0.98

> <Gold.Chemscore.Hbond.Weighted>
-9.4939

> <Gold.Chemscore.Metal.Weighted>
-0.0000

> <Gold.Chemscore.Lipo.Weighted>
-5.4346

> <Gold.Chemscore.Internal_Hbond.Weighted>
0.0000

> <Gold.Chemscore.DEClash.Weighted>
0.1522

> <Gold.Chemscore.DEInternal.Weighted>
0.1178

> <Gold.Chemscore.Rot.Weighted>
3.3246

> <Gold.Chemscore.Internal.Correction.Weighted>
   9.000000E+99

> <Gold.Protein.RotatedTorsions>
[ 6907 6896 6895 6894 ] final  -55.17 input  -60.11 | X-H torsion
[ 7974 7965 7964 7962 ] final  -87.27 input  175.53 | X-H torsion
[ 8008 7997 7996 7995 ] final  -12.08 input   59.86 | X-H torsion
[ 10167 10162 10161 10158 ] final   77.92 input  -65.29 | X-H torsion
[ 10718 10713 10712 10709 ] final  169.70 input   66.30 | X-H torsion
[ 10763 10752 10751 10750 ] final -134.85 input  -60.55 | X-H torsion
[ 11005 11000 10999 10996 ] final   56.42 input  -57.11 | X-H torsion

> <Gold.Protein.ActiveResidues>
 VAL166  LYS551  ARG553  GLY616  TRP617  ASP618  TYR619  PRO620  LYS621  CYS622 
 ASP623  PHE694  ASN695  SER759  ASP760  ASP761  ALA762  ILE779  LEU786  VAL792 
 PHE793  MET794  SER795  GLU796  ALA797  LYS798  CYS799  TRP800  GLU811  SER814 

> <Gold.Protein.RotatedAtoms>
  150.8275  134.7512  159.6824 H   0  0  0  0  0  0  0  0  0  0  0  0  # atno 6907 bound_to 6896
  152.4384  134.5638  159.9911 H   0  0  0  0  0  0  0  0  0  0  0  0  # atno 6908 bound_to 6896
  151.5806  133.3340  159.3043 H   0  0  0  0  0  0  0  0  0  0  0  0  # atno 6909 bound_to 6896
  145.4688  140.9560  143.1928 H   0  0  0  0  0  0  0  0  0  0  0  0  # atno 7974 bound_to 7965
  154.5408  140.2285  155.8644 H   0  0  0  0  0  0  0  0  0  0  0  0  # atno 8008 bound_to 7997
  156.1856  140.3089  155.9195 H   0  0  0  0  0  0  0  0  0  0  0  0  # atno 8009 bound_to 7997
  155.3262  140.0443  157.3031 H   0  0  0  0  0  0  0  0  0  0  0  0  # atno 8010 bound_to 7997
  139.9764  144.5857  150.7939 H   0  0  0  0  0  0  0  0  0  0  0  0  # atno 10167 bound_to 10162
  157.0189  131.0226  151.2780 H   0  0  0  0  0  0  0  0  0  0  0  0  # atno 10718 bound_to 10713
  154.8713  135.3722  154.4802 H   0  0  0  0  0  0  0  0  0  0  0  0  # atno 10763 bound_to 10752
  153.5456  135.7025  153.5620 H   0  0  0  0  0  0  0  0  0  0  0  0  # atno 10764 bound_to 10752
  153.3762  135.4008  155.1789 H   0  0  0  0  0  0  0  0  0  0  0  0  # atno 10765 bound_to 10752
  140.0530  134.5709  155.9240 H   0  0  0  0  0  0  0  0  0  0  0  0  # atno 11005 bound_to 11000
  144.7958  139.6238  143.7093 LP  0  0  0  0  0  0  0  0  0  0  0  0  # atno 17320 bound_to 7965
  146.2409  139.5998  142.9492 LP  0  0  0  0  0  0  0  0  0  0  0  0  # atno 17321 bound_to 7965
  140.7504  143.2955  151.3216 LP  0  0  0  0  0  0  0  0  0  0  0  0  # atno 17342 bound_to 10162
  139.6442  144.0482  152.2578 LP  0  0  0  0  0  0  0  0  0  0  0  0  # atno 17343 bound_to 10162
  157.5265  130.8031  149.7867 LP  0  0  0  0  0  0  0  0  0  0  0  0  # atno 17370 bound_to 10713
  156.0109  130.3834  150.2268 LP  0  0  0  0  0  0  0  0  0  0  0  0  # atno 17371 bound_to 10713
  141.1939  133.6581  156.5571 LP  0  0  0  0  0  0  0  0  0  0  0  0  # atno 17394 bound_to 11000
  140.3887  134.7459  157.4708 LP  0  0  0  0  0  0  0  0  0  0  0  0  # atno 17395 bound_to 11000

$$$$
