AV-unprocessed.smi:2173|AV-procd|sdf|8838|dock10
  -GOLD-   2272012 33D 1   1.00000     0.00000
 Structure written by MMmdl.
 35 36  0  0  0  0  0  0  0  0  1 V2000
  153.1258  140.0202  158.2072 O   0  0  0  0  0  0  0  0  0  0  0  0
  152.2027  140.7043  157.7637 C   0  0  0  0  0  0  0  0  0  0  0  0
  151.5945  140.4534  156.5932 N   0  0  0  0  0  0  0  0  0  0  0  0
  151.9571  139.3911  155.6582 C   0  0  0  0  0  0  0  0  0  0  0  0
  150.7314  138.6143  155.1357 C   0  0  0  0  0  0  0  0  0  0  0  0
  149.6029  139.5028  154.6383 C   0  0  0  0  0  0  0  0  0  0  0  0
  148.3854  138.9373  154.2039 C   0  0  0  0  0  0  0  0  0  0  0  0
  147.3847  139.7965  153.7104 C   0  0  0  0  0  0  0  0  0  0  0  0
  147.6382  141.1813  153.6711 C   0  0  0  0  0  0  0  0  0  0  0  0
  148.8864  141.6470  154.1294 C   0  0  0  0  0  0  0  0  0  0  0  0
  149.8520  140.8321  154.6054 N   0  0  0  0  0  0  0  0  0  0  0  0
  151.7053  141.9292  158.5412 C   0  0  2  0  0  0  0  0  0  0  0  0
  151.5958  143.1607  157.6135 C   0  0  0  0  0  0  0  0  0  0  0  0
  151.3492  144.4423  158.3897 C   0  0  0  0  0  0  0  0  0  0  0  0
  151.5423  144.5516  159.7153 C   0  0  0  0  0  0  0  0  0  0  0  0
  152.0349  143.4086  160.5857 C   0  0  0  0  0  0  0  0  0  0  0  0
  152.6056  142.2452  159.7525 C   0  0  0  0  0  0  0  0  0  0  0  0
  150.8476  141.0712  156.3104 H   0  0  0  0  0  0  0  0  0  0  0  0
  152.5276  139.7949  154.8202 H   0  0  0  0  0  0  0  0  0  0  0  0
  152.6271  138.7038  156.1749 H   0  0  0  0  0  0  0  0  0  0  0  0
  151.0386  137.9524  154.3254 H   0  0  0  0  0  0  0  0  0  0  0  0
  150.3491  137.9637  155.9239 H   0  0  0  0  0  0  0  0  0  0  0  0
  148.2263  137.8696  154.2361 H   0  0  0  0  0  0  0  0  0  0  0  0
  146.4417  139.4004  153.3640 H   0  0  0  0  0  0  0  0  0  0  0  0
  146.8951  141.8696  153.2969 H   0  0  0  0  0  0  0  0  0  0  0  0
  149.1169  142.7018  154.1110 H   0  0  0  0  0  0  0  0  0  0  0  0
  150.7081  141.7046  158.9252 H   0  0  0  0  0  0  0  0  0  0  0  0
  152.5023  143.2935  157.0211 H   0  0  0  0  0  0  0  0  0  0  0  0
  150.7757  143.0188  156.9087 H   0  0  0  0  0  0  0  0  0  0  0  0
  151.0119  145.2977  157.8229 H   0  0  0  0  0  0  0  0  0  0  0  0
  151.3341  145.4879  160.2122 H   0  0  0  0  0  0  0  0  0  0  0  0
  152.7942  143.7809  161.2738 H   0  0  0  0  0  0  0  0  0  0  0  0
  151.1977  143.0617  161.1922 H   0  0  0  0  0  0  0  0  0  0  0  0
  152.7282  141.3653  160.3855 H   0  0  0  0  0  0  0  0  0  0  0  0
  153.6044  142.5145  159.4044 H   0  0  0  0  0  0  0  0  0  0  0  0
  1  2  2  0  0  0  0
  2  3  1  0  0  0  0
  2 12  1  0  0  0  0
  3  4  1  0  0  0  0
  3 18  1  0  0  0  0
  4  5  1  0  0  0  0
  4 19  1  0  0  0  0
  4 20  1  0  0  0  0
  5  6  1  0  0  0  0
  5 21  1  0  0  0  0
  5 22  1  0  0  0  0
  6 11  1  0  0  0  0
  6  7  2  0  0  0  0
  7  8  1  0  0  0  0
  7 23  1  0  0  0  0
  8  9  2  0  0  0  0
  8 24  1  0  0  0  0
  9 10  1  0  0  0  0
  9 25  1  0  0  0  0
 10 11  2  0  0  0  0
 10 26  1  0  0  0  0
 12 17  1  0  0  0  0
 12 13  1  0  0  0  0
 12 27  1  0  0  0  0
 13 14  1  0  0  0  0
 13 28  1  0  0  0  0
 13 29  1  0  0  0  0
 14 15  2  0  0  0  0
 14 30  1  0  0  0  0
 15 16  1  0  0  0  0
 15 31  1  0  0  0  0
 16 17  1  0  0  0  0
 16 32  1  0  0  0  0
 16 33  1  0  0  0  0
 17 34  1  0  0  0  0
 17 35  1  0  0  0  0
M  END
> <s_m_source_file>
AV-unprocessed.smi

> <i_m_source_file_index>
2173

> <i_lp_mmshare_version>
43012

> <i_f3d_flags>
0

> <s_epik_input>
W0NIMl0xW0NIMl1bQ0hdPVtDSF1bQ0gyXVtDQEhdMUMoPU8pW05IXVtDSDJdW0NIMl1jMltjSF1bY0hdW2NIXVtjSF1uMg==

> <s_epik_cmdline>
J2VwaWtfcHl0aG9uJywgJy1waCcsICc3LjAnLCAnLXRuJywgJzgnLCAnLW1hJywgJzIwMCcsICctbWV0YWxfYmluZGluZycsICctaW1hZScsICc8aW5maWxlLm1hZT4nLCAnLW9tYWUnLCAnPG91dGZpbGUubWFlPic=

> <r_epik_Ionization_Penalty>
0.0268825

> <r_epik_Ionization_Penalty_Charging>
0

> <r_epik_Ionization_Penalty_Neutral>
0.0268825

> <r_epik_State_Penalty>
0.0219706

> <r_epik_Charging_Adjusted_Penalty>
0.0219706

> <i_epik_Tot_Q>
0

> <i_epik_Tot_abs_Q>
0

> <r_epik_Metal_State_Penalty>
0.0210138

> <b_epik_Metal_Only>
0

> <s_lp_Force_Field>
OPLS_2005

> <r_lp_Energy>
7.98713

> <b_lp_Chiralities_Consistent>
1

> <s_lp_Variant>
AV-unprocessed.smi:2173-1

> <Gold.Version>
5.8.1

> <Gold.Id.Protein>
6NUR|6NUR_protein|mol2

> <Gold.PLP.Fitness>
46.2358

> <Gold.PLP.PLP>
-38.9035

> <Gold.PLP.part.hbond>
-2.0000

> <Gold.PLP.part.metal>
0.0000

> <Gold.PLP.part.buried>
-2.4446

> <Gold.PLP.part.nonpolar>
-34.5984

> <Gold.PLP.part.repulsive>
0.2563

> <Gold.PLP.ligand.clash>
0.0000

> <Gold.PLP.ligand.torsion>
0.3292

> <Gold.PLP.Chemscore.Hbond>
1.6552

> <Gold.PLP.Chemscore.CHOScore>
1.0000

> <Gold.PLP.Chemscore.Metal>
0.0000

> <Gold.Chemscore.Hbonds>
donor molecule, donor type, donor heavy atom, donor atom, acceptor molecule, acceptor atom, score
      P1  H  7989  7998       L1    11  0.62
      P1  H  7997  8009       L1     1  1.00
      L1  C    10    26       P1  8028  1.00

> <Gold.PLP.Chemscore.Internal.Correction>
0.0251

> <Gold.Rescore>
     Score         DG    S(hbond)    S(metal)    S(lipo)     H(rot)  DE(clash)    DE(int)     intcor
     17.14     -19.00       1.24        0.00     110.49       1.39       0.14       1.72       ----

> <Gold.Chemscore.Fitness>
17.1387

> <Gold.Chemscore.DG>
-19.0002

> <Gold.Chemscore.ZeroCoef>
-5.4800

> <Gold.Chemscore.Hbond>
1.2432

> <Gold.Chemscore.Metal>
0.0000

> <Gold.Chemscore.Lipo>
110.4948

> <Gold.Chemscore.Internal_Hbond>
0.0000

> <Gold.Chemscore.DEClash>
0.1379

> <Gold.Chemscore.DEInternal>
1.7236

> <Gold.Chemscore.Rot>
1.3907

> <Gold.Chemscore.Internal.Correction>
   9.000000E+99

> <Gold.Chemscore.Hbonds>
donor molecule, donor type, donor heavy atom, donor atom, acceptor molecule, acceptor atom, score
      P1  H  7989  7998       L1    11  0.17
      P1  H  7997  8009       L1     1  0.68

> <Gold.Chemscore.Hbond.Weighted>
-4.1524

> <Gold.Chemscore.Metal.Weighted>
-0.0000

> <Gold.Chemscore.Lipo.Weighted>
-12.9279

> <Gold.Chemscore.Internal_Hbond.Weighted>
0.0000

> <Gold.Chemscore.DEClash.Weighted>
0.1379

> <Gold.Chemscore.DEInternal.Weighted>
1.7236

> <Gold.Chemscore.Rot.Weighted>
3.5601

> <Gold.Chemscore.Internal.Correction.Weighted>
   9.000000E+99

> <Gold.Protein.RotatedTorsions>
[ 6907 6896 6895 6894 ] final  -53.21 input  -60.11 | X-H torsion
[ 7974 7965 7964 7962 ] final   51.57 input  175.53 | X-H torsion
[ 8008 7997 7996 7995 ] final  157.51 input   59.86 | X-H torsion
[ 10167 10162 10161 10158 ] final -166.60 input  -65.29 | X-H torsion
[ 10718 10713 10712 10709 ] final -152.09 input   66.30 | X-H torsion
[ 10763 10752 10751 10750 ] final -110.53 input  -60.55 | X-H torsion
[ 11005 11000 10999 10996 ] final  177.15 input  -57.11 | X-H torsion

> <Gold.Protein.ActiveResidues>
 VAL166  LYS551  ARG553  GLY616  TRP617  ASP618  TYR619  PRO620  LYS621  CYS622 
 ASP623  PHE694  ASN695  SER759  ASP760  ASP761  ALA762  ILE779  LEU786  VAL792 
 PHE793  MET794  SER795  GLU796  ALA797  LYS798  CYS799  TRP800  GLU811  SER814 

> <Gold.Protein.RotatedAtoms>
  150.8447  134.7751  159.6960 H   0  0  0  0  0  0  0  0  0  0  0  0  # atno 6907 bound_to 6896
  152.4526  134.5357  159.9834 H   0  0  0  0  0  0  0  0  0  0  0  0  # atno 6908 bound_to 6896
  151.5489  133.3382  159.2985 H   0  0  0  0  0  0  0  0  0  0  0  0  # atno 6909 bound_to 6896
  145.9900  139.4329  143.0079 H   0  0  0  0  0  0  0  0  0  0  0  0  # atno 7974 bound_to 7965
  156.2359  140.1883  156.7120 H   0  0  0  0  0  0  0  0  0  0  0  0  # atno 8008 bound_to 7997
  154.6106  140.0622  156.9516 H   0  0  0  0  0  0  0  0  0  0  0  0  # atno 8009 bound_to 7997
  155.2023  140.3293  155.4344 H   0  0  0  0  0  0  0  0  0  0  0  0  # atno 8010 bound_to 7997
  139.6104  144.0826  152.1836 H   0  0  0  0  0  0  0  0  0  0  0  0  # atno 10167 bound_to 10162
  156.4679  130.8244  151.2474 H   0  0  0  0  0  0  0  0  0  0  0  0  # atno 10718 bound_to 10713
  154.8253  135.4561  154.0899 H   0  0  0  0  0  0  0  0  0  0  0  0  # atno 10763 bound_to 10752
  153.2219  135.6895  153.7997 H   0  0  0  0  0  0  0  0  0  0  0  0  # atno 10764 bound_to 10752
  153.7411  135.3312  155.3281 H   0  0  0  0  0  0  0  0  0  0  0  0  # atno 10765 bound_to 10752
  140.3810  134.6947  157.4450 H   0  0  0  0  0  0  0  0  0  0  0  0  # atno 11005 bound_to 11000
  145.7643  140.9922  143.1183 LP  0  0  0  0  0  0  0  0  0  0  0  0  # atno 17320 bound_to 7965
  144.6886  139.9369  143.7474 LP  0  0  0  0  0  0  0  0  0  0  0  0  # atno 17321 bound_to 7965
  140.0443  144.5983  150.7386 LP  0  0  0  0  0  0  0  0  0  0  0  0  # atno 17342 bound_to 10162
  140.7315  143.2695  151.3934 LP  0  0  0  0  0  0  0  0  0  0  0  0  # atno 17343 bound_to 10162
  157.7493  131.0086  150.3234 LP  0  0  0  0  0  0  0  0  0  0  0  0  # atno 17370 bound_to 10713
  156.3649  130.3853  149.7222 LP  0  0  0  0  0  0  0  0  0  0  0  0  # atno 17371 bound_to 10713
  140.0479  134.6173  155.8898 LP  0  0  0  0  0  0  0  0  0  0  0  0  # atno 17394 bound_to 11000
  141.1923  133.6575  156.5498 LP  0  0  0  0  0  0  0  0  0  0  0  0  # atno 17395 bound_to 11000

$$$$
