#       Name:                AV-unprocessed.smi:2715
#       Creating user name   scv26
#       Creation time:       Fri Mar 27 14:52:37 2020


#       File generated by GOLD software.
#

@<TRIPOS>MOLECULE
AV-unprocessed.smi:2715
    41    42     1
SMALL
NO_CHARGES


@<TRIPOS>ATOM
      1 ****        -3.2346   5.1064   1.2475 C.3            1 S1                 0.0000
      2 ****        -2.7967   4.2274   0.1267 C.2            1 S1                 0.0000
      3 ****        -2.5314   2.9263   0.2691 N.2            1 S1                 0.0000
      4 ****        -2.1350   2.3222  -0.9293 C.2            1 S1                 0.0000
      5 ****        -1.7917   0.8606  -0.9556 C.3            1 S1                 0.0000
      6 ****        -0.2818   0.6624  -0.8129 C.2            1 S1                 0.0000
      7 ****         0.3784   0.2673  -1.7734 O.2            1 S1                 0.0000
      8 ****         0.2455   0.9285   0.3931 N.am           1 S1                 0.0000
      9 ****         1.6511   0.7882   0.7627 C.3            1 S1                 0.0000
     10 ****         1.8982  -0.4856   1.5916 C.3            1 S1                 0.0000
     11 ****         1.6290  -1.7717   0.8258 C.2            1 S1                 0.0000
     12 ****         0.5767  -2.5640   1.1096 C.2            1 S1                 0.0000
     13 ****         0.2380  -3.8348   0.3507 C.3            1 S1                 0.0000
     14 ****         0.9992  -3.9377  -0.9815 C.3            1 S1                 0.0000
     15 ****         2.4718  -3.5465  -0.8070 C.3            1 S1                 0.0000
     16 ****         2.6105  -2.1022  -0.2935 C.3            1 S1                 0.0000
     17 ****        -2.1138   3.1928  -1.9912 C.2            1 S1                 0.0000
     18 ****        -2.5818   4.8037  -1.5216 S.3            1 S1                 0.0000
     19 ****        -3.0725   4.6146   2.2073 H              1 S1                 0.0000
     20 ****        -4.2951   5.3372   1.1464 H              1 S1                 0.0000
     21 ****        -2.6697   6.0386   1.2339 H              1 S1                 0.0000
     22 ****        -2.2997   0.3238  -0.1532 H              1 S1                 0.0000
     23 ****        -2.1278   0.4070  -1.8889 H              1 S1                 0.0000
     24 ****        -0.3816   1.2509   1.1160 H              1 S1                 0.0000
     25 ****         2.2990   0.8118  -0.1149 H              1 S1                 0.0000
     26 ****         1.9218   1.6607   1.3573 H              1 S1                 0.0000
     27 ****         2.9309  -0.5025   1.9411 H              1 S1                 0.0000
     28 ****         1.2777  -0.4579   2.4884 H              1 S1                 0.0000
     29 ****        -0.0887  -2.3041   1.9201 H              1 S1                 0.0000
     30 ****         0.4760  -4.6852   0.9903 H              1 S1                 0.0000
     31 ****        -0.8360  -3.8662   0.1659 H              1 S1                 0.0000
     32 ****         0.9179  -4.9488  -1.3812 H              1 S1                 0.0000
     33 ****         0.5387  -3.2755  -1.7162 H              1 S1                 0.0000
     34 ****         2.9423  -4.2310  -0.0998 H              1 S1                 0.0000
     35 ****         3.0096  -3.6590  -1.7487 H              1 S1                 0.0000
     36 ****         2.4437  -1.4045  -1.1140 H              1 S1                 0.0000
     37 ****         3.6305  -1.9377   0.0548 H              1 S1                 0.0000
     38 ****        -1.8483   2.9844  -3.0171 H              1 S1                 0.0000
     39 ****        -2.6077   2.4369   1.1378 LP             1 S1                 0.0000
     40 ****        -0.0724   0.0764  -2.6453 LP             1 S1                 0.0000
     41 ****         1.3657   0.1372  -1.6819 LP             1 S1                 0.0000
@<TRIPOS>BOND
    1    1    2 1     
    2    1   19 1     
    3    1   20 1     
    4    1   21 1     
    5    2   18 1     
    6    2    3 2     
    7    3    4 1     
    8    4    5 1     
    9    4   17 2     
   10    5    6 1     
   11    5   22 1     
   12    5   23 1     
   13    6    7 2     
   14    6    8 am    
   15    8    9 1     
   16    8   24 1     
   17    9   10 1     
   18    9   25 1     
   19    9   26 1     
   20   10   11 1     
   21   10   27 1     
   22   10   28 1     
   23   11   16 1     
   24   11   12 2     
   25   12   13 1     
   26   12   29 1     
   27   13   14 1     
   28   13   30 1     
   29   13   31 1     
   30   14   15 1     
   31   14   32 1     
   32   14   33 1     
   33   15   16 1     
   34   15   34 1     
   35   15   35 1     
   36   16   36 1     
   37   16   37 1     
   38   17   18 1     
   39   17   38 1     
   40    3   39 1     
   41    7   40 1     
   42    7   41 1     
@<TRIPOS>SUBSTRUCTURE
      1 S1             1
@<TRIPOS>SET
LONE_PAIRS      STATIC     ATOMS    <user>   **** ""
3 39 40 41
DONOR_HYDROGENS      STATIC     ATOMS    <user>   **** ""
1 24
ATOM$BLUE        STATIC     ATOMS    COLORGROUP SYSTEM
3 39 40 41
ATOM$RED        STATIC     ATOMS    COLORGROUP SYSTEM
1 24
