AV-unprocessed.smi:682|AV-procd|sdf|3328|dock10
  -GOLD-   22720 0293D 1   1.00000     0.00000
 Structure written by MMmdl.
 41 42  0  0  0  0  0  0  0  0  1 V2000
  145.6596  141.8810  155.5946 C   0  0  0  0  0  0  0  0  0  0  0  0
  145.3577  140.5171  155.3260 O   0  0  0  0  0  0  0  0  0  0  0  0
  146.4331  139.5729  155.4217 C   0  0  1  0  0  0  0  0  0  0  0  0
  147.2634  139.8304  156.6854 C   0  0  0  0  0  0  0  0  0  0  0  0
  145.9207  138.1489  155.1313 C   0  0  0  0  0  0  0  0  0  0  0  0
  146.0710  138.4783  153.6476 C   0  0  2  0  0  0  0  0  0  0  0  0
  146.5470  137.3440  152.8632 N   0  0  0  0  0  0  0  0  0  0  0  0
  145.7501  136.4062  152.3345 C   0  0  0  0  0  0  0  0  0  0  0  0
  144.5255  136.4049  152.4605 O   0  0  0  0  0  0  0  0  0  0  0  0
  146.4586  135.4882  151.6583 N   0  0  0  0  0  0  0  0  0  0  0  0
  145.9557  134.3630  150.9592 C   0  0  0  0  0  0  0  0  0  0  0  0
  146.5686  133.0998  150.7228 C   0  0  0  0  0  0  0  0  0  0  0  0
  145.7686  132.3070  150.0255 N   0  0  0  0  0  0  0  0  0  0  0  0
  144.6493  133.0392  149.8082 N   0  0  0  0  0  0  0  0  0  0  0  0
  143.5556  132.4560  149.0612 C   0  0  0  0  0  0  0  0  0  0  0  0
  144.7305  134.2991  150.3668 C   0  0  0  0  0  0  0  0  0  0  0  0
  147.1603  139.5103  154.0384 C   0  0  0  0  0  0  0  0  0  0  0  0
  147.1832  140.8037  153.2163 C   0  0  0  0  0  0  0  0  0  0  0  0
  148.6158  139.0062  154.0639 C   0  0  0  0  0  0  0  0  0  0  0  0
  144.7303  142.4488  155.6369 H   0  0  0  0  0  0  0  0  0  0  0  0
  146.2686  142.3208  154.8050 H   0  0  0  0  0  0  0  0  0  0  0  0
  146.1709  142.0151  156.5471 H   0  0  0  0  0  0  0  0  0  0  0  0
  148.1454  139.1924  156.7286 H   0  0  0  0  0  0  0  0  0  0  0  0
  146.6978  139.6239  157.5934 H   0  0  0  0  0  0  0  0  0  0  0  0
  147.6063  140.8642  156.7301 H   0  0  0  0  0  0  0  0  0  0  0  0
  146.6058  137.3738  155.4794 H   0  0  0  0  0  0  0  0  0  0  0  0
  144.8985  137.9314  155.4384 H   0  0  0  0  0  0  0  0  0  0  0  0
  145.1680  138.9447  153.2461 H   0  0  0  0  0  0  0  0  0  0  0  0
  147.5428  137.2718  152.7140 H   0  0  0  0  0  0  0  0  0  0  0  0
  147.4608  135.6078  151.6396 H   0  0  0  0  0  0  0  0  0  0  0  0
  147.5384  132.7305  151.0214 H   0  0  0  0  0  0  0  0  0  0  0  0
  142.7899  133.2086  148.8699 H   0  0  0  0  0  0  0  0  0  0  0  0
  143.1152  131.6381  149.6320 H   0  0  0  0  0  0  0  0  0  0  0  0
  143.9208  132.0729  148.1076 H   0  0  0  0  0  0  0  0  0  0  0  0
  143.9298  135.0205  150.2951 H   0  0  0  0  0  0  0  0  0  0  0  0
  147.6456  140.6510  152.2405 H   0  0  0  0  0  0  0  0  0  0  0  0
  147.7399  141.5900  153.7267 H   0  0  0  0  0  0  0  0  0  0  0  0
  146.1797  141.1852  153.0281 H   0  0  0  0  0  0  0  0  0  0  0  0
  148.9975  138.8260  153.0586 H   0  0  0  0  0  0  0  0  0  0  0  0
  148.7189  138.0712  154.6147 H   0  0  0  0  0  0  0  0  0  0  0  0
  149.2808  139.7311  154.5343 H   0  0  0  0  0  0  0  0  0  0  0  0
  1  2  1  0  0  0  0
  1 20  1  0  0  0  0
  1 21  1  0  0  0  0
  1 22  1  0  0  0  0
  2  3  1  0  0  0  0
  3 17  1  0  0  0  0
  3  4  1  0  0  0  0
  3  5  1  0  0  0  0
  4 23  1  0  0  0  0
  4 24  1  0  0  0  0
  4 25  1  0  0  0  0
  5  6  1  0  0  0  0
  5 26  1  0  0  0  0
  5 27  1  0  0  0  0
  6  7  1  0  0  0  0
  6 17  1  0  0  0  0
  6 28  1  0  0  0  0
  7  8  1  0  0  0  0
  7 29  1  0  0  0  0
  8  9  2  0  0  0  0
  8 10  1  0  0  0  0
 10 11  1  0  0  0  0
 10 30  1  0  0  0  0
 11 16  2  0  0  0  0
 11 12  1  0  0  0  0
 12 13  2  0  0  0  0
 12 31  1  0  0  0  0
 13 14  1  0  0  0  0
 14 15  1  0  0  0  0
 14 16  1  0  0  0  0
 15 32  1  0  0  0  0
 15 33  1  0  0  0  0
 15 34  1  0  0  0  0
 16 35  1  0  0  0  0
 17 18  1  0  0  0  0
 17 19  1  0  0  0  0
 18 36  1  0  0  0  0
 18 37  1  0  0  0  0
 18 38  1  0  0  0  0
 19 39  1  0  0  0  0
 19 40  1  0  0  0  0
 19 41  1  0  0  0  0
M  END
> <s_m_source_file>
AV-unprocessed.smi

> <i_m_source_file_index>
682

> <i_lp_mmshare_version>
43012

> <i_f3d_flags>
0

> <s_epik_input>
W0NIM11PW0NAQF0xKFtDSDNdKVtDSDJdW0NASF0oQzEoW0NIM10pW0NIM10pW05IXUMoPU8pW05IXWMyW2NIXW5uKFtDSDNdKVtjSF0y

> <s_epik_cmdline>
J2VwaWtfcHl0aG9uJywgJy1waCcsICc3LjAnLCAnLXRuJywgJzgnLCAnLW1hJywgJzIwMCcsICctbWV0YWxfYmluZGluZycsICctaW1hZScsICc8aW5maWxlLm1hZT4nLCAnLW9tYWUnLCAnPG91dGZpbGUubWFlPic=

> <r_lp_tautomer_probability>
1

> <r_epik_Ionization_Penalty>
0.000192302

> <r_epik_Ionization_Penalty_Charging>
0

> <r_epik_Ionization_Penalty_Neutral>
0.000192302

> <r_epik_State_Penalty>
-0

> <r_epik_Charging_Adjusted_Penalty>
0

> <i_epik_Tot_Q>
0

> <i_epik_Tot_abs_Q>
0

> <r_epik_Metal_State_Penalty>
-0

> <b_epik_Metal_Only>
0

> <s_lp_Force_Field>
OPLS_2005

> <r_lp_Energy>
24.1869

> <b_lp_Chiralities_Consistent>
1

> <s_lp_Variant>
AV-unprocessed.smi:682-3

> <Gold.Version>
5.8.1

> <Gold.Id.Protein>
6NUR|6NUR_protein|mol2

> <Gold.PLP.Fitness>
33.1302

> <Gold.PLP.PLP>
-25.2227

> <Gold.PLP.part.hbond>
-2.0000

> <Gold.PLP.part.metal>
0.0000

> <Gold.PLP.part.buried>
-2.9560

> <Gold.PLP.part.nonpolar>
-21.6959

> <Gold.PLP.part.repulsive>
0.4981

> <Gold.PLP.ligand.clash>
0.0000

> <Gold.PLP.ligand.torsion>
0.6007

> <Gold.PLP.Chemscore.Hbond>
1.9120

> <Gold.PLP.Chemscore.CHOScore>
1.0000

> <Gold.PLP.Chemscore.Metal>
0.0000

> <Gold.Chemscore.Hbonds>
donor molecule, donor type, donor heavy atom, donor atom, acceptor molecule, acceptor atom, score
      L1  H     7    29       P1  7948  0.90
      L1  H    10    30       P1  7948  1.00
      L1  C    12    31       P1 10747  1.00

> <Gold.PLP.Chemscore.Internal.Correction>
0.3729

> <Gold.Rescore>
     Score         DG    S(hbond)    S(metal)    S(lipo)     H(rot)  DE(clash)    DE(int)     intcor
     14.25     -15.76       1.90        0.00      60.48       1.23       0.07       1.44       ----

> <Gold.Chemscore.Fitness>
14.2517

> <Gold.Chemscore.DG>
-15.7573

> <Gold.Chemscore.ZeroCoef>
-5.4800

> <Gold.Chemscore.Hbond>
1.9040

> <Gold.Chemscore.Metal>
0.0000

> <Gold.Chemscore.Lipo>
60.4792

> <Gold.Chemscore.Internal_Hbond>
0.0000

> <Gold.Chemscore.DEClash>
0.0702

> <Gold.Chemscore.DEInternal>
1.4355

> <Gold.Chemscore.Rot>
1.2336

> <Gold.Chemscore.Internal.Correction>
   9.000000E+99

> <Gold.Chemscore.Hbonds>
donor molecule, donor type, donor heavy atom, donor atom, acceptor molecule, acceptor atom, score
      L1  H     7    29       P1  7948  0.87
      L1  H    10    30       P1  7948  0.97

> <Gold.Chemscore.Hbond.Weighted>
-6.3593

> <Gold.Chemscore.Metal.Weighted>
-0.0000

> <Gold.Chemscore.Lipo.Weighted>
-7.0761

> <Gold.Chemscore.Internal_Hbond.Weighted>
0.0000

> <Gold.Chemscore.DEClash.Weighted>
0.0702

> <Gold.Chemscore.DEInternal.Weighted>
1.4355

> <Gold.Chemscore.Rot.Weighted>
3.1581

> <Gold.Chemscore.Internal.Correction.Weighted>
   9.000000E+99

> <Gold.Protein.RotatedTorsions>
[ 6907 6896 6895 6894 ] final  107.51 input  -60.11 | X-H torsion
[ 7974 7965 7964 7962 ] final  -26.97 input  175.53 | X-H torsion
[ 8008 7997 7996 7995 ] final  140.47 input   59.86 | X-H torsion
[ 10167 10162 10161 10158 ] final   -9.17 input  -65.29 | X-H torsion
[ 10718 10713 10712 10709 ] final   89.59 input   66.30 | X-H torsion
[ 10763 10752 10751 10750 ] final  -51.05 input  -60.55 | X-H torsion
[ 11005 11000 10999 10996 ] final  -44.70 input  -57.11 | X-H torsion

> <Gold.Protein.ActiveResidues>
 VAL166  LYS551  ARG553  GLY616  TRP617  ASP618  TYR619  PRO620  LYS621  CYS622 
 ASP623  PHE694  ASN695  SER759  ASP760  ASP761  ALA762  ILE779  LEU786  VAL792 
 PHE793  MET794  SER795  GLU796  ALA797  LYS798  CYS799  TRP800  GLU811  SER814 

> <Gold.Protein.RotatedAtoms>
  152.5151  133.9224  159.7540 H   0  0  0  0  0  0  0  0  0  0  0  0  # atno 6907 bound_to 6896
  150.9592  133.6455  159.2764 H   0  0  0  0  0  0  0  0  0  0  0  0  # atno 6908 bound_to 6896
  151.3706  135.0927  159.9517 H   0  0  0  0  0  0  0  0  0  0  0  0  # atno 6909 bound_to 6896
  146.1390  140.5090  142.8660 H   0  0  0  0  0  0  0  0  0  0  0  0  # atno 7974 bound_to 7965
  156.2978  140.2340  156.4406 H   0  0  0  0  0  0  0  0  0  0  0  0  # atno 8008 bound_to 7997
  154.8189  140.0439  157.1417 H   0  0  0  0  0  0  0  0  0  0  0  0  # atno 8009 bound_to 7997
  154.9338  140.3020  155.5158 H   0  0  0  0  0  0  0  0  0  0  0  0  # atno 8010 bound_to 7997
  140.7080  143.5887  150.8916 H   0  0  0  0  0  0  0  0  0  0  0  0  # atno 10167 bound_to 10162
  157.6956  131.0339  150.3449 H   0  0  0  0  0  0  0  0  0  0  0  0  # atno 10718 bound_to 10713
  154.1203  135.6536  153.4901 H   0  0  0  0  0  0  0  0  0  0  0  0  # atno 10763 bound_to 10752
  153.0227  135.5268  154.7104 H   0  0  0  0  0  0  0  0  0  0  0  0  # atno 10764 bound_to 10752
  154.6309  135.2976  155.0187 H   0  0  0  0  0  0  0  0  0  0  0  0  # atno 10765 bound_to 10752
  141.0468  133.6758  156.2910 H   0  0  0  0  0  0  0  0  0  0  0  0  # atno 11005 bound_to 11000
  144.7771  140.5762  143.6631 LP  0  0  0  0  0  0  0  0  0  0  0  0  # atno 17320 bound_to 7965
  145.5091  139.1480  143.3615 LP  0  0  0  0  0  0  0  0  0  0  0  0  # atno 17321 bound_to 7965
  139.9613  143.6161  152.3001 LP  0  0  0  0  0  0  0  0  0  0  0  0  # atno 17342 bound_to 10162
  139.6714  144.7660  151.1775 LP  0  0  0  0  0  0  0  0  0  0  0  0  # atno 17343 bound_to 10162
  156.3904  130.3897  149.7034 LP  0  0  0  0  0  0  0  0  0  0  0  0  # atno 17370 bound_to 10713
  156.4385  130.7850  151.2871 LP  0  0  0  0  0  0  0  0  0  0  0  0  # atno 17371 bound_to 10713
  140.6132  134.5437  157.5536 LP  0  0  0  0  0  0  0  0  0  0  0  0  # atno 17394 bound_to 11000
  139.9318  134.7949  156.0910 LP  0  0  0  0  0  0  0  0  0  0  0  0  # atno 17395 bound_to 11000

$$$$
