AV-unprocessed.smi:1811|AV-procd|sdf|7335|dock6
  -GOLD-   22720 8593D 1   1.00000     0.00000
 Structure written by MMmdl.
 43 44  0  0  0  0  0  0  0  0  1 V2000
  152.7650  143.1580  160.2751 C   0  0  0  0  0  0  0  0  0  0  0  0
  151.9361  143.9862  159.2702 C   0  0  0  0  0  0  0  0  0  0  0  0
  151.2933  145.1642  160.0273 C   0  0  0  0  0  0  0  0  0  0  0  0
  152.8745  144.5563  158.1851 C   0  0  0  0  0  0  0  0  0  0  0  0
  150.7936  143.1446  158.6338 C   0  0  0  0  0  0  0  0  0  0  0  0
  151.2265  141.8282  157.9740 C   0  0  0  0  0  0  0  0  0  0  0  0
  152.0989  141.1421  158.5046 O   0  0  0  0  0  0  0  0  0  0  0  0
  150.5622  141.4955  156.8523 N   0  0  0  0  0  0  0  0  0  0  0  0
  150.7241  140.3610  156.0050 C   0  0  0  0  0  0  0  0  0  0  0  0
  151.9259  139.6159  155.9151 C   0  0  0  0  0  0  0  0  0  0  0  0
  151.9893  138.5199  155.0351 C   0  0  0  0  0  0  0  0  0  0  0  0
  150.8519  138.2092  154.2687 C   0  0  0  0  0  0  0  0  0  0  0  0
  149.7056  138.9163  154.3299 N   0  0  0  0  0  0  0  0  0  0  0  0
  149.6408  139.9737  155.1746 C   0  0  0  0  0  0  0  0  0  0  0  0
  148.4387  140.7008  155.2045 N   0  0  0  0  0  0  0  0  0  0  0  0
  147.2917  139.9314  155.6684 C   0  0  0  0  0  0  0  0  0  0  0  0
  146.0681  140.8534  155.8112 C   0  0  0  0  0  0  0  0  0  0  0  0
  145.8183  141.5123  154.5724 O   0  0  0  0  0  0  0  0  0  0  0  0
  146.9191  142.3186  154.1616 C   0  0  0  0  0  0  0  0  0  0  0  0
  148.1646  141.4351  153.9761 C   0  0  0  0  0  0  0  0  0  0  0  0
  153.4957  143.7809  160.7921 H   0  0  0  0  0  0  0  0  0  0  0  0
  153.3209  142.3581  159.7857 H   0  0  0  0  0  0  0  0  0  0  0  0
  152.1283  142.7024  161.0342 H   0  0  0  0  0  0  0  0  0  0  0  0
  150.6268  144.8128  160.8161 H   0  0  0  0  0  0  0  0  0  0  0  0
  150.7060  145.7948  159.3588 H   0  0  0  0  0  0  0  0  0  0  0  0
  152.0466  145.7987  160.4957 H   0  0  0  0  0  0  0  0  0  0  0  0
  153.6281  145.2140  158.6196 H   0  0  0  0  0  0  0  0  0  0  0  0
  152.3202  145.1363  157.4464 H   0  0  0  0  0  0  0  0  0  0  0  0
  153.4078  143.7683  157.6523 H   0  0  0  0  0  0  0  0  0  0  0  0
  150.0534  142.9002  159.3971 H   0  0  0  0  0  0  0  0  0  0  0  0
  150.2611  143.7476  157.8960 H   0  0  0  0  0  0  0  0  0  0  0  0
  149.8115  142.1178  156.5891 H   0  0  0  0  0  0  0  0  0  0  0  0
  152.8047  139.8662  156.4879 H   0  0  0  0  0  0  0  0  0  0  0  0
  152.8920  137.9338  154.9467 H   0  0  0  0  0  0  0  0  0  0  0  0
  150.8652  137.3750  153.5830 H   0  0  0  0  0  0  0  0  0  0  0  0
  147.0724  139.1309  154.9602 H   0  0  0  0  0  0  0  0  0  0  0  0
  147.5231  139.4629  156.6257 H   0  0  0  0  0  0  0  0  0  0  0  0
  145.1887  140.2725  156.0893 H   0  0  0  0  0  0  0  0  0  0  0  0
  146.2265  141.5899  156.6007 H   0  0  0  0  0  0  0  0  0  0  0  0
  146.6667  142.8153  153.2247 H   0  0  0  0  0  0  0  0  0  0  0  0
  147.1044  143.1016  154.8988 H   0  0  0  0  0  0  0  0  0  0  0  0
  149.0261  142.0501  153.7128 H   0  0  0  0  0  0  0  0  0  0  0  0
  148.0031  140.7349  153.1553 H   0  0  0  0  0  0  0  0  0  0  0  0
  1  2  1  0  0  0  0
  1 21  1  0  0  0  0
  1 22  1  0  0  0  0
  1 23  1  0  0  0  0
  2  3  1  0  0  0  0
  2  4  1  0  0  0  0
  2  5  1  0  0  0  0
  3 24  1  0  0  0  0
  3 25  1  0  0  0  0
  3 26  1  0  0  0  0
  4 27  1  0  0  0  0
  4 28  1  0  0  0  0
  4 29  1  0  0  0  0
  5  6  1  0  0  0  0
  5 30  1  0  0  0  0
  5 31  1  0  0  0  0
  6  7  2  0  0  0  0
  6  8  1  0  0  0  0
  8  9  1  0  0  0  0
  8 32  1  0  0  0  0
  9 14  1  0  0  0  0
  9 10  2  0  0  0  0
 10 11  1  0  0  0  0
 10 33  1  0  0  0  0
 11 12  2  0  0  0  0
 11 34  1  0  0  0  0
 12 13  1  0  0  0  0
 12 35  1  0  0  0  0
 13 14  2  0  0  0  0
 14 15  1  0  0  0  0
 15 20  1  0  0  0  0
 15 16  1  0  0  0  0
 16 17  1  0  0  0  0
 16 36  1  0  0  0  0
 16 37  1  0  0  0  0
 17 18  1  0  0  0  0
 17 38  1  0  0  0  0
 17 39  1  0  0  0  0
 18 19  1  0  0  0  0
 19 20  1  0  0  0  0
 19 40  1  0  0  0  0
 19 41  1  0  0  0  0
 20 42  1  0  0  0  0
 20 43  1  0  0  0  0
M  END
> <s_m_source_file>
AV-unprocessed.smi

> <i_m_source_file_index>
1811

> <i_lp_mmshare_version>
43012

> <i_f3d_flags>
0

> <s_epik_input>
W0NIM11DKFtDSDNdKShbQ0gzXSlbQ0gyXUMoPU8pW05IXWMxW2NIXVtjSF1bY0hdbmMxTjJbQ0gyXVtDSDJdT1tDSDJdW0NIMl0y

> <s_epik_cmdline>
J2VwaWtfcHl0aG9uJywgJy1waCcsICc3LjAnLCAnLXRuJywgJzgnLCAnLW1hJywgJzIwMCcsICctbWV0YWxfYmluZGluZycsICctaW1hZScsICc8aW5maWxlLm1hZT4nLCAnLW9tYWUnLCAnPG91dGZpbGUubWFlPic=

> <r_lp_tautomer_probability>
1

> <r_epik_Ionization_Penalty>
0.000654353

> <r_epik_Ionization_Penalty_Charging>
0

> <r_epik_Ionization_Penalty_Neutral>
0.000654353

> <r_epik_State_Penalty>
0.000408291

> <r_epik_Charging_Adjusted_Penalty>
0.000408291

> <i_epik_Tot_Q>
0

> <i_epik_Tot_abs_Q>
0

> <r_epik_Metal_State_Penalty>
-0

> <b_epik_Metal_Only>
0

> <s_lp_Force_Field>
OPLS_2005

> <r_lp_Energy>
24.8373

> <b_lp_Chiralities_Consistent>
1

> <s_lp_Variant>
AV-unprocessed.smi:1811-1

> <Gold.Version>
5.8.1

> <Gold.Id.Protein>
6NUR|6NUR_protein|mol2

> <Gold.PLP.Fitness>
46.3621

> <Gold.PLP.PLP>
-43.9049

> <Gold.PLP.part.hbond>
0.0000

> <Gold.PLP.part.metal>
0.0000

> <Gold.PLP.part.buried>
-6.8791

> <Gold.PLP.part.nonpolar>
-37.9551

> <Gold.PLP.part.repulsive>
0.5317

> <Gold.PLP.ligand.clash>
0.0000

> <Gold.PLP.ligand.torsion>
0.5371

> <Gold.PLP.Chemscore.Hbond>
0.0000

> <Gold.PLP.Chemscore.CHOScore>
1.1281

> <Gold.PLP.Chemscore.Metal>
0.0000

> <Gold.Chemscore.Hbonds>
donor molecule, donor type, donor heavy atom, donor atom, acceptor molecule, acceptor atom, score
      L1  C    12    35       P1  7948  0.17
      L1  C    12    35       P1  7949  0.93

> <Gold.PLP.Chemscore.Internal.Correction>
0.1471

> <Gold.Rescore>
     Score         DG    S(hbond)    S(metal)    S(lipo)     H(rot)  DE(clash)    DE(int)     intcor
     11.09     -14.13       0.00        0.00     102.49       1.30       0.17       2.87       ----

> <Gold.Chemscore.Fitness>
11.0933

> <Gold.Chemscore.DG>
-14.1324

> <Gold.Chemscore.ZeroCoef>
-5.4800

> <Gold.Chemscore.Hbond>
0.0000

> <Gold.Chemscore.Metal>
0.0000

> <Gold.Chemscore.Lipo>
102.4897

> <Gold.Chemscore.Internal_Hbond>
0.0000

> <Gold.Chemscore.DEClash>
0.1710

> <Gold.Chemscore.DEInternal>
2.8682

> <Gold.Chemscore.Rot>
1.3042

> <Gold.Chemscore.Internal.Correction>
   9.000000E+99

> <Gold.Chemscore.Hbond.Weighted>
-0.0000

> <Gold.Chemscore.Metal.Weighted>
-0.0000

> <Gold.Chemscore.Lipo.Weighted>
-11.9913

> <Gold.Chemscore.Internal_Hbond.Weighted>
0.0000

> <Gold.Chemscore.DEClash.Weighted>
0.1710

> <Gold.Chemscore.DEInternal.Weighted>
2.8682

> <Gold.Chemscore.Rot.Weighted>
3.3389

> <Gold.Chemscore.Internal.Correction.Weighted>
   9.000000E+99

> <Gold.Protein.RotatedTorsions>
[ 6907 6896 6895 6894 ] final  -42.76 input  -60.11 | X-H torsion
[ 7974 7965 7964 7962 ] final  103.25 input  175.53 | X-H torsion
[ 8008 7997 7996 7995 ] final -128.85 input   59.86 | X-H torsion
[ 10167 10162 10161 10158 ] final    9.22 input  -65.29 | X-H torsion
[ 10718 10713 10712 10709 ] final  177.96 input   66.30 | X-H torsion
[ 10763 10752 10751 10750 ] final   39.57 input  -60.55 | X-H torsion
[ 11005 11000 10999 10996 ] final   65.52 input  -57.11 | X-H torsion

> <Gold.Protein.ActiveResidues>
 VAL166  LYS551  ARG553  GLY616  TRP617  ASP618  TYR619  PRO620  LYS621  CYS622 
 ASP623  PHE694  ASN695  SER759  ASP760  ASP761  ALA762  ILE779  LEU786  VAL792 
 PHE793  MET794  SER795  GLU796  ALA797  LYS798  CYS799  TRP800  GLU811  SER814 

> <Gold.Protein.RotatedAtoms>
  150.9515  134.8914  159.7674 H   0  0  0  0  0  0  0  0  0  0  0  0  # atno 6907 bound_to 6896
  152.5121  134.3800  159.9357 H   0  0  0  0  0  0  0  0  0  0  0  0  # atno 6908 bound_to 6896
  151.3815  133.3779  159.2745 H   0  0  0  0  0  0  0  0  0  0  0  0  # atno 6909 bound_to 6896
  145.3483  139.2445  143.3572 H   0  0  0  0  0  0  0  0  0  0  0  0  # atno 7974 bound_to 7965
  155.2695  140.0439  157.3005 H   0  0  0  0  0  0  0  0  0  0  0  0  # atno 8008 bound_to 7997
  154.5662  140.2360  155.8229 H   0  0  0  0  0  0  0  0  0  0  0  0  # atno 8009 bound_to 7997
  156.2087  140.3005  155.9691 H   0  0  0  0  0  0  0  0  0  0  0  0  # atno 8010 bound_to 7997
  140.6268  143.8084  150.7243 H   0  0  0  0  0  0  0  0  0  0  0  0  # atno 10167 bound_to 10162
  156.8976  130.9868  151.3040 H   0  0  0  0  0  0  0  0  0  0  0  0  # atno 10718 bound_to 10713
  152.9963  135.6216  154.2487 H   0  0  0  0  0  0  0  0  0  0  0  0  # atno 10763 bound_to 10752
  154.2226  135.2795  155.2921 H   0  0  0  0  0  0  0  0  0  0  0  0  # atno 10764 bound_to 10752
  154.5516  135.5731  153.6985 H   0  0  0  0  0  0  0  0  0  0  0  0  # atno 10765 bound_to 10752
  139.9889  134.6622  156.0125 H   0  0  0  0  0  0  0  0  0  0  0  0  # atno 11005 bound_to 11000
  146.2978  140.4094  142.8715 LP  0  0  0  0  0  0  0  0  0  0  0  0  # atno 17320 bound_to 7965
  144.8737  140.7307  143.6031 LP  0  0  0  0  0  0  0  0  0  0  0  0  # atno 17321 bound_to 7965
  140.1686  143.4214  152.2017 LP  0  0  0  0  0  0  0  0  0  0  0  0  # atno 17342 bound_to 10162
  139.5487  144.7320  151.4502 LP  0  0  0  0  0  0  0  0  0  0  0  0  # atno 17343 bound_to 10162
  157.6046  130.8537  149.8855 LP  0  0  0  0  0  0  0  0  0  0  0  0  # atno 17370 bound_to 10713
  156.0598  130.3702  150.1008 LP  0  0  0  0  0  0  0  0  0  0  0  0  # atno 17371 bound_to 10713
  141.1549  133.6544  156.4130 LP  0  0  0  0  0  0  0  0  0  0  0  0  # atno 17394 bound_to 11000
  140.4946  134.6543  157.5224 LP  0  0  0  0  0  0  0  0  0  0  0  0  # atno 17395 bound_to 11000

$$$$
