AV-unprocessed.smi:3005|AV-procd|sdf|11443|dock7
  -GOLD-   2272016373D 1   1.00000     0.00000
 Structure written by MMmdl.
 33 34  0  0  0  0  0  0  0  0  1 V2000
  147.4936  142.3142  154.0217 C   0  0  0  0  0  0  0  0  0  0  0  0
  148.4407  141.1875  154.3012 C   0  0  0  0  0  0  0  0  0  0  0  0
  149.6312  141.4428  154.9873 N   0  0  0  0  0  0  0  0  0  0  0  0
  150.3698  140.3450  155.1670 C   0  0  0  0  0  0  0  0  0  0  0  0
  151.9279  140.2677  155.9882 S   0  0  0  0  0  0  0  0  0  0  0  0
  151.4554  140.9104  157.6203 C   0  0  0  0  0  0  0  0  0  0  0  0
  152.6541  140.9938  158.5696 C   0  0  0  0  0  0  0  0  0  0  0  0
  153.4121  140.0313  158.6894 O   0  0  0  0  0  0  0  0  0  0  0  0
  152.8832  142.1999  159.2384 N   0  0  0  0  0  0  0  0  0  0  0  0
  153.2708  142.2346  160.6408 C   0  0  0  0  0  0  0  0  0  0  0  0
  152.5438  143.5818  160.6972 C   0  0  0  0  0  0  0  0  0  0  0  0
  151.8171  143.1760  159.4111 C   0  0  0  0  0  0  0  0  0  0  0  0
  149.6359  138.9017  154.4858 S   0  0  0  0  0  0  0  0  0  0  0  0
  148.2798  139.8653  153.9560 C   0  0  0  0  0  0  0  0  0  0  0  0
  147.1347  139.2357  153.2257 C   0  0  0  0  0  0  0  0  0  0  0  0
  146.2754  138.3919  154.1698 C   0  0  0  0  0  0  0  0  0  0  0  0
  144.9993  138.7553  154.3210 N   0  0  0  0  0  0  0  0  0  0  0  0
  146.7569  137.4264  154.7592 O   0  0  0  0  0  0  0  0  0  0  0  0
  146.5332  142.1488  154.5104 H   0  0  0  0  0  0  0  0  0  0  0  0
  147.3080  142.4149  152.9523 H   0  0  0  0  0  0  0  0  0  0  0  0
  147.8829  143.2682  154.3785 H   0  0  0  0  0  0  0  0  0  0  0  0
  151.0368  141.9105  157.5039 H   0  0  0  0  0  0  0  0  0  0  0  0
  150.6667  140.2787  158.0275 H   0  0  0  0  0  0  0  0  0  0  0  0
  152.7921  141.4607  161.2445 H   0  0  0  0  0  0  0  0  0  0  0  0
  154.3475  142.2934  160.8045 H   0  0  0  0  0  0  0  0  0  0  0  0
  151.8910  143.7025  161.5622 H   0  0  0  0  0  0  0  0  0  0  0  0
  153.2082  144.4379  160.5670 H   0  0  0  0  0  0  0  0  0  0  0  0
  151.7922  143.9461  158.6396 H   0  0  0  0  0  0  0  0  0  0  0  0
  150.8370  142.7306  159.5949 H   0  0  0  0  0  0  0  0  0  0  0  0
  146.5288  140.0058  152.7461 H   0  0  0  0  0  0  0  0  0  0  0  0
  147.5059  138.5941  152.4257 H   0  0  0  0  0  0  0  0  0  0  0  0
  144.3928  138.2293  154.9332 H   0  0  0  0  0  0  0  0  0  0  0  0
  144.6454  139.5575  153.8201 H   0  0  0  0  0  0  0  0  0  0  0  0
  1  2  1  0  0  0  0
  1 19  1  0  0  0  0
  1 20  1  0  0  0  0
  1 21  1  0  0  0  0
  2 14  2  0  0  0  0
  2  3  1  0  0  0  0
  3  4  2  0  0  0  0
  4  5  1  0  0  0  0
  4 13  1  0  0  0  0
  5  6  1  0  0  0  0
  6  7  1  0  0  0  0
  6 22  1  0  0  0  0
  6 23  1  0  0  0  0
  7  8  2  0  0  0  0
  7  9  1  0  0  0  0
  9 12  1  0  0  0  0
  9 10  1  0  0  0  0
 10 11  1  0  0  0  0
 10 24  1  0  0  0  0
 10 25  1  0  0  0  0
 11 12  1  0  0  0  0
 11 26  1  0  0  0  0
 11 27  1  0  0  0  0
 12 28  1  0  0  0  0
 12 29  1  0  0  0  0
 13 14  1  0  0  0  0
 14 15  1  0  0  0  0
 15 16  1  0  0  0  0
 15 30  1  0  0  0  0
 15 31  1  0  0  0  0
 16 17  1  0  0  0  0
 16 18  2  0  0  0  0
 17 32  1  0  0  0  0
 17 33  1  0  0  0  0
M  END
> <s_m_source_file>
AV-unprocessed.smi

> <i_m_source_file_index>
3005

> <i_lp_mmshare_version>
43012

> <i_f3d_flags>
0

> <s_epik_input>
W05IMl1DKD1PKVtDSDJdYzFzYyhuYzFbQ0gzXSlTW0NIMl1DKD1PKU4yW0NIMl1bQ0gyXVtDSDJdMg==

> <s_epik_cmdline>
J2VwaWtfcHl0aG9uJywgJy1waCcsICc3LjAnLCAnLXRuJywgJzgnLCAnLW1hJywgJzIwMCcsICctbWV0YWxfYmluZGluZycsICctaW1hZScsICc8aW5maWxlLm1hZT4nLCAnLW9tYWUnLCAnPG91dGZpbGUubWFlPic=

> <r_lp_tautomer_probability>
1

> <r_epik_Ionization_Penalty>
8.1701e-07

> <r_epik_Ionization_Penalty_Charging>
0

> <r_epik_Ionization_Penalty_Neutral>
8.1701e-07

> <r_epik_State_Penalty>
-0

> <r_epik_Charging_Adjusted_Penalty>
0

> <i_epik_Tot_Q>
0

> <i_epik_Tot_abs_Q>
0

> <r_epik_Metal_State_Penalty>
-0

> <b_epik_Metal_Only>
0

> <s_lp_Force_Field>
OPLS_2005

> <r_lp_Energy>
11.7673

> <b_lp_Chiralities_Consistent>
1

> <s_lp_Variant>
AV-unprocessed.smi:3005-1

> <Gold.Version>
5.8.1

> <Gold.Id.Protein>
6NUR|6NUR_protein|mol2

> <Gold.PLP.Fitness>
43.4781

> <Gold.PLP.PLP>
-37.9358

> <Gold.PLP.part.hbond>
-2.1798

> <Gold.PLP.part.metal>
0.0000

> <Gold.PLP.part.buried>
-2.4155

> <Gold.PLP.part.nonpolar>
-33.0755

> <Gold.PLP.part.repulsive>
0.1989

> <Gold.PLP.ligand.clash>
0.0000

> <Gold.PLP.ligand.torsion>
0.6818

> <Gold.PLP.Chemscore.Hbond>
2.0000

> <Gold.PLP.Chemscore.CHOScore>
0.0000

> <Gold.PLP.Chemscore.Metal>
0.0000

> <Gold.Chemscore.Hbonds>
donor molecule, donor type, donor heavy atom, donor atom, acceptor molecule, acceptor atom, score
      L1  H    17    33       P1 10175  1.00
      P1  H  7997  8009       L1     8  1.00

> <Gold.PLP.Chemscore.Internal.Correction>
0.9060

> <Gold.Rescore>
     Score         DG    S(hbond)    S(metal)    S(lipo)     H(rot)  DE(clash)    DE(int)     intcor
     14.98     -15.75       1.86        0.00      87.43       2.41       0.06       0.70       ----

> <Gold.Chemscore.Fitness>
14.9844

> <Gold.Chemscore.DG>
-15.7519

> <Gold.Chemscore.ZeroCoef>
-5.4800

> <Gold.Chemscore.Hbond>
1.8637

> <Gold.Chemscore.Metal>
0.0000

> <Gold.Chemscore.Lipo>
87.4323

> <Gold.Chemscore.Internal_Hbond>
0.0000

> <Gold.Chemscore.DEClash>
0.0638

> <Gold.Chemscore.DEInternal>
0.7037

> <Gold.Chemscore.Rot>
2.4149

> <Gold.Chemscore.Internal.Correction>
   9.000000E+99

> <Gold.Chemscore.Hbonds>
donor molecule, donor type, donor heavy atom, donor atom, acceptor molecule, acceptor atom, score
      L1  H    17    33       P1 10175  0.98
      P1  H  7997  8009       L1     8  0.55

> <Gold.Chemscore.Hbond.Weighted>
-6.2246

> <Gold.Chemscore.Metal.Weighted>
-0.0000

> <Gold.Chemscore.Lipo.Weighted>
-10.2296

> <Gold.Chemscore.Internal_Hbond.Weighted>
0.0000

> <Gold.Chemscore.DEClash.Weighted>
0.0638

> <Gold.Chemscore.DEInternal.Weighted>
0.7037

> <Gold.Chemscore.Rot.Weighted>
6.1822

> <Gold.Chemscore.Internal.Correction.Weighted>
   9.000000E+99

> <Gold.Protein.RotatedTorsions>
[ 6907 6896 6895 6894 ] final  -53.95 input  -60.11 | X-H torsion
[ 7974 7965 7964 7962 ] final  -10.04 input  175.53 | X-H torsion
[ 8008 7997 7996 7995 ] final  149.07 input   59.86 | X-H torsion
[ 10167 10162 10161 10158 ] final   45.68 input  -65.29 | X-H torsion
[ 10718 10713 10712 10709 ] final  -32.72 input   66.30 | X-H torsion
[ 10763 10752 10751 10750 ] final  -90.62 input  -60.55 | X-H torsion
[ 11005 11000 10999 10996 ] final  141.56 input  -57.11 | X-H torsion

> <Gold.Protein.ActiveResidues>
 VAL166  LYS551  ARG553  GLY616  TRP617  ASP618  TYR619  PRO620  LYS621  CYS622 
 ASP623  PHE694  ASN695  SER759  ASP760  ASP761  ALA762  ILE779  LEU786  VAL792 
 PHE793  MET794  SER795  GLU796  ALA797  LYS798  CYS799  TRP800  GLU811  SER814 

> <Gold.Protein.RotatedAtoms>
  150.8381  134.7662  159.6909 H   0  0  0  0  0  0  0  0  0  0  0  0  # atno 6907 bound_to 6896
  152.4474  134.5463  159.9863 H   0  0  0  0  0  0  0  0  0  0  0  0  # atno 6908 bound_to 6896
  151.5609  133.3365  159.3007 H   0  0  0  0  0  0  0  0  0  0  0  0  # atno 6909 bound_to 6896
  146.2233  140.2705  142.8356 H   0  0  0  0  0  0  0  0  0  0  0  0  # atno 7974 bound_to 7965
  156.2768  140.2112  156.5799 H   0  0  0  0  0  0  0  0  0  0  0  0  # atno 8008 bound_to 7997
  154.7067  140.0516  157.0534 H   0  0  0  0  0  0  0  0  0  0  0  0  # atno 8009 bound_to 7997
  155.0661  140.3171  155.4648 H   0  0  0  0  0  0  0  0  0  0  0  0  # atno 8010 bound_to 7997
  140.3216  144.2698  150.6182 H   0  0  0  0  0  0  0  0  0  0  0  0  # atno 10167 bound_to 10162
  156.3714  130.4340  149.7542 H   0  0  0  0  0  0  0  0  0  0  0  0  # atno 10718 bound_to 10713
  154.6676  135.5298  153.8097 H   0  0  0  0  0  0  0  0  0  0  0  0  # atno 10763 bound_to 10752
  153.0481  135.6521  154.0774 H   0  0  0  0  0  0  0  0  0  0  0  0  # atno 10764 bound_to 10752
  154.0677  135.2956  155.3293 H   0  0  0  0  0  0  0  0  0  0  0  0  # atno 10765 bound_to 10752
  140.0411  134.9304  157.0844 H   0  0  0  0  0  0  0  0  0  0  0  0  # atno 11005 bound_to 11000
  144.9271  140.7934  143.5712 LP  0  0  0  0  0  0  0  0  0  0  0  0  # atno 17320 bound_to 7965
  145.2646  139.1978  143.4874 LP  0  0  0  0  0  0  0  0  0  0  0  0  # atno 17321 bound_to 7965
  140.5478  143.2211  151.7978 LP  0  0  0  0  0  0  0  0  0  0  0  0  # atno 17342 bound_to 10162
  139.4873  144.4517  151.9647 LP  0  0  0  0  0  0  0  0  0  0  0  0  # atno 17343 bound_to 10162
  156.4668  130.7978  151.2997 LP  0  0  0  0  0  0  0  0  0  0  0  0  # atno 17370 bound_to 10713
  157.7484  131.0048  150.3091 LP  0  0  0  0  0  0  0  0  0  0  0  0  # atno 17371 bound_to 10713
  140.4068  134.2024  155.7163 LP  0  0  0  0  0  0  0  0  0  0  0  0  # atno 17394 bound_to 11000
  141.1883  133.8262  157.0999 LP  0  0  0  0  0  0  0  0  0  0  0  0  # atno 17395 bound_to 11000

$$$$
