AV-unprocessed.smi:2360|AV-procd|sdf|9409|dock9
  -GOLD-   2272013 43D 1   1.00000     0.00000
 Structure written by MMmdl.
 34 35  0  0  0  0  0  0  0  0  1 V2000
  152.4884  143.7828  161.7159 C   0  0  0  0  0  0  0  0  0  0  0  0
  152.1602  143.2861  160.3190 C   0  0  0  0  0  0  0  0  0  0  0  0
  151.3082  144.1047  159.5719 N   0  0  0  0  0  0  0  0  0  0  0  0
  150.9699  143.7594  158.3727 C   0  0  0  0  0  0  0  0  0  0  0  0
  151.4360  142.5707  157.7881 N   0  0  0  0  0  0  0  0  0  0  0  0
  150.9747  142.2926  156.4174 C   0  0  0  0  0  0  0  0  0  0  0  0
  150.3131  140.9023  156.2912 C   0  0  2  0  0  0  0  0  0  0  0  0
  150.9079  140.2139  155.2085 O   0  0  0  0  0  0  0  0  0  0  0  0
  148.8088  141.0312  156.1053 C   0  0  0  0  0  0  0  0  0  0  0  0
  147.9321  140.4600  157.0526 C   0  0  0  0  0  0  0  0  0  0  0  0
  146.5379  140.5823  156.8944 C   0  0  0  0  0  0  0  0  0  0  0  0
  146.0117  141.2786  155.7894 C   0  0  0  0  0  0  0  0  0  0  0  0
  144.6711  141.3953  155.6391 F   0  0  0  0  0  0  0  0  0  0  0  0
  146.8814  141.8549  154.8429 C   0  0  0  0  0  0  0  0  0  0  0  0
  146.3784  142.5278  153.7807 F   0  0  0  0  0  0  0  0  0  0  0  0
  148.2757  141.7328  155.0011 C   0  0  0  0  0  0  0  0  0  0  0  0
  152.2788  141.7204  158.4430 C   0  0  0  0  0  0  0  0  0  0  0  0
  152.6944  140.6872  157.9144 O   0  0  0  0  0  0  0  0  0  0  0  0
  152.6518  142.1243  159.8083 C   0  0  0  0  0  0  0  0  0  0  0  0
  153.5826  141.1929  160.5749 C   0  0  0  0  0  0  0  0  0  0  0  0
  152.1635  143.0593  162.4641 H   0  0  0  0  0  0  0  0  0  0  0  0
  151.9892  144.7290  161.9291 H   0  0  0  0  0  0  0  0  0  0  0  0
  153.5620  143.9394  161.8236 H   0  0  0  0  0  0  0  0  0  0  0  0
  150.3118  144.3648  157.7468 H   0  0  0  0  0  0  0  0  0  0  0  0
  150.2466  143.0607  156.1483 H   0  0  0  0  0  0  0  0  0  0  0  0
  151.7702  142.4074  155.6779 H   0  0  0  0  0  0  0  0  0  0  0  0
  150.4946  140.3145  157.1920 H   0  0  0  0  0  0  0  0  0  0  0  0
  150.6983  139.2956  155.2866 H   0  0  0  0  0  0  0  0  0  0  0  0
  148.3255  139.9274  157.9063 H   0  0  0  0  0  0  0  0  0  0  0  0
  145.8721  140.1427  157.6223 H   0  0  0  0  0  0  0  0  0  0  0  0
  148.9350  142.1819  154.2729 H   0  0  0  0  0  0  0  0  0  0  0  0
  154.5263  141.0809  160.0402 H   0  0  0  0  0  0  0  0  0  0  0  0
  153.1294  140.2059  160.6725 H   0  0  0  0  0  0  0  0  0  0  0  0
  153.8146  141.5469  161.5780 H   0  0  0  0  0  0  0  0  0  0  0  0
  1  2  1  0  0  0  0
  1 21  1  0  0  0  0
  1 22  1  0  0  0  0
  1 23  1  0  0  0  0
  2 19  2  0  0  0  0
  2  3  1  0  0  0  0
  3  4  2  0  0  0  0
  4  5  1  0  0  0  0
  4 24  1  0  0  0  0
  5  6  1  0  0  0  0
  5 17  1  0  0  0  0
  6  7  1  0  0  0  0
  6 25  1  0  0  0  0
  6 26  1  0  0  0  0
  7  8  1  0  0  0  0
  7  9  1  0  0  0  0
  7 27  1  0  0  0  0
  8 28  1  0  0  0  0
  9 16  1  0  0  0  0
  9 10  2  0  0  0  0
 10 11  1  0  0  0  0
 10 29  1  0  0  0  0
 11 12  2  0  0  0  0
 11 30  1  0  0  0  0
 12 13  1  0  0  0  0
 12 14  1  0  0  0  0
 14 15  1  0  0  0  0
 14 16  2  0  0  0  0
 16 31  1  0  0  0  0
 17 18  2  0  0  0  0
 17 19  1  0  0  0  0
 19 20  1  0  0  0  0
 20 32  1  0  0  0  0
 20 33  1  0  0  0  0
 20 34  1  0  0  0  0
M  END
> <s_m_source_file>
AV-unprocessed.smi

> <i_m_source_file_index>
2360

> <i_lp_mmshare_version>
43012

> <i_f3d_flags>
0

> <s_epik_input>
W0NIM11jMW5bY0hdbihjKD1PKWMxW0NIM10pW0NIMl1bQ0BIXShbT0hdKWMyW2NIXVtjSF1jKEYpYyhGKVtjSF0y

> <s_epik_cmdline>
J2VwaWtfcHl0aG9uJywgJy1waCcsICc3LjAnLCAnLXRuJywgJzgnLCAnLW1hJywgJzIwMCcsICctbWV0YWxfYmluZGluZycsICctaW1hZScsICc8aW5maWxlLm1hZT4nLCAnLW9tYWUnLCAnPG91dGZpbGUubWFlPic=

> <r_lp_tautomer_probability>
1

> <r_epik_Ionization_Penalty>
5.07449e-05

> <r_epik_Ionization_Penalty_Charging>
7.56727e-08

> <r_epik_Ionization_Penalty_Neutral>
5.06692e-05

> <r_epik_State_Penalty>
-0

> <r_epik_Charging_Adjusted_Penalty>
7.56727e-08

> <i_epik_Tot_Q>
0

> <i_epik_Tot_abs_Q>
0

> <r_epik_Metal_State_Penalty>
-0

> <b_epik_Metal_Only>
0

> <s_lp_Force_Field>
OPLS_2005

> <r_lp_Energy>
18.6732

> <b_lp_Chiralities_Consistent>
1

> <s_lp_Variant>
AV-unprocessed.smi:2360-1

> <Gold.Version>
5.8.1

> <Gold.Id.Protein>
6NUR|6NUR_protein|mol2

> <Gold.PLP.Fitness>
44.7911

> <Gold.PLP.PLP>
-38.7327

> <Gold.PLP.part.hbond>
-2.0000

> <Gold.PLP.part.metal>
0.0000

> <Gold.PLP.part.buried>
-4.1098

> <Gold.PLP.part.nonpolar>
-31.0379

> <Gold.PLP.part.repulsive>
0.0651

> <Gold.PLP.ligand.clash>
0.0000

> <Gold.PLP.ligand.torsion>
0.7275

> <Gold.PLP.Chemscore.Hbond>
1.5262

> <Gold.PLP.Chemscore.CHOScore>
0.9765

> <Gold.PLP.Chemscore.Metal>
0.0000

> <Gold.Chemscore.Hbonds>
donor molecule, donor type, donor heavy atom, donor atom, acceptor molecule, acceptor atom, score
      P1  H  7989  7998       L1     8  1.00
      P1  H  7997  8010       L1    18  0.51
      L1  C     4    24       P1  8028  1.00
      L1  C     4    24       P1  8029  0.01

> <Gold.PLP.Chemscore.Internal.Correction>
0.0053

> <Gold.Rescore>
     Score         DG    S(hbond)    S(metal)    S(lipo)     H(rot)  DE(clash)    DE(int)     intcor
     12.96     -15.04       1.81        0.00      76.30       2.11       0.06       2.03       ----

> <Gold.Chemscore.Fitness>
12.9554

> <Gold.Chemscore.DG>
-15.0400

> <Gold.Chemscore.ZeroCoef>
-5.4800

> <Gold.Chemscore.Hbond>
1.8066

> <Gold.Chemscore.Metal>
0.0000

> <Gold.Chemscore.Lipo>
76.2986

> <Gold.Chemscore.Internal_Hbond>
0.0000

> <Gold.Chemscore.DEClash>
0.0553

> <Gold.Chemscore.DEInternal>
2.0293

> <Gold.Chemscore.Rot>
2.1097

> <Gold.Chemscore.Internal.Correction>
   9.000000E+99

> <Gold.Chemscore.Hbonds>
donor molecule, donor type, donor heavy atom, donor atom, acceptor molecule, acceptor atom, score
      P1  H  7989  7998       L1     8  0.94
      P1  H  7997  8010       L1    18  0.52

> <Gold.Chemscore.Hbond.Weighted>
-6.0340

> <Gold.Chemscore.Metal.Weighted>
-0.0000

> <Gold.Chemscore.Lipo.Weighted>
-8.9269

> <Gold.Chemscore.Internal_Hbond.Weighted>
0.0000

> <Gold.Chemscore.DEClash.Weighted>
0.0553

> <Gold.Chemscore.DEInternal.Weighted>
2.0293

> <Gold.Chemscore.Rot.Weighted>
5.4009

> <Gold.Chemscore.Internal.Correction.Weighted>
   9.000000E+99

> <Gold.Protein.RotatedTorsions>
[ 6907 6896 6895 6894 ] final  133.48 input  -60.11 | X-H torsion
[ 7974 7965 7964 7962 ] final  -57.24 input  175.53 | X-H torsion
[ 8008 7997 7996 7995 ] final   44.75 input   59.86 | X-H torsion
[ 10167 10162 10161 10158 ] final  135.69 input  -65.29 | X-H torsion
[ 10718 10713 10712 10709 ] final -172.13 input   66.30 | X-H torsion
[ 10763 10752 10751 10750 ] final  124.14 input  -60.55 | X-H torsion
[ 11005 11000 10999 10996 ] final  110.41 input  -57.11 | X-H torsion

> <Gold.Protein.ActiveResidues>
 VAL166  LYS551  ARG553  GLY616  TRP617  ASP618  TYR619  PRO620  LYS621  CYS622 
 ASP623  PHE694  ASN695  SER759  ASP760  ASP761  ALA762  ILE779  LEU786  VAL792 
 PHE793  MET794  SER795  GLU796  ALA797  LYS798  CYS799  TRP800  GLU811  SER814 

> <Gold.Protein.RotatedAtoms>
  152.3215  133.5858  159.5747 H   0  0  0  0  0  0  0  0  0  0  0  0  # atno 6907 bound_to 6896
  150.7374  134.0004  159.3645 H   0  0  0  0  0  0  0  0  0  0  0  0  # atno 6908 bound_to 6896
  151.7888  135.0742  160.0435 H   0  0  0  0  0  0  0  0  0  0  0  0  # atno 6909 bound_to 6896
  145.8534  140.8336  142.9974 H   0  0  0  0  0  0  0  0  0  0  0  0  # atno 7974 bound_to 7965
  155.3244  140.3399  155.4240 H   0  0  0  0  0  0  0  0  0  0  0  0  # atno 8008 bound_to 7997
  156.1893  140.1692  156.8161 H   0  0  0  0  0  0  0  0  0  0  0  0  # atno 8009 bound_to 7997
  154.5423  140.0722  156.8513 H   0  0  0  0  0  0  0  0  0  0  0  0  # atno 8010 bound_to 7997
  139.5207  144.6503  151.5320 H   0  0  0  0  0  0  0  0  0  0  0  0  # atno 10167 bound_to 10162
  156.7510  130.9378  151.3114 H   0  0  0  0  0  0  0  0  0  0  0  0  # atno 10718 bound_to 10713
  153.6567  135.3353  155.3115 H   0  0  0  0  0  0  0  0  0  0  0  0  # atno 10763 bound_to 10752
  154.8525  135.4354  154.1848 H   0  0  0  0  0  0  0  0  0  0  0  0  # atno 10764 bound_to 10752
  153.2804  135.7008  153.7466 H   0  0  0  0  0  0  0  0  0  0  0  0  # atno 10765 bound_to 10752
  139.8881  134.9483  156.6275 H   0  0  0  0  0  0  0  0  0  0  0  0  # atno 11005 bound_to 11000
  144.6728  140.0987  143.7461 LP  0  0  0  0  0  0  0  0  0  0  0  0  # atno 17320 bound_to 7965
  145.9332  139.2620  143.1313 LP  0  0  0  0  0  0  0  0  0  0  0  0  # atno 17321 bound_to 7965
  140.6306  143.9084  150.6602 LP  0  0  0  0  0  0  0  0  0  0  0  0  # atno 17342 bound_to 10162
  140.2387  143.3680  152.1505 LP  0  0  0  0  0  0  0  0  0  0  0  0  # atno 17343 bound_to 10162
  157.6777  130.9110  150.0190 LP  0  0  0  0  0  0  0  0  0  0  0  0  # atno 17370 bound_to 10713
  156.1401  130.3642  149.9595 LP  0  0  0  0  0  0  0  0  0  0  0  0  # atno 17371 bound_to 10713
  140.7692  133.8752  155.8478 LP  0  0  0  0  0  0  0  0  0  0  0  0  # atno 17394 bound_to 11000
  140.9856  134.1347  157.4455 LP  0  0  0  0  0  0  0  0  0  0  0  0  # atno 17395 bound_to 11000

$$$$
