AV-unprocessed.smi:46|AV-procd|sdf|422|dock2
  -GOLD-   2262016303D 1   1.00000     0.00000
 Structure written by MMmdl.
 35 36  0  0  0  0  0  0  0  0  2 V2000
  151.0558  144.0075  158.7279 C   0  0  0  0  0  0  0  0  0  0  0  0
  151.7137  142.6453  158.9938 C   0  0  0  0  0  0  0  0  0  0  0  0
  153.2233  142.7740  159.2469 C   0  0  0  0  0  0  0  0  0  0  0  0
  151.4484  141.7215  157.9015 N   0  0  0  0  0  0  0  0  0  0  0  0
  150.6529  141.9047  156.7888 C   0  0  0  0  0  0  0  0  0  0  0  0
  150.7088  140.7591  156.0444 C   0  0  0  0  0  0  0  0  0  0  0  0
  150.0322  140.4351  154.7374 C   0  0  1  0  0  0  0  0  0  0  0  0
  150.3905  139.0483  154.2015 C   0  0  0  0  0  0  0  0  0  0  0  0
  149.3444  138.7408  153.2114 N   0  3  0  0  0  0  0  0  0  0  0  0
  148.1585  139.5626  153.5330 C   0  0  0  0  0  0  0  0  0  0  0  0
  148.5038  140.3673  154.7996 C   0  0  2  0  0  0  0  0  0  0  0  0
  147.8167  141.7417  154.8792 C   0  0  0  0  0  0  0  0  0  0  0  0
  148.5293  142.6858  154.1095 O   0  0  0  0  0  0  0  0  0  0  0  0
  151.5775  139.9213  156.7996 C   0  0  0  0  0  0  0  0  0  0  0  0
  152.0153  140.4965  157.9065 N   0  0  0  0  0  0  0  0  0  0  0  0
  150.3124  141.1703  153.9805 H   0  0  0  0  0  0  0  0  0  0  0  0
  148.2181  139.7704  155.6681 H   0  0  0  0  0  0  0  0  0  0  0  0
  151.2007  144.6824  159.5718 H   0  0  0  0  0  0  0  0  0  0  0  0
  149.9818  143.9003  158.5726 H   0  0  0  0  0  0  0  0  0  0  0  0
  151.4748  144.4879  157.8433 H   0  0  0  0  0  0  0  0  0  0  0  0
  151.2630  142.2324  159.8984 H   0  0  0  0  0  0  0  0  0  0  0  0
  153.4224  143.4196  160.1026 H   0  0  0  0  0  0  0  0  0  0  0  0
  153.7394  143.1984  158.3852 H   0  0  0  0  0  0  0  0  0  0  0  0
  153.6701  141.8017  159.4574 H   0  0  0  0  0  0  0  0  0  0  0  0
  150.1185  142.8281  156.6201 H   0  0  0  0  0  0  0  0  0  0  0  0
  151.3907  139.0025  153.7699 H   0  0  0  0  0  0  0  0  0  0  0  0
  150.3306  138.3006  154.9938 H   0  0  0  0  0  0  0  0  0  0  0  0
  149.6717  138.9938  152.2900 H   0  0  0  0  0  0  0  0  0  0  0  0
  147.9661  140.2242  152.6875 H   0  0  0  0  0  0  0  0  0  0  0  0
  147.2751  138.9393  153.6756 H   0  0  0  0  0  0  0  0  0  0  0  0
  146.7993  141.6797  154.4922 H   0  0  0  0  0  0  0  0  0  0  0  0
  147.7494  142.0908  155.9101 H   0  0  0  0  0  0  0  0  0  0  0  0
  148.9240  142.2399  153.3750 H   0  0  0  0  0  0  0  0  0  0  0  0
  151.9014  138.9156  156.5758 H   0  0  0  0  0  0  0  0  0  0  0  0
  149.1187  137.7565  153.2344 H   0  0  0  0  0  0  0  0  0  0  0  0
  1  2  1  0  0  0  0
  1 18  1  0  0  0  0
  1 19  1  0  0  0  0
  1 20  1  0  0  0  0
  2  3  1  0  0  0  0
  2  4  1  0  0  0  0
  2 21  1  0  0  0  0
  3 22  1  0  0  0  0
  3 23  1  0  0  0  0
  3 24  1  0  0  0  0
  4 15  1  0  0  0  0
  4  5  1  0  0  0  0
  5  6  2  0  0  0  0
  5 25  1  0  0  0  0
  6  7  1  0  0  0  0
  6 14  1  0  0  0  0
  7 16  1  0  0  0  0
  7 11  1  0  0  0  0
  7  8  1  0  0  0  0
  8  9  1  0  0  0  0
  8 26  1  0  0  0  0
  8 27  1  0  0  0  0
  9 10  1  0  0  0  0
  9 28  1  0  0  0  0
  9 35  1  0  0  0  0
 10 11  1  0  0  0  0
 10 29  1  0  0  0  0
 10 30  1  0  0  0  0
 11 17  1  0  0  0  0
 11 12  1  0  0  0  0
 12 13  1  0  0  0  0
 12 31  1  0  0  0  0
 12 32  1  0  0  0  0
 13 33  1  0  0  0  0
 14 15  2  0  0  0  0
 14 34  1  0  0  0  0
M  CHG  1   9   1
M  END
> <s_m_source_file>
AV-unprocessed.smi

> <i_m_source_file_index>
46

> <i_lp_mmshare_version>
43012

> <i_f3d_flags>
0

> <s_epik_input>
W0NIM11bQ0hdKFtDSDNdKW4xW2NIXWMoW2NIXW4xKVtDQEBIXTJbQ0gyXVtOSF1bQ0gyXVtDQEhdMltDSDJdW09IXQ==

> <s_epik_cmdline>
J2VwaWtfcHl0aG9uJywgJy1waCcsICc3LjAnLCAnLXRuJywgJzgnLCAnLW1hJywgJzIwMCcsICctbWV0YWxfYmluZGluZycsICctaW1hZScsICc8aW5maWxlLm1hZT4nLCAnLW9tYWUnLCAnPG91dGZpbGUubWFlPic=

> <r_lp_tautomer_probability>
1

> <r_epik_Ionization_Penalty>
0.000236226

> <r_epik_Ionization_Penalty_Charging>
0.00021985

> <r_epik_Ionization_Penalty_Neutral>
1.63752e-05

> <r_epik_State_Penalty>
-0

> <r_epik_Charging_Adjusted_Penalty>
0.00021985

> <i_epik_Tot_Q>
1

> <i_epik_Tot_abs_Q>
1

> <r_epik_Metal_State_Penalty>
-0

> <b_epik_Metal_Only>
0

> <s_lp_Force_Field>
OPLS_2005

> <r_lp_Energy>
29.3902

> <b_lp_Chiralities_Consistent>
1

> <s_lp_Variant>
AV-unprocessed.smi:46-4

> <Gold.Version>
5.8.1

> <Gold.Id.Protein>
6NUR|6NUR_protein|mol2

> <Gold.PLP.Fitness>
43.4548

> <Gold.PLP.PLP>
-31.8952

> <Gold.PLP.part.hbond>
-4.5777

> <Gold.PLP.part.metal>
0.0000

> <Gold.PLP.part.buried>
2.4448

> <Gold.PLP.part.nonpolar>
-27.9164

> <Gold.PLP.part.repulsive>
0.1050

> <Gold.PLP.ligand.clash>
0.0000

> <Gold.PLP.ligand.torsion>
0.3729

> <Gold.PLP.Chemscore.Hbond>
3.0885

> <Gold.PLP.Chemscore.CHOScore>
1.0000

> <Gold.PLP.Chemscore.Metal>
0.0000

> <Gold.Chemscore.Hbonds>
donor molecule, donor type, donor heavy atom, donor atom, acceptor molecule, acceptor atom, score
      L1  H     9    28       P1  7957  0.92
      L1  H     9    35       P1  7948  1.40
      P1  H  8022  8030       L1    13  0.75
      L1  C     5    25       P1  8028  1.00

> <Gold.PLP.Chemscore.Internal.Correction>
0.0397

> <Gold.Rescore>
     Score         DG    S(hbond)    S(metal)    S(lipo)     H(rot)  DE(clash)    DE(int)     intcor
     15.71     -16.25       1.67        0.00      85.79       1.90       0.15       0.39       ----

> <Gold.Chemscore.Fitness>
15.7130

> <Gold.Chemscore.DG>
-16.2510

> <Gold.Chemscore.ZeroCoef>
-5.4800

> <Gold.Chemscore.Hbond>
1.6740

> <Gold.Chemscore.Metal>
0.0000

> <Gold.Chemscore.Lipo>
85.7928

> <Gold.Chemscore.Internal_Hbond>
0.0000

> <Gold.Chemscore.DEClash>
0.1515

> <Gold.Chemscore.DEInternal>
0.3864

> <Gold.Chemscore.Rot>
1.8976

> <Gold.Chemscore.Internal.Correction>
   9.000000E+99

> <Gold.Chemscore.Hbonds>
donor molecule, donor type, donor heavy atom, donor atom, acceptor molecule, acceptor atom, score
      L1  H     9    28       P1  7957  0.55
      L1  H     9    35       P1  7948  0.64
      P1  H  8022  8030       L1    13  0.36

> <Gold.Chemscore.Hbond.Weighted>
-5.5911

> <Gold.Chemscore.Metal.Weighted>
-0.0000

> <Gold.Chemscore.Lipo.Weighted>
-10.0378

> <Gold.Chemscore.Internal_Hbond.Weighted>
0.0000

> <Gold.Chemscore.DEClash.Weighted>
0.1515

> <Gold.Chemscore.DEInternal.Weighted>
0.3864

> <Gold.Chemscore.Rot.Weighted>
4.8579

> <Gold.Chemscore.Internal.Correction.Weighted>
   9.000000E+99

> <Gold.Protein.RotatedTorsions>
[ 6907 6896 6895 6894 ] final   28.54 input  -60.11 | X-H torsion
[ 7974 7965 7964 7962 ] final   13.43 input  175.53 | X-H torsion
[ 8008 7997 7996 7995 ] final   35.58 input   59.86 | X-H torsion
[ 10167 10162 10161 10158 ] final   51.82 input  -65.29 | X-H torsion
[ 10718 10713 10712 10709 ] final  -20.73 input   66.30 | X-H torsion
[ 10763 10752 10751 10750 ] final   60.83 input  -60.55 | X-H torsion
[ 11005 11000 10999 10996 ] final -132.25 input  -57.11 | X-H torsion

> <Gold.Protein.ActiveResidues>
 VAL166  LYS551  ARG553  GLY616  TRP617  ASP618  TYR619  PRO620  LYS621  CYS622 
 ASP623  PHE694  ASN695  SER759  ASP760  ASP761  ALA762  ILE779  LEU786  VAL792 
 PHE793  MET794  SER795  GLU796  ALA797  LYS798  CYS799  TRP800  GLU811  SER814 

> <Gold.Protein.RotatedAtoms>
  152.0184  134.9836  160.0569 H   0  0  0  0  0  0  0  0  0  0  0  0  # atno 6907 bound_to 6896
  152.1361  133.4431  159.4752 H   0  0  0  0  0  0  0  0  0  0  0  0  # atno 6908 bound_to 6896
  150.6860  134.2281  159.4466 H   0  0  0  0  0  0  0  0  0  0  0  0  # atno 6909 bound_to 6896
  146.2329  139.9189  142.8513 H   0  0  0  0  0  0  0  0  0  0  0  0  # atno 7974 bound_to 7965
  155.1734  140.3293  155.4388 H   0  0  0  0  0  0  0  0  0  0  0  0  # atno 8008 bound_to 7997
  156.2502  140.1939  156.6787 H   0  0  0  0  0  0  0  0  0  0  0  0  # atno 8009 bound_to 7997
  154.6321  140.0581  156.9731 H   0  0  0  0  0  0  0  0  0  0  0  0  # atno 8010 bound_to 7997
  140.2579  144.3406  150.6327 H   0  0  0  0  0  0  0  0  0  0  0  0  # atno 10167 bound_to 10162
  156.5278  130.4648  149.6563 H   0  0  0  0  0  0  0  0  0  0  0  0  # atno 10718 bound_to 10713
  152.9932  135.5522  154.5937 H   0  0  0  0  0  0  0  0  0  0  0  0  # atno 10763 bound_to 10752
  154.5293  135.2812  155.1196 H   0  0  0  0  0  0  0  0  0  0  0  0  # atno 10764 bound_to 10752
  154.2518  135.6397  153.5295 H   0  0  0  0  0  0  0  0  0  0  0  0  # atno 10765 bound_to 10752
  140.9187  134.1473  157.4332 H   0  0  0  0  0  0  0  0  0  0  0  0  # atno 11005 bound_to 11000
  145.2156  140.9914  143.4075 LP  0  0  0  0  0  0  0  0  0  0  0  0  # atno 17320 bound_to 7965
  144.9654  139.3936  143.6335 LP  0  0  0  0  0  0  0  0  0  0  0  0  # atno 17321 bound_to 7965
  140.5989  143.2167  151.7110 LP  0  0  0  0  0  0  0  0  0  0  0  0  # atno 17342 bound_to 10162
  139.5026  144.3824  152.0363 LP  0  0  0  0  0  0  0  0  0  0  0  0  # atno 17343 bound_to 10162
  156.3088  130.7217  151.2106 LP  0  0  0  0  0  0  0  0  0  0  0  0  # atno 17370 bound_to 10713
  157.7426  131.0486  150.5007 LP  0  0  0  0  0  0  0  0  0  0  0  0  # atno 17371 bound_to 10713
  139.8771  134.9963  156.5788 LP  0  0  0  0  0  0  0  0  0  0  0  0  # atno 17394 bound_to 11000
  140.8016  133.8500  155.8732 LP  0  0  0  0  0  0  0  0  0  0  0  0  # atno 17395 bound_to 11000

$$$$
