AV-unprocessed.smi:655|AV-procd|sdf|3216|dock2
  -GOLD-   22720 0153D 1   1.00000     0.00000
 Structure written by MMmdl.
 34 35  0  0  0  0  0  0  0  0  2 V2000
  145.7780  131.7864  149.7748 C   0  0  0  0  0  0  0  0  0  0  0  0
  145.3781  132.9492  150.6939 C   0  0  2  0  0  0  0  0  0  0  0  0
  144.3172  133.8498  150.0379 C   0  0  0  0  0  0  0  0  0  0  0  0
  143.9092  135.0111  150.9626 C   0  0  0  0  0  0  0  0  0  0  0  0
  145.1085  135.8627  151.4442 C   0  0  1  0  0  0  0  0  0  0  0  0
  145.6230  136.5257  150.3036 O   0  0  0  0  0  0  0  0  0  0  0  0
  144.5989  136.9536  152.4293 C   0  0  0  0  0  0  0  0  0  0  0  0
  143.2749  136.6832  153.0180 N   0  0  0  0  0  0  0  0  0  0  0  0
  142.2427  137.6033  152.7599 C   0  0  0  0  0  0  0  0  0  0  0  0
  140.9981  137.4403  153.2483 C   0  0  0  0  0  0  0  0  0  0  0  0
  139.7491  138.5831  152.9036 Cl  0  0  0  0  0  0  0  0  0  0  0  0
  140.7360  136.2664  154.0777 C   0  0  0  0  0  0  0  0  0  0  0  0
  139.6082  136.0824  154.5333 O   0  0  0  0  0  0  0  0  0  0  0  0
  141.7747  135.4132  154.3148 N   0  5  0  0  0  0  0  0  0  0  0  0
  143.0348  135.5980  153.8131 C   0  0  0  0  0  0  0  0  0  0  0  0
  143.9579  134.8212  154.0578 O   0  0  0  0  0  0  0  0  0  0  0  0
  146.2101  134.9479  152.0367 C   0  0  0  0  0  0  0  0  0  0  0  0
  146.6007  133.7876  151.1045 C   0  0  0  0  0  0  0  0  0  0  0  0
  146.2209  132.1483  148.8463 H   0  0  0  0  0  0  0  0  0  0  0  0
  144.9131  131.1754  149.5158 H   0  0  0  0  0  0  0  0  0  0  0  0
  146.5067  131.1365  150.2601 H   0  0  0  0  0  0  0  0  0  0  0  0
  144.9446  132.5192  151.5981 H   0  0  0  0  0  0  0  0  0  0  0  0
  144.6975  134.2451  149.0951 H   0  0  0  0  0  0  0  0  0  0  0  0
  143.4342  133.2608  149.7869 H   0  0  0  0  0  0  0  0  0  0  0  0
  143.1771  135.6420  150.4562 H   0  0  0  0  0  0  0  0  0  0  0  0
  143.3949  134.5927  151.8287 H   0  0  0  0  0  0  0  0  0  0  0  0
  144.9826  137.1544  150.0073 H   0  0  0  0  0  0  0  0  0  0  0  0
  145.3403  137.1381  153.2090 H   0  0  0  0  0  0  0  0  0  0  0  0
  144.5359  137.9045  151.8981 H   0  0  0  0  0  0  0  0  0  0  0  0
  142.5215  138.4403  152.1367 H   0  0  0  0  0  0  0  0  0  0  0  0
  147.1038  135.5273  152.2711 H   0  0  0  0  0  0  0  0  0  0  0  0
  145.8594  134.5301  152.9811 H   0  0  0  0  0  0  0  0  0  0  0  0
  147.3341  133.1545  151.6050 H   0  0  0  0  0  0  0  0  0  0  0  0
  147.0948  134.1819  150.2155 H   0  0  0  0  0  0  0  0  0  0  0  0
  1  2  1  0  0  0  0
  1 19  1  0  0  0  0
  1 20  1  0  0  0  0
  1 21  1  0  0  0  0
  2 18  1  0  0  0  0
  2  3  1  0  0  0  0
  2 22  1  0  0  0  0
  3  4  1  0  0  0  0
  3 23  1  0  0  0  0
  3 24  1  0  0  0  0
  4  5  1  0  0  0  0
  4 25  1  0  0  0  0
  4 26  1  0  0  0  0
  5  6  1  0  0  0  0
  5  7  1  0  0  0  0
  5 17  1  0  0  0  0
  6 27  1  0  0  0  0
  7  8  1  0  0  0  0
  7 28  1  0  0  0  0
  7 29  1  0  0  0  0
  8 15  1  0  0  0  0
  8  9  1  0  0  0  0
  9 10  2  0  0  0  0
  9 30  1  0  0  0  0
 10 11  1  0  0  0  0
 10 12  1  0  0  0  0
 12 13  2  0  0  0  0
 12 14  1  0  0  0  0
 14 15  1  0  0  0  0
 15 16  2  0  0  0  0
 17 18  1  0  0  0  0
 17 31  1  0  0  0  0
 17 32  1  0  0  0  0
 18 33  1  0  0  0  0
 18 34  1  0  0  0  0
M  CHG  1  14  -1
M  END
> <s_m_source_file>
AV-unprocessed.smi

> <i_m_source_file_index>
655

> <i_lp_mmshare_version>
43012

> <i_f3d_flags>
0

> <s_epik_input>
W0NIMl0xW0NIMl1bQ0BIXShbQ0gzXSlbQ0gyXVtDSDJdW0NAQF0xKFtPSF0pW0NIMl1uMltjSF1jKENsKWMoPU8pW25IXWMyPU8=

> <s_epik_cmdline>
J2VwaWtfcHl0aG9uJywgJy1waCcsICc3LjAnLCAnLXRuJywgJzgnLCAnLW1hJywgJzIwMCcsICctbWV0YWxfYmluZGluZycsICctaW1hZScsICc8aW5maWxlLm1hZT4nLCAnLW9tYWUnLCAnPG91dGZpbGUubWFlPic=

> <r_epik_Ionization_Penalty>
2.34257

> <r_epik_Ionization_Penalty_Charging>
1.00552e-07

> <r_epik_Ionization_Penalty_Neutral>
2.34257

> <r_epik_State_Penalty>
2.4963

> <r_epik_Charging_Adjusted_Penalty>
2.4963

> <i_epik_Tot_Q>
-1

> <i_epik_Tot_abs_Q>
1

> <r_epik_Metal_State_Penalty>
0.0381881

> <b_epik_Metal_Only>
0

> <s_lp_Force_Field>
OPLS_2005

> <r_lp_Energy>
26.568

> <b_lp_Chiralities_Consistent>
1

> <s_lp_Variant>
AV-unprocessed.smi:655-3

> <Gold.Version>
5.8.1

> <Gold.Id.Protein>
6NUR|6NUR_protein|mol2

> <Gold.PLP.Fitness>
40.4265

> <Gold.PLP.PLP>
-32.0912

> <Gold.PLP.part.hbond>
-3.3269

> <Gold.PLP.part.metal>
0.0000

> <Gold.PLP.part.buried>
-1.1219

> <Gold.PLP.part.nonpolar>
-27.5190

> <Gold.PLP.part.repulsive>
0.2859

> <Gold.PLP.ligand.clash>
0.0000

> <Gold.PLP.ligand.torsion>
0.9319

> <Gold.PLP.Chemscore.Hbond>
2.0000

> <Gold.PLP.Chemscore.CHOScore>
1.3809

> <Gold.PLP.Chemscore.Metal>
0.0000

> <Gold.Chemscore.Hbonds>
donor molecule, donor type, donor heavy atom, donor atom, acceptor molecule, acceptor atom, score
      L1  H     6    27       P1 10171  1.00
      P1  H 11000 11005       L1    13  0.99
      L1  C     9    30       P1 10171  0.39
      L1  C     9    30       P1 10175  1.00

> <Gold.PLP.Chemscore.Internal.Correction>
0.0564

> <Gold.Rescore>
     Score         DG    S(hbond)    S(metal)    S(lipo)     H(rot)  DE(clash)    DE(int)     intcor
     14.30     -15.90       1.90        0.00      74.31       1.81       0.63       0.98       ----

> <Gold.Chemscore.Fitness>
14.2976

> <Gold.Chemscore.DG>
-15.8986

> <Gold.Chemscore.ZeroCoef>
-5.4800

> <Gold.Chemscore.Hbond>
1.9029

> <Gold.Chemscore.Metal>
0.0000

> <Gold.Chemscore.Lipo>
74.3131

> <Gold.Chemscore.Internal_Hbond>
0.0000

> <Gold.Chemscore.DEClash>
0.6254

> <Gold.Chemscore.DEInternal>
0.9756

> <Gold.Chemscore.Rot>
1.8092

> <Gold.Chemscore.Internal.Correction>
   9.000000E+99

> <Gold.Chemscore.Hbonds>
donor molecule, donor type, donor heavy atom, donor atom, acceptor molecule, acceptor atom, score
      L1  H     6    27       P1 10171  1.00
      P1  H 11000 11005       L1    13  0.41

> <Gold.Chemscore.Hbond.Weighted>
-6.3555

> <Gold.Chemscore.Metal.Weighted>
-0.0000

> <Gold.Chemscore.Lipo.Weighted>
-8.6946

> <Gold.Chemscore.Internal_Hbond.Weighted>
0.0000

> <Gold.Chemscore.DEClash.Weighted>
0.6254

> <Gold.Chemscore.DEInternal.Weighted>
0.9756

> <Gold.Chemscore.Rot.Weighted>
4.6316

> <Gold.Chemscore.Internal.Correction.Weighted>
   9.000000E+99

> <Gold.Protein.RotatedTorsions>
[ 6907 6896 6895 6894 ] final  -37.05 input  -60.11 | X-H torsion
[ 7974 7965 7964 7962 ] final  -56.53 input  175.53 | X-H torsion
[ 8008 7997 7996 7995 ] final  165.73 input   59.86 | X-H torsion
[ 10167 10162 10161 10158 ] final  -41.71 input  -65.29 | X-H torsion
[ 10718 10713 10712 10709 ] final  101.50 input   66.30 | X-H torsion
[ 10763 10752 10751 10750 ] final    8.04 input  -60.55 | X-H torsion
[ 11005 11000 10999 10996 ] final   76.59 input  -57.11 | X-H torsion

> <Gold.Protein.ActiveResidues>
 VAL166  LYS551  ARG553  GLY616  TRP617  ASP618  TYR619  PRO620  LYS621  CYS622 
 ASP623  PHE694  ASN695  SER759  ASP760  ASP761  ALA762  ILE779  LEU786  VAL792 
 PHE793  MET794  SER795  GLU796  ALA797  LYS798  CYS799  TRP800  GLU811  SER814 

> <Gold.Protein.RotatedAtoms>
  151.0195  134.9458  159.8051 H   0  0  0  0  0  0  0  0  0  0  0  0  # atno 6907 bound_to 6896
  152.5322  134.2922  159.9057 H   0  0  0  0  0  0  0  0  0  0  0  0  # atno 6908 bound_to 6896
  151.2929  133.4115  159.2668 H   0  0  0  0  0  0  0  0  0  0  0  0  # atno 6909 bound_to 6896
  145.8616  140.8281  142.9934 H   0  0  0  0  0  0  0  0  0  0  0  0  # atno 7974 bound_to 7965
  156.1776  140.1662  156.8333 H   0  0  0  0  0  0  0  0  0  0  0  0  # atno 8008 bound_to 7997
  154.5324  140.0754  156.8402 H   0  0  0  0  0  0  0  0  0  0  0  0  # atno 8009 bound_to 7997
  155.3379  140.3383  155.4241 H   0  0  0  0  0  0  0  0  0  0  0  0  # atno 8010 bound_to 7997
  140.6994  143.3079  151.3105 H   0  0  0  0  0  0  0  0  0  0  0  0  # atno 10167 bound_to 10162
  157.6828  131.0728  150.5261 H   0  0  0  0  0  0  0  0  0  0  0  0  # atno 10718 bound_to 10713
  153.2295  135.6891  153.7906 H   0  0  0  0  0  0  0  0  0  0  0  0  # atno 10763 bound_to 10752
  153.7076  135.3287  155.3240 H   0  0  0  0  0  0  0  0  0  0  0  0  # atno 10764 bound_to 10752
  154.8307  135.4582  154.1175 H   0  0  0  0  0  0  0  0  0  0  0  0  # atno 10765 bound_to 10752
  139.9291  134.7614  156.1415 H   0  0  0  0  0  0  0  0  0  0  0  0  # atno 11005 bound_to 11000
  144.6726  140.1104  143.7455 LP  0  0  0  0  0  0  0  0  0  0  0  0  # atno 17320 bound_to 7965
  145.9241  139.2564  143.1364 LP  0  0  0  0  0  0  0  0  0  0  0  0  # atno 17321 bound_to 7965
  139.6491  144.0395  152.2613 LP  0  0  0  0  0  0  0  0  0  0  0  0  # atno 17342 bound_to 10162
  139.9925  144.6351  150.7801 LP  0  0  0  0  0  0  0  0  0  0  0  0  # atno 17343 bound_to 10162
  156.5573  130.4246  149.6079 LP  0  0  0  0  0  0  0  0  0  0  0  0  # atno 17370 bound_to 10713
  156.2851  130.7093  151.1927 LP  0  0  0  0  0  0  0  0  0  0  0  0  # atno 17371 bound_to 10713
  141.0869  133.6730  156.2455 LP  0  0  0  0  0  0  0  0  0  0  0  0  # atno 17394 bound_to 11000
  140.6251  134.5321  157.5552 LP  0  0  0  0  0  0  0  0  0  0  0  0  # atno 17395 bound_to 11000

$$$$
