AV-unprocessed.smi:1433|AV-procd|sdf|5836|dock4
  -GOLD-   22720 5493D 1   1.00000     0.00000
 Structure written by MMmdl.
 44 45  0  0  0  0  0  0  0  0  1 V2000
  150.7315  142.2523  156.1576 C   0  0  0  0  0  0  0  0  0  0  0  0
  150.5267  140.7472  155.9560 C   0  0  1  0  0  0  0  0  0  0  0  0
  149.2714  140.4375  155.1184 C   0  0  0  0  0  0  0  0  0  0  0  0
  149.0997  139.0051  154.8524 N   0  0  0  0  0  0  0  0  0  0  0  0
  147.8990  138.7196  154.0324 C   0  0  2  0  0  0  0  0  0  0  0  0
  146.7306  139.6987  154.3195 C   0  0  0  0  0  0  0  0  0  0  0  0
  147.3823  137.2624  154.1867 C   0  0  0  0  0  0  0  0  0  0  0  0
  146.5905  136.8354  153.0398 N   0  0  0  0  0  0  0  0  0  0  0  0
  145.2867  136.5240  153.0756 C   0  0  0  0  0  0  0  0  0  0  0  0
  144.6182  136.5174  154.1087 O   0  0  0  0  0  0  0  0  0  0  0  0
  144.6361  136.1657  151.7383 C   0  0  0  0  0  0  0  0  0  0  0  0
  145.0474  134.8465  151.2889 N   0  0  0  0  0  0  0  0  0  0  0  0
  144.2676  133.8435  150.7516 C   0  0  0  0  0  0  0  0  0  0  0  0
  145.0938  132.7943  150.4675 C   0  0  0  0  0  0  0  0  0  0  0  0
  146.3780  133.2564  150.8698 C   0  0  0  0  0  0  0  0  0  0  0  0
  146.3476  134.4846  151.3614 N   0  0  0  0  0  0  0  0  0  0  0  0
  150.3370  138.5091  154.2401 C   0  0  0  0  0  0  0  0  0  0  0  0
  151.5904  138.8240  155.0788 C   0  0  1  0  0  0  0  0  0  0  0  0
  152.8796  138.3684  154.3871 C   0  0  0  0  0  0  0  0  0  0  0  0
  151.6707  140.2276  155.2905 O   0  0  0  0  0  0  0  0  0  0  0  0
  149.8830  142.6981  156.6773 H   0  0  0  0  0  0  0  0  0  0  0  0
  150.8476  142.7667  155.2033 H   0  0  0  0  0  0  0  0  0  0  0  0
  151.6246  142.4472  156.7519 H   0  0  0  0  0  0  0  0  0  0  0  0
  150.4389  140.2729  156.9352 H   0  0  0  0  0  0  0  0  0  0  0  0
  148.4176  140.8284  155.6687 H   0  0  0  0  0  0  0  0  0  0  0  0
  149.3180  140.9841  154.1751 H   0  0  0  0  0  0  0  0  0  0  0  0
  148.1711  138.8498  152.9836 H   0  0  0  0  0  0  0  0  0  0  0  0
  145.8311  139.4566  153.7542 H   0  0  0  0  0  0  0  0  0  0  0  0
  146.9708  140.7230  154.0381 H   0  0  0  0  0  0  0  0  0  0  0  0
  146.4628  139.6926  155.3765 H   0  0  0  0  0  0  0  0  0  0  0  0
  148.2012  136.5486  154.2580 H   0  0  0  0  0  0  0  0  0  0  0  0
  146.7960  137.1742  155.1030 H   0  0  0  0  0  0  0  0  0  0  0  0
  147.0580  136.8119  152.1448 H   0  0  0  0  0  0  0  0  0  0  0  0
  143.5495  136.1986  151.8337 H   0  0  0  0  0  0  0  0  0  0  0  0
  144.9145  136.8966  150.9780 H   0  0  0  0  0  0  0  0  0  0  0  0
  143.2023  133.9611  150.6160 H   0  0  0  0  0  0  0  0  0  0  0  0
  144.8216  131.8421  150.0368 H   0  0  0  0  0  0  0  0  0  0  0  0
  147.3249  132.7396  150.8195 H   0  0  0  0  0  0  0  0  0  0  0  0
  150.3005  137.4280  154.1238 H   0  0  0  0  0  0  0  0  0  0  0  0
  150.4491  138.9330  153.2411 H   0  0  0  0  0  0  0  0  0  0  0  0
  151.5176  138.3229  156.0458 H   0  0  0  0  0  0  0  0  0  0  0  0
  152.8719  137.2925  154.2113 H   0  0  0  0  0  0  0  0  0  0  0  0
  153.7523  138.5984  154.9991 H   0  0  0  0  0  0  0  0  0  0  0  0
  153.0077  138.8646  153.4246 H   0  0  0  0  0  0  0  0  0  0  0  0
  1  2  1  0  0  0  0
  1 21  1  0  0  0  0
  1 22  1  0  0  0  0
  1 23  1  0  0  0  0
  2 20  1  0  0  0  0
  2  3  1  0  0  0  0
  2 24  1  0  0  0  0
  3  4  1  0  0  0  0
  3 25  1  0  0  0  0
  3 26  1  0  0  0  0
  4  5  1  0  0  0  0
  4 17  1  0  0  0  0
  5  6  1  0  0  0  0
  5  7  1  0  0  0  0
  5 27  1  0  0  0  0
  6 28  1  0  0  0  0
  6 29  1  0  0  0  0
  6 30  1  0  0  0  0
  7  8  1  0  0  0  0
  7 31  1  0  0  0  0
  7 32  1  0  0  0  0
  8  9  1  0  0  0  0
  8 33  1  0  0  0  0
  9 10  2  0  0  0  0
  9 11  1  0  0  0  0
 11 12  1  0  0  0  0
 11 34  1  0  0  0  0
 11 35  1  0  0  0  0
 12 16  1  0  0  0  0
 12 13  1  0  0  0  0
 13 14  2  0  0  0  0
 13 36  1  0  0  0  0
 14 15  1  0  0  0  0
 14 37  1  0  0  0  0
 15 16  2  0  0  0  0
 15 38  1  0  0  0  0
 17 18  1  0  0  0  0
 17 39  1  0  0  0  0
 17 40  1  0  0  0  0
 18 19  1  0  0  0  0
 18 20  1  0  0  0  0
 18 41  1  0  0  0  0
 19 42  1  0  0  0  0
 19 43  1  0  0  0  0
 19 44  1  0  0  0  0
M  END
> <s_m_source_file>
AV-unprocessed.smi

> <i_m_source_file_index>
1433

> <i_lp_mmshare_version>
43012

> <i_f3d_flags>
0

> <s_epik_input>
W0NIM11bQ0BASF0xW0NIMl1OKFtDSDJdW0NASF0oTzEpW0NIM10pW0NASF0oW0NIM10pW0NIMl1bTkhdQyg9TylbQ0gyXW4yW2NIXVtjSF1bY0hdbjI=

> <s_epik_cmdline>
J2VwaWtfcHl0aG9uJywgJy1waCcsICc3LjAnLCAnLXRuJywgJzgnLCAnLW1hJywgJzIwMCcsICctbWV0YWxfYmluZGluZycsICctaW1hZScsICc8aW5maWxlLm1hZT4nLCAnLW9tYWUnLCAnPG91dGZpbGUubWFlPic=

> <r_lp_tautomer_probability>
1

> <r_epik_Ionization_Penalty>
0.196927

> <r_epik_Ionization_Penalty_Charging>
0

> <r_epik_Ionization_Penalty_Neutral>
0.196927

> <r_epik_State_Penalty>
0.186684

> <r_epik_Charging_Adjusted_Penalty>
0.186684

> <i_epik_Tot_Q>
0

> <i_epik_Tot_abs_Q>
0

> <r_epik_Metal_State_Penalty>
0.186682

> <b_epik_Metal_Only>
0

> <s_lp_Force_Field>
OPLS_2005

> <r_lp_Energy>
26.9477

> <b_lp_Chiralities_Consistent>
1

> <s_lp_Variant>
AV-unprocessed.smi:1433-2

> <Gold.Version>
5.8.1

> <Gold.Id.Protein>
6NUR|6NUR_protein|mol2

> <Gold.PLP.Fitness>
39.3746

> <Gold.PLP.PLP>
-31.1604

> <Gold.PLP.part.hbond>
-2.0000

> <Gold.PLP.part.metal>
0.0000

> <Gold.PLP.part.buried>
-3.5617

> <Gold.PLP.part.nonpolar>
-26.3614

> <Gold.PLP.part.repulsive>
0.6615

> <Gold.PLP.ligand.clash>
0.0000

> <Gold.PLP.ligand.torsion>
1.0497

> <Gold.PLP.Chemscore.Hbond>
1.4240

> <Gold.PLP.Chemscore.CHOScore>
2.0000

> <Gold.PLP.Chemscore.Metal>
0.0000

> <Gold.Chemscore.Hbonds>
donor molecule, donor type, donor heavy atom, donor atom, acceptor molecule, acceptor atom, score
      L1  H     8    33       P1  7948  0.53
      P1  H  7989  7998       L1    20  0.90
      L1  C    13    36       P1 10186  1.00
      L1  C    15    38       P1 10747  0.94

> <Gold.PLP.Chemscore.Internal.Correction>
0.0417

> <Gold.Rescore>
     Score         DG    S(hbond)    S(metal)    S(lipo)     H(rot)  DE(clash)    DE(int)     intcor
     11.35     -13.85       1.10        0.00      79.72       1.80       0.10       2.40       ----

> <Gold.Chemscore.Fitness>
11.3517

> <Gold.Chemscore.DG>
-13.8508

> <Gold.Chemscore.ZeroCoef>
-5.4800

> <Gold.Chemscore.Hbond>
1.0961

> <Gold.Chemscore.Metal>
0.0000

> <Gold.Chemscore.Lipo>
79.7228

> <Gold.Chemscore.Internal_Hbond>
0.0000

> <Gold.Chemscore.DEClash>
0.1014

> <Gold.Chemscore.DEInternal>
2.3977

> <Gold.Chemscore.Rot>
1.8038

> <Gold.Chemscore.Internal.Correction>
   9.000000E+99

> <Gold.Chemscore.Hbonds>
donor molecule, donor type, donor heavy atom, donor atom, acceptor molecule, acceptor atom, score
      L1  H     8    33       P1  7948  0.51
      P1  H  7989  7998       L1    20  0.20

> <Gold.Chemscore.Hbond.Weighted>
-3.6610

> <Gold.Chemscore.Metal.Weighted>
-0.0000

> <Gold.Chemscore.Lipo.Weighted>
-9.3276

> <Gold.Chemscore.Internal_Hbond.Weighted>
0.0000

> <Gold.Chemscore.DEClash.Weighted>
0.1014

> <Gold.Chemscore.DEInternal.Weighted>
2.3977

> <Gold.Chemscore.Rot.Weighted>
4.6178

> <Gold.Chemscore.Internal.Correction.Weighted>
   9.000000E+99

> <Gold.Protein.RotatedTorsions>
[ 6907 6896 6895 6894 ] final -112.51 input  -60.11 | X-H torsion
[ 7974 7965 7964 7962 ] final    1.14 input  175.53 | X-H torsion
[ 8008 7997 7996 7995 ] final  125.90 input   59.86 | X-H torsion
[ 10167 10162 10161 10158 ] final  -62.28 input  -65.29 | X-H torsion
[ 10718 10713 10712 10709 ] final   36.56 input   66.30 | X-H torsion
[ 10763 10752 10751 10750 ] final   85.77 input  -60.55 | X-H torsion
[ 11005 11000 10999 10996 ] final  -87.48 input  -57.11 | X-H torsion

> <Gold.Protein.ActiveResidues>
 VAL166  LYS551  ARG553  GLY616  TRP617  ASP618  TYR619  PRO620  LYS621  CYS622 
 ASP623  PHE694  ASN695  SER759  ASP760  ASP761  ALA762  ILE779  LEU786  VAL792 
 PHE793  MET794  SER795  GLU796  ALA797  LYS798  CYS799  TRP800  GLU811  SER814 

> <Gold.Protein.RotatedAtoms>
  150.7764  133.9078  159.3360 H   0  0  0  0  0  0  0  0  0  0  0  0  # atno 6907 bound_to 6896
  151.6952  135.0938  160.0250 H   0  0  0  0  0  0  0  0  0  0  0  0  # atno 6908 bound_to 6896
  152.3801  133.6496  159.6190 H   0  0  0  0  0  0  0  0  0  0  0  0  # atno 6909 bound_to 6896
  146.2439  140.1031  142.8347 H   0  0  0  0  0  0  0  0  0  0  0  0  # atno 7974 bound_to 7965
  156.2848  140.2705  156.2024 H   0  0  0  0  0  0  0  0  0  0  0  0  # atno 8008 bound_to 7997
  155.0348  140.0386  157.2505 H   0  0  0  0  0  0  0  0  0  0  0  0  # atno 8009 bound_to 7997
  154.7324  140.2709  155.6450 H   0  0  0  0  0  0  0  0  0  0  0  0  # atno 8010 bound_to 7997
  140.5949  143.2349  151.6057 H   0  0  0  0  0  0  0  0  0  0  0  0  # atno 10167 bound_to 10162
  157.3364  130.7524  149.6882 H   0  0  0  0  0  0  0  0  0  0  0  0  # atno 10718 bound_to 10713
  153.1506  135.4605  154.9631 H   0  0  0  0  0  0  0  0  0  0  0  0  # atno 10763 bound_to 10752
  154.7822  135.3192  154.7968 H   0  0  0  0  0  0  0  0  0  0  0  0  # atno 10764 bound_to 10752
  153.8474  135.6924  153.4850 H   0  0  0  0  0  0  0  0  0  0  0  0  # atno 10765 bound_to 10752
  141.1616  133.7514  156.9313 H   0  0  0  0  0  0  0  0  0  0  0  0  # atno 11005 bound_to 11000
  145.0551  140.9047  143.4972 LP  0  0  0  0  0  0  0  0  0  0  0  0  # atno 17320 bound_to 7965
  145.1136  139.2740  143.5624 LP  0  0  0  0  0  0  0  0  0  0  0  0  # atno 17321 bound_to 7965
  139.5252  144.3082  152.1016 LP  0  0  0  0  0  0  0  0  0  0  0  0  # atno 17342 bound_to 10162
  140.2253  144.4425  150.6324 LP  0  0  0  0  0  0  0  0  0  0  0  0  # atno 17343 bound_to 10162
  155.9702  130.4180  150.4308 LP  0  0  0  0  0  0  0  0  0  0  0  0  # atno 17370 bound_to 10713
  157.2348  131.0512  151.2471 LP  0  0  0  0  0  0  0  0  0  0  0  0  # atno 17371 bound_to 10713
  140.1384  134.9310  157.2434 LP  0  0  0  0  0  0  0  0  0  0  0  0  # atno 17394 bound_to 11000
  140.2866  134.3288  155.7327 LP  0  0  0  0  0  0  0  0  0  0  0  0  # atno 17395 bound_to 11000

$$$$
