AV-unprocessed.smi:1590|AV-procd|sdf|6395|dock3
  -GOLD-   22720 7 33D 1   1.00000     0.00000
 Structure written by MMmdl.
 35 36  0  0  0  0  0  0  0  0  1 V2000
  147.0722  140.7781  153.1438 C   0  0  0  0  0  0  0  0  0  0  0  0
  147.6484  139.4887  153.7473 C   0  0  0  0  0  0  0  0  0  0  0  0
  146.6508  138.7787  154.6734 C   0  0  0  0  0  0  0  0  0  0  0  0
  148.9646  139.7251  154.4223 C   0  0  0  0  0  0  0  0  0  0  0  0
  150.1049  139.1714  153.9896 N   0  0  0  0  0  0  0  0  0  0  0  0
  151.1958  139.5281  154.7695 N   0  0  0  0  0  0  0  0  0  0  0  0
  150.8468  140.3404  155.7761 C   0  0  0  0  0  0  0  0  0  0  0  0
  151.7672  140.8663  156.7208 N   0  0  0  0  0  0  0  0  0  0  0  0
  151.5104  141.3865  157.9340 C   0  0  0  0  0  0  0  0  0  0  0  0
  150.3903  141.5313  158.4243 O   0  0  0  0  0  0  0  0  0  0  0  0
  152.6420  141.7414  158.5590 N   0  0  0  0  0  0  0  0  0  0  0  0
  152.7121  142.3350  159.8891 C   0  0  0  0  0  0  0  0  0  0  0  0
  151.9088  143.6306  159.9659 C   0  0  0  0  0  0  0  0  0  0  0  0
  152.1985  144.7716  158.9783 C   0  0  0  0  0  0  0  0  0  0  0  0
  151.8975  145.7637  160.1046 C   0  0  0  0  0  0  0  0  0  0  0  0
  152.1995  144.6333  161.0920 C   0  0  0  0  0  0  0  0  0  0  0  0
  149.1390  140.7365  155.8554 S   0  0  0  0  0  0  0  0  0  0  0  0
  147.7729  141.2283  152.4400 H   0  0  0  0  0  0  0  0  0  0  0  0
  146.8519  141.5169  153.9148 H   0  0  0  0  0  0  0  0  0  0  0  0
  146.1463  140.5784  152.6041 H   0  0  0  0  0  0  0  0  0  0  0  0
  147.8369  138.8116  152.9126 H   0  0  0  0  0  0  0  0  0  0  0  0
  147.0557  137.8320  155.0327 H   0  0  0  0  0  0  0  0  0  0  0  0
  145.7184  138.5611  154.1519 H   0  0  0  0  0  0  0  0  0  0  0  0
  146.4089  139.3903  155.5432 H   0  0  0  0  0  0  0  0  0  0  0  0
  152.7375  140.8296  156.4456 H   0  0  0  0  0  0  0  0  0  0  0  0
  153.5190  141.5898  158.0825 H   0  0  0  0  0  0  0  0  0  0  0  0
  152.3641  141.6216  160.6379 H   0  0  0  0  0  0  0  0  0  0  0  0
  153.7613  142.5249  160.1166 H   0  0  0  0  0  0  0  0  0  0  0  0
  150.8361  143.4248  159.9584 H   0  0  0  0  0  0  0  0  0  0  0  0
  153.2415  144.8026  158.6590 H   0  0  0  0  0  0  0  0  0  0  0  0
  151.5163  144.8226  158.1292 H   0  0  0  0  0  0  0  0  0  0  0  0
  152.5792  146.6128  160.1599 H   0  0  0  0  0  0  0  0  0  0  0  0
  150.8527  146.0778  160.1259 H   0  0  0  0  0  0  0  0  0  0  0  0
  151.5186  144.5734  161.9415 H   0  0  0  0  0  0  0  0  0  0  0  0
  153.2430  144.6218  161.4114 H   0  0  0  0  0  0  0  0  0  0  0  0
  1  2  1  0  0  0  0
  1 18  1  0  0  0  0
  1 19  1  0  0  0  0
  1 20  1  0  0  0  0
  2  3  1  0  0  0  0
  2  4  1  0  0  0  0
  2 21  1  0  0  0  0
  3 22  1  0  0  0  0
  3 23  1  0  0  0  0
  3 24  1  0  0  0  0
  4 17  1  0  0  0  0
  4  5  2  0  0  0  0
  5  6  1  0  0  0  0
  6  7  2  0  0  0  0
  7  8  1  0  0  0  0
  7 17  1  0  0  0  0
  8  9  1  0  0  0  0
  8 25  1  0  0  0  0
  9 10  2  0  0  0  0
  9 11  1  0  0  0  0
 11 12  1  0  0  0  0
 11 26  1  0  0  0  0
 12 13  1  0  0  0  0
 12 27  1  0  0  0  0
 12 28  1  0  0  0  0
 13 16  1  0  0  0  0
 13 14  1  0  0  0  0
 13 29  1  0  0  0  0
 14 15  1  0  0  0  0
 14 30  1  0  0  0  0
 14 31  1  0  0  0  0
 15 16  1  0  0  0  0
 15 32  1  0  0  0  0
 15 33  1  0  0  0  0
 16 34  1  0  0  0  0
 16 35  1  0  0  0  0
M  END
> <s_m_source_file>
AV-unprocessed.smi

> <i_m_source_file_index>
1590

> <i_lp_mmshare_version>
43012

> <i_f3d_flags>
0

> <s_epik_input>
W0NIM11bQ0hdKFtDSDNdKWMxbm5jKHMxKVtOSF1DKD1PKVtOSF1bQ0gyXVtDSF0yW0NIMl1bQ0gyXVtDSDJdMg==

> <s_epik_cmdline>
J2VwaWtfcHl0aG9uJywgJy1waCcsICc3LjAnLCAnLXRuJywgJzgnLCAnLW1hJywgJzIwMCcsICctbWV0YWxfYmluZGluZycsICctaW1hZScsICc8aW5maWxlLm1hZT4nLCAnLW9tYWUnLCAnPG91dGZpbGUubWFlPic=

> <r_lp_tautomer_probability>
1

> <r_epik_Ionization_Penalty>
0.000374979

> <r_epik_Ionization_Penalty_Charging>
0

> <r_epik_Ionization_Penalty_Neutral>
0.000374979

> <r_epik_State_Penalty>
-0

> <r_epik_Charging_Adjusted_Penalty>
0

> <i_epik_Tot_Q>
0

> <i_epik_Tot_abs_Q>
0

> <r_epik_Metal_State_Penalty>
0.186879

> <b_epik_Metal_Only>
0

> <s_lp_Force_Field>
OPLS_2005

> <r_lp_Energy>
5.08701

> <b_lp_Chiralities_Consistent>
1

> <s_lp_Variant>
AV-unprocessed.smi:1590-1

> <Gold.Version>
5.8.1

> <Gold.Id.Protein>
6NUR|6NUR_protein|mol2

> <Gold.PLP.Fitness>
34.3291

> <Gold.PLP.PLP>
-33.1919

> <Gold.PLP.part.hbond>
-1.2827

> <Gold.PLP.part.metal>
0.0000

> <Gold.PLP.part.buried>
-3.6745

> <Gold.PLP.part.nonpolar>
-28.9794

> <Gold.PLP.part.repulsive>
1.3954

> <Gold.PLP.ligand.clash>
0.0000

> <Gold.PLP.ligand.torsion>
0.2058

> <Gold.PLP.Chemscore.Hbond>
0.4750

> <Gold.PLP.Chemscore.CHOScore>
0.0000

> <Gold.PLP.Chemscore.Metal>
0.0000

> <Gold.Chemscore.Hbonds>
donor molecule, donor type, donor heavy atom, donor atom, acceptor molecule, acceptor atom, score
      P1  H  7989  7998       L1     6  0.41

> <Gold.PLP.Chemscore.Internal.Correction>
0.1238

> <Gold.Rescore>
     Score         DG    S(hbond)    S(metal)    S(lipo)     H(rot)  DE(clash)    DE(int)     intcor
      9.58     -11.99       0.00        0.00      85.98       1.39       0.16       2.26       ----

> <Gold.Chemscore.Fitness>
9.5755

> <Gold.Chemscore.DG>
-11.9945

> <Gold.Chemscore.ZeroCoef>
-5.4800

> <Gold.Chemscore.Hbond>
0.0022

> <Gold.Chemscore.Metal>
0.0000

> <Gold.Chemscore.Lipo>
85.9817

> <Gold.Chemscore.Internal_Hbond>
0.0000

> <Gold.Chemscore.DEClash>
0.1586

> <Gold.Chemscore.DEInternal>
2.2603

> <Gold.Chemscore.Rot>
1.3879

> <Gold.Chemscore.Internal.Correction>
   9.000000E+99

> <Gold.Chemscore.Hbond.Weighted>
-0.0075

> <Gold.Chemscore.Metal.Weighted>
-0.0000

> <Gold.Chemscore.Lipo.Weighted>
-10.0599

> <Gold.Chemscore.Internal_Hbond.Weighted>
0.0000

> <Gold.Chemscore.DEClash.Weighted>
0.1586

> <Gold.Chemscore.DEInternal.Weighted>
2.2603

> <Gold.Chemscore.Rot.Weighted>
3.5529

> <Gold.Chemscore.Internal.Correction.Weighted>
   9.000000E+99

> <Gold.Protein.RotatedTorsions>
[ 6907 6896 6895 6894 ] final  -89.52 input  -60.11 | X-H torsion
[ 7974 7965 7964 7962 ] final  -71.05 input  175.53 | X-H torsion
[ 8008 7997 7996 7995 ] final    1.68 input   59.86 | X-H torsion
[ 10167 10162 10161 10158 ] final -139.84 input  -65.29 | X-H torsion
[ 10718 10713 10712 10709 ] final  102.97 input   66.30 | X-H torsion
[ 10763 10752 10751 10750 ] final -178.05 input  -60.55 | X-H torsion
[ 11005 11000 10999 10996 ] final  124.71 input  -57.11 | X-H torsion

> <Gold.Protein.ActiveResidues>
 VAL166  LYS551  ARG553  GLY616  TRP617  ASP618  TYR619  PRO620  LYS621  CYS622 
 ASP623  PHE694  ASN695  SER759  ASP760  ASP761  ALA762  ILE779  LEU786  VAL792 
 PHE793  MET794  SER795  GLU796  ALA797  LYS798  CYS799  TRP800  GLU811  SER814 

> <Gold.Protein.RotatedAtoms>
  150.6874  134.2575  159.4535 H   0  0  0  0  0  0  0  0  0  0  0  0  # atno 6907 bound_to 6896
  152.0507  134.9652  160.0584 H   0  0  0  0  0  0  0  0  0  0  0  0  # atno 6908 bound_to 6896
  152.1118  133.4270  159.4671 H   0  0  0  0  0  0  0  0  0  0  0  0  # atno 6909 bound_to 6896
  145.6830  140.9181  143.0822 H   0  0  0  0  0  0  0  0  0  0  0  0  # atno 7974 bound_to 7965
  154.6826  140.2636  155.6893 H   0  0  0  0  0  0  0  0  0  0  0  0  # atno 8008 bound_to 7997
  156.2702  140.2807  156.1298 H   0  0  0  0  0  0  0  0  0  0  0  0  # atno 8009 bound_to 7997
  155.1010  140.0374  157.2687 H   0  0  0  0  0  0  0  0  0  0  0  0  # atno 8010 bound_to 7997
  139.8340  143.7410  152.2665 H   0  0  0  0  0  0  0  0  0  0  0  0  # atno 10167 bound_to 10162
  157.6786  131.0767  150.5484 H   0  0  0  0  0  0  0  0  0  0  0  0  # atno 10718 bound_to 10713
  154.5525  135.2814  155.0995 H   0  0  0  0  0  0  0  0  0  0  0  0  # atno 10763 bound_to 10752
  154.2435  135.6352  153.5219 H   0  0  0  0  0  0  0  0  0  0  0  0  # atno 10764 bound_to 10752
  153.0007  135.5565  154.6095 H   0  0  0  0  0  0  0  0  0  0  0  0  # atno 10765 bound_to 10752
  139.9372  134.9638  156.8450 H   0  0  0  0  0  0  0  0  0  0  0  0  # atno 11005 bound_to 11000
  144.7020  139.8722  143.7441 LP  0  0  0  0  0  0  0  0  0  0  0  0  # atno 17320 bound_to 7965
  146.0948  139.3939  143.0383 LP  0  0  0  0  0  0  0  0  0  0  0  0  # atno 17321 bound_to 7965
  139.7626  144.7502  151.0341 LP  0  0  0  0  0  0  0  0  0  0  0  0  # atno 17342 bound_to 10162
  140.7804  143.4734  151.0115 LP  0  0  0  0  0  0  0  0  0  0  0  0  # atno 17343 bound_to 10162
  156.5789  130.4299  149.5986 LP  0  0  0  0  0  0  0  0  0  0  0  0  # atno 17370 bound_to 10713
  156.2678  130.6999  151.1788 LP  0  0  0  0  0  0  0  0  0  0  0  0  # atno 17371 bound_to 10713
  140.6046  134.0140  155.7551 LP  0  0  0  0  0  0  0  0  0  0  0  0  # atno 17394 bound_to 11000
  141.0990  133.9797  157.3110 LP  0  0  0  0  0  0  0  0  0  0  0  0  # atno 17395 bound_to 11000

$$$$
