AV-unprocessed.smi:3162|AV-procd|sdf|12064|dock2
  -GOLD-   2272017493D 1   1.00000     0.00000
 Structure written by MMmdl.
 37 37  0  0  0  0  0  0  0  0  2 V2000
  144.6280  132.4691  149.6405 C   0  0  0  0  0  0  0  0  0  0  0  0
  145.8626  133.1572  150.2441 C   0  0  0  0  0  0  0  0  0  0  0  0
  145.5809  133.9799  151.5204 C   0  0  1  0  0  0  0  0  0  0  0  0
  146.8552  134.2021  152.2459 N   0  3  0  0  0  0  0  0  0  0  0  0
  147.6325  132.9892  152.5946 C   0  0  2  0  0  0  0  0  0  0  0  0
  146.7142  131.9905  153.3181 C   0  0  0  0  0  0  0  0  0  0  0  0
  148.8782  133.3562  153.4337 C   0  0  0  0  0  0  0  0  0  0  0  0
  149.5499  132.1936  153.9847 N   0  0  0  0  0  0  0  0  0  0  0  0
  149.5473  130.8963  153.5173 C   0  0  0  0  0  0  0  0  0  0  0  0
  150.3142  130.1520  154.3684 C   0  0  0  0  0  0  0  0  0  0  0  0
  150.6363  128.6869  154.3039 C   0  0  0  0  0  0  0  0  0  0  0  0
  150.7423  131.0987  155.3419 C   0  0  0  0  0  0  0  0  0  0  0  0
  150.2810  132.3172  155.1122 N   0  0  0  0  0  0  0  0  0  0  0  0
  144.9051  135.3195  151.1846 C   0  0  0  0  0  0  0  0  0  0  0  0
  145.4560  136.0585  150.2180 N   0  0  0  0  0  0  0  0  0  0  0  0
  143.9018  135.6840  151.7951 O   0  0  0  0  0  0  0  0  0  0  0  0
  144.9114  131.8469  148.7911 H   0  0  0  0  0  0  0  0  0  0  0  0
  143.8954  133.1928  149.2825 H   0  0  0  0  0  0  0  0  0  0  0  0
  144.1376  131.8263  150.3722 H   0  0  0  0  0  0  0  0  0  0  0  0
  146.5949  132.3834  150.4785 H   0  0  0  0  0  0  0  0  0  0  0  0
  146.3296  133.7888  149.4866 H   0  0  0  0  0  0  0  0  0  0  0  0
  144.9149  133.3950  152.1557 H   0  0  0  0  0  0  0  0  0  0  0  0
  147.4475  134.8007  151.6889 H   0  0  0  0  0  0  0  0  0  0  0  0
  147.9583  132.5102  151.6703 H   0  0  0  0  0  0  0  0  0  0  0  0
  147.2223  131.0455  153.5117 H   0  0  0  0  0  0  0  0  0  0  0  0
  145.8332  131.7635  152.7171 H   0  0  0  0  0  0  0  0  0  0  0  0
  146.3715  132.3864  154.2748 H   0  0  0  0  0  0  0  0  0  0  0  0
  149.6062  133.9071  152.8382 H   0  0  0  0  0  0  0  0  0  0  0  0
  148.5951  134.0117  154.2586 H   0  0  0  0  0  0  0  0  0  0  0  0
  149.0078  130.6123  152.6255 H   0  0  0  0  0  0  0  0  0  0  0  0
  150.8647  128.2792  155.2888 H   0  0  0  0  0  0  0  0  0  0  0  0
  151.5001  128.4939  153.6677 H   0  0  0  0  0  0  0  0  0  0  0  0
  149.8046  128.1073  153.9027 H   0  0  0  0  0  0  0  0  0  0  0  0
  151.3707  130.9362  156.2054 H   0  0  0  0  0  0  0  0  0  0  0  0
  145.0467  136.9447  149.9587 H   0  0  0  0  0  0  0  0  0  0  0  0
  146.2835  135.7252  149.7438 H   0  0  0  0  0  0  0  0  0  0  0  0
  146.6249  134.6879  153.1012 H   0  0  0  0  0  0  0  0  0  0  0  0
  1  2  1  0  0  0  0
  1 17  1  0  0  0  0
  1 18  1  0  0  0  0
  1 19  1  0  0  0  0
  2  3  1  0  0  0  0
  2 20  1  0  0  0  0
  2 21  1  0  0  0  0
  3  4  1  0  0  0  0
  3 14  1  0  0  0  0
  3 22  1  0  0  0  0
  4  5  1  0  0  0  0
  4 23  1  0  0  0  0
  4 37  1  0  0  0  0
  5  6  1  0  0  0  0
  5  7  1  0  0  0  0
  5 24  1  0  0  0  0
  6 25  1  0  0  0  0
  6 26  1  0  0  0  0
  6 27  1  0  0  0  0
  7  8  1  0  0  0  0
  7 28  1  0  0  0  0
  7 29  1  0  0  0  0
  8 13  1  0  0  0  0
  8  9  1  0  0  0  0
  9 10  2  0  0  0  0
  9 30  1  0  0  0  0
 10 11  1  0  0  0  0
 10 12  1  0  0  0  0
 11 31  1  0  0  0  0
 11 32  1  0  0  0  0
 11 33  1  0  0  0  0
 12 13  2  0  0  0  0
 12 34  1  0  0  0  0
 14 15  1  0  0  0  0
 14 16  2  0  0  0  0
 15 35  1  0  0  0  0
 15 36  1  0  0  0  0
M  CHG  1   4   1
M  END
> <s_m_source_file>
AV-unprocessed.smi

> <i_m_source_file_index>
3162

> <i_lp_mmshare_version>
43012

> <i_f3d_flags>
0

> <s_epik_input>
W0NIM11bQ0gyXVtDQEBIXShDKD1PKVtOSDJdKVtOSF1bQ0BIXShbQ0gzXSlbQ0gyXW4xW2NIXWMoW0NIM10pW2NIXW4x

> <s_epik_cmdline>
J2VwaWtfcHl0aG9uJywgJy1waCcsICc3LjAnLCAnLXRuJywgJzgnLCAnLW1hJywgJzIwMCcsICctbWV0YWxfYmluZGluZycsICctaW1hZScsICc8aW5maWxlLm1hZT4nLCAnLW9tYWUnLCAnPG91dGZpbGUubWFlPic=

> <r_lp_tautomer_probability>
1

> <r_epik_Ionization_Penalty>
0.112112

> <r_epik_Ionization_Penalty_Charging>
0.112102

> <r_epik_Ionization_Penalty_Neutral>
9.73799e-06

> <r_epik_State_Penalty>
0.101811

> <r_epik_Charging_Adjusted_Penalty>
0.213914

> <i_epik_Tot_Q>
1

> <i_epik_Tot_abs_Q>
1

> <r_epik_Metal_State_Penalty>
0.101821

> <b_epik_Metal_Only>
0

> <s_lp_Force_Field>
OPLS_2005

> <r_lp_Energy>
4.43066

> <b_lp_Chiralities_Consistent>
1

> <s_lp_Variant>
AV-unprocessed.smi:3162-2

> <Gold.Version>
5.8.1

> <Gold.Id.Protein>
6NUR|6NUR_protein|mol2

> <Gold.PLP.Fitness>
41.8531

> <Gold.PLP.PLP>
-31.3968

> <Gold.PLP.part.hbond>
-3.0000

> <Gold.PLP.part.metal>
0.0000

> <Gold.PLP.part.buried>
-3.7976

> <Gold.PLP.part.nonpolar>
-23.9438

> <Gold.PLP.part.repulsive>
0.3325

> <Gold.PLP.ligand.clash>
0.0000

> <Gold.PLP.ligand.torsion>
0.8536

> <Gold.PLP.Chemscore.Hbond>
2.9791

> <Gold.PLP.Chemscore.CHOScore>
0.9998

> <Gold.PLP.Chemscore.Metal>
0.0000

> <Gold.Chemscore.Hbonds>
donor molecule, donor type, donor heavy atom, donor atom, acceptor molecule, acceptor atom, score
      L1  H     4    23       P1  7948  1.71
      L1  H    15    35       P1 10171  1.00
      L1  H    15    36       P1  7921  0.16
      L1  C     9    30       P1 10747  1.00

> <Gold.PLP.Chemscore.Internal.Correction>
0.2269

> <Gold.Rescore>
     Score         DG    S(hbond)    S(metal)    S(lipo)     H(rot)  DE(clash)    DE(int)     intcor
     11.67     -12.39       1.86        0.00      60.79       2.51       0.05       0.66       ----

> <Gold.Chemscore.Fitness>
11.6681

> <Gold.Chemscore.DG>
-12.3853

> <Gold.Chemscore.ZeroCoef>
-5.4800

> <Gold.Chemscore.Hbond>
1.8588

> <Gold.Chemscore.Metal>
0.0000

> <Gold.Chemscore.Lipo>
60.7915

> <Gold.Chemscore.Internal_Hbond>
0.0000

> <Gold.Chemscore.DEClash>
0.0523

> <Gold.Chemscore.DEInternal>
0.6649

> <Gold.Chemscore.Rot>
2.5062

> <Gold.Chemscore.Internal.Correction>
   9.000000E+99

> <Gold.Chemscore.Hbonds>
donor molecule, donor type, donor heavy atom, donor atom, acceptor molecule, acceptor atom, score
      L1  H     4    23       P1  7948  0.47
      L1  H    15    35       P1 10171  0.95
      L1  H    15    36       P1  7921  0.12

> <Gold.Chemscore.Hbond.Weighted>
-6.2086

> <Gold.Chemscore.Metal.Weighted>
-0.0000

> <Gold.Chemscore.Lipo.Weighted>
-7.1126

> <Gold.Chemscore.Internal_Hbond.Weighted>
0.0000

> <Gold.Chemscore.DEClash.Weighted>
0.0523

> <Gold.Chemscore.DEInternal.Weighted>
0.6649

> <Gold.Chemscore.Rot.Weighted>
6.4159

> <Gold.Chemscore.Internal.Correction.Weighted>
   9.000000E+99

> <Gold.Protein.RotatedTorsions>
[ 6907 6896 6895 6894 ] final  116.26 input  -60.11 | X-H torsion
[ 7974 7965 7964 7962 ] final  -64.58 input  175.53 | X-H torsion
[ 8008 7997 7996 7995 ] final  -55.51 input   59.86 | X-H torsion
[ 10167 10162 10161 10158 ] final -117.24 input  -65.29 | X-H torsion
[ 10718 10713 10712 10709 ] final  -52.81 input   66.30 | X-H torsion
[ 10763 10752 10751 10750 ] final   60.45 input  -60.55 | X-H torsion
[ 11005 11000 10999 10996 ] final -105.04 input  -57.11 | X-H torsion

> <Gold.Protein.ActiveResidues>
 VAL166  LYS551  ARG553  GLY616  TRP617  ASP618  TYR619  PRO620  LYS621  CYS622 
 ASP623  PHE694  ASN695  SER759  ASP760  ASP761  ALA762  ILE779  LEU786  VAL792 
 PHE793  MET794  SER795  GLU796  ALA797  LYS798  CYS799  TRP800  GLU811  SER814 

> <Gold.Protein.RotatedAtoms>
  152.4689  133.7985  159.6939 H   0  0  0  0  0  0  0  0  0  0  0  0  # atno 6907 bound_to 6896
  150.8667  133.7554  159.2981 H   0  0  0  0  0  0  0  0  0  0  0  0  # atno 6908 bound_to 6896
  151.5102  135.1068  159.9904 H   0  0  0  0  0  0  0  0  0  0  0  0  # atno 6909 bound_to 6896
  145.7650  140.8842  143.0410 H   0  0  0  0  0  0  0  0  0  0  0  0  # atno 7974 bound_to 7965
  154.4197  140.1151  156.5488 H   0  0  0  0  0  0  0  0  0  0  0  0  # atno 8008 bound_to 7997
  155.6431  140.3496  155.4703 H   0  0  0  0  0  0  0  0  0  0  0  0  # atno 8009 bound_to 7997
  155.9854  140.1168  157.0677 H   0  0  0  0  0  0  0  0  0  0  0  0  # atno 8010 bound_to 7997
  140.0705  143.4881  152.1982 H   0  0  0  0  0  0  0  0  0  0  0  0  # atno 10167 bound_to 10162
  156.1589  130.4150  149.9825 H   0  0  0  0  0  0  0  0  0  0  0  0  # atno 10718 bound_to 10713
  152.9921  135.5536  154.5876 H   0  0  0  0  0  0  0  0  0  0  0  0  # atno 10763 bound_to 10752
  154.5244  135.2809  155.1237 H   0  0  0  0  0  0  0  0  0  0  0  0  # atno 10764 bound_to 10752
  154.2577  135.6387  153.5316 H   0  0  0  0  0  0  0  0  0  0  0  0  # atno 10765 bound_to 10752
  141.1072  133.8774  157.1686 H   0  0  0  0  0  0  0  0  0  0  0  0  # atno 11005 bound_to 11000
  144.6823  139.9776  143.7483 LP  0  0  0  0  0  0  0  0  0  0  0  0  # atno 17320 bound_to 7965
  146.0226  139.3265  143.0803 LP  0  0  0  0  0  0  0  0  0  0  0  0  # atno 17321 bound_to 7965
  139.5838  144.7522  151.3571 LP  0  0  0  0  0  0  0  0  0  0  0  0  # atno 17342 bound_to 10162
  140.7128  143.7347  150.7598 LP  0  0  0  0  0  0  0  0  0  0  0  0  # atno 17343 bound_to 10162
  156.7660  130.9168  151.3643 LP  0  0  0  0  0  0  0  0  0  0  0  0  # atno 17370 bound_to 10713
  157.6717  130.9057  150.0055 LP  0  0  0  0  0  0  0  0  0  0  0  0  # atno 17371 bound_to 10713
  139.9948  135.0051  157.0057 LP  0  0  0  0  0  0  0  0  0  0  0  0  # atno 17394 bound_to 11000
  140.4871  134.1230  155.7226 LP  0  0  0  0  0  0  0  0  0  0  0  0  # atno 17395 bound_to 11000

$$$$
