#       Name:                AV-unprocessed.smi:283
#       Creating user name   scv26
#       Creation time:       Thu Mar 26 21:50:05 2020


#       File generated by GOLD software.
#

@<TRIPOS>MOLECULE
AV-unprocessed.smi:283
    59    62     1
SMALL
NO_CHARGES


@<TRIPOS>ATOM
      1 ****        -4.9938  -1.1762   1.1161 C.3            1 S1                 0.0000
      2 ****        -3.5009  -0.8379   1.0111 C.3            1 S1                 0.0000
      3 ****        -3.2215   0.3945   1.7465 N.pl3          1 S1                 0.0000
      4 ****        -1.9757   0.9176   1.7785 C.ar           1 S1                 0.0000
      5 ****        -1.9060   2.2573   1.9633 N.ar           1 S1                 0.0000
      6 ****        -0.7199   2.8715   1.9750 C.ar           1 S1                 0.0000
      7 ****         0.4944   2.3426   1.8162 N.ar           1 S1                 0.0000
      8 ****         0.4343   0.9911   1.6390 C.ar           1 S1                 0.0000
      9 ****        -0.7512   0.2027   1.6278 C.ar           1 S1                 0.0000
     10 ****        -0.4089  -1.1347   1.4718 N.2            1 S1                 0.0000
     11 ****         0.8914  -1.1283   1.3735 C.2            1 S1                 0.0000
     12 ****         1.4794   0.1176   1.4165 N.pl3          1 S1                 0.0000
     13 ****         2.9348   0.4724   1.3323 C.3            1 S1                 0.0000
     14 ****         3.6314  -0.6689   0.9207 O.3            1 S1                 0.0000
     15 ****         3.9812  -0.5887  -0.4598 C.3            1 S1                 0.0000
     16 ****         2.8652  -1.1880  -1.3395 C.3            1 S1                 0.0000
     17 ****         3.2995  -1.2954  -2.6782 O.3            1 S1                 0.0000
     18 ****         4.1999   0.9110  -0.6736 C.3            1 S1                 0.0000
     19 ****         5.5426   1.2238  -0.3440 O.3            1 S1                 0.0000
     20 ****         3.1823   1.5589   0.2648 C.3            1 S1                 0.0000
     21 ****         3.6560   2.7773   0.8072 O.3            1 S1                 0.0000
     22 ****        -3.0597  -0.8271  -0.4563 C.ar           1 S1                 0.0000
     23 ****        -3.1779   0.3578  -1.2199 C.ar           1 S1                 0.0000
     24 ****        -2.7636   0.3911  -2.5644 C.ar           1 S1                 0.0000
     25 ****        -2.2341  -0.7648  -3.1653 C.ar           1 S1                 0.0000
     26 ****        -2.1279  -1.9543  -2.4216 C.ar           1 S1                 0.0000
     27 ****        -2.5421  -1.9935  -1.0751 C.ar           1 S1                 0.0000
     28 ****        -2.4012  -3.4878  -0.2165 Cl             1 S1                 0.0000
     29 ****         3.2069   0.7581   2.3491 H              1 S1                 0.0000
     30 ****         4.8973  -1.1591  -0.6231 H              1 S1                 0.0000
     31 ****         4.0373   1.2092  -1.7101 H              1 S1                 0.0000
     32 ****         2.2623   1.7474  -0.2902 H              1 S1                 0.0000
     33 ****        -5.2110  -2.1388   0.6524 H              1 S1                 0.0000
     34 ****        -5.6076  -0.4230   0.6212 H              1 S1                 0.0000
     35 ****        -5.3123  -1.2350   2.1573 H              1 S1                 0.0000
     36 ****        -2.9633  -1.6245   1.5374 H              1 S1                 0.0000
     37 ****        -4.0366   0.9523   1.9557 H              1 S1                 0.0000
     38 ****        -0.7483   3.9408   2.1235 H              1 S1                 0.0000
     39 ****         1.4535  -2.0426   1.2527 H              1 S1                 0.0000
     40 ****         2.6076  -2.1874  -0.9885 H              1 S1                 0.0000
     41 ****         1.9557  -0.5880  -1.3053 H              1 S1                 0.0000
     42 ****         2.6033  -1.6781  -3.1903 H              1 S1                 0.0000
     43 ****         5.6733   2.1500  -0.4791 H              1 S1                 0.0000
     44 ****         4.4515   2.5991   1.2855 H              1 S1                 0.0000
     45 ****        -3.5827   1.2548  -0.7746 H              1 S1                 0.0000
     46 ****        -2.8519   1.3043  -3.1342 H              1 S1                 0.0000
     47 ****        -1.9147  -0.7409  -4.1968 H              1 S1                 0.0000
     48 ****        -1.7276  -2.8423  -2.8884 H              1 S1                 0.0000
     49 ****        -2.7440   2.7878   2.0912 LP             1 S1                 0.0000
     50 ****         1.3433   2.8711   1.8258 LP             1 S1                 0.0000
     51 ****        -1.0217  -1.9244   1.4417 LP             1 S1                 0.0000
     52 ****         3.0547  -1.4730   1.0651 LP             1 S1                 0.0000
     53 ****         4.4662  -0.7555   1.4644 LP             1 S1                 0.0000
     54 ****         4.1109  -1.8780  -2.7237 LP             1 S1                 0.0000
     55 ****         3.5205  -0.3876  -3.0348 LP             1 S1                 0.0000
     56 ****         6.1644   0.7054  -0.9310 LP             1 S1                 0.0000
     57 ****         5.7182   0.9936   0.6132 LP             1 S1                 0.0000
     58 ****         2.9695   3.1627   1.4239 LP             1 S1                 0.0000
     59 ****         3.8429   3.4261   0.0695 LP             1 S1                 0.0000
@<TRIPOS>BOND
    1    1    2 1     
    2    1   33 1     
    3    1   34 1     
    4    1   35 1     
    5    2    3 1     
    6    2   22 1     
    7    2   36 1     
    8    3    4 1     
    9    3   37 1     
   10    4    9 ar    
   11    4    5 ar    
   12    5    6 ar    
   13    6    7 ar    
   14    6   38 1     
   15    7    8 ar    
   16    8   12 1     
   17    8    9 ar    
   18    9   10 1     
   19   10   11 2     
   20   11   12 1     
   21   11   39 1     
   22   12   13 1     
   23   13   29 1     
   24   13   20 1     
   25   13   14 1     
   26   14   15 1     
   27   15   30 1     
   28   15   16 1     
   29   15   18 1     
   30   16   17 1     
   31   16   40 1     
   32   16   41 1     
   33   17   42 1     
   34   18   31 1     
   35   18   19 1     
   36   18   20 1     
   37   19   43 1     
   38   20   32 1     
   39   20   21 1     
   40   21   44 1     
   41   22   27 ar    
   42   22   23 ar    
   43   23   24 ar    
   44   23   45 1     
   45   24   25 ar    
   46   24   46 1     
   47   25   26 ar    
   48   25   47 1     
   49   26   27 ar    
   50   26   48 1     
   51   27   28 1     
   52    5   49 1     
   53    7   50 1     
   54   10   51 1     
   55   14   52 1     
   56   14   53 1     
   57   17   54 1     
   58   17   55 1     
   59   19   56 1     
   60   19   57 1     
   61   21   58 1     
   62   21   59 1     
@<TRIPOS>SUBSTRUCTURE
      1 S1             1
@<TRIPOS>SET
LONE_PAIRS      STATIC     ATOMS    <user>   **** ""
11 49 50 51 52 53 54 55 56 57 58 59
DONOR_HYDROGENS      STATIC     ATOMS    <user>   **** ""
4 37 42 43 44
ATOM$BLUE        STATIC     ATOMS    COLORGROUP SYSTEM
11 49 50 51 52 53 54 55 56 57 58 59
ATOM$RED        STATIC     ATOMS    COLORGROUP SYSTEM
4 37 42 43 44
