AV-unprocessed.smi:1222|AV-procd|sdf|5124|dock3
  -GOLD-   22720 4183D 1   1.00000     0.00000
 Structure written by MMmdl.
 36 38  0  0  0  0  0  0  0  0  3 V2000
  145.3484  136.4553  158.8879 O   0  0  0  0  0  0  0  0  0  0  0  0
  145.8220  137.4487  159.4440 C   0  0  0  0  0  0  0  0  0  0  0  0
  146.4372  137.4747  160.6475 N   0  5  0  0  0  0  0  0  0  0  0  0
  146.5903  136.3386  161.3471 C   0  0  0  0  0  0  0  0  0  0  0  0
  146.1383  135.1525  160.9232 N   0  0  0  0  0  0  0  0  0  0  0  0
  146.4103  134.1071  161.8075 C   0  0  0  0  0  0  0  0  0  0  0  0
  147.0957  134.5042  162.9249 C   0  0  0  0  0  0  0  0  0  0  0  0
  147.4178  136.2144  162.9020 S   0  0  0  0  0  0  0  0  0  0  0  0
  145.7531  138.6505  158.8530 N   0  0  0  0  0  0  0  0  0  0  0  0
  145.1572  138.9522  157.5540 C   0  0  2  0  0  0  0  0  0  0  0  0
  145.9255  138.2194  156.4420 C   0  0  0  0  0  0  0  0  0  0  0  0
  145.3960  138.6102  155.0496 C   0  0  0  0  0  0  0  0  0  0  0  0
  145.4141  140.0804  154.8356 N   0  3  2  0  0  0  0  0  0  0  0  0
  146.7716  140.6221  154.5925 C   0  0  0  0  0  0  0  0  0  0  0  0
  146.7755  141.9281  153.8327 C   0  0  0  0  0  0  0  0  0  0  0  0
  147.1631  140.6445  153.1333 C   0  0  0  0  0  0  0  0  0  0  0  0
  144.6711  140.8098  155.8954 C   0  0  0  0  0  0  0  0  0  0  0  0
  145.1882  140.4687  157.3052 C   0  0  0  0  0  0  0  0  0  0  0  0
  146.0805  133.1091  161.5600 H   0  0  0  0  0  0  0  0  0  0  0  0
  147.4290  133.9002  163.7551 H   0  0  0  0  0  0  0  0  0  0  0  0
  146.1578  139.4264  159.3565 H   0  0  0  0  0  0  0  0  0  0  0  0
  144.1159  138.6270  157.5213 H   0  0  0  0  0  0  0  0  0  0  0  0
  146.9901  138.4470  156.5102 H   0  0  0  0  0  0  0  0  0  0  0  0
  145.8357  137.1410  156.5782 H   0  0  0  0  0  0  0  0  0  0  0  0
  145.9731  138.1121  154.2695 H   0  0  0  0  0  0  0  0  0  0  0  0
  144.3685  138.2602  154.9413 H   0  0  0  0  0  0  0  0  0  0  0  0
  147.5214  140.4314  155.3581 H   0  0  0  0  0  0  0  0  0  0  0  0
  145.8184  142.3746  153.5689 H   0  0  0  0  0  0  0  0  0  0  0  0
  147.5727  142.6352  154.0531 H   0  0  0  0  0  0  0  0  0  0  0  0
  148.2154  140.5047  152.8949 H   0  0  0  0  0  0  0  0  0  0  0  0
  146.4636  140.2395  152.4041 H   0  0  0  0  0  0  0  0  0  0  0  0
  144.7282  141.8843  155.7187 H   0  0  0  0  0  0  0  0  0  0  0  0
  143.6163  140.5420  155.8216 H   0  0  0  0  0  0  0  0  0  0  0  0
  144.5792  140.9796  158.0521 H   0  0  0  0  0  0  0  0  0  0  0  0
  146.2034  140.8475  157.4294 H   0  0  0  0  0  0  0  0  0  0  0  0
  144.9072  140.2430  153.9772 H   0  0  0  0  0  0  0  0  0  0  0  0
  1  2  2  0  0  0  0
  2  3  1  0  0  0  0
  2  9  1  0  0  0  0
  3  4  1  0  0  0  0
  4  8  1  0  0  0  0
  4  5  2  0  0  0  0
  5  6  1  0  0  0  0
  6  7  2  0  0  0  0
  6 19  1  0  0  0  0
  7  8  1  0  0  0  0
  7 20  1  0  0  0  0
  9 10  1  0  0  0  0
  9 21  1  0  0  0  0
 10 18  1  0  0  0  0
 10 11  1  0  0  0  0
 10 22  1  0  0  0  0
 11 12  1  0  0  0  0
 11 23  1  0  0  0  0
 11 24  1  0  0  0  0
 12 13  1  0  0  0  0
 12 25  1  0  0  0  0
 12 26  1  0  0  0  0
 13 14  1  0  0  0  0
 13 17  1  0  0  0  0
 13 36  1  0  0  0  0
 14 16  1  0  0  0  0
 14 15  1  0  0  0  0
 14 27  1  0  0  0  0
 15 16  1  0  0  0  0
 15 28  1  0  0  0  0
 15 29  1  0  0  0  0
 16 30  1  0  0  0  0
 16 31  1  0  0  0  0
 17 18  1  0  0  0  0
 17 32  1  0  0  0  0
 17 33  1  0  0  0  0
 18 34  1  0  0  0  0
 18 35  1  0  0  0  0
M  CHG  1   3  -1
M  CHG  1  13   1
M  END
> <s_m_source_file>
AV-unprocessed.smi

> <i_m_source_file_index>
1222

> <i_lp_mmshare_version>
43012

> <i_f3d_flags>
0

> <s_epik_input>
czFbY0hdW2NIXW5jMVtOSF1DKD1PKVtOSF1bQ0hdMltDSDJdW0NIMl1OKFtDSDJdW0NIMl0yKVtDSF0zW0NIMl1bQ0gyXTM=

> <s_epik_cmdline>
J2VwaWtfcHl0aG9uJywgJy1waCcsICc3LjAnLCAnLXRuJywgJzgnLCAnLW1hJywgJzIwMCcsICctbWV0YWxfYmluZGluZycsICctaW1hZScsICc8aW5maWxlLm1hZT4nLCAnLW9tYWUnLCAnPG91dGZpbGUubWFlPic=

> <r_lp_tautomer_probability>
0.999

> <r_epik_Ionization_Penalty>
6.4609

> <r_epik_Ionization_Penalty_Charging>
5.58663

> <r_epik_Ionization_Penalty_Neutral>
0.874262

> <r_epik_State_Penalty>
5.57752

> <r_epik_Charging_Adjusted_Penalty>
11.1642

> <i_epik_Tot_Q>
0

> <i_epik_Tot_abs_Q>
2

> <r_epik_Metal_State_Penalty>
1.58738

> <b_epik_Metal_Only>
1

> <s_lp_Force_Field>
OPLS_2005

> <r_lp_Energy>
18.4685

> <b_lp_Chiralities_Consistent>
1

> <s_lp_Variant>
AV-unprocessed.smi:1222-5

> <Gold.Version>
5.8.1

> <Gold.Id.Protein>
6NUR|6NUR_protein|mol2

> <Gold.PLP.Fitness>
36.8118

> <Gold.PLP.PLP>
-24.8579

> <Gold.PLP.part.hbond>
-2.0000

> <Gold.PLP.part.metal>
0.0000

> <Gold.PLP.part.buried>
-4.0954

> <Gold.PLP.part.nonpolar>
-19.6535

> <Gold.PLP.part.repulsive>
0.1923

> <Gold.PLP.ligand.clash>
0.0000

> <Gold.PLP.ligand.torsion>
0.6581

> <Gold.PLP.Chemscore.Hbond>
4.0000

> <Gold.PLP.Chemscore.CHOScore>
0.0000

> <Gold.PLP.Chemscore.Metal>
0.0000

> <Gold.Chemscore.Hbonds>
donor molecule, donor type, donor heavy atom, donor atom, acceptor molecule, acceptor atom, score
      L1  H    13    36       P1 10175  2.00
      P1  H  6934  6947       L1     3  2.00

> <Gold.PLP.Chemscore.Internal.Correction>
1.2701

> <Gold.Rescore>
     Score         DG    S(hbond)    S(metal)    S(lipo)     H(rot)  DE(clash)    DE(int)     intcor
     12.38     -14.84       1.94        0.00      51.81       1.25       0.02       2.44       ----

> <Gold.Chemscore.Fitness>
12.3809

> <Gold.Chemscore.DG>
-14.8364

> <Gold.Chemscore.ZeroCoef>
-5.4800

> <Gold.Chemscore.Hbond>
1.9423

> <Gold.Chemscore.Metal>
0.0000

> <Gold.Chemscore.Lipo>
51.8092

> <Gold.Chemscore.Internal_Hbond>
0.0000

> <Gold.Chemscore.DEClash>
0.0202

> <Gold.Chemscore.DEInternal>
2.4354

> <Gold.Chemscore.Rot>
1.2470

> <Gold.Chemscore.Internal.Correction>
   9.000000E+99

> <Gold.Chemscore.Hbonds>
donor molecule, donor type, donor heavy atom, donor atom, acceptor molecule, acceptor atom, score
      L1  H    13    36       P1 10175  0.99
      P1  H  6934  6947       L1     3  0.74

> <Gold.Chemscore.Hbond.Weighted>
-6.4872

> <Gold.Chemscore.Metal.Weighted>
-0.0000

> <Gold.Chemscore.Lipo.Weighted>
-6.0617

> <Gold.Chemscore.Internal_Hbond.Weighted>
0.0000

> <Gold.Chemscore.DEClash.Weighted>
0.0202

> <Gold.Chemscore.DEInternal.Weighted>
2.4354

> <Gold.Chemscore.Rot.Weighted>
3.1924

> <Gold.Chemscore.Internal.Correction.Weighted>
   9.000000E+99

> <Gold.Protein.RotatedTorsions>
[ 6907 6896 6895 6894 ] final   -3.89 input  -60.11 | X-H torsion
[ 7974 7965 7964 7962 ] final   83.27 input  175.53 | X-H torsion
[ 8008 7997 7996 7995 ] final -128.96 input   59.86 | X-H torsion
[ 10167 10162 10161 10158 ] final -167.57 input  -65.29 | X-H torsion
[ 10718 10713 10712 10709 ] final    4.44 input   66.30 | X-H torsion
[ 10763 10752 10751 10750 ] final  104.88 input  -60.55 | X-H torsion
[ 11005 11000 10999 10996 ] final   93.87 input  -57.11 | X-H torsion

> <Gold.Protein.ActiveResidues>
 VAL166  LYS551  ARG553  GLY616  TRP617  ASP618  TYR619  PRO620  LYS621  CYS622 
 ASP623  PHE694  ASN695  SER759  ASP760  ASP761  ALA762  ILE779  LEU786  VAL792 
 PHE793  MET794  SER795  GLU796  ALA797  LYS798  CYS799  TRP800  GLU811  SER814 

> <Gold.Protein.RotatedAtoms>
  151.5066  135.1063  159.9842 H   0  0  0  0  0  0  0  0  0  0  0  0  # atno 6907 bound_to 6896
  152.4679  133.7961  159.6938 H   0  0  0  0  0  0  0  0  0  0  0  0  # atno 6908 bound_to 6896
  150.8673  133.7493  159.2998 H   0  0  0  0  0  0  0  0  0  0  0  0  # atno 6909 bound_to 6896
  145.6142  139.2374  143.2175 H   0  0  0  0  0  0  0  0  0  0  0  0  # atno 7974 bound_to 7965
  155.2713  140.0440  157.3007 H   0  0  0  0  0  0  0  0  0  0  0  0  # atno 8008 bound_to 7997
  154.5652  140.2357  155.8243 H   0  0  0  0  0  0  0  0  0  0  0  0  # atno 8009 bound_to 7997
  156.2079  140.3007  155.9675 H   0  0  0  0  0  0  0  0  0  0  0  0  # atno 8010 bound_to 7997
  139.6040  144.0950  152.1774 H   0  0  0  0  0  0  0  0  0  0  0  0  # atno 10167 bound_to 10162
  156.8926  130.5693  149.5649 H   0  0  0  0  0  0  0  0  0  0  0  0  # atno 10718 bound_to 10713
  153.3719  135.3928  155.1794 H   0  0  0  0  0  0  0  0  0  0  0  0  # atno 10763 bound_to 10752
  154.8695  135.3704  154.4967 H   0  0  0  0  0  0  0  0  0  0  0  0  # atno 10764 bound_to 10752
  153.5436  135.7084  153.5685 H   0  0  0  0  0  0  0  0  0  0  0  0  # atno 10765 bound_to 10752
  139.8805  134.8814  156.3781 H   0  0  0  0  0  0  0  0  0  0  0  0  # atno 11005 bound_to 11000
  146.1481  140.6964  142.9335 LP  0  0  0  0  0  0  0  0  0  0  0  0  # atno 17320 bound_to 7965
  144.7257  140.4518  143.6975 LP  0  0  0  0  0  0  0  0  0  0  0  0  # atno 17321 bound_to 7965
  140.0553  144.5900  150.7304 LP  0  0  0  0  0  0  0  0  0  0  0  0  # atno 17342 bound_to 10162
  140.7271  143.2648  151.4081 LP  0  0  0  0  0  0  0  0  0  0  0  0  # atno 17343 bound_to 10162
  156.0621  130.5672  150.9215 LP  0  0  0  0  0  0  0  0  0  0  0  0  # atno 17370 bound_to 10713
  157.6075  131.0938  150.8854 LP  0  0  0  0  0  0  0  0  0  0  0  0  # atno 17371 bound_to 10713
  140.9418  133.7509  156.0156 LP  0  0  0  0  0  0  0  0  0  0  0  0  # atno 17394 bound_to 11000
  140.8210  134.3289  157.5381 LP  0  0  0  0  0  0  0  0  0  0  0  0  # atno 17395 bound_to 11000

$$$$
