#       Name:                AV-unprocessed.smi:3308
#       Creating user name   scv26
#       Creation time:       Fri Mar 27 19:05:09 2020


#       File generated by GOLD software.
#

@<TRIPOS>MOLECULE
AV-unprocessed.smi:3308
    44    45     1
SMALL
NO_CHARGES


@<TRIPOS>ATOM
      1 ****        -1.3492  -1.1081  -1.0030 C.3            1 S1                 0.0000
      2 ****        -1.4145   0.0476   0.0196 C.3            1 S1                 0.0000
      3 ****        -0.0585   0.5174   0.2898 N.3            1 S1                 0.0000
      4 ****         0.4435   1.4505  -0.7270 C.3            1 S1                 0.0000
      5 ****         1.8396   1.9689  -0.3663 C.2            1 S1                 0.0000
      6 ****         1.9391   3.0668   0.1819 O.2            1 S1                 0.0000
      7 ****         2.9160   1.2077  -0.6579 N.am           1 S1                 0.0000
      8 ****         4.2893   1.6096  -0.3588 C.3            1 S1                 0.0000
      9 ****         5.1835   0.5906  -1.0654 C.3            1 S1                 0.0000
     10 ****         4.3142  -0.6543  -1.1738 C.3            1 S1                 0.0000
     11 ****         2.8920  -0.1074  -1.2992 C.3            1 S1                 0.0000
     12 ****        -2.0590  -0.3675   1.3697 C.3            1 S1                 0.0000
     13 ****        -2.2789   0.8290   2.3151 C.3            1 S1                 0.0000
     14 ****        -3.3194  -1.0741   1.1753 N.pl3          1 S1                 0.0000
     15 ****        -4.4976  -0.6028   0.6305 C.2            1 S1                 0.0000
     16 ****        -5.3976  -1.6292   0.6524 C.2            1 S1                 0.0000
     17 ****        -4.6701  -2.7035   1.2362 C.2            1 S1                 0.0000
     18 ****        -3.4285  -2.3690   1.5474 N.2            1 S1                 0.0000
     19 ****        -2.3436  -1.4660  -1.2692 H              1 S1                 0.0000
     20 ****        -0.7903  -1.9559  -0.6050 H              1 S1                 0.0000
     21 ****        -0.8724  -0.8064  -1.9348 H              1 S1                 0.0000
     22 ****        -2.0080   0.8602  -0.4034 H              1 S1                 0.0000
     23 ****         0.5540  -0.2764   0.4108 H              1 S1                 0.0000
     24 ****         0.4617   0.9835  -1.7109 H              1 S1                 0.0000
     25 ****        -0.2322   2.3042  -0.8011 H              1 S1                 0.0000
     26 ****         4.5038   2.6252  -0.6953 H              1 S1                 0.0000
     27 ****         4.4427   1.5706   0.7208 H              1 S1                 0.0000
     28 ****         5.4297   0.9515  -2.0650 H              1 S1                 0.0000
     29 ****         6.1192   0.4098  -0.5356 H              1 S1                 0.0000
     30 ****         4.5959  -1.2968  -2.0086 H              1 S1                 0.0000
     31 ****         4.4011  -1.2401  -0.2576 H              1 S1                 0.0000
     32 ****         2.1718  -0.7849  -0.8391 H              1 S1                 0.0000
     33 ****         2.6235   0.0137  -2.3497 H              1 S1                 0.0000
     34 ****        -1.3770  -1.0582   1.8707 H              1 S1                 0.0000
     35 ****        -1.3381   1.3180   2.5683 H              1 S1                 0.0000
     36 ****        -2.7377   0.5082   3.2509 H              1 S1                 0.0000
     37 ****        -2.9299   1.5795   1.8655 H              1 S1                 0.0000
     38 ****        -4.5952   0.4126   0.2755 H              1 S1                 0.0000
     39 ****        -6.4200  -1.6151   0.3047 H              1 S1                 0.0000
     40 ****        -5.0046  -3.7097   1.4417 H              1 S1                 0.0000
     41 ****        -0.0806   1.0463   1.1382 LP             1 S1                 0.0000
     42 ****         1.1183   3.6014   0.3832 LP             1 S1                 0.0000
     43 ****         2.8408   3.4240   0.4259 LP             1 S1                 0.0000
     44 ****        -2.7266  -2.9460   1.9651 LP             1 S1                 0.0000
@<TRIPOS>BOND
    1    1    2 1     
    2    1   19 1     
    3    1   20 1     
    4    1   21 1     
    5    2    3 1     
    6    2   12 1     
    7    2   22 1     
    8    3    4 1     
    9    3   23 1     
   10    4    5 1     
   11    4   24 1     
   12    4   25 1     
   13    5    6 2     
   14    5    7 am    
   15    7   11 1     
   16    7    8 1     
   17    8    9 1     
   18    8   26 1     
   19    8   27 1     
   20    9   10 1     
   21    9   28 1     
   22    9   29 1     
   23   10   11 1     
   24   10   30 1     
   25   10   31 1     
   26   11   32 1     
   27   11   33 1     
   28   12   13 1     
   29   12   14 1     
   30   12   34 1     
   31   13   35 1     
   32   13   36 1     
   33   13   37 1     
   34   14   18 1     
   35   14   15 1     
   36   15   16 2     
   37   15   38 1     
   38   16   17 1     
   39   16   39 1     
   40   17   18 2     
   41   17   40 1     
   42    3   41 1     
   43    6   42 1     
   44    6   43 1     
   45   18   44 1     
@<TRIPOS>SUBSTRUCTURE
      1 S1             1
@<TRIPOS>SET
LONE_PAIRS      STATIC     ATOMS    <user>   **** ""
4 41 42 43 44
DONOR_HYDROGENS      STATIC     ATOMS    <user>   **** ""
1 23
ATOM$BLUE        STATIC     ATOMS    COLORGROUP SYSTEM
4 41 42 43 44
ATOM$RED        STATIC     ATOMS    COLORGROUP SYSTEM
1 23
