AV-unprocessed.smi:2339|AV-procd|sdf|9341|dock7
  -GOLD-   2272012563D 1   1.00000     0.00000
 Structure written by MMmdl.
 49 52  0  0  0  0  0  0  0  0  1 V2000
  144.6650  142.2532  155.2500 C   0  0  0  0  0  0  0  0  0  0  0  0
  145.6778  142.5878  154.1494 C   0  0  0  0  0  0  0  0  0  0  0  0
  146.8462  141.7214  154.2101 N   0  0  0  0  0  0  0  0  0  0  0  0
  148.1082  142.2285  154.5017 C   0  0  0  0  0  0  0  0  0  0  0  0
  149.2319  141.4862  154.5300 C   0  0  0  0  0  0  0  0  0  0  0  0
  149.1526  140.0419  154.2326 C   0  0  0  0  0  0  0  0  0  0  0  0
  150.1572  139.3307  154.2607 O   0  0  0  0  0  0  0  0  0  0  0  0
  147.8063  139.5035  153.9047 C   0  0  0  0  0  0  0  0  0  0  0  0
  147.7433  138.1292  153.6278 N   0  0  0  0  0  0  0  0  0  0  0  0
  146.9358  137.1802  154.1435 C   0  0  0  0  0  0  0  0  0  0  0  0
  146.0310  137.3747  154.9520 O   0  0  0  0  0  0  0  0  0  0  0  0
  147.2054  135.9437  153.6900 N   0  0  0  0  0  0  0  0  0  0  0  0
  146.5176  134.6922  154.0490 C   0  0  1  0  0  0  0  0  0  0  0  0
  145.6535  134.1024  152.9273 C   0  0  1  0  0  0  0  0  0  0  0  0
  145.0135  134.6242  151.6907 C   0  0  0  0  0  0  0  0  0  0  0  0
  145.3660  133.4296  150.7665 C   0  0  0  0  0  0  0  0  0  0  0  0
  146.2953  132.6065  151.5160 O   0  0  0  0  0  0  0  0  0  0  0  0
  146.9404  133.5156  152.3875 C   0  0  2  0  0  0  0  0  0  0  0  0
  147.3912  133.3919  153.8627 C   0  0  0  0  0  0  0  0  0  0  0  0
  146.9616  132.1159  154.6160 C   0  0  0  0  0  0  0  0  0  0  0  0
  148.1790  131.5553  155.3532 C   0  0  0  0  0  0  0  0  0  0  0  0
  149.3741  132.1203  154.6000 C   0  0  0  0  0  0  0  0  0  0  0  0
  148.8953  133.4949  154.1432 C   0  0  0  0  0  0  0  0  0  0  0  0
  146.7554  140.3626  153.9154 C   0  0  0  0  0  0  0  0  0  0  0  0
  143.7957  142.9079  155.1881 H   0  0  0  0  0  0  0  0  0  0  0  0
  145.1046  142.3755  156.2402 H   0  0  0  0  0  0  0  0  0  0  0  0
  144.3139  141.2245  155.1631 H   0  0  0  0  0  0  0  0  0  0  0  0
  145.2062  142.4940  153.1703 H   0  0  0  0  0  0  0  0  0  0  0  0
  145.9911  143.6287  154.2384 H   0  0  0  0  0  0  0  0  0  0  0  0
  148.1241  143.2875  154.7156 H   0  0  0  0  0  0  0  0  0  0  0  0
  150.1913  141.9232  154.7651 H   0  0  0  0  0  0  0  0  0  0  0  0
  148.4180  137.8115  152.9468 H   0  0  0  0  0  0  0  0  0  0  0  0
  147.9636  135.8576  153.0287 H   0  0  0  0  0  0  0  0  0  0  0  0
  146.0142  134.7313  155.0164 H   0  0  0  0  0  0  0  0  0  0  0  0
  145.0029  133.3395  153.3672 H   0  0  0  0  0  0  0  0  0  0  0  0
  143.9388  134.7720  151.7987 H   0  0  0  0  0  0  0  0  0  0  0  0
  145.4708  135.5523  151.3461 H   0  0  0  0  0  0  0  0  0  0  0  0
  144.4852  132.8427  150.5048 H   0  0  0  0  0  0  0  0  0  0  0  0
  145.8277  133.7786  149.8420 H   0  0  0  0  0  0  0  0  0  0  0  0
  147.5530  134.2210  151.8168 H   0  0  0  0  0  0  0  0  0  0  0  0
  146.1463  132.3040  155.3155 H   0  0  0  0  0  0  0  0  0  0  0  0
  146.5983  131.3670  153.9110 H   0  0  0  0  0  0  0  0  0  0  0  0
  148.1873  131.9253  156.3794 H   0  0  0  0  0  0  0  0  0  0  0  0
  148.1830  130.4656  155.3925 H   0  0  0  0  0  0  0  0  0  0  0  0
  150.2757  132.1675  155.2116 H   0  0  0  0  0  0  0  0  0  0  0  0
  149.5893  131.4981  153.7303 H   0  0  0  0  0  0  0  0  0  0  0  0
  149.4594  133.8384  153.2754 H   0  0  0  0  0  0  0  0  0  0  0  0
  149.0764  134.2159  154.9415 H   0  0  0  0  0  0  0  0  0  0  0  0
  145.7427  140.0560  153.7082 H   0  0  0  0  0  0  0  0  0  0  0  0
  1  2  1  0  0  0  0
  1 25  1  0  0  0  0
  1 26  1  0  0  0  0
  1 27  1  0  0  0  0
  2  3  1  0  0  0  0
  2 28  1  0  0  0  0
  2 29  1  0  0  0  0
  3 24  1  0  0  0  0
  3  4  1  0  0  0  0
  4  5  2  0  0  0  0
  4 30  1  0  0  0  0
  5  6  1  0  0  0  0
  5 31  1  0  0  0  0
  6  7  2  0  0  0  0
  6  8  1  0  0  0  0
  8  9  1  0  0  0  0
  8 24  2  0  0  0  0
  9 10  1  0  0  0  0
  9 32  1  0  0  0  0
 10 11  2  0  0  0  0
 10 12  1  0  0  0  0
 12 13  1  0  0  0  0
 12 33  1  0  0  0  0
 13 19  1  0  0  0  0
 13 14  1  0  0  0  0
 13 34  1  0  0  0  0
 14 18  1  0  0  0  0
 14 15  1  0  0  0  0
 14 35  1  0  0  0  0
 15 16  1  0  0  0  0
 15 36  1  0  0  0  0
 15 37  1  0  0  0  0
 16 17  1  0  0  0  0
 16 38  1  0  0  0  0
 16 39  1  0  0  0  0
 17 18  1  0  0  0  0
 18 19  1  0  0  0  0
 18 40  1  0  0  0  0
 19 23  1  0  0  0  0
 19 20  1  0  0  0  0
 20 21  1  0  0  0  0
 20 41  1  0  0  0  0
 20 42  1  0  0  0  0
 21 22  1  0  0  0  0
 21 43  1  0  0  0  0
 21 44  1  0  0  0  0
 22 23  1  0  0  0  0
 22 45  1  0  0  0  0
 22 46  1  0  0  0  0
 23 47  1  0  0  0  0
 23 48  1  0  0  0  0
 24 49  1  0  0  0  0
M  END
> <s_m_source_file>
AV-unprocessed.smi

> <i_m_source_file_index>
2339

> <i_lp_mmshare_version>
43012

> <i_f3d_flags>
0

> <s_epik_input>
W0NIM11bQ0gyXW4xW2NIXVtjSF1jKD1PKWMoW2NIXTEpW05IXUMoPU8pW05IXVtDQEBIXTJbQ0BASF0oW0NIMl1bQ0gyXU8zKVtDQEBIXTNDMjRbQ0gyXVtDSDJdW0NIMl1bQ0gyXTQ=

> <s_epik_cmdline>
J2VwaWtfcHl0aG9uJywgJy1waCcsICc3LjAnLCAnLXRuJywgJzgnLCAnLW1hJywgJzIwMCcsICctbWV0YWxfYmluZGluZycsICctaW1hZScsICc8aW5maWxlLm1hZT4nLCAnLW9tYWUnLCAnPG91dGZpbGUubWFlPic=

> <r_lp_tautomer_probability>
1

> <r_epik_Ionization_Penalty>
0.00145966

> <r_epik_Ionization_Penalty_Charging>
0.00143969

> <r_epik_Ionization_Penalty_Neutral>
1.99697e-05

> <r_epik_State_Penalty>
0.000961843

> <r_epik_Charging_Adjusted_Penalty>
0.00240153

> <i_epik_Tot_Q>
0

> <i_epik_Tot_abs_Q>
0

> <r_epik_Metal_State_Penalty>
-0

> <b_epik_Metal_Only>
0

> <s_lp_Force_Field>
OPLS_2005

> <r_lp_Energy>
82.1358

> <b_lp_Chiralities_Consistent>
1

> <s_lp_Variant>
AV-unprocessed.smi:2339-6

> <Gold.Version>
5.8.1

> <Gold.Id.Protein>
6NUR|6NUR_protein|mol2

> <Gold.PLP.Fitness>
43.7663

> <Gold.PLP.PLP>
-33.1608

> <Gold.PLP.part.hbond>
-2.4664

> <Gold.PLP.part.metal>
0.0000

> <Gold.PLP.part.buried>
1.0337

> <Gold.PLP.part.nonpolar>
-32.7834

> <Gold.PLP.part.repulsive>
0.7102

> <Gold.PLP.ligand.clash>
0.0000

> <Gold.PLP.ligand.torsion>
0.7212

> <Gold.PLP.Chemscore.Hbond>
2.3755

> <Gold.PLP.Chemscore.CHOScore>
1.5481

> <Gold.PLP.Chemscore.Metal>
0.0000

> <Gold.Chemscore.Hbonds>
donor molecule, donor type, donor heavy atom, donor atom, acceptor molecule, acceptor atom, score
      L1  H     9    32       P1  7948  0.88
      L1  H    12    33       P1  7948  1.00
      P1  H  7989  7998       L1     7  0.37
      L1  C     4    30       P1  8028  0.52
      L1  C    24    49       P1 10175  1.00

> <Gold.PLP.Chemscore.Internal.Correction>
0.2770

> <Gold.Rescore>
     Score         DG    S(hbond)    S(metal)    S(lipo)     H(rot)  DE(clash)    DE(int)     intcor
     15.79     -18.13       1.91        0.00      79.13       1.17       1.64       0.69       ----

> <Gold.Chemscore.Fitness>
15.7937

> <Gold.Chemscore.DG>
-18.1270

> <Gold.Chemscore.ZeroCoef>
-5.4800

> <Gold.Chemscore.Hbond>
1.9090

> <Gold.Chemscore.Metal>
0.0000

> <Gold.Chemscore.Lipo>
79.1302

> <Gold.Chemscore.Internal_Hbond>
0.0000

> <Gold.Chemscore.DEClash>
1.6426

> <Gold.Chemscore.DEInternal>
0.6907

> <Gold.Chemscore.Rot>
1.1670

> <Gold.Chemscore.Internal.Correction>
   9.000000E+99

> <Gold.Chemscore.Hbonds>
donor molecule, donor type, donor heavy atom, donor atom, acceptor molecule, acceptor atom, score
      L1  H     9    32       P1  7948  0.85
      L1  H    12    33       P1  7948  0.96
      P1  H  7989  7998       L1     7  0.06

> <Gold.Chemscore.Hbond.Weighted>
-6.3762

> <Gold.Chemscore.Metal.Weighted>
-0.0000

> <Gold.Chemscore.Lipo.Weighted>
-9.2582

> <Gold.Chemscore.Internal_Hbond.Weighted>
0.0000

> <Gold.Chemscore.DEClash.Weighted>
1.6426

> <Gold.Chemscore.DEInternal.Weighted>
0.6907

> <Gold.Chemscore.Rot.Weighted>
2.9874

> <Gold.Chemscore.Internal.Correction.Weighted>
   9.000000E+99

> <Gold.Protein.RotatedTorsions>
[ 6907 6896 6895 6894 ] final   22.71 input  -60.11 | X-H torsion
[ 7974 7965 7964 7962 ] final  -77.65 input  175.53 | X-H torsion
[ 8008 7997 7996 7995 ] final  -17.50 input   59.86 | X-H torsion
[ 10167 10162 10161 10158 ] final -132.38 input  -65.29 | X-H torsion
[ 10718 10713 10712 10709 ] final   36.82 input   66.30 | X-H torsion
[ 10763 10752 10751 10750 ] final  175.22 input  -60.55 | X-H torsion
[ 11005 11000 10999 10996 ] final -108.54 input  -57.11 | X-H torsion

> <Gold.Protein.ActiveResidues>
 VAL166  LYS551  ARG553  GLY616  TRP617  ASP618  TYR619  PRO620  LYS621  CYS622 
 ASP623  PHE694  ASN695  SER759  ASP760  ASP761  ALA762  ILE779  LEU786  VAL792 
 PHE793  MET794  SER795  GLU796  ALA797  LYS798  CYS799  TRP800  GLU811  SER814 

> <Gold.Protein.RotatedAtoms>
  151.9312  135.0255  160.0529 H   0  0  0  0  0  0  0  0  0  0  0  0  # atno 6907 bound_to 6896
  152.2117  133.4911  159.5122 H   0  0  0  0  0  0  0  0  0  0  0  0  # atno 6908 bound_to 6896
  150.6978  134.1376  159.4135 H   0  0  0  0  0  0  0  0  0  0  0  0  # atno 6909 bound_to 6896
  145.5969  140.9417  143.1262 H   0  0  0  0  0  0  0  0  0  0  0  0  # atno 7974 bound_to 7965
  154.4974  140.2141  155.9418 H   0  0  0  0  0  0  0  0  0  0  0  0  # atno 8008 bound_to 7997
  156.1388  140.3183  155.8431 H   0  0  0  0  0  0  0  0  0  0  0  0  # atno 8009 bound_to 7997
  155.4159  140.0493  157.3019 H   0  0  0  0  0  0  0  0  0  0  0  0  # atno 8010 bound_to 7997
  139.9092  143.6515  152.2579 H   0  0  0  0  0  0  0  0  0  0  0  0  # atno 10167 bound_to 10162
  157.3395  130.7540  149.6902 H   0  0  0  0  0  0  0  0  0  0  0  0  # atno 10718 bound_to 10713
  154.4646  135.2769  155.1688 H   0  0  0  0  0  0  0  0  0  0  0  0  # atno 10763 bound_to 10752
  154.3462  135.6160  153.5624 H   0  0  0  0  0  0  0  0  0  0  0  0  # atno 10764 bound_to 10752
  152.9858  135.5800  154.5015 H   0  0  0  0  0  0  0  0  0  0  0  0  # atno 10765 bound_to 10752
  141.0896  133.9079  157.2107 H   0  0  0  0  0  0  0  0  0  0  0  0  # atno 11005 bound_to 11000
  144.7327  139.7678  143.7341 LP  0  0  0  0  0  0  0  0  0  0  0  0  # atno 17320 bound_to 7965
  146.1605  139.4718  142.9991 LP  0  0  0  0  0  0  0  0  0  0  0  0  # atno 17321 bound_to 7965
  139.6958  144.7641  151.1359 LP  0  0  0  0  0  0  0  0  0  0  0  0  # atno 17342 bound_to 10162
  140.7689  143.5526  150.9187 LP  0  0  0  0  0  0  0  0  0  0  0  0  # atno 17343 bound_to 10162
  155.9706  130.4172  150.4267 LP  0  0  0  0  0  0  0  0  0  0  0  0  # atno 17370 bound_to 10713
  157.2312  131.0504  151.2491 LP  0  0  0  0  0  0  0  0  0  0  0  0  # atno 17371 bound_to 10713
  139.9719  135.0125  156.9534 LP  0  0  0  0  0  0  0  0  0  0  0  0  # atno 17394 bound_to 11000
  140.5283  134.0838  155.7309 LP  0  0  0  0  0  0  0  0  0  0  0  0  # atno 17395 bound_to 11000

$$$$
