#       Name:                AV-unprocessed.smi:800
#       Creating user name   scv26
#       Creation time:       Fri Mar 27 01:22:21 2020


#       File generated by GOLD software.
#

@<TRIPOS>MOLECULE
AV-unprocessed.smi:800
    42    43     1
SMALL
NO_CHARGES


@<TRIPOS>ATOM
      1 ****        -4.7345   1.3247   1.9680 C.3            1 S1                 0.0000
      2 ****        -4.1429   0.6299   0.7317 C.3            1 S1                 0.0000
      3 ****        -4.8813  -0.6780   0.4153 C.3            1 S1                 0.0000
      4 ****        -2.7309   0.3327   0.9689 N.pl3          1 S1                -1.0000
      5 ****        -1.7048   1.1740   0.6552 C.2            1 S1                 0.0000
      6 ****        -1.7243   2.2766   0.0968 O.2            1 S1                 0.0000
      7 ****        -0.3673   0.5903   1.0118 C.ar           1 S1                 0.0000
      8 ****         0.5121   0.4379  -0.0057 N.ar           1 S1                 0.0000
      9 ****         1.7157  -0.0821   0.2606 C.ar           1 S1                 0.0000
     10 ****         2.6027  -0.2431  -0.8120 N.pl3          1 S1                 0.0000
     11 ****         4.0011  -0.6341  -0.6196 C.3            1 S1                 0.0000
     12 ****         4.4929  -1.4945  -1.7960 C.3            1 S1                 0.0000
     13 ****         4.2861  -0.8019  -3.0210 O.3            1 S1                 0.0000
     14 ****         2.9061  -0.5408  -3.2467 C.3            1 S1                 0.0000
     15 ****         2.3553   0.3566  -2.1258 C.3            1 S1                 0.0000
     16 ****         2.1341  -0.4607   1.4747 N.ar           1 S1                 0.0000
     17 ****         1.2819  -0.3019   2.5087 C.ar           1 S1                 0.0000
     18 ****        -0.0075   0.2357   2.3385 C.ar           1 S1                 0.0000
     19 ****        -1.0358   0.4623   3.7130 Cl             1 S1                 0.0000
     20 ****        -5.7905   1.5514   1.8200 H              1 S1                 0.0000
     21 ****        -4.2240   2.2660   2.1751 H              1 S1                 0.0000
     22 ****        -4.6508   0.6979   2.8567 H              1 S1                 0.0000
     23 ****        -4.2778   1.2941  -0.1233 H              1 S1                 0.0000
     24 ****        -5.9391  -0.4927   0.2273 H              1 S1                 0.0000
     25 ****        -4.8108  -1.3872   1.2407 H              1 S1                 0.0000
     26 ****        -4.4699  -1.1580  -0.4735 H              1 S1                 0.0000
     27 ****         4.6066   0.2691  -0.5369 H              1 S1                 0.0000
     28 ****         4.1485  -1.1986   0.3006 H              1 S1                 0.0000
     29 ****         5.5559  -1.7082  -1.6851 H              1 S1                 0.0000
     30 ****         3.9763  -2.4556  -1.8173 H              1 S1                 0.0000
     31 ****         2.7931  -0.0465  -4.2116 H              1 S1                 0.0000
     32 ****         2.3498  -1.4781  -3.3028 H              1 S1                 0.0000
     33 ****         1.2951   0.5253  -2.3124 H              1 S1                 0.0000
     34 ****         2.8392   1.3332  -2.1577 H              1 S1                 0.0000
     35 ****         1.6396  -0.5967   3.4841 H              1 S1                 0.0000
     36 ****        -2.5028  -0.5456   1.3890 LP             1 S1                 0.0000
     37 ****        -2.5941   2.6730  -0.1971 LP             1 S1                 0.0000
     38 ****        -0.8703   2.7723  -0.0611 LP             1 S1                 0.0000
     39 ****         0.2674   0.7083  -0.9368 LP             1 S1                 0.0000
     40 ****         4.6384  -1.3593  -3.7728 LP             1 S1                 0.0000
     41 ****         4.7803   0.0670  -2.9903 LP             1 S1                 0.0000
     42 ****         3.0462  -0.8476   1.6104 LP             1 S1                 0.0000
@<TRIPOS>BOND
    1    1    2 1     
    2    1   20 1     
    3    1   21 1     
    4    1   22 1     
    5    2    3 1     
    6    2    4 1     
    7    2   23 1     
    8    3   24 1     
    9    3   25 1     
   10    3   26 1     
   11    4    5 1     
   12    5    6 2     
   13    5    7 1     
   14    7   18 ar    
   15    7    8 ar    
   16    8    9 ar    
   17    9   10 1     
   18    9   16 ar    
   19   10   15 1     
   20   10   11 1     
   21   11   12 1     
   22   11   27 1     
   23   11   28 1     
   24   12   13 1     
   25   12   29 1     
   26   12   30 1     
   27   13   14 1     
   28   14   15 1     
   29   14   31 1     
   30   14   32 1     
   31   15   33 1     
   32   15   34 1     
   33   16   17 ar    
   34   17   18 ar    
   35   17   35 1     
   36   18   19 1     
   37    4   36 1     
   38    6   37 1     
   39    6   38 1     
   40    8   39 1     
   41   13   40 1     
   42   13   41 1     
   43   16   42 1     
@<TRIPOS>SUBSTRUCTURE
      1 S1             1
@<TRIPOS>SET
LONE_PAIRS      STATIC     ATOMS    <user>   **** ""
7 36 37 38 39 40 41 42
ATOM$BLUE        STATIC     ATOMS    COLORGROUP SYSTEM
7 36 37 38 39 40 41 42
