AV-unprocessed.smi:1572|AV-procd|sdf|6332|dock4
  -GOLD-   22720 6543D 1   1.00000     0.00000
 Structure written by MMmdl.
 41 42  0  0  0  0  0  0  0  0  2 V2000
  152.7372  143.9074  159.4607 C   0  0  0  0  0  0  0  0  0  0  0  0
  152.4582  142.7389  158.6402 N   0  0  0  0  0  0  0  0  0  0  0  0
  152.1832  141.5624  159.4595 C   0  0  0  0  0  0  0  0  0  0  0  0
  151.8979  140.3234  158.5912 C   0  0  0  0  0  0  0  0  0  0  0  0
  150.7531  140.5407  157.6926 N   0  0  0  0  0  0  0  0  0  0  0  0
  150.3229  139.3416  156.9207 C   0  0  0  0  0  0  0  0  0  0  0  0
  148.9227  139.5034  156.2819 C   0  0  0  0  0  0  0  0  0  0  0  0
  151.3196  139.0319  155.7749 C   0  0  0  0  0  0  0  0  0  0  0  0
  150.2772  138.0689  157.8138 C   0  0  0  0  0  0  0  0  0  0  0  0
  149.2478  138.1534  158.8462 N   0  0  0  0  0  0  0  0  0  0  0  0
  148.7106  137.1101  159.4909 C   0  0  0  0  0  0  0  0  0  0  0  0
  149.0899  135.9662  159.2292 O   0  0  0  0  0  0  0  0  0  0  0  0
  147.7671  137.4553  160.3964 N   0  5  0  0  0  0  0  0  0  0  0  0
  147.0055  136.5074  160.9670 C   0  0  0  0  0  0  0  0  0  0  0  0
  145.7658  136.7578  161.4182 N   0  0  0  0  0  0  0  0  0  0  0  0
  145.1485  135.6416  161.9667 N   0  0  0  0  0  0  0  0  0  0  0  0
  145.9400  134.5708  161.9078 C   0  0  0  0  0  0  0  0  0  0  0  0
  147.5092  134.8276  161.1747 S   0  0  0  0  0  0  0  0  0  0  0  0
  151.0325  141.7340  156.8772 C   0  0  0  0  0  0  0  0  0  0  0  0
  151.3216  142.9670  157.7523 C   0  0  0  0  0  0  0  0  0  0  0  0
  153.5997  143.7302  160.1039 H   0  0  0  0  0  0  0  0  0  0  0  0
  151.8855  144.1564  160.0951 H   0  0  0  0  0  0  0  0  0  0  0  0
  152.9606  144.7730  158.8365 H   0  0  0  0  0  0  0  0  0  0  0  0
  153.0358  141.3587  160.1083 H   0  0  0  0  0  0  0  0  0  0  0  0
  151.3311  141.7527  160.1143 H   0  0  0  0  0  0  0  0  0  0  0  0
  152.7913  140.0744  158.0182 H   0  0  0  0  0  0  0  0  0  0  0  0
  151.7100  139.4885  159.2634 H   0  0  0  0  0  0  0  0  0  0  0  0
  148.6445  138.6103  155.7213 H   0  0  0  0  0  0  0  0  0  0  0  0
  148.8826  140.3378  155.5823 H   0  0  0  0  0  0  0  0  0  0  0  0
  148.1456  139.6589  157.0299 H   0  0  0  0  0  0  0  0  0  0  0  0
  151.1123  138.0649  155.3148 H   0  0  0  0  0  0  0  0  0  0  0  0
  152.3492  139.0054  156.1335 H   0  0  0  0  0  0  0  0  0  0  0  0
  151.2686  139.7664  154.9714 H   0  0  0  0  0  0  0  0  0  0  0  0
  150.1130  137.1716  157.2162 H   0  0  0  0  0  0  0  0  0  0  0  0
  151.2428  137.9164  158.2994 H   0  0  0  0  0  0  0  0  0  0  0  0
  148.9108  139.0758  159.0808 H   0  0  0  0  0  0  0  0  0  0  0  0
  145.5968  133.6234  162.2958 H   0  0  0  0  0  0  0  0  0  0  0  0
  151.8820  141.5551  156.2178 H   0  0  0  0  0  0  0  0  0  0  0  0
  150.1837  141.9765  156.2408 H   0  0  0  0  0  0  0  0  0  0  0  0
  150.4336  143.2163  158.3357 H   0  0  0  0  0  0  0  0  0  0  0  0
  151.5231  143.8249  157.1099 H   0  0  0  0  0  0  0  0  0  0  0  0
  1  2  1  0  0  0  0
  1 21  1  0  0  0  0
  1 22  1  0  0  0  0
  1 23  1  0  0  0  0
  2 20  1  0  0  0  0
  2  3  1  0  0  0  0
  3  4  1  0  0  0  0
  3 24  1  0  0  0  0
  3 25  1  0  0  0  0
  4  5  1  0  0  0  0
  4 26  1  0  0  0  0
  4 27  1  0  0  0  0
  5  6  1  0  0  0  0
  5 19  1  0  0  0  0
  6  7  1  0  0  0  0
  6  8  1  0  0  0  0
  6  9  1  0  0  0  0
  7 28  1  0  0  0  0
  7 29  1  0  0  0  0
  7 30  1  0  0  0  0
  8 31  1  0  0  0  0
  8 32  1  0  0  0  0
  8 33  1  0  0  0  0
  9 10  1  0  0  0  0
  9 34  1  0  0  0  0
  9 35  1  0  0  0  0
 10 11  1  0  0  0  0
 10 36  1  0  0  0  0
 11 12  2  0  0  0  0
 11 13  1  0  0  0  0
 13 14  1  0  0  0  0
 14 18  1  0  0  0  0
 14 15  2  0  0  0  0
 15 16  1  0  0  0  0
 16 17  2  0  0  0  0
 17 18  1  0  0  0  0
 17 37  1  0  0  0  0
 19 20  1  0  0  0  0
 19 38  1  0  0  0  0
 19 39  1  0  0  0  0
 20 40  1  0  0  0  0
 20 41  1  0  0  0  0
M  CHG  1  13  -1
M  END
> <s_m_source_file>
AV-unprocessed.smi

> <i_m_source_file_index>
1572

> <i_lp_mmshare_version>
43012

> <i_f3d_flags>
0

> <s_epik_input>
W0NIM11OMVtDSDJdW0NIMl1OKFtDSDJdW0NIMl0xKUMoW0NIM10pKFtDSDNdKVtDSDJdW05IXUMoPU8pW05IXWMybm5bY0hdczI=

> <s_epik_cmdline>
J2VwaWtfcHl0aG9uJywgJy1waCcsICc3LjAnLCAnLXRuJywgJzgnLCAnLW1hJywgJzIwMCcsICctbWV0YWxfYmluZGluZycsICctaW1hZScsICc8aW5maWxlLm1hZT4nLCAnLW9tYWUnLCAnPG91dGZpbGUubWFlPic=

> <r_lp_tautomer_probability>
1

> <r_epik_Ionization_Penalty>
6.61874

> <r_epik_Ionization_Penalty_Charging>
3.54798

> <r_epik_Ionization_Penalty_Neutral>
3.07076

> <r_epik_State_Penalty>
5.68339

> <r_epik_Charging_Adjusted_Penalty>
9.23137

> <i_epik_Tot_Q>
-1

> <i_epik_Tot_abs_Q>
1

> <r_epik_Metal_State_Penalty>
2.66763

> <b_epik_Metal_Only>
1

> <s_lp_Force_Field>
OPLS_2005

> <r_lp_Energy>
47.6706

> <b_lp_Chiralities_Consistent>
1

> <s_lp_Variant>
AV-unprocessed.smi:1572-6

> <Gold.Version>
5.8.1

> <Gold.Id.Protein>
6NUR|6NUR_protein|mol2

> <Gold.PLP.Fitness>
41.0505

> <Gold.PLP.PLP>
-29.8986

> <Gold.PLP.part.hbond>
-3.0000

> <Gold.PLP.part.metal>
0.0000

> <Gold.PLP.part.buried>
-5.5962

> <Gold.PLP.part.nonpolar>
-21.7648

> <Gold.PLP.part.repulsive>
0.2227

> <Gold.PLP.ligand.clash>
0.0000

> <Gold.PLP.ligand.torsion>
0.5646

> <Gold.PLP.Chemscore.Hbond>
4.0720

> <Gold.PLP.Chemscore.CHOScore>
0.0000

> <Gold.PLP.Chemscore.Metal>
0.0000

> <Gold.Chemscore.Hbonds>
donor molecule, donor type, donor heavy atom, donor atom, acceptor molecule, acceptor atom, score
      P1  H  6896  6908       L1    12  0.65
      P1  H  6931  6943       L1    13  0.92
      P1  H  6934  6947       L1    13  1.63

> <Gold.PLP.Chemscore.Internal.Correction>
0.0650

> <Gold.Rescore>
     Score         DG    S(hbond)    S(metal)    S(lipo)     H(rot)  DE(clash)    DE(int)     intcor
     13.44     -15.54       1.70        0.00      73.35       1.63       0.15       1.95       ----

> <Gold.Chemscore.Fitness>
13.4367

> <Gold.Chemscore.DG>
-15.5446

> <Gold.Chemscore.ZeroCoef>
-5.4800

> <Gold.Chemscore.Hbond>
1.6953

> <Gold.Chemscore.Metal>
0.0000

> <Gold.Chemscore.Lipo>
73.3524

> <Gold.Chemscore.Internal_Hbond>
0.0000

> <Gold.Chemscore.DEClash>
0.1536

> <Gold.Chemscore.DEInternal>
1.9542

> <Gold.Chemscore.Rot>
1.6328

> <Gold.Chemscore.Internal.Correction>
   9.000000E+99

> <Gold.Chemscore.Hbonds>
donor molecule, donor type, donor heavy atom, donor atom, acceptor molecule, acceptor atom, score
      P1  H  6896  6908       L1    12  0.62
      P1  H  6931  6943       L1    13  0.07
      P1  H  6934  6947       L1    13  0.57

> <Gold.Chemscore.Hbond.Weighted>
-5.6623

> <Gold.Chemscore.Metal.Weighted>
-0.0000

> <Gold.Chemscore.Lipo.Weighted>
-8.5822

> <Gold.Chemscore.Internal_Hbond.Weighted>
0.0000

> <Gold.Chemscore.DEClash.Weighted>
0.1536

> <Gold.Chemscore.DEInternal.Weighted>
1.9542

> <Gold.Chemscore.Rot.Weighted>
4.1800

> <Gold.Chemscore.Internal.Correction.Weighted>
   9.000000E+99

> <Gold.Protein.RotatedTorsions>
[ 6907 6896 6895 6894 ] final  161.73 input  -60.11 | X-H torsion
[ 7974 7965 7964 7962 ] final   18.97 input  175.53 | X-H torsion
[ 8008 7997 7996 7995 ] final -177.46 input   59.86 | X-H torsion
[ 10167 10162 10161 10158 ] final  -71.91 input  -65.29 | X-H torsion
[ 10718 10713 10712 10709 ] final   26.47 input   66.30 | X-H torsion
[ 10763 10752 10751 10750 ] final -157.85 input  -60.55 | X-H torsion
[ 11005 11000 10999 10996 ] final  -26.12 input  -57.11 | X-H torsion

> <Gold.Protein.ActiveResidues>
 VAL166  LYS551  ARG553  GLY616  TRP617  ASP618  TYR619  PRO620  LYS621  CYS622 
 ASP623  PHE694  ASN695  SER759  ASP760  ASP761  ALA762  ILE779  LEU786  VAL792 
 PHE793  MET794  SER795  GLU796  ALA797  LYS798  CYS799  TRP800  GLU811  SER814 

> <Gold.Protein.RotatedAtoms>
  151.9512  133.3666  159.4000 H   0  0  0  0  0  0  0  0  0  0  0  0  # atno 6907 bound_to 6896
  150.6980  134.4338  159.5270 H   0  0  0  0  0  0  0  0  0  0  0  0  # atno 6908 bound_to 6896
  152.2012  134.8586  160.0558 H   0  0  0  0  0  0  0  0  0  0  0  0  # atno 6909 bound_to 6896
  146.2166  139.8380  142.8646 H   0  0  0  0  0  0  0  0  0  0  0  0  # atno 7974 bound_to 7965
  156.0072  140.1233  157.0489 H   0  0  0  0  0  0  0  0  0  0  0  0  # atno 8008 bound_to 7997
  154.4263  140.1095  156.5849 H   0  0  0  0  0  0  0  0  0  0  0  0  # atno 8009 bound_to 7997
  155.6130  140.3471  155.4630 H   0  0  0  0  0  0  0  0  0  0  0  0  # atno 8010 bound_to 7997
  140.5235  143.2329  151.7389 H   0  0  0  0  0  0  0  0  0  0  0  0  # atno 10167 bound_to 10162
  157.2073  130.6917  149.6213 H   0  0  0  0  0  0  0  0  0  0  0  0  # atno 10718 bound_to 10713
  154.7604  135.3116  154.8390 H   0  0  0  0  0  0  0  0  0  0  0  0  # atno 10763 bound_to 10752
  153.9152  135.6801  153.4753 H   0  0  0  0  0  0  0  0  0  0  0  0  # atno 10764 bound_to 10752
  153.1204  135.4825  154.9117 H   0  0  0  0  0  0  0  0  0  0  0  0  # atno 10765 bound_to 10752
  140.9000  133.7530  156.0531 H   0  0  0  0  0  0  0  0  0  0  0  0  # atno 11005 bound_to 11000
  145.2928  141.0172  143.3653 LP  0  0  0  0  0  0  0  0  0  0  0  0  # atno 17320 bound_to 7965
  144.9064  139.4583  143.6608 LP  0  0  0  0  0  0  0  0  0  0  0  0  # atno 17321 bound_to 7965
  139.4931  144.4220  151.9967 LP  0  0  0  0  0  0  0  0  0  0  0  0  # atno 17342 bound_to 10162
  140.3318  144.3307  150.5985 LP  0  0  0  0  0  0  0  0  0  0  0  0  # atno 17343 bound_to 10162
  155.9694  130.4563  150.5919 LP  0  0  0  0  0  0  0  0  0  0  0  0  # atno 17370 bound_to 10713
  157.3708  131.0765  151.1559 LP  0  0  0  0  0  0  0  0  0  0  0  0  # atno 17371 bound_to 10713
  140.8242  134.3254  157.5371 LP  0  0  0  0  0  0  0  0  0  0  0  0  # atno 17394 bound_to 11000
  139.8741  134.9326  156.3559 LP  0  0  0  0  0  0  0  0  0  0  0  0  # atno 17395 bound_to 11000

$$$$
