AV-unprocessed.smi:1385|AV-procd|sdf|5635|dock7
  -GOLD-   22720 5253D 1   1.00000     0.00000
 Structure written by MMmdl.
 38 39  0  0  0  0  0  0  0  0  3 V2000
  139.7253  138.3115  153.6057 C   0  0  0  0  0  0  0  0  0  0  0  0
  140.3292  136.9546  153.4805 C   0  0  0  0  0  0  0  0  0  0  0  0
  139.6718  135.8355  153.8084 N   0  0  0  0  0  0  0  0  0  0  0  0
  140.4389  134.6966  153.6070 N   0  0  0  0  0  0  0  0  0  0  0  0
  141.6556  134.9918  153.1293 C   0  0  0  0  0  0  0  0  0  0  0  0
  142.6463  134.0180  152.8362 N   0  0  0  0  0  0  0  0  0  0  0  0
  143.6215  134.0737  151.9121 C   0  0  0  0  0  0  0  0  0  0  0  0
  143.8300  135.0184  151.1506 O   0  0  0  0  0  0  0  0  0  0  0  0
  144.3565  132.9518  151.9155 N   0  0  0  0  0  0  0  0  0  0  0  0
  145.4952  132.6840  151.0374 C   0  0  2  0  0  0  0  0  0  0  0  0
  145.6147  131.1857  150.6967 C   0  0  0  0  0  0  0  0  0  0  0  0
  146.0539  130.3511  151.9129 C   0  0  0  0  0  0  0  0  0  0  0  0
  147.3285  130.8629  152.4860 N   0  3  2  0  0  0  0  0  0  0  0  0
  147.8542  130.0182  153.5875 C   0  0  0  0  0  0  0  0  0  0  0  0
  148.3545  128.6769  153.0405 C   0  0  0  0  0  0  0  0  0  0  0  0
  149.6373  128.4337  153.3700 N   0  5  0  0  0  0  0  0  0  0  0  0
  147.5913  127.9614  152.3947 O   0  0  0  0  0  0  0  0  0  0  0  0
  147.2186  132.2909  152.8790 C   0  0  0  0  0  0  0  0  0  0  0  0
  146.8015  133.1715  151.6866 C   0  0  0  0  0  0  0  0  0  0  0  0
  141.9642  136.7019  152.8817 S   0  0  0  0  0  0  0  0  0  0  0  0
  138.9083  138.3021  154.3280 H   0  0  0  0  0  0  0  0  0  0  0  0
  139.3366  138.6356  152.6404 H   0  0  0  0  0  0  0  0  0  0  0  0
  140.4768  139.0270  153.9401 H   0  0  0  0  0  0  0  0  0  0  0  0
  142.6007  133.1759  153.3907 H   0  0  0  0  0  0  0  0  0  0  0  0
  144.1136  132.2301  152.5781 H   0  0  0  0  0  0  0  0  0  0  0  0
  145.3482  133.2451  150.1126 H   0  0  0  0  0  0  0  0  0  0  0  0
  144.6723  130.8040  150.3021 H   0  0  0  0  0  0  0  0  0  0  0  0
  146.3470  131.0593  149.8982 H   0  0  0  0  0  0  0  0  0  0  0  0
  145.2773  130.3619  152.6791 H   0  0  0  0  0  0  0  0  0  0  0  0
  146.1705  129.3126  151.6025 H   0  0  0  0  0  0  0  0  0  0  0  0
  148.7113  130.5056  154.0540 H   0  0  0  0  0  0  0  0  0  0  0  0
  147.1009  129.9019  154.3700 H   0  0  0  0  0  0  0  0  0  0  0  0
  150.2954  128.1681  152.6275 H   0  0  0  0  0  0  0  0  0  0  0  0
  146.5011  132.3894  153.6952 H   0  0  0  0  0  0  0  0  0  0  0  0
  148.1787  132.6412  153.2596 H   0  0  0  0  0  0  0  0  0  0  0  0
  147.5972  133.1583  150.9406 H   0  0  0  0  0  0  0  0  0  0  0  0
  146.7020  134.2103  152.0038 H   0  0  0  0  0  0  0  0  0  0  0  0
  148.0204  130.8196  151.7512 H   0  0  0  0  0  0  0  0  0  0  0  0
  1  2  1  0  0  0  0
  1 21  1  0  0  0  0
  1 22  1  0  0  0  0
  1 23  1  0  0  0  0
  2 20  1  0  0  0  0
  2  3  2  0  0  0  0
  3  4  1  0  0  0  0
  4  5  2  0  0  0  0
  5  6  1  0  0  0  0
  5 20  1  0  0  0  0
  6  7  1  0  0  0  0
  6 24  1  0  0  0  0
  7  8  2  0  0  0  0
  7  9  1  0  0  0  0
  9 10  1  0  0  0  0
  9 25  1  0  0  0  0
 10 19  1  0  0  0  0
 10 11  1  0  0  0  0
 10 26  1  0  0  0  0
 11 12  1  0  0  0  0
 11 27  1  0  0  0  0
 11 28  1  0  0  0  0
 12 13  1  0  0  0  0
 12 29  1  0  0  0  0
 12 30  1  0  0  0  0
 13 14  1  0  0  0  0
 13 18  1  0  0  0  0
 13 38  1  0  0  0  0
 14 15  1  0  0  0  0
 14 31  1  0  0  0  0
 14 32  1  0  0  0  0
 15 16  1  0  0  0  0
 15 17  2  0  0  0  0
 16 33  1  0  0  0  0
 18 19  1  0  0  0  0
 18 34  1  0  0  0  0
 18 35  1  0  0  0  0
 19 36  1  0  0  0  0
 19 37  1  0  0  0  0
M  CHG  1  13   1
M  CHG  1  16  -1
M  END
> <s_m_source_file>
AV-unprocessed.smi

> <i_m_source_file_index>
1385

> <i_lp_mmshare_version>
43012

> <i_f3d_flags>
0

> <s_epik_input>
W0NIM11jMW5uYyhzMSlbTkhdQyg9TylbTkhdW0NIXTJbQ0gyXVtDSDJdTihbQ0gyXVtDSDJdMilbQ0gyXUMoPU8pW05IMl0=

> <s_epik_cmdline>
J2VwaWtfcHl0aG9uJywgJy1waCcsICc3LjAnLCAnLXRuJywgJzgnLCAnLW1hJywgJzIwMCcsICctbWV0YWxfYmluZGluZycsICctaW1hZScsICc8aW5maWxlLm1hZT4nLCAnLW9tYWUnLCAnPG91dGZpbGUubWFlPic=

> <r_lp_tautomer_probability>
1

> <r_epik_Ionization_Penalty>
5.73549

> <r_epik_Ionization_Penalty_Charging>
5.73152

> <r_epik_Ionization_Penalty_Neutral>
0.00396448

> <r_epik_State_Penalty>
6.57436

> <r_epik_Charging_Adjusted_Penalty>
12.3059

> <i_epik_Tot_Q>
0

> <i_epik_Tot_abs_Q>
2

> <r_epik_Metal_State_Penalty>
2.87628

> <b_epik_Metal_Only>
1

> <s_lp_Force_Field>
OPLS_2005

> <r_lp_Energy>
6.46457

> <b_lp_Chiralities_Consistent>
1

> <s_lp_Variant>
AV-unprocessed.smi:1385-8

> <Gold.Version>
5.8.1

> <Gold.Id.Protein>
6NUR|6NUR_protein|mol2

> <Gold.PLP.Fitness>
45.6023

> <Gold.PLP.PLP>
-35.0813

> <Gold.PLP.part.hbond>
-5.5227

> <Gold.PLP.part.metal>
0.0000

> <Gold.PLP.part.buried>
-9.2465

> <Gold.PLP.part.nonpolar>
-21.6788

> <Gold.PLP.part.repulsive>
0.6201

> <Gold.PLP.ligand.clash>
0.0000

> <Gold.PLP.ligand.torsion>
0.6652

> <Gold.PLP.Chemscore.Hbond>
3.9424

> <Gold.PLP.Chemscore.CHOScore>
0.0000

> <Gold.PLP.Chemscore.Metal>
0.0000

> <Gold.Chemscore.Hbonds>
donor molecule, donor type, donor heavy atom, donor atom, acceptor molecule, acceptor atom, score
      L1  H     6    24       P1 10957  1.00
      L1  H    13    38       P1 10747  1.00
      L1  H    16    33       P1 10737  1.00
      P1  H 10995 11001       L1     4  0.09
      P1  H 11000 11005       L1     4  0.46

> <Gold.PLP.Chemscore.Internal.Correction>
0.0242

> <Gold.Rescore>
     Score         DG    S(hbond)    S(metal)    S(lipo)     H(rot)  DE(clash)    DE(int)     intcor
     17.64     -18.85       3.33        0.00      63.61       2.04       0.23       0.97       ----

> <Gold.Chemscore.Fitness>
17.6432

> <Gold.Chemscore.DG>
-18.8466

> <Gold.Chemscore.ZeroCoef>
-5.4800

> <Gold.Chemscore.Hbond>
3.3350

> <Gold.Chemscore.Metal>
0.0000

> <Gold.Chemscore.Lipo>
63.6088

> <Gold.Chemscore.Internal_Hbond>
0.0000

> <Gold.Chemscore.DEClash>
0.2342

> <Gold.Chemscore.DEInternal>
0.9692

> <Gold.Chemscore.Rot>
2.0369

> <Gold.Chemscore.Internal.Correction>
   9.000000E+99

> <Gold.Chemscore.Hbonds>
donor molecule, donor type, donor heavy atom, donor atom, acceptor molecule, acceptor atom, score
      L1  H     6    24       P1 10957  0.91
      L1  H    13    38       P1 10747  1.00
      L1  H    16    33       P1 10737  0.94
      P1  H 10995 11001       L1     4  0.06
      P1  H 11000 11005       L1     4  0.06

> <Gold.Chemscore.Hbond.Weighted>
-11.1388

> <Gold.Chemscore.Metal.Weighted>
-0.0000

> <Gold.Chemscore.Lipo.Weighted>
-7.4422

> <Gold.Chemscore.Internal_Hbond.Weighted>
0.0000

> <Gold.Chemscore.DEClash.Weighted>
0.2342

> <Gold.Chemscore.DEInternal.Weighted>
0.9692

> <Gold.Chemscore.Rot.Weighted>
5.2144

> <Gold.Chemscore.Internal.Correction.Weighted>
   9.000000E+99

> <Gold.Protein.RotatedTorsions>
[ 6907 6896 6895 6894 ] final   11.25 input  -60.11 | X-H torsion
[ 7974 7965 7964 7962 ] final   24.01 input  175.53 | X-H torsion
[ 8008 7997 7996 7995 ] final   84.31 input   59.86 | X-H torsion
[ 10167 10162 10161 10158 ] final   43.56 input  -65.29 | X-H torsion
[ 10718 10713 10712 10709 ] final   10.36 input   66.30 | X-H torsion
[ 10763 10752 10751 10750 ] final -100.90 input  -60.55 | X-H torsion
[ 11005 11000 10999 10996 ] final    7.51 input  -57.11 | X-H torsion

> <Gold.Protein.ActiveResidues>
 VAL166  LYS551  ARG553  GLY616  TRP617  ASP618  TYR619  PRO620  LYS621  CYS622 
 ASP623  PHE694  ASN695  SER759  ASP760  ASP761  ALA762  ILE779  LEU786  VAL792 
 PHE793  MET794  SER795  GLU796  ALA797  LYS798  CYS799  TRP800  GLU811  SER814 

> <Gold.Protein.RotatedAtoms>
  151.7513  135.0832  160.0330 H   0  0  0  0  0  0  0  0  0  0  0  0  # atno 6907 bound_to 6896
  152.3415  133.6068  159.5888 H   0  0  0  0  0  0  0  0  0  0  0  0  # atno 6908 bound_to 6896
  150.7482  133.9631  159.3563 H   0  0  0  0  0  0  0  0  0  0  0  0  # atno 6909 bound_to 6896
  146.1957  139.7664  142.8799 H   0  0  0  0  0  0  0  0  0  0  0  0  # atno 7974 bound_to 7965
  155.9354  140.3412  155.6283 H   0  0  0  0  0  0  0  0  0  0  0  0  # atno 8008 bound_to 7997
  155.7105  140.0771  157.2391 H   0  0  0  0  0  0  0  0  0  0  0  0  # atno 8009 bound_to 7997
  154.4092  140.1623  156.2279 H   0  0  0  0  0  0  0  0  0  0  0  0  # atno 8010 bound_to 7997
  140.3431  144.2445  150.6153 H   0  0  0  0  0  0  0  0  0  0  0  0  # atno 10167 bound_to 10162
  156.9798  130.6001  149.5676 H   0  0  0  0  0  0  0  0  0  0  0  0  # atno 10718 bound_to 10713
  154.7616  135.4918  153.9475 H   0  0  0  0  0  0  0  0  0  0  0  0  # atno 10763 bound_to 10752
  153.1258  135.6742  153.9267 H   0  0  0  0  0  0  0  0  0  0  0  0  # atno 10764 bound_to 10752
  153.8986  135.3112  155.3427 H   0  0  0  0  0  0  0  0  0  0  0  0  # atno 10765 bound_to 10752
  140.5474  134.0316  155.7925 H   0  0  0  0  0  0  0  0  0  0  0  0  # atno 11005 bound_to 11000
  145.3649  141.0332  143.3263 LP  0  0  0  0  0  0  0  0  0  0  0  0  # atno 17320 bound_to 7965
  144.8576  139.5225  143.6827 LP  0  0  0  0  0  0  0  0  0  0  0  0  # atno 17321 bound_to 7965
  140.5290  143.2248  151.8269 LP  0  0  0  0  0  0  0  0  0  0  0  0  # atno 17342 bound_to 10162
  139.4837  144.4744  151.9385 LP  0  0  0  0  0  0  0  0  0  0  0  0  # atno 17343 bound_to 10162
  156.0249  130.5343  150.8378 LP  0  0  0  0  0  0  0  0  0  0  0  0  # atno 17370 bound_to 10713
  157.5534  131.0944  150.9663 LP  0  0  0  0  0  0  0  0  0  0  0  0  # atno 17371 bound_to 10713
  141.1192  133.9490  157.2764 LP  0  0  0  0  0  0  0  0  0  0  0  0  # atno 17394 bound_to 11000
  139.9472  135.0182  156.8889 LP  0  0  0  0  0  0  0  0  0  0  0  0  # atno 17395 bound_to 11000

$$$$
