AV-unprocessed.smi:679|AV-procd|sdf|3320|dock10
  -GOLD-   22720 0283D 1   1.00000     0.00000
 Structure written by MMmdl.
 41 43  0  0  0  0  0  0  0  0  1 V2000
  152.7264  142.9397  162.2865 C   0  0  0  0  0  0  0  0  0  0  0  0
  153.1280  142.1634  161.0307 C   0  0  0  0  0  0  0  0  0  0  0  0
  152.0013  142.0699  160.1764 O   0  0  0  0  0  0  0  0  0  0  0  0
  152.3284  142.2277  158.8048 C   0  0  1  0  0  0  0  0  0  0  0  0
  151.6298  141.2434  157.8621 C   0  0  0  0  0  0  0  0  0  0  0  0
  151.5185  142.4192  156.8891 C   0  0  1  0  0  0  0  0  0  0  0  0
  150.2668  142.4029  156.1397 N   0  0  0  0  0  0  0  0  0  0  0  0
  149.9270  141.4624  155.2462 C   0  0  0  0  0  0  0  0  0  0  0  0
  150.6531  140.5099  154.9601 O   0  0  0  0  0  0  0  0  0  0  0  0
  148.5654  141.6302  154.5665 C   0  0  0  0  0  0  0  0  0  0  0  0
  147.7307  140.4560  154.7436 N   0  0  0  0  0  0  0  0  0  0  0  0
  146.5324  140.1474  154.2436 C   0  0  0  0  0  0  0  0  0  0  0  0
  146.1227  138.9570  154.6551 N   0  0  0  0  0  0  0  0  0  0  0  0
  147.1630  138.5282  155.4627 N   0  0  0  0  0  0  0  0  0  0  0  0
  148.1204  139.4132  155.5185 N   0  0  0  0  0  0  0  0  0  0  0  0
  151.5433  143.3708  158.1143 C   0  0  0  0  0  0  0  0  0  0  0  0
  150.2217  143.8044  158.7630 C   0  0  0  0  0  0  0  0  0  0  0  0
  150.5602  144.9482  159.7218 C   0  0  0  0  0  0  0  0  0  0  0  0
  151.8547  145.5661  159.1827 C   0  0  0  0  0  0  0  0  0  0  0  0
  152.2621  144.7091  157.9792 C   0  0  0  0  0  0  0  0  0  0  0  0
  153.5676  143.0336  162.9734 H   0  0  0  0  0  0  0  0  0  0  0  0
  151.9166  142.4361  162.8149 H   0  0  0  0  0  0  0  0  0  0  0  0
  152.3871  143.9443  162.0328 H   0  0  0  0  0  0  0  0  0  0  0  0
  153.9453  142.6757  160.5210 H   0  0  0  0  0  0  0  0  0  0  0  0
  153.4810  141.1685  161.3053 H   0  0  0  0  0  0  0  0  0  0  0  0
  153.4040  142.2951  158.6238 H   0  0  0  0  0  0  0  0  0  0  0  0
  152.2557  140.4206  157.5162 H   0  0  0  0  0  0  0  0  0  0  0  0
  150.6691  140.8926  158.2435 H   0  0  0  0  0  0  0  0  0  0  0  0
  152.4111  142.5138  156.2658 H   0  0  0  0  0  0  0  0  0  0  0  0
  149.6160  143.1545  156.3162 H   0  0  0  0  0  0  0  0  0  0  0  0
  148.0399  142.5027  154.9586 H   0  0  0  0  0  0  0  0  0  0  0  0
  148.7146  141.7963  153.4990 H   0  0  0  0  0  0  0  0  0  0  0  0
  145.9679  140.7872  153.5816 H   0  0  0  0  0  0  0  0  0  0  0  0
  149.5305  144.1811  158.0087 H   0  0  0  0  0  0  0  0  0  0  0  0
  149.7110  142.9896  159.2774 H   0  0  0  0  0  0  0  0  0  0  0  0
  149.7500  145.6752  159.7857 H   0  0  0  0  0  0  0  0  0  0  0  0
  150.7299  144.5567  160.7256 H   0  0  0  0  0  0  0  0  0  0  0  0
  151.7184  146.6092  158.8956 H   0  0  0  0  0  0  0  0  0  0  0  0
  152.6284  145.5356  159.9508 H   0  0  0  0  0  0  0  0  0  0  0  0
  153.3450  144.5971  157.9208 H   0  0  0  0  0  0  0  0  0  0  0  0
  151.9506  145.2069  157.0603 H   0  0  0  0  0  0  0  0  0  0  0  0
  1  2  1  0  0  0  0
  1 21  1  0  0  0  0
  1 22  1  0  0  0  0
  1 23  1  0  0  0  0
  2  3  1  0  0  0  0
  2 24  1  0  0  0  0
  2 25  1  0  0  0  0
  3  4  1  0  0  0  0
  4 16  1  0  0  0  0
  4  5  1  0  0  0  0
  4 26  1  0  0  0  0
  5  6  1  0  0  0  0
  5 27  1  0  0  0  0
  5 28  1  0  0  0  0
  6  7  1  0  0  0  0
  6 16  1  0  0  0  0
  6 29  1  0  0  0  0
  7  8  1  0  0  0  0
  7 30  1  0  0  0  0
  8  9  2  0  0  0  0
  8 10  1  0  0  0  0
 10 11  1  0  0  0  0
 10 31  1  0  0  0  0
 10 32  1  0  0  0  0
 11 15  1  0  0  0  0
 11 12  1  0  0  0  0
 12 13  2  0  0  0  0
 12 33  1  0  0  0  0
 13 14  1  0  0  0  0
 14 15  2  0  0  0  0
 16 20  1  0  0  0  0
 16 17  1  0  0  0  0
 17 18  1  0  0  0  0
 17 34  1  0  0  0  0
 17 35  1  0  0  0  0
 18 19  1  0  0  0  0
 18 36  1  0  0  0  0
 18 37  1  0  0  0  0
 19 20  1  0  0  0  0
 19 38  1  0  0  0  0
 19 39  1  0  0  0  0
 20 40  1  0  0  0  0
 20 41  1  0  0  0  0
M  END
> <s_m_source_file>
AV-unprocessed.smi

> <i_m_source_file_index>
679

> <i_lp_mmshare_version>
43012

> <i_f3d_flags>
0

> <s_epik_input>
W0NIMl0xW0NIMl1bQ0gyXVtDSDJdQzEyW0NASF0oT1tDSDJdW0NIM10pW0NIMl1bQ0BIXTJbTkhdQyg9TylbQ0gyXW4zW2NIXW5ubjM=

> <s_epik_cmdline>
J2VwaWtfcHl0aG9uJywgJy1waCcsICc3LjAnLCAnLXRuJywgJzgnLCAnLW1hJywgJzIwMCcsICctbWV0YWxfYmluZGluZycsICctaW1hZScsICc8aW5maWxlLm1hZT4nLCAnLW9tYWUnLCAnPG91dGZpbGUubWFlPic=

> <r_lp_tautomer_probability>
1

> <r_epik_Ionization_Penalty>
7.96741e-07

> <r_epik_Ionization_Penalty_Charging>
0

> <r_epik_Ionization_Penalty_Neutral>
7.96741e-07

> <r_epik_State_Penalty>
-0

> <r_epik_Charging_Adjusted_Penalty>
0

> <i_epik_Tot_Q>
0

> <i_epik_Tot_abs_Q>
0

> <r_epik_Metal_State_Penalty>
-0

> <b_epik_Metal_Only>
0

> <s_lp_Force_Field>
OPLS_2005

> <r_lp_Energy>
38.413

> <b_lp_Chiralities_Consistent>
1

> <s_lp_Variant>
AV-unprocessed.smi:679-2

> <Gold.Version>
5.8.1

> <Gold.Id.Protein>
6NUR|6NUR_protein|mol2

> <Gold.PLP.Fitness>
49.2477

> <Gold.PLP.PLP>
-42.5505

> <Gold.PLP.part.hbond>
-2.1142

> <Gold.PLP.part.metal>
0.0000

> <Gold.PLP.part.buried>
-6.0140

> <Gold.PLP.part.nonpolar>
-34.0933

> <Gold.PLP.part.repulsive>
0.2781

> <Gold.PLP.ligand.clash>
0.0000

> <Gold.PLP.ligand.torsion>
1.1080

> <Gold.PLP.Chemscore.Hbond>
1.8640

> <Gold.PLP.Chemscore.CHOScore>
1.0000

> <Gold.PLP.Chemscore.Metal>
0.0000

> <Gold.Chemscore.Hbonds>
donor molecule, donor type, donor heavy atom, donor atom, acceptor molecule, acceptor atom, score
      L1  H     7    30       P1  8028  0.91
      P1  H  7989  7998       L1     9  1.00
      L1  C    12    33       P1 10175  0.95

> <Gold.PLP.Chemscore.Internal.Correction>
0.3212

> <Gold.Rescore>
     Score         DG    S(hbond)    S(metal)    S(lipo)     H(rot)  DE(clash)    DE(int)     intcor
     16.01     -18.02       1.65        0.00     112.81       2.41       0.78       1.22       ----

> <Gold.Chemscore.Fitness>
16.0106

> <Gold.Chemscore.DG>
-18.0174

> <Gold.Chemscore.ZeroCoef>
-5.4800

> <Gold.Chemscore.Hbond>
1.6483

> <Gold.Chemscore.Metal>
0.0000

> <Gold.Chemscore.Lipo>
112.8110

> <Gold.Chemscore.Internal_Hbond>
0.0000

> <Gold.Chemscore.DEClash>
0.7849

> <Gold.Chemscore.DEInternal>
1.2219

> <Gold.Chemscore.Rot>
2.4089

> <Gold.Chemscore.Internal.Correction>
   9.000000E+99

> <Gold.Chemscore.Hbonds>
donor molecule, donor type, donor heavy atom, donor atom, acceptor molecule, acceptor atom, score
      L1  H     7    30       P1  8028  0.90
      P1  H  7989  7998       L1     9  0.71

> <Gold.Chemscore.Hbond.Weighted>
-5.5054

> <Gold.Chemscore.Metal.Weighted>
-0.0000

> <Gold.Chemscore.Lipo.Weighted>
-13.1989

> <Gold.Chemscore.Internal_Hbond.Weighted>
0.0000

> <Gold.Chemscore.DEClash.Weighted>
0.7849

> <Gold.Chemscore.DEInternal.Weighted>
1.2219

> <Gold.Chemscore.Rot.Weighted>
6.1668

> <Gold.Chemscore.Internal.Correction.Weighted>
   9.000000E+99

> <Gold.Protein.RotatedTorsions>
[ 6907 6896 6895 6894 ] final  -77.02 input  -60.11 | X-H torsion
[ 7974 7965 7964 7962 ] final   21.86 input  175.53 | X-H torsion
[ 8008 7997 7996 7995 ] final   50.30 input   59.86 | X-H torsion
[ 10167 10162 10161 10158 ] final -111.30 input  -65.29 | X-H torsion
[ 10718 10713 10712 10709 ] final -173.40 input   66.30 | X-H torsion
[ 10763 10752 10751 10750 ] final  157.56 input  -60.55 | X-H torsion
[ 11005 11000 10999 10996 ] final   96.08 input  -57.11 | X-H torsion

> <Gold.Protein.ActiveResidues>
 VAL166  LYS551  ARG553  GLY616  TRP617  ASP618  TYR619  PRO620  LYS621  CYS622 
 ASP623  PHE694  ASN695  SER759  ASP760  ASP761  ALA762  ILE779  LEU786  VAL792 
 PHE793  MET794  SER795  GLU796  ALA797  LYS798  CYS799  TRP800  GLU811  SER814 

> <Gold.Protein.RotatedAtoms>
  150.7010  134.4485  159.5324 H   0  0  0  0  0  0  0  0  0  0  0  0  # atno 6907 bound_to 6896
  152.2182  134.8435  160.0498 H   0  0  0  0  0  0  0  0  0  0  0  0  # atno 6908 bound_to 6896
  151.9296  133.3572  159.3963 H   0  0  0  0  0  0  0  0  0  0  0  0  # atno 6909 bound_to 6896
  146.2053  139.7967  142.8730 H   0  0  0  0  0  0  0  0  0  0  0  0  # atno 7974 bound_to 7965
  155.4165  140.3444  155.4268 H   0  0  0  0  0  0  0  0  0  0  0  0  # atno 8008 bound_to 7997
  156.1418  140.1544  156.8940 H   0  0  0  0  0  0  0  0  0  0  0  0  # atno 8009 bound_to 7997
  154.4977  140.0823  156.7712 H   0  0  0  0  0  0  0  0  0  0  0  0  # atno 8010 bound_to 7997
  140.1350  143.4327  152.1601 H   0  0  0  0  0  0  0  0  0  0  0  0  # atno 10167 bound_to 10162
  156.7698  130.9444  151.3119 H   0  0  0  0  0  0  0  0  0  0  0  0  # atno 10718 bound_to 10713
  154.2021  135.2790  155.2987 H   0  0  0  0  0  0  0  0  0  0  0  0  # atno 10763 bound_to 10752
  154.5846  135.5579  153.7221 H   0  0  0  0  0  0  0  0  0  0  0  0  # atno 10764 bound_to 10752
  153.0085  135.6353  154.2160 H   0  0  0  0  0  0  0  0  0  0  0  0  # atno 10765 bound_to 10752
  139.8784  134.8932  156.4106 H   0  0  0  0  0  0  0  0  0  0  0  0  # atno 11005 bound_to 11000
  145.3340  141.0273  143.3430 LP  0  0  0  0  0  0  0  0  0  0  0  0  # atno 17320 bound_to 7965
  144.8779  139.4946  143.6737 LP  0  0  0  0  0  0  0  0  0  0  0  0  # atno 17321 bound_to 7965
  139.5500  144.7330  151.4464 LP  0  0  0  0  0  0  0  0  0  0  0  0  # atno 17342 bound_to 10162
  140.6794  143.8116  150.7101 LP  0  0  0  0  0  0  0  0  0  0  0  0  # atno 17343 bound_to 10162
  157.6696  130.9039  150.0010 LP  0  0  0  0  0  0  0  0  0  0  0  0  # atno 17370 bound_to 10713
  156.1285  130.3644  149.9770 LP  0  0  0  0  0  0  0  0  0  0  0  0  # atno 17371 bound_to 10713
  140.9203  133.7649  155.9899 LP  0  0  0  0  0  0  0  0  0  0  0  0  # atno 17394 bound_to 11000
  140.8447  134.3025  157.5300 LP  0  0  0  0  0  0  0  0  0  0  0  0  # atno 17395 bound_to 11000

$$$$
