AV-unprocessed.smi:2156|AV-procd|sdf|8780|dock3
  -GOLD-   2272011563D 1   1.00000     0.00000
 Structure written by MMmdl.
 34 34  0  0  0  0  0  0  0  0  1 V2000
  153.5900  142.0655  162.1872 C   0  0  0  0  0  0  0  0  0  0  0  0
  152.5929  142.9941  161.4858 C   0  0  0  0  0  0  0  0  0  0  0  0
  152.5172  142.7405  159.9701 C   0  0  0  0  0  0  0  0  0  0  0  0
  151.5235  143.6564  159.2276 C   0  0  1  0  0  0  0  0  0  0  0  0
  151.9485  145.1292  159.3045 C   0  0  0  0  0  0  0  0  0  0  0  0
  151.4066  143.2675  157.8230 N   0  0  0  0  0  0  0  0  0  0  0  0
  150.6923  142.2357  157.3461 C   0  0  0  0  0  0  0  0  0  0  0  0
  150.0537  141.4647  158.0636 O   0  0  0  0  0  0  0  0  0  0  0  0
  150.7358  142.0354  155.8246 C   0  0  0  0  0  0  0  0  0  0  0  0
  149.6078  141.2403  155.3180 N   0  0  0  0  0  0  0  0  0  0  0  0
  148.3037  141.6772  155.5032 C   0  0  0  0  0  0  0  0  0  0  0  0
  147.2200  141.0028  155.0507 C   0  0  0  0  0  0  0  0  0  0  0  0
  147.3813  139.7474  154.3250 C   0  0  0  0  0  0  0  0  0  0  0  0
  146.4632  139.0636  153.8779 O   0  0  0  0  0  0  0  0  0  0  0  0
  148.7083  139.3428  154.1568 N   0  0  0  0  0  0  0  0  0  0  0  0
  149.8295  140.0338  154.6189 C   0  0  0  0  0  0  0  0  0  0  0  0
  150.9583  139.5899  154.4115 O   0  0  0  0  0  0  0  0  0  0  0  0
  148.8699  138.4805  153.6573 H   0  0  0  0  0  0  0  0  0  0  0  0
  153.6205  142.2668  163.2582 H   0  0  0  0  0  0  0  0  0  0  0  0
  154.5982  142.2007  161.7946 H   0  0  0  0  0  0  0  0  0  0  0  0
  153.3145  141.0192  162.0529 H   0  0  0  0  0  0  0  0  0  0  0  0
  151.6100  142.8597  161.9377 H   0  0  0  0  0  0  0  0  0  0  0  0
  152.8777  144.0308  161.6692 H   0  0  0  0  0  0  0  0  0  0  0  0
  153.5110  142.8831  159.5436 H   0  0  0  0  0  0  0  0  0  0  0  0
  152.2586  141.6962  159.7892 H   0  0  0  0  0  0  0  0  0  0  0  0
  150.5533  143.5759  159.7212 H   0  0  0  0  0  0  0  0  0  0  0  0
  152.0141  145.4651  160.3397 H   0  0  0  0  0  0  0  0  0  0  0  0
  151.2292  145.7724  158.7965 H   0  0  0  0  0  0  0  0  0  0  0  0
  152.9228  145.2875  158.8409 H   0  0  0  0  0  0  0  0  0  0  0  0
  151.9059  143.8378  157.1559 H   0  0  0  0  0  0  0  0  0  0  0  0
  150.7672  143.0053  155.3237 H   0  0  0  0  0  0  0  0  0  0  0  0
  151.6813  141.5521  155.5740 H   0  0  0  0  0  0  0  0  0  0  0  0
  148.1366  142.6054  156.0310 H   0  0  0  0  0  0  0  0  0  0  0  0
  146.2287  141.3954  155.2253 H   0  0  0  0  0  0  0  0  0  0  0  0
  1  2  1  0  0  0  0
  1 19  1  0  0  0  0
  1 20  1  0  0  0  0
  1 21  1  0  0  0  0
  2  3  1  0  0  0  0
  2 22  1  0  0  0  0
  2 23  1  0  0  0  0
  3  4  1  0  0  0  0
  3 24  1  0  0  0  0
  3 25  1  0  0  0  0
  4  5  1  0  0  0  0
  4  6  1  0  0  0  0
  4 26  1  0  0  0  0
  5 27  1  0  0  0  0
  5 28  1  0  0  0  0
  5 29  1  0  0  0  0
  6  7  1  0  0  0  0
  6 30  1  0  0  0  0
  7  8  2  0  0  0  0
  7  9  1  0  0  0  0
  9 10  1  0  0  0  0
  9 31  1  0  0  0  0
  9 32  1  0  0  0  0
 10 16  1  0  0  0  0
 10 11  1  0  0  0  0
 11 12  2  0  0  0  0
 11 33  1  0  0  0  0
 12 13  1  0  0  0  0
 12 34  1  0  0  0  0
 13 14  2  0  0  0  0
 13 15  1  0  0  0  0
 15 18  1  0  0  0  0
 15 16  1  0  0  0  0
 16 17  2  0  0  0  0
M  END
> <s_m_source_file>
AV-unprocessed.smi

> <i_m_source_file_index>
2156

> <i_lp_mmshare_version>
43012

> <i_f3d_flags>
0

> <s_epik_input>
W0NIM11bQ0gyXVtDSDJdW0NASF0oW0NIM10pW05IXUMoPU8pW0NIMl1uMVtjSF1bY0hdYyg9TylbbkhdYzE9Tw==

> <s_epik_cmdline>
J2VwaWtfcHl0aG9uJywgJy1waCcsICc3LjAnLCAnLXRuJywgJzgnLCAnLW1hJywgJzIwMCcsICctbWV0YWxfYmluZGluZycsICctaW1hZScsICc8aW5maWxlLm1hZT4nLCAnLW9tYWUnLCAnPG91dGZpbGUubWFlPic=

> <r_lp_tautomer_probability>
0.999537

> <r_epik_Ionization_Penalty>
0.00324917

> <r_epik_Ionization_Penalty_Charging>
0.00324916

> <r_epik_Ionization_Penalty_Neutral>
1.93017e-08

> <r_epik_State_Penalty>
0.00229371

> <r_epik_Charging_Adjusted_Penalty>
0.00554286

> <i_epik_Tot_Q>
0

> <i_epik_Tot_abs_Q>
0

> <r_epik_Metal_State_Penalty>
0.364744

> <b_epik_Metal_Only>
0

> <s_lp_Force_Field>
OPLS_2005

> <r_lp_Energy>
3.29576

> <b_lp_Chiralities_Consistent>
1

> <s_lp_Variant>
AV-unprocessed.smi:2156-2

> <Gold.Version>
5.8.1

> <Gold.Id.Protein>
6NUR|6NUR_protein|mol2

> <Gold.PLP.Fitness>
39.3885

> <Gold.PLP.PLP>
-34.5597

> <Gold.PLP.part.hbond>
-1.5121

> <Gold.PLP.part.metal>
0.0000

> <Gold.PLP.part.buried>
-3.4949

> <Gold.PLP.part.nonpolar>
-30.0483

> <Gold.PLP.part.repulsive>
0.3990

> <Gold.PLP.ligand.clash>
0.0000

> <Gold.PLP.ligand.torsion>
0.5934

> <Gold.PLP.Chemscore.Hbond>
1.0000

> <Gold.PLP.Chemscore.CHOScore>
1.0000

> <Gold.PLP.Chemscore.Metal>
0.0000

> <Gold.Chemscore.Hbonds>
donor molecule, donor type, donor heavy atom, donor atom, acceptor molecule, acceptor atom, score
      P1  H  7989  7998       L1    17  1.00
      L1  C    11    33       P1  8028  1.00

> <Gold.PLP.Chemscore.Internal.Correction>
0.0157

> <Gold.Rescore>
     Score         DG    S(hbond)    S(metal)    S(lipo)     H(rot)  DE(clash)    DE(int)     intcor
     10.33     -10.98       0.82        0.00      71.60       2.19       0.07       0.58       ----

> <Gold.Chemscore.Fitness>
10.3298

> <Gold.Chemscore.DG>
-10.9804

> <Gold.Chemscore.ZeroCoef>
-5.4800

> <Gold.Chemscore.Hbond>
0.8210

> <Gold.Chemscore.Metal>
0.0000

> <Gold.Chemscore.Lipo>
71.5981

> <Gold.Chemscore.Internal_Hbond>
0.0000

> <Gold.Chemscore.DEClash>
0.0727

> <Gold.Chemscore.DEInternal>
0.5778

> <Gold.Chemscore.Rot>
2.1949

> <Gold.Chemscore.Internal.Correction>
   9.000000E+99

> <Gold.Chemscore.Hbonds>
donor molecule, donor type, donor heavy atom, donor atom, acceptor molecule, acceptor atom, score
      P1  H  7989  7998       L1    17  0.30

> <Gold.Chemscore.Hbond.Weighted>
-2.7422

> <Gold.Chemscore.Metal.Weighted>
-0.0000

> <Gold.Chemscore.Lipo.Weighted>
-8.3770

> <Gold.Chemscore.Internal_Hbond.Weighted>
0.0000

> <Gold.Chemscore.DEClash.Weighted>
0.0727

> <Gold.Chemscore.DEInternal.Weighted>
0.5778

> <Gold.Chemscore.Rot.Weighted>
5.6188

> <Gold.Chemscore.Internal.Correction.Weighted>
   9.000000E+99

> <Gold.Protein.RotatedTorsions>
[ 6907 6896 6895 6894 ] final   93.67 input  -60.11 | X-H torsion
[ 7974 7965 7964 7962 ] final   14.81 input  175.53 | X-H torsion
[ 8008 7997 7996 7995 ] final  -44.69 input   59.86 | X-H torsion
[ 10167 10162 10161 10158 ] final  112.31 input  -65.29 | X-H torsion
[ 10718 10713 10712 10709 ] final -168.61 input   66.30 | X-H torsion
[ 10763 10752 10751 10750 ] final -124.62 input  -60.55 | X-H torsion
[ 11005 11000 10999 10996 ] final  -48.46 input  -57.11 | X-H torsion

> <Gold.Protein.ActiveResidues>
 VAL166  LYS551  ARG553  GLY616  TRP617  ASP618  TYR619  PRO620  LYS621  CYS622 
 ASP623  PHE694  ASN695  SER759  ASP760  ASP761  ALA762  ILE779  LEU786  VAL792 
 PHE793  MET794  SER795  GLU796  ALA797  LYS798  CYS799  TRP800  GLU811  SER814 

> <Gold.Protein.RotatedAtoms>
  152.5452  134.1313  159.8439 H   0  0  0  0  0  0  0  0  0  0  0  0  # atno 6907 bound_to 6896
  151.1358  133.4998  159.2605 H   0  0  0  0  0  0  0  0  0  0  0  0  # atno 6908 bound_to 6896
  151.1626  135.0290  159.8771 H   0  0  0  0  0  0  0  0  0  0  0  0  # atno 6909 bound_to 6896
  146.2295  139.8986  142.8543 H   0  0  0  0  0  0  0  0  0  0  0  0  # atno 7974 bound_to 7965
  154.3998  140.1416  156.3724 H   0  0  0  0  0  0  0  0  0  0  0  0  # atno 8008 bound_to 7997
  155.8080  140.3474  155.5420 H   0  0  0  0  0  0  0  0  0  0  0  0  # atno 8009 bound_to 7997
  155.8415  140.0927  157.1722 H   0  0  0  0  0  0  0  0  0  0  0  0  # atno 8010 bound_to 7997
  139.6545  144.7129  151.1983 H   0  0  0  0  0  0  0  0  0  0  0  0  # atno 10167 bound_to 10162
  156.6994  130.9191  151.3078 H   0  0  0  0  0  0  0  0  0  0  0  0  # atno 10718 bound_to 10713
  154.8725  135.4057  154.3135 H   0  0  0  0  0  0  0  0  0  0  0  0  # atno 10763 bound_to 10752
  153.3975  135.7017  153.6456 H   0  0  0  0  0  0  0  0  0  0  0  0  # atno 10764 bound_to 10752
  153.5212  135.3687  155.2604 H   0  0  0  0  0  0  0  0  0  0  0  0  # atno 10765 bound_to 10752
  141.0702  133.6681  156.3444 H   0  0  0  0  0  0  0  0  0  0  0  0  # atno 11005 bound_to 11000
  145.2346  140.9986  143.3971 LP  0  0  0  0  0  0  0  0  0  0  0  0  # atno 17320 bound_to 7965
  144.9502  139.4091  143.6406 LP  0  0  0  0  0  0  0  0  0  0  0  0  # atno 17321 bound_to 7965
  140.7553  143.6095  150.8620 LP  0  0  0  0  0  0  0  0  0  0  0  0  # atno 17342 bound_to 10162
  139.9746  143.6018  152.2962 LP  0  0  0  0  0  0  0  0  0  0  0  0  # atno 17343 bound_to 10162
  157.6979  130.9301  150.0697 LP  0  0  0  0  0  0  0  0  0  0  0  0  # atno 17370 bound_to 10713
  156.1739  130.3647  149.9127 LP  0  0  0  0  0  0  0  0  0  0  0  0  # atno 17371 bound_to 10713
  140.5690  134.5859  157.5453 LP  0  0  0  0  0  0  0  0  0  0  0  0  # atno 17394 bound_to 11000
  139.9516  134.7608  156.0436 LP  0  0  0  0  0  0  0  0  0  0  0  0  # atno 17395 bound_to 11000

$$$$
