AV-unprocessed.smi:3247|AV-procd|sdf|12412|dock6
  -GOLD-   2272018293D 1   1.00000     0.00000
 Structure written by MMmdl.
 35 36  0  0  0  0  0  0  0  0  1 V2000
  151.9414  139.8715  154.5528 O   0  0  0  0  0  0  0  0  0  0  0  0
  151.4503  139.6504  155.6596 C   0  0  0  0  0  0  0  0  0  0  0  0
  151.6270  140.6596  156.7917 C   0  0  0  0  0  0  0  0  0  0  0  0
  152.6727  140.2132  157.6430 O   0  0  0  0  0  0  0  0  0  0  0  0
  152.5025  140.5867  159.0025 C   0  0  0  0  0  0  0  0  0  0  0  0
  152.6651  142.0968  159.1644 C   0  0  0  0  0  0  0  0  0  0  0  0
  152.9877  142.2930  160.6487 C   0  0  0  0  0  0  0  0  0  0  0  0
  153.6351  140.9814  161.1215 C   0  0  0  0  0  0  0  0  0  0  0  0
  153.5813  140.0176  159.9294 C   0  0  0  0  0  0  0  0  0  0  0  0
  150.7572  138.5397  155.9536 N   0  0  0  0  0  0  0  0  0  0  0  0
  150.4781  137.4512  155.0240 C   0  0  0  0  0  0  0  0  0  0  0  0
  149.5801  136.3756  155.6579 C   0  0  0  0  0  0  0  0  0  0  0  0
  149.1457  135.3426  154.6628 C   0  0  0  0  0  0  0  0  0  0  0  0
  148.5550  135.5721  153.4432 C   0  0  0  0  0  0  0  0  0  0  0  0
  148.2016  134.0889  152.5969 S   0  0  0  0  0  0  0  0  0  0  0  0
  148.8794  133.2083  153.9559 C   0  0  0  0  0  0  0  0  0  0  0  0
  149.3240  133.9837  154.9454 N   0  0  0  0  0  0  0  0  0  0  0  0
  151.8673  141.6353  156.3664 H   0  0  0  0  0  0  0  0  0  0  0  0
  150.6911  140.7566  157.3437 H   0  0  0  0  0  0  0  0  0  0  0  0
  151.5117  140.2985  159.3588 H   0  0  0  0  0  0  0  0  0  0  0  0
  153.5067  142.4427  158.5624 H   0  0  0  0  0  0  0  0  0  0  0  0
  151.7815  142.6516  158.8479 H   0  0  0  0  0  0  0  0  0  0  0  0
  153.6375  143.1538  160.8091 H   0  0  0  0  0  0  0  0  0  0  0  0
  152.0681  142.4696  161.2080 H   0  0  0  0  0  0  0  0  0  0  0  0
  154.6624  141.1346  161.4536 H   0  0  0  0  0  0  0  0  0  0  0  0
  153.0768  140.5753  161.9661 H   0  0  0  0  0  0  0  0  0  0  0  0
  153.3763  138.9909  160.2339 H   0  0  0  0  0  0  0  0  0  0  0  0
  154.5443  140.0238  159.4168 H   0  0  0  0  0  0  0  0  0  0  0  0
  150.3893  138.4473  156.8895 H   0  0  0  0  0  0  0  0  0  0  0  0
  149.9869  137.8772  154.1487 H   0  0  0  0  0  0  0  0  0  0  0  0
  151.4127  137.0107  154.6726 H   0  0  0  0  0  0  0  0  0  0  0  0
  150.1092  135.8930  156.4805 H   0  0  0  0  0  0  0  0  0  0  0  0
  148.7051  136.8494  156.1050 H   0  0  0  0  0  0  0  0  0  0  0  0
  148.3055  136.5219  152.9937 H   0  0  0  0  0  0  0  0  0  0  0  0
  148.9488  132.1326  154.0249 H   0  0  0  0  0  0  0  0  0  0  0  0
  1  2  2  0  0  0  0
  2  3  1  0  0  0  0
  2 10  1  0  0  0  0
  3  4  1  0  0  0  0
  3 18  1  0  0  0  0
  3 19  1  0  0  0  0
  4  5  1  0  0  0  0
  5  9  1  0  0  0  0
  5  6  1  0  0  0  0
  5 20  1  0  0  0  0
  6  7  1  0  0  0  0
  6 21  1  0  0  0  0
  6 22  1  0  0  0  0
  7  8  1  0  0  0  0
  7 23  1  0  0  0  0
  7 24  1  0  0  0  0
  8  9  1  0  0  0  0
  8 25  1  0  0  0  0
  8 26  1  0  0  0  0
  9 27  1  0  0  0  0
  9 28  1  0  0  0  0
 10 11  1  0  0  0  0
 10 29  1  0  0  0  0
 11 12  1  0  0  0  0
 11 30  1  0  0  0  0
 11 31  1  0  0  0  0
 12 13  1  0  0  0  0
 12 32  1  0  0  0  0
 12 33  1  0  0  0  0
 13 17  1  0  0  0  0
 13 14  2  0  0  0  0
 14 15  1  0  0  0  0
 14 34  1  0  0  0  0
 15 16  1  0  0  0  0
 16 17  2  0  0  0  0
 16 35  1  0  0  0  0
M  END
> <s_m_source_file>
AV-unprocessed.smi

> <i_m_source_file_index>
3247

> <i_lp_mmshare_version>
43012

> <i_f3d_flags>
0

> <s_epik_input>
W0NIMl0xW0NIMl1bQ0gyXVtDSDJdW0NIXTFPW0NIMl1DKD1PKVtOSF1bQ0gyXVtDSDJdYzJbY0hdc1tjSF1uMg==

> <s_epik_cmdline>
J2VwaWtfcHl0aG9uJywgJy1waCcsICc3LjAnLCAnLXRuJywgJzgnLCAnLW1hJywgJzIwMCcsICctbWV0YWxfYmluZGluZycsICctaW1hZScsICc8aW5maWxlLm1hZT4nLCAnLW9tYWUnLCAnPG91dGZpbGUubWFlPic=

> <r_lp_tautomer_probability>
1

> <r_epik_Ionization_Penalty>
0.00018119

> <r_epik_Ionization_Penalty_Charging>
0

> <r_epik_Ionization_Penalty_Neutral>
0.00018119

> <r_epik_State_Penalty>
-0

> <r_epik_Charging_Adjusted_Penalty>
0

> <i_epik_Tot_Q>
0

> <i_epik_Tot_abs_Q>
0

> <r_epik_Metal_State_Penalty>
-0

> <b_epik_Metal_Only>
0

> <s_lp_Force_Field>
OPLS_2005

> <r_lp_Energy>
17.1434

> <b_lp_Chiralities_Consistent>
1

> <s_lp_Variant>
AV-unprocessed.smi:3247-1

> <Gold.Version>
5.8.1

> <Gold.Id.Protein>
6NUR|6NUR_protein|mol2

> <Gold.PLP.Fitness>
41.2699

> <Gold.PLP.PLP>
-33.4303

> <Gold.PLP.part.hbond>
-2.0000

> <Gold.PLP.part.metal>
0.0000

> <Gold.PLP.part.buried>
-3.1154

> <Gold.PLP.part.nonpolar>
-28.0521

> <Gold.PLP.part.repulsive>
0.0988

> <Gold.PLP.ligand.clash>
0.0000

> <Gold.PLP.ligand.torsion>
0.5878

> <Gold.PLP.Chemscore.Hbond>
1.9920

> <Gold.PLP.Chemscore.CHOScore>
1.0000

> <Gold.PLP.Chemscore.Metal>
0.0000

> <Gold.Chemscore.Hbonds>
donor molecule, donor type, donor heavy atom, donor atom, acceptor molecule, acceptor atom, score
      P1  H  7989  7998       L1     1  0.77
      P1  H  7997  8008       L1     4  1.00

> <Gold.PLP.Chemscore.Internal.Correction>
0.0391

> <Gold.Rescore>
     Score         DG    S(hbond)    S(metal)    S(lipo)     H(rot)  DE(clash)    DE(int)     intcor
     16.39     -17.13       1.76        0.00      88.32       1.78       0.07       0.68       ----

> <Gold.Chemscore.Fitness>
16.3862

> <Gold.Chemscore.DG>
-17.1306

> <Gold.Chemscore.ZeroCoef>
-5.4800

> <Gold.Chemscore.Hbond>
1.7604

> <Gold.Chemscore.Metal>
0.0000

> <Gold.Chemscore.Lipo>
88.3225

> <Gold.Chemscore.Internal_Hbond>
0.0000

> <Gold.Chemscore.DEClash>
0.0687

> <Gold.Chemscore.DEInternal>
0.6757

> <Gold.Chemscore.Rot>
1.7824

> <Gold.Chemscore.Internal.Correction>
   9.000000E+99

> <Gold.Chemscore.Hbonds>
donor molecule, donor type, donor heavy atom, donor atom, acceptor molecule, acceptor atom, score
      P1  H  7989  7998       L1     1  0.72
      P1  H  7997  8008       L1     4  0.82

> <Gold.Chemscore.Hbond.Weighted>
-5.8797

> <Gold.Chemscore.Metal.Weighted>
-0.0000

> <Gold.Chemscore.Lipo.Weighted>
-10.3337

> <Gold.Chemscore.Internal_Hbond.Weighted>
0.0000

> <Gold.Chemscore.DEClash.Weighted>
0.0687

> <Gold.Chemscore.DEInternal.Weighted>
0.6757

> <Gold.Chemscore.Rot.Weighted>
4.5629

> <Gold.Chemscore.Internal.Correction.Weighted>
   9.000000E+99

> <Gold.Protein.RotatedTorsions>
[ 6907 6896 6895 6894 ] final  135.08 input  -60.11 | X-H torsion
[ 7974 7965 7964 7962 ] final -113.69 input  175.53 | X-H torsion
[ 8008 7997 7996 7995 ] final  -66.91 input   59.86 | X-H torsion
[ 10167 10162 10161 10158 ] final -106.33 input  -65.29 | X-H torsion
[ 10718 10713 10712 10709 ] final  177.68 input   66.30 | X-H torsion
[ 10763 10752 10751 10750 ] final -142.97 input  -60.55 | X-H torsion
[ 11005 11000 10999 10996 ] final  174.15 input  -57.11 | X-H torsion

> <Gold.Protein.ActiveResidues>
 VAL166  LYS551  ARG553  GLY616  TRP617  ASP618  TYR619  PRO620  LYS621  CYS622 
 ASP623  PHE694  ASN695  SER759  ASP760  ASP761  ALA762  ILE779  LEU786  VAL792 
 PHE793  MET794  SER795  GLU796  ALA797  LYS798  CYS799  TRP800  GLU811  SER814 

> <Gold.Protein.RotatedAtoms>
  152.3043  133.5687  159.5638 H   0  0  0  0  0  0  0  0  0  0  0  0  # atno 6907 bound_to 6896
  150.7292  134.0245  159.3721 H   0  0  0  0  0  0  0  0  0  0  0  0  # atno 6908 bound_to 6896
  151.8143  135.0672  160.0468 H   0  0  0  0  0  0  0  0  0  0  0  0  # atno 6909 bound_to 6896
  145.1290  140.8713  143.3769 H   0  0  0  0  0  0  0  0  0  0  0  0  # atno 7974 bound_to 7965
  154.4765  140.0903  156.7275 H   0  0  0  0  0  0  0  0  0  0  0  0  # atno 8008 bound_to 7997
  155.4582  140.3460  155.4291 H   0  0  0  0  0  0  0  0  0  0  0  0  # atno 8009 bound_to 7997
  156.1125  140.1451  156.9307 H   0  0  0  0  0  0  0  0  0  0  0  0  # atno 8010 bound_to 7997
  140.1890  143.3907  152.1222 H   0  0  0  0  0  0  0  0  0  0  0  0  # atno 10167 bound_to 10162
  156.9017  130.9881  151.3034 H   0  0  0  0  0  0  0  0  0  0  0  0  # atno 10718 bound_to 10713
  154.8488  135.3481  154.6113 H   0  0  0  0  0  0  0  0  0  0  0  0  # atno 10763 bound_to 10752
  153.6722  135.6984  153.5148 H   0  0  0  0  0  0  0  0  0  0  0  0  # atno 10764 bound_to 10752
  153.2733  135.4286  155.0966 H   0  0  0  0  0  0  0  0  0  0  0  0  # atno 10765 bound_to 10752
  140.3482  134.7218  157.4249 H   0  0  0  0  0  0  0  0  0  0  0  0  # atno 11005 bound_to 11000
  145.0656  139.3071  143.5858 LP  0  0  0  0  0  0  0  0  0  0  0  0  # atno 17320 bound_to 7965
  146.3515  140.0113  142.8667 LP  0  0  0  0  0  0  0  0  0  0  0  0  # atno 17321 bound_to 7965
  139.5264  144.7107  151.5214 LP  0  0  0  0  0  0  0  0  0  0  0  0  # atno 17342 bound_to 10162
  140.6469  143.8776  150.6746 LP  0  0  0  0  0  0  0  0  0  0  0  0  # atno 17343 bound_to 10162
  157.6022  130.8521  149.8819 LP  0  0  0  0  0  0  0  0  0  0  0  0  # atno 17370 bound_to 10713
  156.0579  130.3705  150.1050 LP  0  0  0  0  0  0  0  0  0  0  0  0  # atno 17371 bound_to 10713
  140.0725  134.5843  155.8627 LP  0  0  0  0  0  0  0  0  0  0  0  0  # atno 17394 bound_to 11000
  141.2019  133.6622  156.5979 LP  0  0  0  0  0  0  0  0  0  0  0  0  # atno 17395 bound_to 11000

$$$$
